MODEL 1
REMARK VINA RESULT:    -4.616      0.000      0.000
REMARK INTER + INTRA:          -6.567
REMARK INTER:                  -6.235
REMARK INTRA:                  -0.333
REMARK UNBOUND:                -0.333
REMARK SMILES CCCCCCCC(=O)[O-]
REMARK SMILES IDX 5 1 6 2 7 3 8 4 9 5 10 6 4 7 3 8 2 9 1 10
REMARK H PARENT
REMARK Flexibility Score: inf
ROOT
ATOM      1  C   UNL     1      30.289  -5.442 -14.351  1.00  0.00     0.000 C 
ENDROOT
BRANCH   1   2
ATOM      2  C   UNL     1      30.120  -5.721 -12.846  1.00  0.00     0.006 C 
BRANCH   2   3
ATOM      3  C   UNL     1      31.209  -5.099 -11.958  1.00  0.00     0.053 C 
BRANCH   3   4
ATOM      4  C   UNL     1      32.160  -6.129 -11.431  1.00  0.00     0.041 C 
ATOM      5  O   UNL     1      32.535  -7.080 -12.166  1.00  0.00    -0.550 OA
ATOM      6  O   UNL     1      32.656  -6.020 -10.139  1.00  0.00    -0.550 OA
ENDBRANCH   3   4
ENDBRANCH   2   3
ENDBRANCH   1   2
BRANCH   1   7
ATOM      7  C   UNL     1      29.964  -6.667 -15.223  1.00  0.00     0.000 C 
BRANCH   7   8
ATOM      8  C   UNL     1      29.886  -7.968 -14.407  1.00  0.00    -0.000 C 
BRANCH   8   9
ATOM      9  C   UNL     1      29.548  -9.190 -15.271  1.00  0.00    -0.003 C 
ATOM     10  C   UNL     1      30.307  -9.153 -16.595  1.00  0.00     0.004 C 
ENDBRANCH   8   9
ENDBRANCH   7   8
ENDBRANCH   1   7
TORSDOF 6
ENDMDL
MODEL 2
REMARK VINA RESULT:    -4.559      3.139      5.175
REMARK INTER + INTRA:          -6.491
REMARK INTER:                  -6.238
REMARK INTRA:                  -0.253
REMARK UNBOUND:                -0.333
REMARK SMILES CCCCCCCC(=O)[O-]
REMARK SMILES IDX 5 1 6 2 7 3 8 4 9 5 10 6 4 7 3 8 2 9 1 10
REMARK H PARENT
REMARK Flexibility Score: inf
ROOT
ATOM      1  C   UNL     1      29.269  -6.374 -13.523  1.00  0.00     0.000 C 
ENDROOT
BRANCH   1   2
ATOM      2  C   UNL     1      29.634  -6.949 -14.904  1.00  0.00     0.006 C 
BRANCH   2   3
ATOM      3  C   UNL     1      29.713  -8.483 -14.953  1.00  0.00     0.053 C 
BRANCH   3   4
ATOM      4  C   UNL     1      29.646  -9.005 -16.355  1.00  0.00     0.041 C 
ATOM      5  O   UNL     1      30.655  -9.543 -16.881  1.00  0.00    -0.550 OA
ATOM      6  O   UNL     1      28.457  -8.924 -17.070  1.00  0.00    -0.550 OA
ENDBRANCH   3   4
ENDBRANCH   2   3
ENDBRANCH   1   2
BRANCH   1   7
ATOM      7  C   UNL     1      29.992  -5.050 -13.220  1.00  0.00     0.000 C 
BRANCH   7   8
ATOM      8  C   UNL     1      30.915  -5.149 -11.994  1.00  0.00    -0.000 C 
BRANCH   8   9
ATOM      9  C   UNL     1      31.933  -6.292 -12.110  1.00  0.00    -0.003 C 
ATOM     10  C   UNL     1      32.656  -6.519 -10.785  1.00  0.00     0.004 C 
ENDBRANCH   8   9
ENDBRANCH   7   8
ENDBRANCH   1   7
TORSDOF 6
ENDMDL
MODEL 3
REMARK VINA RESULT:    -4.492      2.432      4.738
REMARK INTER + INTRA:          -6.400
REMARK INTER:                  -6.147
REMARK INTRA:                  -0.253
REMARK UNBOUND:                -0.333
REMARK SMILES CCCCCCCC(=O)[O-]
REMARK SMILES IDX 5 1 6 2 7 3 8 4 9 5 10 6 4 7 3 8 2 9 1 10
REMARK H PARENT
REMARK Flexibility Score: inf
ROOT
ATOM      1  C   UNL     1      29.940  -5.049 -13.568  1.00  0.00     0.000 C 
ENDROOT
BRANCH   1   2
ATOM      2  C   UNL     1      29.210  -6.328 -14.018  1.00  0.00     0.006 C 
BRANCH   2   3
ATOM      3  C   UNL     1      29.683  -6.888 -15.368  1.00  0.00     0.053 C 
BRANCH   3   4
ATOM      4  C   UNL     1      29.868  -8.374 -15.326  1.00  0.00     0.041 C 
ATOM      5  O   UNL     1      29.620  -9.014 -14.270  1.00  0.00    -0.550 OA
ATOM      6  O   UNL     1      30.284  -9.055 -16.462  1.00  0.00    -0.550 OA
ENDBRANCH   3   4
ENDBRANCH   2   3
ENDBRANCH   1   2
BRANCH   1   7
ATOM      7  C   UNL     1      30.812  -5.270 -12.320  1.00  0.00     0.000 C 
BRANCH   7   8
ATOM      8  C   UNL     1      31.465  -6.662 -12.296  1.00  0.00    -0.000 C 
BRANCH   8   9
ATOM      9  C   UNL     1      32.803  -6.676 -11.543  1.00  0.00    -0.003 C 
ATOM     10  C   UNL     1      32.634  -6.164 -10.115  1.00  0.00     0.004 C 
ENDBRANCH   8   9
ENDBRANCH   7   8
ENDBRANCH   1   7
TORSDOF 6
ENDMDL
MODEL 4
REMARK VINA RESULT:    -4.298      1.170      1.554
REMARK INTER + INTRA:          -6.138
REMARK INTER:                  -6.070
REMARK INTRA:                  -0.068
REMARK UNBOUND:                -0.333
REMARK SMILES CCCCCCCC(=O)[O-]
REMARK SMILES IDX 5 1 6 2 7 3 8 4 9 5 10 6 4 7 3 8 2 9 1 10
REMARK H PARENT
REMARK Flexibility Score: inf
ROOT
ATOM      1  C   UNL     1      30.361  -5.589 -12.993  1.00  0.00     0.000 C 
ENDROOT
BRANCH   1   2
ATOM      2  C   UNL     1      31.104  -6.789 -12.378  1.00  0.00     0.006 C 
BRANCH   2   3
ATOM      3  C   UNL     1      32.550  -6.490 -11.952  1.00  0.00     0.053 C 
BRANCH   3   4
ATOM      4  C   UNL     1      32.655  -6.191 -10.488  1.00  0.00     0.041 C 
ATOM      5  O   UNL     1      31.962  -5.272  -9.978  1.00  0.00    -0.550 OA
ATOM      6  O   UNL     1      33.494  -6.950  -9.682  1.00  0.00    -0.550 OA
ENDBRANCH   3   4
ENDBRANCH   2   3
ENDBRANCH   1   2
BRANCH   1   7
ATOM      7  C   UNL     1      29.358  -6.006 -14.082  1.00  0.00     0.000 C 
BRANCH   7   8
ATOM      8  C   UNL     1      30.002  -6.875 -15.175  1.00  0.00    -0.000 C 
BRANCH   8   9
ATOM      9  C   UNL     1      29.734  -8.373 -14.976  1.00  0.00    -0.003 C 
ATOM     10  C   UNL     1      29.954  -9.147 -16.272  1.00  0.00     0.004 C 
ENDBRANCH   8   9
ENDBRANCH   7   8
ENDBRANCH   1   7
TORSDOF 6
ENDMDL
MODEL 5
REMARK VINA RESULT:    -3.815      4.231      5.103
REMARK INTER + INTRA:          -5.486
REMARK INTER:                  -5.343
REMARK INTRA:                  -0.143
REMARK UNBOUND:                -0.333
REMARK SMILES CCCCCCCC(=O)[O-]
REMARK SMILES IDX 5 1 6 2 7 3 8 4 9 5 10 6 4 7 3 8 2 9 1 10
REMARK H PARENT
REMARK Flexibility Score: inf
ROOT
ATOM      1  C   UNL     1      31.821  -5.171 -16.491  1.00  0.00     0.000 C 
ENDROOT
BRANCH   1   2
ATOM      2  C   UNL     1      33.309  -5.568 -16.471  1.00  0.00     0.006 C 
BRANCH   2   3
ATOM      3  C   UNL     1      34.082  -5.198 -17.746  1.00  0.00     0.053 C 
BRANCH   3   4
ATOM      4  C   UNL     1      35.563  -5.197 -17.524  1.00  0.00     0.041 C 
ATOM      5  O   UNL     1      36.221  -4.129 -17.634  1.00  0.00    -0.550 OA
ATOM      6  O   UNL     1      36.212  -6.371 -17.164  1.00  0.00    -0.550 OA
ENDBRANCH   3   4
ENDBRANCH   2   3
ENDBRANCH   1   2
BRANCH   1   7
ATOM      7  C   UNL     1      31.076  -5.591 -15.211  1.00  0.00     0.000 C 
BRANCH   7   8
ATOM      8  C   UNL     1      29.955  -6.607 -15.488  1.00  0.00    -0.000 C 
BRANCH   8   9
ATOM      9  C   UNL     1      29.951  -7.771 -14.487  1.00  0.00    -0.003 C 
ATOM     10  C   UNL     1      29.490  -7.306 -13.108  1.00  0.00     0.004 C 
ENDBRANCH   8   9
ENDBRANCH   7   8
ENDBRANCH   1   7
TORSDOF 6
ENDMDL
MODEL 6
REMARK VINA RESULT:    -3.722      2.344      3.280
REMARK INTER + INTRA:          -5.361
REMARK INTER:                  -5.132
REMARK INTRA:                  -0.228
REMARK UNBOUND:                -0.333
REMARK SMILES CCCCCCCC(=O)[O-]
REMARK SMILES IDX 5 1 6 2 7 3 8 4 9 5 10 6 4 7 3 8 2 9 1 10
REMARK H PARENT
REMARK Flexibility Score: inf
ROOT
ATOM      1  C   UNL     1      29.880  -8.796 -14.724  1.00  0.00     0.000 C 
ENDROOT
BRANCH   1   2
ATOM      2  C   UNL     1      29.563  -7.763 -13.628  1.00  0.00     0.006 C 
BRANCH   2   3
ATOM      3  C   UNL     1      29.064  -6.409 -14.156  1.00  0.00     0.053 C 
BRANCH   3   4
ATOM      4  C   UNL     1      30.085  -5.327 -13.980  1.00  0.00     0.041 C 
ATOM      5  O   UNL     1      30.774  -4.939 -14.960  1.00  0.00    -0.550 OA
ATOM      6  O   UNL     1      30.253  -4.725 -12.739  1.00  0.00    -0.550 OA
ENDBRANCH   3   4
ENDBRANCH   2   3
ENDBRANCH   1   2
BRANCH   1   7
ATOM      7  C   UNL     1      29.569  -8.276 -16.139  1.00  0.00     0.000 C 
BRANCH   7   8
ATOM      8  C   UNL     1      28.705  -9.256 -16.950  1.00  0.00    -0.000 C 
BRANCH   8   9
ATOM      9  C   UNL     1      28.768  -8.989 -18.461  1.00  0.00    -0.003 C 
ATOM     10  C   UNL     1      27.422  -9.272 -19.124  1.00  0.00     0.004 C 
ENDBRANCH   8   9
ENDBRANCH   7   8
ENDBRANCH   1   7
TORSDOF 6
ENDMDL
MODEL 7
REMARK VINA RESULT:    -3.615      2.381      4.547
REMARK INTER + INTRA:          -5.216
REMARK INTER:                  -4.984
REMARK INTRA:                  -0.232
REMARK UNBOUND:                -0.333
REMARK SMILES CCCCCCCC(=O)[O-]
REMARK SMILES IDX 5 1 6 2 7 3 8 4 9 5 10 6 4 7 3 8 2 9 1 10
REMARK H PARENT
REMARK Flexibility Score: inf
ROOT
ATOM      1  C   UNL     1      29.258  -7.699 -13.166  1.00  0.00     0.000 C 
ENDROOT
BRANCH   1   2
ATOM      2  C   UNL     1      30.065  -7.865 -14.467  1.00  0.00     0.006 C 
BRANCH   2   3
ATOM      3  C   UNL     1      29.790  -6.786 -15.527  1.00  0.00     0.053 C 
BRANCH   3   4
ATOM      4  C   UNL     1      30.626  -5.562 -15.313  1.00  0.00     0.041 C 
ATOM      5  O   UNL     1      30.296  -4.713 -14.445  1.00  0.00    -0.550 OA
ATOM      6  O   UNL     1      31.788  -5.377 -16.051  1.00  0.00    -0.550 OA
ENDBRANCH   3   4
ENDBRANCH   2   3
ENDBRANCH   1   2
BRANCH   1   7
ATOM      7  C   UNL     1      30.113  -7.177 -11.998  1.00  0.00     0.000 C 
BRANCH   7   8
ATOM      8  C   UNL     1      31.602  -7.057 -12.366  1.00  0.00    -0.000 C 
BRANCH   8   9
ATOM      9  C   UNL     1      32.301  -5.902 -11.634  1.00  0.00    -0.003 C 
ATOM     10  C   UNL     1      32.727  -6.320 -10.230  1.00  0.00     0.004 C 
ENDBRANCH   8   9
ENDBRANCH   7   8
ENDBRANCH   1   7
TORSDOF 6
ENDMDL
MODEL 8
REMARK VINA RESULT:    -3.495      4.498      5.413
REMARK INTER + INTRA:          -5.054
REMARK INTER:                  -4.879
REMARK INTRA:                  -0.175
REMARK UNBOUND:                -0.333
REMARK SMILES CCCCCCCC(=O)[O-]
REMARK SMILES IDX 5 1 6 2 7 3 8 4 9 5 10 6 4 7 3 8 2 9 1 10
REMARK H PARENT
REMARK Flexibility Score: inf
ROOT
ATOM      1  C   UNL     1      33.116  -5.505 -16.275  1.00  0.00     0.000 C 
ENDROOT
BRANCH   1   2
ATOM      2  C   UNL     1      31.577  -5.503 -16.327  1.00  0.00     0.006 C 
BRANCH   2   3
ATOM      3  C   UNL     1      30.896  -5.355 -14.958  1.00  0.00     0.053 C 
BRANCH   3   4
ATOM      4  C   UNL     1      29.887  -6.435 -14.712  1.00  0.00     0.041 C 
ATOM      5  O   UNL     1      28.950  -6.253 -13.892  1.00  0.00    -0.550 OA
ATOM      6  O   UNL     1      29.966  -7.631 -15.414  1.00  0.00    -0.550 OA
ENDBRANCH   3   4
ENDBRANCH   2   3
ENDBRANCH   1   2
BRANCH   1   7
ATOM      7  C   UNL     1      33.757  -5.132 -17.623  1.00  0.00     0.000 C 
BRANCH   7   8
ATOM      8  C   UNL     1      35.206  -5.632 -17.746  1.00  0.00    -0.000 C 
BRANCH   8   9
ATOM      9  C   UNL     1      36.036  -5.358 -16.484  1.00  0.00    -0.003 C 
ATOM     10  C   UNL     1      37.464  -5.872 -16.645  1.00  0.00     0.004 C 
ENDBRANCH   8   9
ENDBRANCH   7   8
ENDBRANCH   1   7
TORSDOF 6
ENDMDL
MODEL 9
REMARK VINA RESULT:    -3.250      1.495      2.076
REMARK INTER + INTRA:          -4.722
REMARK INTER:                  -4.391
REMARK INTRA:                  -0.331
REMARK UNBOUND:                -0.333
REMARK SMILES CCCCCCCC(=O)[O-]
REMARK SMILES IDX 5 1 6 2 7 3 8 4 9 5 10 6 4 7 3 8 2 9 1 10
REMARK H PARENT
REMARK Flexibility Score: inf
ROOT
ATOM      1  C   UNL     1      29.711  -6.615 -12.726  1.00  0.00     0.000 C 
ENDROOT
BRANCH   1   2
ATOM      2  C   UNL     1      30.821  -5.671 -12.227  1.00  0.00     0.006 C 
BRANCH   2   3
ATOM      3  C   UNL     1      32.193  -6.340 -12.052  1.00  0.00     0.053 C 
BRANCH   3   4
ATOM      4  C   UNL     1      32.652  -6.317 -10.627  1.00  0.00     0.041 C 
ATOM      5  O   UNL     1      33.496  -7.157 -10.218  1.00  0.00    -0.550 OA
ATOM      6  O   UNL     1      32.171  -5.346  -9.758  1.00  0.00    -0.550 OA
ENDBRANCH   3   4
ENDBRANCH   2   3
ENDBRANCH   1   2
BRANCH   1   7
ATOM      7  C   UNL     1      29.117  -6.172 -14.075  1.00  0.00     0.000 C 
BRANCH   7   8
ATOM      8  C   UNL     1      29.510  -7.111 -15.228  1.00  0.00    -0.000 C 
BRANCH   8   9
ATOM      9  C   UNL     1      30.837  -6.714 -15.889  1.00  0.00    -0.003 C 
ATOM     10  C   UNL     1      31.124  -5.228 -15.694  1.00  0.00     0.004 C 
ENDBRANCH   8   9
ENDBRANCH   7   8
ENDBRANCH   1   7
TORSDOF 6
ENDMDL
