MODEL 1
REMARK VINA RESULT:    -4.157      0.000      0.000
REMARK INTER + INTRA:          -5.688
REMARK INTER:                  -5.616
REMARK INTRA:                  -0.073
REMARK UNBOUND:                -0.073
REMARK SMILES [NH3+]CCCC[C@@H]([NH3+])C(=O)[O-]
REMARK SMILES IDX 4 1 3 2 2 3 1 4 5 8 6 9 7 10 8 14 9 15 10 16
REMARK H PARENT 1 5 1 6 1 7 7 11 7 12 7 13
REMARK Flexibility Score: inf
ROOT
ATOM      1  C   UNL     1      25.785   6.500  11.140  1.00  0.00     0.012 C 
ENDROOT
BRANCH   1   2
ATOM      2  C   UNL     1      25.131   6.387   9.758  1.00  0.00     0.061 C 
BRANCH   2   3
ATOM      3  C   UNL     1      25.846   5.341   8.893  1.00  0.00     0.258 C 
BRANCH   3   4
ATOM      4  N   UNL     1      25.029   4.969   7.738  1.00  0.00    -0.358 N 
ATOM      5  H   UNL     1      24.729   5.837   7.239  1.00  0.00     0.344 HD
ATOM      6  H   UNL     1      25.585   4.376   7.080  1.00  0.00     0.344 HD
ATOM      7  H   UNL     1      24.179   4.448   8.053  1.00  0.00     0.344 HD
ENDBRANCH   3   4
ENDBRANCH   2   3
ENDBRANCH   1   2
BRANCH   1   8
ATOM      8  C   UNL     1      24.786   6.144  12.253  1.00  0.00     0.072 C 
BRANCH   8   9
ATOM      9  C   UNL     1      25.185   6.758  13.613  1.00  0.00     0.227 C 
BRANCH   9  10
ATOM     10  N   UNL     1      24.140   7.673  14.089  1.00  0.00    -0.350 N 
ATOM     11  H   UNL     1      24.050   7.623  15.129  1.00  0.00     0.345 HD
ATOM     12  H   UNL     1      23.223   7.420  13.654  1.00  0.00     0.345 HD
ATOM     13  H   UNL     1      24.373   8.654  13.810  1.00  0.00     0.345 HD
ENDBRANCH   9  10
BRANCH   9  14
ATOM     14  C   UNL     1      25.441   5.685  14.641  1.00  0.00     0.099 C 
ATOM     15  O   UNL     1      26.575   5.572  15.177  1.00  0.00    -0.544 OA
ATOM     16  O   UNL     1      24.420   4.820  15.009  1.00  0.00    -0.544 OA
ENDBRANCH   9  14
ENDBRANCH   8   9
ENDBRANCH   1   8
TORSDOF 7
ENDMDL
MODEL 2
REMARK VINA RESULT:    -4.094      4.040      4.832
REMARK INTER + INTRA:          -5.603
REMARK INTER:                  -5.463
REMARK INTRA:                  -0.140
REMARK UNBOUND:                -0.073
REMARK SMILES [NH3+]CCCC[C@@H]([NH3+])C(=O)[O-]
REMARK SMILES IDX 4 1 3 2 2 3 1 4 5 8 6 9 7 10 8 14 9 15 10 16
REMARK H PARENT 1 5 1 6 1 7 7 11 7 12 7 13
REMARK Flexibility Score: inf
ROOT
ATOM      1  C   UNL     1      23.124   6.261  14.748  1.00  0.00     0.012 C 
ENDROOT
BRANCH   1   2
ATOM      2  C   UNL     1      23.726   7.616  14.359  1.00  0.00     0.061 C 
BRANCH   2   3
ATOM      3  C   UNL     1      22.812   8.770  14.791  1.00  0.00     0.258 C 
BRANCH   3   4
ATOM      4  N   UNL     1      23.537  10.041  14.788  1.00  0.00    -0.358 N 
ATOM      5  H   UNL     1      24.554   9.854  14.941  1.00  0.00     0.344 HD
ATOM      6  H   UNL     1      23.416  10.520  13.867  1.00  0.00     0.344 HD
ATOM      7  H   UNL     1      23.186  10.656  15.557  1.00  0.00     0.344 HD
ENDBRANCH   3   4
ENDBRANCH   2   3
ENDBRANCH   1   2
BRANCH   1   8
ATOM      8  C   UNL     1      24.105   5.116  14.448  1.00  0.00     0.072 C 
BRANCH   8   9
ATOM      9  C   UNL     1      24.511   4.345  15.724  1.00  0.00     0.227 C 
BRANCH   9  10
ATOM     10  N   UNL     1      24.412   2.898  15.502  1.00  0.00    -0.350 N 
ATOM     11  H   UNL     1      24.107   2.693  14.523  1.00  0.00     0.345 HD
ATOM     12  H   UNL     1      23.721   2.483  16.169  1.00  0.00     0.345 HD
ATOM     13  H   UNL     1      25.340   2.448  15.675  1.00  0.00     0.345 HD
ENDBRANCH   9  10
BRANCH   9  14
ATOM     14  C   UNL     1      25.908   4.709  16.159  1.00  0.00     0.099 C 
ATOM     15  O   UNL     1      26.687   5.307  15.370  1.00  0.00    -0.544 OA
ATOM     16  O   UNL     1      26.339   4.394  17.440  1.00  0.00    -0.544 OA
ENDBRANCH   9  14
ENDBRANCH   8   9
ENDBRANCH   1   8
TORSDOF 7
ENDMDL
MODEL 3
REMARK VINA RESULT:    -3.937      1.859      2.149
REMARK INTER + INTRA:          -5.391
REMARK INTER:                  -5.301
REMARK INTRA:                  -0.090
REMARK UNBOUND:                -0.073
REMARK SMILES [NH3+]CCCC[C@@H]([NH3+])C(=O)[O-]
REMARK SMILES IDX 4 1 3 2 2 3 1 4 5 8 6 9 7 10 8 14 9 15 10 16
REMARK H PARENT 1 5 1 6 1 7 7 11 7 12 7 13
REMARK Flexibility Score: inf
ROOT
ATOM      1  C   UNL     1      24.828   6.232  11.280  1.00  0.00     0.012 C 
ENDROOT
BRANCH   1   2
ATOM      2  C   UNL     1      25.948   6.471  10.261  1.00  0.00     0.061 C 
BRANCH   2   3
ATOM      3  C   UNL     1      26.217   5.208   9.432  1.00  0.00     0.258 C 
BRANCH   3   4
ATOM      4  N   UNL     1      25.373   5.177   8.237  1.00  0.00    -0.358 N 
ATOM      5  H   UNL     1      25.508   6.065   7.701  1.00  0.00     0.344 HD
ATOM      6  H   UNL     1      25.642   4.371   7.628  1.00  0.00     0.344 HD
ATOM      7  H   UNL     1      24.367   5.095   8.510  1.00  0.00     0.344 HD
ENDBRANCH   3   4
ENDBRANCH   2   3
ENDBRANCH   1   2
BRANCH   1   8
ATOM      8  C   UNL     1      25.275   6.639  12.694  1.00  0.00     0.072 C 
BRANCH   8   9
ATOM      9  C   UNL     1      24.534   5.842  13.792  1.00  0.00     0.227 C 
BRANCH   9  10
ATOM     10  N   UNL     1      25.482   5.358  14.802  1.00  0.00    -0.350 N 
ATOM     11  H   UNL     1      26.131   6.124  15.098  1.00  0.00     0.345 HD
ATOM     12  H   UNL     1      26.044   4.567  14.411  1.00  0.00     0.345 HD
ATOM     13  H   UNL     1      24.962   5.005  15.638  1.00  0.00     0.345 HD
ENDBRANCH   9  10
BRANCH   9  14
ATOM     14  C   UNL     1      23.464   6.680  14.444  1.00  0.00     0.099 C 
ATOM     15  O   UNL     1      22.456   6.135  14.967  1.00  0.00    -0.544 OA
ATOM     16  O   UNL     1      23.591   8.062  14.480  1.00  0.00    -0.544 OA
ENDBRANCH   9  14
ENDBRANCH   8   9
ENDBRANCH   1   8
TORSDOF 7
ENDMDL
MODEL 4
REMARK VINA RESULT:    -3.909      3.786      4.845
REMARK INTER + INTRA:          -5.353
REMARK INTER:                  -5.176
REMARK INTRA:                  -0.177
REMARK UNBOUND:                -0.073
REMARK SMILES [NH3+]CCCC[C@@H]([NH3+])C(=O)[O-]
REMARK SMILES IDX 4 1 3 2 2 3 1 4 5 8 6 9 7 10 8 14 9 15 10 16
REMARK H PARENT 1 5 1 6 1 7 7 11 7 12 7 13
REMARK Flexibility Score: inf
ROOT
ATOM      1  C   UNL     1      24.275   6.177  14.044  1.00  0.00     0.012 C 
ENDROOT
BRANCH   1   2
ATOM      2  C   UNL     1      22.880   6.625  14.495  1.00  0.00     0.061 C 
BRANCH   2   3
ATOM      3  C   UNL     1      22.837   8.140  14.730  1.00  0.00     0.258 C 
BRANCH   3   4
ATOM      4  N   UNL     1      24.092   8.770  14.316  1.00  0.00    -0.358 N 
ATOM      5  H   UNL     1      24.892   8.242  14.732  1.00  0.00     0.344 HD
ATOM      6  H   UNL     1      24.178   8.748  13.274  1.00  0.00     0.344 HD
ATOM      7  H   UNL     1      24.125   9.759  14.653  1.00  0.00     0.344 HD
ENDBRANCH   3   4
ENDBRANCH   2   3
ENDBRANCH   1   2
BRANCH   1   8
ATOM      8  C   UNL     1      24.812   5.055  14.947  1.00  0.00     0.072 C 
BRANCH   8   9
ATOM      9  C   UNL     1      23.677   4.274  15.646  1.00  0.00     0.227 C 
BRANCH   9  10
ATOM     10  N   UNL     1      23.605   2.902  15.131  1.00  0.00    -0.350 N 
ATOM     11  H   UNL     1      22.702   2.741  14.630  1.00  0.00     0.345 HD
ATOM     12  H   UNL     1      23.682   2.222  15.923  1.00  0.00     0.345 HD
ATOM     13  H   UNL     1      24.400   2.727  14.474  1.00  0.00     0.345 HD
ENDBRANCH   9  10
BRANCH   9  14
ATOM     14  C   UNL     1      23.869   4.257  17.142  1.00  0.00     0.099 C 
ATOM     15  O   UNL     1      22.875   4.268  17.914  1.00  0.00    -0.544 OA
ATOM     16  O   UNL     1      25.150   4.220  17.676  1.00  0.00    -0.544 OA
ENDBRANCH   9  14
ENDBRANCH   8   9
ENDBRANCH   1   8
TORSDOF 7
ENDMDL
MODEL 5
REMARK VINA RESULT:    -3.894      2.774      3.638
REMARK INTER + INTRA:          -5.332
REMARK INTER:                  -5.255
REMARK INTRA:                  -0.077
REMARK UNBOUND:                -0.073
REMARK SMILES [NH3+]CCCC[C@@H]([NH3+])C(=O)[O-]
REMARK SMILES IDX 4 1 3 2 2 3 1 4 5 8 6 9 7 10 8 14 9 15 10 16
REMARK H PARENT 1 5 1 6 1 7 7 11 7 12 7 13
REMARK Flexibility Score: inf
ROOT
ATOM      1  C   UNL     1      24.271   6.143  14.038  1.00  0.00     0.012 C 
ENDROOT
BRANCH   1   2
ATOM      2  C   UNL     1      25.383   6.685  13.133  1.00  0.00     0.061 C 
BRANCH   2   3
ATOM      3  C   UNL     1      25.103   6.358  11.660  1.00  0.00     0.258 C 
BRANCH   3   4
ATOM      4  N   UNL     1      26.296   5.813  11.010  1.00  0.00    -0.358 N 
ATOM      5  H   UNL     1      26.568   6.437  10.216  1.00  0.00     0.344 HD
ATOM      6  H   UNL     1      27.088   5.768  11.691  1.00  0.00     0.344 HD
ATOM      7  H   UNL     1      26.096   4.857  10.637  1.00  0.00     0.344 HD
ENDBRANCH   3   4
ENDBRANCH   2   3
ENDBRANCH   1   2
BRANCH   1   8
ATOM      8  C   UNL     1      24.797   5.016  14.941  1.00  0.00     0.072 C 
BRANCH   8   9
ATOM      9  C   UNL     1      23.654   4.248  15.642  1.00  0.00     0.227 C 
BRANCH   9  10
ATOM     10  N   UNL     1      23.580   2.871  15.142  1.00  0.00    -0.350 N 
ATOM     11  H   UNL     1      22.647   2.684  14.706  1.00  0.00     0.345 HD
ATOM     12  H   UNL     1      23.729   2.198  15.930  1.00  0.00     0.345 HD
ATOM     13  H   UNL     1      24.331   2.709  14.431  1.00  0.00     0.345 HD
ENDBRANCH   9  10
BRANCH   9  14
ATOM     14  C   UNL     1      23.835   4.247  17.139  1.00  0.00     0.099 C 
ATOM     15  O   UNL     1      22.836   4.280  17.904  1.00  0.00    -0.544 OA
ATOM     16  O   UNL     1      25.113   4.201  17.682  1.00  0.00    -0.544 OA
ENDBRANCH   9  14
ENDBRANCH   8   9
ENDBRANCH   1   8
TORSDOF 7
ENDMDL
MODEL 6
REMARK VINA RESULT:    -3.880      2.935      4.948
REMARK INTER + INTRA:          -5.314
REMARK INTER:                  -4.914
REMARK INTRA:                  -0.400
REMARK UNBOUND:                -0.073
REMARK SMILES [NH3+]CCCC[C@@H]([NH3+])C(=O)[O-]
REMARK SMILES IDX 4 1 3 2 2 3 1 4 5 8 6 9 7 10 8 14 9 15 10 16
REMARK H PARENT 1 5 1 6 1 7 7 11 7 12 7 13
REMARK Flexibility Score: inf
ROOT
ATOM      1  C   UNL     1      22.513   5.868  15.217  1.00  0.00     0.012 C 
ENDROOT
BRANCH   1   2
ATOM      2  C   UNL     1      23.307   4.562  15.328  1.00  0.00     0.061 C 
BRANCH   2   3
ATOM      3  C   UNL     1      23.693   4.273  16.785  1.00  0.00     0.258 C 
BRANCH   3   4
ATOM      4  N   UNL     1      25.115   3.945  16.894  1.00  0.00    -0.358 N 
ATOM      5  H   UNL     1      25.311   3.592  17.858  1.00  0.00     0.344 HD
ATOM      6  H   UNL     1      25.366   3.201  16.204  1.00  0.00     0.344 HD
ATOM      7  H   UNL     1      25.694   4.799  16.721  1.00  0.00     0.344 HD
ENDBRANCH   3   4
ENDBRANCH   2   3
ENDBRANCH   1   2
BRANCH   1   8
ATOM      8  C   UNL     1      23.263   6.896  14.354  1.00  0.00     0.072 C 
BRANCH   8   9
ATOM      9  C   UNL     1      24.480   6.276  13.633  1.00  0.00     0.227 C 
BRANCH   9  10
ATOM     10  N   UNL     1      24.463   6.624  12.207  1.00  0.00    -0.350 N 
ATOM     11  H   UNL     1      24.206   5.793  11.626  1.00  0.00     0.345 HD
ATOM     12  H   UNL     1      25.407   6.966  11.914  1.00  0.00     0.345 HD
ATOM     13  H   UNL     1      23.772   7.391  12.036  1.00  0.00     0.345 HD
ENDBRANCH   9  10
BRANCH   9  14
ATOM     14  C   UNL     1      25.774   6.728  14.261  1.00  0.00     0.099 C 
ATOM     15  O   UNL     1      26.148   7.926  14.163  1.00  0.00    -0.544 OA
ATOM     16  O   UNL     1      26.557   5.821  14.963  1.00  0.00    -0.544 OA
ENDBRANCH   9  14
ENDBRANCH   8   9
ENDBRANCH   1   8
TORSDOF 7
ENDMDL
MODEL 7
REMARK VINA RESULT:    -3.863      3.653      6.032
REMARK INTER + INTRA:          -5.291
REMARK INTER:                  -5.169
REMARK INTRA:                  -0.122
REMARK UNBOUND:                -0.073
REMARK SMILES [NH3+]CCCC[C@@H]([NH3+])C(=O)[O-]
REMARK SMILES IDX 4 1 3 2 2 3 1 4 5 8 6 9 7 10 8 14 9 15 10 16
REMARK H PARENT 1 5 1 6 1 7 7 11 7 12 7 13
REMARK Flexibility Score: inf
ROOT
ATOM      1  C   UNL     1      25.524   4.674  15.690  1.00  0.00     0.012 C 
ENDROOT
BRANCH   1   2
ATOM      2  C   UNL     1      24.994   4.310  17.081  1.00  0.00     0.061 C 
BRANCH   2   3
ATOM      3  C   UNL     1      26.127   4.292  18.116  1.00  0.00     0.258 C 
BRANCH   3   4
ATOM      4  N   UNL     1      25.592   4.279  19.478  1.00  0.00    -0.358 N 
ATOM      5  H   UNL     1      25.862   5.167  19.960  1.00  0.00     0.344 HD
ATOM      6  H   UNL     1      24.549   4.212  19.453  1.00  0.00     0.344 HD
ATOM      7  H   UNL     1      25.987   3.471  20.011  1.00  0.00     0.344 HD
ENDBRANCH   3   4
ENDBRANCH   2   3
ENDBRANCH   1   2
BRANCH   1   8
ATOM      8  C   UNL     1      24.369   4.864  14.693  1.00  0.00     0.072 C 
BRANCH   8   9
ATOM      9  C   UNL     1      24.223   6.334  14.243  1.00  0.00     0.227 C 
BRANCH   9  10
ATOM     10  N   UNL     1      24.324   6.436  12.783  1.00  0.00    -0.350 N 
ATOM     11  H   UNL     1      23.630   7.125  12.410  1.00  0.00     0.345 HD
ATOM     12  H   UNL     1      24.142   5.501  12.349  1.00  0.00     0.345 HD
ATOM     13  H   UNL     1      25.288   6.738  12.513  1.00  0.00     0.345 HD
ENDBRANCH   9  10
BRANCH   9  14
ATOM     14  C   UNL     1      22.916   6.921  14.714  1.00  0.00     0.099 C 
ATOM     15  O   UNL     1      21.985   6.172  15.111  1.00  0.00    -0.544 OA
ATOM     16  O   UNL     1      22.738   8.298  14.722  1.00  0.00    -0.544 OA
ENDBRANCH   9  14
ENDBRANCH   8   9
ENDBRANCH   1   8
TORSDOF 7
ENDMDL
MODEL 8
REMARK VINA RESULT:    -3.833      3.599      5.548
REMARK INTER + INTRA:          -5.250
REMARK INTER:                  -5.105
REMARK INTRA:                  -0.145
REMARK UNBOUND:                -0.073
REMARK SMILES [NH3+]CCCC[C@@H]([NH3+])C(=O)[O-]
REMARK SMILES IDX 4 1 3 2 2 3 1 4 5 8 6 9 7 10 8 14 9 15 10 16
REMARK H PARENT 1 5 1 6 1 7 7 11 7 12 7 13
REMARK Flexibility Score: inf
ROOT
ATOM      1  C   UNL     1      24.103   4.275  15.145  1.00  0.00     0.012 C 
ENDROOT
BRANCH   1   2
ATOM      2  C   UNL     1      25.167   4.061  16.227  1.00  0.00     0.061 C 
BRANCH   2   3
ATOM      3  C   UNL     1      24.573   4.245  17.630  1.00  0.00     0.258 C 
BRANCH   3   4
ATOM      4  N   UNL     1      25.506   3.783  18.658  1.00  0.00    -0.358 N 
ATOM      5  H   UNL     1      26.484   3.876  18.299  1.00  0.00     0.344 HD
ATOM      6  H   UNL     1      25.407   4.365  19.521  1.00  0.00     0.344 HD
ATOM      7  H   UNL     1      25.322   2.779  18.885  1.00  0.00     0.344 HD
ENDBRANCH   3   4
ENDBRANCH   2   3
ENDBRANCH   1   2
BRANCH   1   8
ATOM      8  C   UNL     1      23.263   5.529  15.439  1.00  0.00     0.072 C 
BRANCH   8   9
ATOM      9  C   UNL     1      23.197   6.485  14.228  1.00  0.00     0.227 C 
BRANCH   9  10
ATOM     10  N   UNL     1      22.652   7.786  14.631  1.00  0.00    -0.350 N 
ATOM     11  H   UNL     1      23.350   8.323  15.195  1.00  0.00     0.345 HD
ATOM     12  H   UNL     1      21.787   7.646  15.203  1.00  0.00     0.345 HD
ATOM     13  H   UNL     1      22.394   8.342  13.783  1.00  0.00     0.345 HD
ENDBRANCH   9  10
BRANCH   9  14
ATOM     14  C   UNL     1      24.557   6.664  13.601  1.00  0.00     0.099 C 
ATOM     15  O   UNL     1      25.489   7.215  14.244  1.00  0.00    -0.544 OA
ATOM     16  O   UNL     1      24.790   6.211  12.310  1.00  0.00    -0.544 OA
ENDBRANCH   9  14
ENDBRANCH   8   9
ENDBRANCH   1   8
TORSDOF 7
ENDMDL
MODEL 9
REMARK VINA RESULT:    -3.612      3.674      4.345
REMARK INTER + INTRA:          -4.952
REMARK INTER:                  -4.884
REMARK INTRA:                  -0.067
REMARK UNBOUND:                -0.073
REMARK SMILES [NH3+]CCCC[C@@H]([NH3+])C(=O)[O-]
REMARK SMILES IDX 4 1 3 2 2 3 1 4 5 8 6 9 7 10 8 14 9 15 10 16
REMARK H PARENT 1 5 1 6 1 7 7 11 7 12 7 13
REMARK Flexibility Score: inf
ROOT
ATOM      1  C   UNL     1      25.808   6.771  14.081  1.00  0.00     0.012 C 
ENDROOT
BRANCH   1   2
ATOM      2  C   UNL     1      25.760   8.302  14.018  1.00  0.00     0.061 C 
BRANCH   2   3
ATOM      3  C   UNL     1      26.988   8.920  14.698  1.00  0.00     0.258 C 
BRANCH   3   4
ATOM      4  N   UNL     1      27.876   7.881  15.220  1.00  0.00    -0.358 N 
ATOM      5  H   UNL     1      28.849   8.062  14.884  1.00  0.00     0.344 HD
ATOM      6  H   UNL     1      27.872   7.896  16.266  1.00  0.00     0.344 HD
ATOM      7  H   UNL     1      27.569   6.941  14.878  1.00  0.00     0.344 HD
ENDBRANCH   3   4
ENDBRANCH   2   3
ENDBRANCH   1   2
BRANCH   1   8
ATOM      8  C   UNL     1      24.413   6.166  13.855  1.00  0.00     0.072 C 
BRANCH   8   9
ATOM      9  C   UNL     1      23.803   5.601  15.157  1.00  0.00     0.227 C 
BRANCH   9  10
ATOM     10  N   UNL     1      22.345   5.492  15.035  1.00  0.00    -0.350 N 
ATOM     11  H   UNL     1      21.936   5.025  15.878  1.00  0.00     0.345 HD
ATOM     12  H   UNL     1      22.101   4.933  14.184  1.00  0.00     0.345 HD
ATOM     13  H   UNL     1      21.924   6.444  14.931  1.00  0.00     0.345 HD
ENDBRANCH   9  10
BRANCH   9  14
ATOM     14  C   UNL     1      24.397   4.257  15.498  1.00  0.00     0.099 C 
ATOM     15  O   UNL     1      23.837   3.196  15.117  1.00  0.00    -0.544 OA
ATOM     16  O   UNL     1      25.576   4.186  16.228  1.00  0.00    -0.544 OA
ENDBRANCH   9  14
ENDBRANCH   8   9
ENDBRANCH   1   8
TORSDOF 7
ENDMDL
