MODEL 1
REMARK VINA RESULT:    -4.728      0.000      0.000
REMARK INTER + INTRA:          -7.006
REMARK INTER:                  -6.663
REMARK INTRA:                  -0.343
REMARK UNBOUND:                -0.343
REMARK SMILES CCCCCCCCC(=O)[O-]
REMARK SMILES IDX 6 1 7 2 8 3 9 4 10 5 11 6 5 7 4 8 3 9 2 10 1 11
REMARK H PARENT
REMARK Flexibility Score: inf
ROOT
ATOM      1  C   UNL     1     159.799 145.382 152.901  1.00  0.00     0.000 C 
ENDROOT
BRANCH   1   2
ATOM      2  C   UNL     1     159.778 145.707 154.405  1.00  0.00     0.006 C 
BRANCH   2   3
ATOM      3  C   UNL     1     160.913 146.644 154.858  1.00  0.00     0.053 C 
BRANCH   3   4
ATOM      4  C   UNL     1     160.431 148.027 155.175  1.00  0.00     0.041 C 
ATOM      5  O   UNL     1     160.941 148.677 156.125  1.00  0.00    -0.550 OA
ATOM      6  O   UNL     1     159.440 148.614 154.396  1.00  0.00    -0.550 OA
ENDBRANCH   3   4
ENDBRANCH   2   3
ENDBRANCH   1   2
BRANCH   1   7
ATOM      7  C   UNL     1     158.411 145.460 152.247  1.00  0.00     0.000 C 
BRANCH   7   8
ATOM      8  C   UNL     1     158.512 145.979 150.805  1.00  0.00    -0.000 C 
BRANCH   8   9
ATOM      9  C   UNL     1     157.526 145.281 149.854  1.00  0.00    -0.000 C 
BRANCH   9  10
ATOM     10  C   UNL     1     158.191 144.178 149.019  1.00  0.00    -0.003 C 
ATOM     11  C   UNL     1     159.680 144.453 148.832  1.00  0.00     0.004 C 
ENDBRANCH   9  10
ENDBRANCH   8   9
ENDBRANCH   7   8
ENDBRANCH   1   7
TORSDOF 7
ENDMDL
MODEL 2
REMARK VINA RESULT:    -4.473      3.605      6.216
REMARK INTER + INTRA:          -6.646
REMARK INTER:                  -6.330
REMARK INTRA:                  -0.315
REMARK UNBOUND:                -0.343
REMARK SMILES CCCCCCCCC(=O)[O-]
REMARK SMILES IDX 6 1 7 2 8 3 9 4 10 5 11 6 5 7 4 8 3 9 2 10 1 11
REMARK H PARENT
REMARK Flexibility Score: inf
ROOT
ATOM      1  C   UNL     1     158.305 145.751 152.255  1.00  0.00     0.000 C 
ENDROOT
BRANCH   1   2
ATOM      2  C   UNL     1     159.354 144.940 151.474  1.00  0.00     0.006 C 
BRANCH   2   3
ATOM      3  C   UNL     1     159.597 145.447 150.041  1.00  0.00     0.053 C 
BRANCH   3   4
ATOM      4  C   UNL     1     159.128 144.480 148.997  1.00  0.00     0.041 C 
ATOM      5  O   UNL     1     157.920 144.129 148.952  1.00  0.00    -0.550 OA
ATOM      6  O   UNL     1     160.020 143.994 148.048  1.00  0.00    -0.550 OA
ENDBRANCH   3   4
ENDBRANCH   2   3
ENDBRANCH   1   2
BRANCH   1   7
ATOM      7  C   UNL     1     158.909 146.567 153.408  1.00  0.00     0.000 C 
BRANCH   7   8
ATOM      8  C   UNL     1     160.082 145.817 154.056  1.00  0.00    -0.000 C 
BRANCH   8   9
ATOM      9  C   UNL     1     160.562 146.479 155.357  1.00  0.00    -0.000 C 
BRANCH   9  10
ATOM     10  C   UNL     1     160.382 148.004 155.346  1.00  0.00    -0.003 C 
ATOM     11  C   UNL     1     161.497 148.694 156.125  1.00  0.00     0.004 C 
ENDBRANCH   9  10
ENDBRANCH   8   9
ENDBRANCH   7   8
ENDBRANCH   1   7
TORSDOF 7
ENDMDL
MODEL 3
REMARK VINA RESULT:    -4.423      0.942      1.816
REMARK INTER + INTRA:          -6.575
REMARK INTER:                  -6.265
REMARK INTRA:                  -0.310
REMARK UNBOUND:                -0.343
REMARK SMILES CCCCCCCCC(=O)[O-]
REMARK SMILES IDX 6 1 7 2 8 3 9 4 10 5 11 6 5 7 4 8 3 9 2 10 1 11
REMARK H PARENT
REMARK Flexibility Score: inf
ROOT
ATOM      1  C   UNL     1     159.236 145.387 153.179  1.00  0.00     0.000 C 
ENDROOT
BRANCH   1   2
ATOM      2  C   UNL     1     159.638 145.738 154.623  1.00  0.00     0.006 C 
BRANCH   2   3
ATOM      3  C   UNL     1     160.944 146.546 154.730  1.00  0.00     0.053 C 
BRANCH   3   4
ATOM      4  C   UNL     1     160.711 147.975 155.118  1.00  0.00     0.041 C 
ATOM      5  O   UNL     1     159.725 148.607 154.655  1.00  0.00    -0.550 OA
ATOM      6  O   UNL     1     161.563 148.599 156.021  1.00  0.00    -0.550 OA
ENDBRANCH   3   4
ENDBRANCH   2   3
ENDBRANCH   1   2
BRANCH   1   7
ATOM      7  C   UNL     1     160.433 145.008 152.295  1.00  0.00     0.000 C 
BRANCH   7   8
ATOM      8  C   UNL     1     159.965 144.344 150.991  1.00  0.00    -0.000 C 
BRANCH   8   9
ATOM      9  C   UNL     1     159.748 145.357 149.855  1.00  0.00    -0.000 C 
BRANCH   9  10
ATOM     10  C   UNL     1     158.344 145.978 149.877  1.00  0.00    -0.003 C 
ATOM     11  C   UNL     1     157.268 144.907 149.737  1.00  0.00     0.004 C 
ENDBRANCH   9  10
ENDBRANCH   8   9
ENDBRANCH   7   8
ENDBRANCH   1   7
TORSDOF 7
ENDMDL
MODEL 4
REMARK VINA RESULT:    -2.572     15.578     16.783
REMARK INTER + INTRA:          -3.967
REMARK INTER:                  -3.292
REMARK INTRA:                  -0.675
REMARK UNBOUND:                -0.343
REMARK SMILES CCCCCCCCC(=O)[O-]
REMARK SMILES IDX 6 1 7 2 8 3 9 4 10 5 11 6 5 7 4 8 3 9 2 10 1 11
REMARK H PARENT
REMARK Flexibility Score: inf
ROOT
ATOM      1  C   UNL     1     146.259 149.795 143.161  1.00  0.00     0.000 C 
ENDROOT
BRANCH   1   2
ATOM      2  C   UNL     1     144.750 149.719 143.456  1.00  0.00     0.006 C 
BRANCH   2   3
ATOM      3  C   UNL     1     144.414 149.435 144.930  1.00  0.00     0.053 C 
BRANCH   3   4
ATOM      4  C   UNL     1     144.410 150.674 145.773  1.00  0.00     0.041 C 
ATOM      5  O   UNL     1     143.843 151.721 145.362  1.00  0.00    -0.550 OA
ATOM      6  O   UNL     1     145.002 150.662 147.030  1.00  0.00    -0.550 OA
ENDBRANCH   3   4
ENDBRANCH   2   3
ENDBRANCH   1   2
BRANCH   1   7
ATOM      7  C   UNL     1     146.618 149.359 141.734  1.00  0.00     0.000 C 
BRANCH   7   8
ATOM      8  C   UNL     1     146.854 147.843 141.665  1.00  0.00    -0.000 C 
BRANCH   8   9
ATOM      9  C   UNL     1     147.610 147.305 142.891  1.00  0.00    -0.000 C 
BRANCH   9  10
ATOM     10  C   UNL     1     147.065 145.953 143.375  1.00  0.00    -0.003 C 
ATOM     11  C   UNL     1     145.598 146.065 143.779  1.00  0.00     0.004 C 
ENDBRANCH   9  10
ENDBRANCH   8   9
ENDBRANCH   7   8
ENDBRANCH   1   7
TORSDOF 7
ENDMDL
MODEL 5
REMARK VINA RESULT:    -2.571     14.712     15.913
REMARK INTER + INTRA:          -3.966
REMARK INTER:                  -3.420
REMARK INTRA:                  -0.546
REMARK UNBOUND:                -0.343
REMARK SMILES CCCCCCCCC(=O)[O-]
REMARK SMILES IDX 6 1 7 2 8 3 9 4 10 5 11 6 5 7 4 8 3 9 2 10 1 11
REMARK H PARENT
REMARK Flexibility Score: inf
ROOT
ATOM      1  C   UNL     1     144.290 151.404 153.329  1.00  0.00     0.000 C 
ENDROOT
BRANCH   1   2
ATOM      2  C   UNL     1     144.714 150.630 152.068  1.00  0.00     0.006 C 
BRANCH   2   3
ATOM      3  C   UNL     1     145.066 151.529 150.870  1.00  0.00     0.053 C 
BRANCH   3   4
ATOM      4  C   UNL     1     145.666 150.765 149.729  1.00  0.00     0.041 C 
ATOM      5  O   UNL     1     145.779 151.301 148.595  1.00  0.00    -0.550 OA
ATOM      6  O   UNL     1     146.133 149.472 149.927  1.00  0.00    -0.550 OA
ENDBRANCH   3   4
ENDBRANCH   2   3
ENDBRANCH   1   2
BRANCH   1   7
ATOM      7  C   UNL     1     145.049 150.966 154.590  1.00  0.00     0.000 C 
BRANCH   7   8
ATOM      8  C   UNL     1     146.117 152.000 154.977  1.00  0.00    -0.000 C 
BRANCH   8   9
ATOM      9  C   UNL     1     145.723 153.433 154.585  1.00  0.00    -0.000 C 
BRANCH   9  10
ATOM     10  C   UNL     1     146.797 154.131 153.738  1.00  0.00    -0.003 C 
ATOM     11  C   UNL     1     146.178 155.188 152.829  1.00  0.00     0.004 C 
ENDBRANCH   9  10
ENDBRANCH   8   9
ENDBRANCH   7   8
ENDBRANCH   1   7
TORSDOF 7
ENDMDL
MODEL 6
REMARK VINA RESULT:    -2.565     16.694     18.069
REMARK INTER + INTRA:          -3.957
REMARK INTER:                  -3.161
REMARK INTRA:                  -0.796
REMARK UNBOUND:                -0.343
REMARK SMILES CCCCCCCCC(=O)[O-]
REMARK SMILES IDX 6 1 7 2 8 3 9 4 10 5 11 6 5 7 4 8 3 9 2 10 1 11
REMARK H PARENT
REMARK Flexibility Score: inf
ROOT
ATOM      1  C   UNL     1     147.263 149.050 142.952  1.00  0.00     0.000 C 
ENDROOT
BRANCH   1   2
ATOM      2  C   UNL     1     146.542 149.894 141.885  1.00  0.00     0.006 C 
BRANCH   2   3
ATOM      3  C   UNL     1     145.025 149.647 141.811  1.00  0.00     0.053 C 
BRANCH   3   4
ATOM      4  C   UNL     1     144.439 150.037 140.488  1.00  0.00     0.041 C 
ATOM      5  O   UNL     1     143.998 149.156 139.704  1.00  0.00    -0.550 OA
ATOM      6  O   UNL     1     144.346 151.378 140.136  1.00  0.00    -0.550 OA
ENDBRANCH   3   4
ENDBRANCH   2   3
ENDBRANCH   1   2
BRANCH   1   7
ATOM      7  C   UNL     1     146.760 147.600 143.014  1.00  0.00     0.000 C 
BRANCH   7   8
ATOM      8  C   UNL     1     147.792 146.634 142.414  1.00  0.00    -0.000 C 
BRANCH   8   9
ATOM      9  C   UNL     1     147.184 145.699 141.356  1.00  0.00    -0.000 C 
BRANCH   9  10
ATOM     10  C   UNL     1     146.267 146.439 140.371  1.00  0.00    -0.003 C 
ATOM     11  C   UNL     1     147.080 147.219 139.343  1.00  0.00     0.004 C 
ENDBRANCH   9  10
ENDBRANCH   8   9
ENDBRANCH   7   8
ENDBRANCH   1   7
TORSDOF 7
ENDMDL
MODEL 7
REMARK VINA RESULT:    -2.556     15.476     17.015
REMARK INTER + INTRA:          -3.944
REMARK INTER:                  -3.067
REMARK INTRA:                  -0.878
REMARK UNBOUND:                -0.343
REMARK SMILES CCCCCCCCC(=O)[O-]
REMARK SMILES IDX 6 1 7 2 8 3 9 4 10 5 11 6 5 7 4 8 3 9 2 10 1 11
REMARK H PARENT
REMARK Flexibility Score: inf
ROOT
ATOM      1  C   UNL     1     146.670 147.685 140.433  1.00  0.00     0.000 C 
ENDROOT
BRANCH   1   2
ATOM      2  C   UNL     1     145.392 148.315 141.015  1.00  0.00     0.006 C 
BRANCH   2   3
ATOM      3  C   UNL     1     145.580 149.755 141.524  1.00  0.00     0.053 C 
BRANCH   3   4
ATOM      4  C   UNL     1     146.202 149.812 142.886  1.00  0.00     0.041 C 
ATOM      5  O   UNL     1     145.486 149.716 143.918  1.00  0.00    -0.550 OA
ATOM      6  O   UNL     1     147.580 149.935 143.018  1.00  0.00    -0.550 OA
ENDBRANCH   3   4
ENDBRANCH   2   3
ENDBRANCH   1   2
BRANCH   1   7
ATOM      7  C   UNL     1     146.946 146.274 140.971  1.00  0.00     0.000 C 
BRANCH   7   8
ATOM      8  C   UNL     1     147.963 146.314 142.122  1.00  0.00    -0.000 C 
BRANCH   8   9
ATOM      9  C   UNL     1     147.296 146.263 143.505  1.00  0.00    -0.000 C 
BRANCH   9  10
ATOM     10  C   UNL     1     145.984 145.463 143.500  1.00  0.00    -0.003 C 
ATOM     11  C   UNL     1     144.850 146.265 144.129  1.00  0.00     0.004 C 
ENDBRANCH   9  10
ENDBRANCH   8   9
ENDBRANCH   7   8
ENDBRANCH   1   7
TORSDOF 7
ENDMDL
MODEL 8
REMARK VINA RESULT:    -2.547     15.028     16.933
REMARK INTER + INTRA:          -3.932
REMARK INTER:                  -3.545
REMARK INTRA:                  -0.386
REMARK UNBOUND:                -0.343
REMARK SMILES CCCCCCCCC(=O)[O-]
REMARK SMILES IDX 6 1 7 2 8 3 9 4 10 5 11 6 5 7 4 8 3 9 2 10 1 11
REMARK H PARENT
REMARK Flexibility Score: inf
ROOT
ATOM      1  C   UNL     1     144.473 149.979 145.796  1.00  0.00     0.000 C 
ENDROOT
BRANCH   1   2
ATOM      2  C   UNL     1     144.826 150.194 144.314  1.00  0.00     0.006 C 
BRANCH   2   3
ATOM      3  C   UNL     1     145.276 148.916 143.585  1.00  0.00     0.053 C 
BRANCH   3   4
ATOM      4  C   UNL     1     146.666 149.020 143.037  1.00  0.00     0.041 C 
ATOM      5  O   UNL     1     147.101 150.123 142.610  1.00  0.00    -0.550 OA
ATOM      6  O   UNL     1     147.497 147.906 143.028  1.00  0.00    -0.550 OA
ENDBRANCH   3   4
ENDBRANCH   2   3
ENDBRANCH   1   2
BRANCH   1   7
ATOM      7  C   UNL     1     143.506 151.037 146.347  1.00  0.00     0.000 C 
BRANCH   7   8
ATOM      8  C   UNL     1     144.124 151.778 147.541  1.00  0.00    -0.000 C 
BRANCH   8   9
ATOM      9  C   UNL     1     145.576 151.352 147.816  1.00  0.00    -0.000 C 
BRANCH   9  10
ATOM     10  C   UNL     1     145.829 151.035 149.297  1.00  0.00    -0.003 C 
ATOM     11  C   UNL     1     145.918 149.530 149.528  1.00  0.00     0.004 C 
ENDBRANCH   9  10
ENDBRANCH   8   9
ENDBRANCH   7   8
ENDBRANCH   1   7
TORSDOF 7
ENDMDL
MODEL 9
REMARK VINA RESULT:    -2.528     16.194     18.285
REMARK INTER + INTRA:          -3.905
REMARK INTER:                  -3.413
REMARK INTRA:                  -0.492
REMARK UNBOUND:                -0.343
REMARK SMILES CCCCCCCCC(=O)[O-]
REMARK SMILES IDX 6 1 7 2 8 3 9 4 10 5 11 6 5 7 4 8 3 9 2 10 1 11
REMARK H PARENT
REMARK Flexibility Score: inf
ROOT
ATOM      1  C   UNL     1     145.129 149.697 143.576  1.00  0.00     0.000 C 
ENDROOT
BRANCH   1   2
ATOM      2  C   UNL     1     144.009 150.261 142.683  1.00  0.00     0.006 C 
BRANCH   2   3
ATOM      3  C   UNL     1     143.730 149.420 141.425  1.00  0.00     0.053 C 
BRANCH   3   4
ATOM      4  C   UNL     1     144.035 150.156 140.156  1.00  0.00     0.041 C 
ATOM      5  O   UNL     1     144.346 151.376 140.187  1.00  0.00    -0.550 OA
ATOM      6  O   UNL     1     144.012 149.485 138.939  1.00  0.00    -0.550 OA
ENDBRANCH   3   4
ENDBRANCH   2   3
ENDBRANCH   1   2
BRANCH   1   7
ATOM      7  C   UNL     1     146.520 149.790 142.931  1.00  0.00     0.000 C 
BRANCH   7   8
ATOM      8  C   UNL     1     147.049 148.396 142.562  1.00  0.00    -0.000 C 
BRANCH   8   9
ATOM      9  C   UNL     1     146.237 147.263 143.210  1.00  0.00    -0.000 C 
BRANCH   9  10
ATOM     10  C   UNL     1     147.064 145.986 143.414  1.00  0.00    -0.003 C 
ATOM     11  C   UNL     1     148.407 146.081 142.698  1.00  0.00     0.004 C 
ENDBRANCH   9  10
ENDBRANCH   8   9
ENDBRANCH   7   8
ENDBRANCH   1   7
TORSDOF 7
ENDMDL
