MODEL 1
REMARK VINA RESULT:     0.115      0.000      0.000
REMARK INTER + INTRA:          -0.515
REMARK INTER:                   0.132
REMARK INTRA:                  -0.646
REMARK UNBOUND:                -0.646
REMARK SMILES C=C(C)[C@@H]1CC[C@]2(C(=O)[O-])CC[C@@]3(C)[C@H](CC[C@H]4[C@@]5(C)CC[C@H](O)C(C)(C)[C@H]5CC[C@]43C)[C@H]12
REMARK SMILES IDX 7 1 6 2 33 3 11 4 5 5 15 6 4 7 12 8 16 9 13 10 17 11 31 12
REMARK SMILES IDX 14 13 18 14 30 15 32 16 19 17 29 18 21 19 20 20 28 21 22 22
REMARK SMILES IDX 25 23 23 24 26 25 27 26 8 27 9 28 10 29 2 30 3 31 1 32 24 33
REMARK H PARENT 24 34
REMARK Flexibility Score: inf
ROOT
ATOM      1  C   UNL     1      -1.174 -21.726  14.704  1.00  0.00     0.014 C 
ATOM      2  C   UNL     1      -0.324 -22.726  13.878  1.00  0.00     0.014 C 
ATOM      3  C   UNL     1      -0.295 -21.324  15.925  1.00  0.00     0.012 C 
ATOM      4  C   UNL     1      -1.492 -20.482  13.875  1.00  0.00     0.014 C 
ATOM      5  C   UNL     1       0.876 -23.109  14.724  1.00  0.00     0.009 C 
ATOM      6  C   UNL     1      -0.491 -19.851  16.538  1.00  0.00     0.000 C 
ATOM      7  C   UNL     1       1.125 -21.946  15.690  1.00  0.00     0.018 C 
ATOM      8  C   UNL     1      -2.328 -19.479  14.663  1.00  0.00     0.008 C 
ATOM      9  C   UNL     1       0.798 -19.125  16.921  1.00  0.00     0.005 C 
ATOM     10  C   UNL     1      -1.612 -18.864  15.928  1.00  0.00    -0.024 C 
ATOM     11  C   UNL     1       0.521 -17.809  17.640  1.00  0.00     0.005 C 
ATOM     12  C   UNL     1      -1.056 -17.357  15.584  1.00  0.00    -0.024 C 
ATOM     13  C   UNL     1      -2.735 -18.761  17.030  1.00  0.00     0.012 C 
ATOM     14  C   UNL     1      -0.240 -16.727  16.801  1.00  0.00     0.002 C 
ATOM     15  C   UNL     1      -0.128 -17.379  14.325  1.00  0.00     0.008 C 
ATOM     16  C   UNL     1      -2.299 -16.445  15.234  1.00  0.00     0.012 C 
ATOM     17  C   UNL     1       0.580 -15.362  16.511  1.00  0.00    -0.026 C 
ATOM     18  C   UNL     1       0.615 -16.066  13.995  1.00  0.00     0.005 C 
ATOM     19  C   UNL     1       1.454 -14.919  17.757  1.00  0.00     0.010 C 
ATOM     20  C   UNL     1      -0.461 -14.190  16.379  1.00  0.00     0.012 C 
ATOM     21  C   UNL     1       1.395 -15.375  15.153  1.00  0.00     0.003 C 
ATOM     22  C   UNL     1       2.965 -15.198  17.725  1.00  0.00     0.033 C 
ATOM     23  C   UNL     1       2.958 -15.624  15.184  1.00  0.00    -0.006 C 
ATOM     24  C   UNL     1       3.612 -14.859  16.379  1.00  0.00     0.120 C 
ATOM     25  C   UNL     1       3.318 -17.121  15.280  1.00  0.00     0.014 C 
ATOM     26  C   UNL     1       3.631 -15.099  13.876  1.00  0.00     0.014 C 
ENDROOT
BRANCH   1  27
ATOM     27  C   UNL     1      -2.487 -22.415  15.091  1.00  0.00     0.048 C 
ATOM     28  O   UNL     1      -3.125 -23.119  14.262  1.00  0.00    -0.550 OA
ATOM     29  O   UNL     1      -2.953 -22.347  16.399  1.00  0.00    -0.550 OA
ENDBRANCH   1  27
BRANCH   7  30
ATOM     30  C   UNL     1       2.284 -21.079  15.204  1.00  0.00    -0.077 C 
ATOM     31  C   UNL     1       3.677 -21.358  15.723  1.00  0.00     0.039 C 
ATOM     32  C   UNL     1       2.150 -20.148  14.247  1.00  0.00     0.008 C 
ENDBRANCH   7  30
BRANCH  24  33
ATOM     33  O   UNL     1       3.657 -13.468  16.179  1.00  0.00    -0.393 OA
ATOM     34  H   UNL     1       4.601 -13.181  16.115  1.00  0.00     0.210 HD
ENDBRANCH  24  33
TORSDOF 3
ENDMDL
MODEL 2
REMARK VINA RESULT:     1.310      2.738      5.360
REMARK INTER + INTRA:           0.855
REMARK INTER:                   1.078
REMARK INTRA:                  -0.223
REMARK UNBOUND:                -0.646
REMARK SMILES C=C(C)[C@@H]1CC[C@]2(C(=O)[O-])CC[C@@]3(C)[C@H](CC[C@H]4[C@@]5(C)CC[C@H](O)C(C)(C)[C@H]5CC[C@]43C)[C@H]12
REMARK SMILES IDX 7 1 6 2 33 3 11 4 5 5 15 6 4 7 12 8 16 9 13 10 17 11 31 12
REMARK SMILES IDX 14 13 18 14 30 15 32 16 19 17 29 18 21 19 20 20 28 21 22 22
REMARK SMILES IDX 25 23 23 24 26 25 27 26 8 27 9 28 10 29 2 30 3 31 1 32 24 33
REMARK H PARENT 24 34
REMARK Flexibility Score: inf
ROOT
ATOM      1  C   UNL     1       4.394 -21.107  14.901  1.00  0.00     0.014 C 
ATOM      2  C   UNL     1       4.104 -22.584  15.276  1.00  0.00     0.014 C 
ATOM      3  C   UNL     1       3.215 -20.659  13.987  1.00  0.00     0.012 C 
ATOM      4  C   UNL     1       4.425 -20.234  16.155  1.00  0.00     0.014 C 
ATOM      5  C   UNL     1       2.966 -23.061  14.394  1.00  0.00     0.009 C 
ATOM      6  C   UNL     1       2.782 -19.111  14.026  1.00  0.00     0.000 C 
ATOM      7  C   UNL     1       2.160 -21.819  14.001  1.00  0.00     0.018 C 
ATOM      8  C   UNL     1       4.707 -18.773  15.817  1.00  0.00     0.008 C 
ATOM      9  C   UNL     1       1.276 -18.852  14.024  1.00  0.00     0.005 C 
ATOM     10  C   UNL     1       3.599 -18.065  14.944  1.00  0.00    -0.024 C 
ATOM     11  C   UNL     1       0.951 -17.368  13.898  1.00  0.00     0.005 C 
ATOM     12  C   UNL     1       2.645 -17.129  15.897  1.00  0.00    -0.024 C 
ATOM     13  C   UNL     1       4.391 -17.143  13.939  1.00  0.00     0.012 C 
ATOM     14  C   UNL     1       1.448 -16.464  15.079  1.00  0.00     0.002 C 
ATOM     15  C   UNL     1       2.036 -17.965  17.070  1.00  0.00     0.008 C 
ATOM     16  C   UNL     1       3.550 -16.005  16.543  1.00  0.00     0.012 C 
ATOM     17  C   UNL     1       0.287 -15.730  15.934  1.00  0.00    -0.026 C 
ATOM     18  C   UNL     1       0.972 -17.259  17.938  1.00  0.00     0.005 C 
ATOM     19  C   UNL     1      -0.906 -15.235  15.014  1.00  0.00     0.010 C 
ATOM     20  C   UNL     1       0.877 -14.384  16.495  1.00  0.00     0.012 C 
ATOM     21  C   UNL     1      -0.201 -16.551  17.197  1.00  0.00     0.003 C 
ATOM     22  C   UNL     1      -2.198 -16.066  14.986  1.00  0.00     0.033 C 
ATOM     23  C   UNL     1      -1.565 -17.353  17.126  1.00  0.00    -0.006 C 
ATOM     24  C   UNL     1      -2.653 -16.520  16.376  1.00  0.00     0.120 C 
ATOM     25  C   UNL     1      -1.410 -18.725  16.438  1.00  0.00     0.014 C 
ATOM     26  C   UNL     1      -2.113 -17.645  18.559  1.00  0.00     0.014 C 
ENDROOT
BRANCH   1  27
ATOM     27  C   UNL     1       5.762 -21.044  14.216  1.00  0.00     0.048 C 
ATOM     28  O   UNL     1       6.282 -19.942  13.894  1.00  0.00    -0.550 OA
ATOM     29  O   UNL     1       6.499 -22.207  14.017  1.00  0.00    -0.550 OA
ENDBRANCH   1  27
BRANCH   7  30
ATOM     30  C   UNL     1       0.891 -21.709  14.844  1.00  0.00    -0.077 C 
ATOM     31  C   UNL     1      -0.453 -21.725  14.151  1.00  0.00     0.039 C 
ATOM     32  C   UNL     1       0.902 -21.711  16.185  1.00  0.00     0.008 C 
ENDBRANCH   7  30
BRANCH  24  33
ATOM     33  O   UNL     1      -3.125 -15.431  17.131  1.00  0.00    -0.393 OA
ATOM     34  H   UNL     1      -4.112 -15.402  17.073  1.00  0.00     0.210 HD
ENDBRANCH  24  33
TORSDOF 3
ENDMDL
