MODEL 1
REMARK VINA RESULT:    -3.554      0.000      0.000
REMARK INTER + INTRA:          -5.389
REMARK INTER:                  -5.008
REMARK INTRA:                  -0.381
REMARK UNBOUND:                -0.381
REMARK SMILES C=CCCCCCCC(=O)[O-]
REMARK SMILES IDX 6 1 7 2 8 3 9 4 10 5 11 6 5 7 4 8 3 9 2 10 1 11
REMARK H PARENT
REMARK Flexibility Score: inf
ROOT
ATOM      1  C   UNL     1      57.011  28.675  50.987  1.00  0.00     0.000 C 
ENDROOT
BRANCH   1   2
ATOM      2  C   UNL     1      58.060  29.660  50.441  1.00  0.00     0.006 C 
BRANCH   2   3
ATOM      3  C   UNL     1      58.737  29.203  49.138  1.00  0.00     0.053 C 
BRANCH   3   4
ATOM      4  C   UNL     1      59.789  28.167  49.384  1.00  0.00     0.041 C 
ATOM      5  O   UNL     1      59.509  26.943  49.282  1.00  0.00    -0.550 OA
ATOM      6  O   UNL     1      61.088  28.553  49.690  1.00  0.00    -0.550 OA
ENDBRANCH   3   4
ENDBRANCH   2   3
ENDBRANCH   1   2
BRANCH   1   7
ATOM      7  C   UNL     1      55.572  29.195  50.831  1.00  0.00     0.000 C 
BRANCH   7   8
ATOM      8  C   UNL     1      54.655  28.190  50.116  1.00  0.00     0.004 C 
BRANCH   8   9
ATOM      9  C   UNL     1      55.295  26.799  49.986  1.00  0.00     0.027 C 
BRANCH   9  10
ATOM     10  C   UNL     1      54.372  25.838  49.288  1.00  0.00    -0.035 C 
ATOM     11  C   UNL     1      53.094  26.143  49.041  1.00  0.00     0.004 C 
ENDBRANCH   9  10
ENDBRANCH   8   9
ENDBRANCH   7   8
ENDBRANCH   1   7
TORSDOF 7
ENDMDL
MODEL 2
REMARK VINA RESULT:    -3.517      1.046      1.770
REMARK INTER + INTRA:          -5.337
REMARK INTER:                  -5.026
REMARK INTRA:                  -0.311
REMARK UNBOUND:                -0.381
REMARK SMILES C=CCCCCCCC(=O)[O-]
REMARK SMILES IDX 6 1 7 2 8 3 9 4 10 5 11 6 5 7 4 8 3 9 2 10 1 11
REMARK H PARENT
REMARK Flexibility Score: inf
ROOT
ATOM      1  C   UNL     1      57.921  29.354  50.006  1.00  0.00     0.000 C 
ENDROOT
BRANCH   1   2
ATOM      2  C   UNL     1      59.159  28.838  49.249  1.00  0.00     0.006 C 
BRANCH   2   3
ATOM      3  C   UNL     1      59.555  27.394  49.597  1.00  0.00     0.053 C 
BRANCH   3   4
ATOM      4  C   UNL     1      61.039  27.227  49.699  1.00  0.00     0.041 C 
ATOM      5  O   UNL     1      61.805  28.188  49.423  1.00  0.00    -0.550 OA
ATOM      6  O   UNL     1      61.577  26.022  50.133  1.00  0.00    -0.550 OA
ENDBRANCH   3   4
ENDBRANCH   2   3
ENDBRANCH   1   2
BRANCH   1   7
ATOM      7  C   UNL     1      56.908  28.238  50.317  1.00  0.00     0.000 C 
BRANCH   7   8
ATOM      8  C   UNL     1      55.523  28.787  50.694  1.00  0.00     0.004 C 
BRANCH   8   9
ATOM      9  C   UNL     1      54.381  28.029  49.999  1.00  0.00     0.027 C 
BRANCH   9  10
ATOM     10  C   UNL     1      54.754  26.593  49.748  1.00  0.00    -0.035 C 
ATOM     11  C   UNL     1      53.903  25.733  49.180  1.00  0.00     0.004 C 
ENDBRANCH   9  10
ENDBRANCH   8   9
ENDBRANCH   7   8
ENDBRANCH   1   7
TORSDOF 7
ENDMDL
MODEL 3
REMARK VINA RESULT:    -3.503     12.194     14.112
REMARK INTER + INTRA:          -5.317
REMARK INTER:                  -4.971
REMARK INTRA:                  -0.345
REMARK UNBOUND:                -0.381
REMARK SMILES C=CCCCCCCC(=O)[O-]
REMARK SMILES IDX 6 1 7 2 8 3 9 4 10 5 11 6 5 7 4 8 3 9 2 10 1 11
REMARK H PARENT
REMARK Flexibility Score: inf
ROOT
ATOM      1  C   UNL     1      60.624  32.823  59.841  1.00  0.00     0.000 C 
ENDROOT
BRANCH   1   2
ATOM      2  C   UNL     1      60.698  31.327  60.199  1.00  0.00     0.006 C 
BRANCH   2   3
ATOM      3  C   UNL     1      61.124  31.045  61.649  1.00  0.00     0.053 C 
BRANCH   3   4
ATOM      4  C   UNL     1      62.210  30.017  61.726  1.00  0.00     0.041 C 
ATOM      5  O   UNL     1      61.920  28.792  61.770  1.00  0.00    -0.550 OA
ATOM      6  O   UNL     1      63.542  30.408  61.711  1.00  0.00    -0.550 OA
ENDBRANCH   3   4
ENDBRANCH   2   3
ENDBRANCH   1   2
BRANCH   1   7
ATOM      7  C   UNL     1      61.628  33.674  60.639  1.00  0.00     0.000 C 
BRANCH   7   8
ATOM      8  C   UNL     1      61.321  35.177  60.560  1.00  0.00     0.004 C 
BRANCH   8   9
ATOM      9  C   UNL     1      62.442  36.039  61.162  1.00  0.00     0.027 C 
BRANCH   9  10
ATOM     10  C   UNL     1      63.731  35.270  61.251  1.00  0.00    -0.035 C 
ATOM     11  C   UNL     1      64.814  35.777  61.847  1.00  0.00     0.004 C 
ENDBRANCH   9  10
ENDBRANCH   8   9
ENDBRANCH   7   8
ENDBRANCH   1   7
TORSDOF 7
ENDMDL
MODEL 4
REMARK VINA RESULT:    -3.344      3.091      5.017
REMARK INTER + INTRA:          -5.094
REMARK INTER:                  -4.406
REMARK INTRA:                  -0.688
REMARK UNBOUND:                -0.381
REMARK SMILES C=CCCCCCCC(=O)[O-]
REMARK SMILES IDX 6 1 7 2 8 3 9 4 10 5 11 6 5 7 4 8 3 9 2 10 1 11
REMARK H PARENT
REMARK Flexibility Score: inf
ROOT
ATOM      1  C   UNL     1      56.321  28.819  50.554  1.00  0.00     0.000 C 
ENDROOT
BRANCH   1   2
ATOM      2  C   UNL     1      55.899  27.392  50.950  1.00  0.00     0.006 C 
BRANCH   2   3
ATOM      3  C   UNL     1      55.648  26.454  49.758  1.00  0.00     0.053 C 
BRANCH   3   4
ATOM      4  C   UNL     1      54.188  26.274  49.482  1.00  0.00     0.041 C 
ATOM      5  O   UNL     1      53.712  25.121  49.313  1.00  0.00    -0.550 OA
ATOM      6  O   UNL     1      53.345  27.378  49.447  1.00  0.00    -0.550 OA
ENDBRANCH   3   4
ENDBRANCH   2   3
ENDBRANCH   1   2
BRANCH   1   7
ATOM      7  C   UNL     1      57.532  29.324  51.358  1.00  0.00     0.000 C 
BRANCH   7   8
ATOM      8  C   UNL     1      58.652  29.870  50.459  1.00  0.00     0.004 C 
BRANCH   8   9
ATOM      9  C   UNL     1      58.825  29.050  49.171  1.00  0.00     0.027 C 
BRANCH   9  10
ATOM     10  C   UNL     1      59.802  27.924  49.369  1.00  0.00    -0.035 C 
ATOM     11  C   UNL     1      59.399  26.659  49.520  1.00  0.00     0.004 C 
ENDBRANCH   9  10
ENDBRANCH   8   9
ENDBRANCH   7   8
ENDBRANCH   1   7
TORSDOF 7
ENDMDL
MODEL 5
REMARK VINA RESULT:    -3.262     12.613     13.788
REMARK INTER + INTRA:          -4.977
REMARK INTER:                  -4.542
REMARK INTRA:                  -0.435
REMARK UNBOUND:                -0.381
REMARK SMILES C=CCCCCCCC(=O)[O-]
REMARK SMILES IDX 6 1 7 2 8 3 9 4 10 5 11 6 5 7 4 8 3 9 2 10 1 11
REMARK H PARENT
REMARK Flexibility Score: inf
ROOT
ATOM      1  C   UNL     1      61.450  30.384  61.599  1.00  0.00     0.000 C 
ENDROOT
BRANCH   1   2
ATOM      2  C   UNL     1      62.987  30.414  61.665  1.00  0.00     0.006 C 
BRANCH   2   3
ATOM      3  C   UNL     1      63.672  29.210  60.997  1.00  0.00     0.053 C 
BRANCH   3   4
ATOM      4  C   UNL     1      65.124  29.465  60.733  1.00  0.00     0.041 C 
ATOM      5  O   UNL     1      65.488  30.530  60.169  1.00  0.00    -0.550 OA
ATOM      6  O   UNL     1      66.078  28.542  61.143  1.00  0.00    -0.550 OA
ENDBRANCH   3   4
ENDBRANCH   2   3
ENDBRANCH   1   2
BRANCH   1   7
ATOM      7  C   UNL     1      60.840  31.772  61.339  1.00  0.00     0.000 C 
BRANCH   7   8
ATOM      8  C   UNL     1      61.555  32.529  60.209  1.00  0.00     0.004 C 
BRANCH   8   9
ATOM      9  C   UNL     1      62.061  33.911  60.655  1.00  0.00     0.027 C 
BRANCH   9  10
ATOM     10  C   UNL     1      63.563  33.943  60.726  1.00  0.00    -0.035 C 
ATOM     11  C   UNL     1      64.213  34.841  61.471  1.00  0.00     0.004 C 
ENDBRANCH   9  10
ENDBRANCH   8   9
ENDBRANCH   7   8
ENDBRANCH   1   7
TORSDOF 7
ENDMDL
MODEL 6
REMARK VINA RESULT:    -3.259     12.718     14.102
REMARK INTER + INTRA:          -4.973
REMARK INTER:                  -4.454
REMARK INTRA:                  -0.519
REMARK UNBOUND:                -0.381
REMARK SMILES C=CCCCCCCC(=O)[O-]
REMARK SMILES IDX 6 1 7 2 8 3 9 4 10 5 11 6 5 7 4 8 3 9 2 10 1 11
REMARK H PARENT
REMARK Flexibility Score: inf
ROOT
ATOM      1  C   UNL     1      62.509  33.794  59.930  1.00  0.00     0.000 C 
ENDROOT
BRANCH   1   2
ATOM      2  C   UNL     1      63.590  34.046  60.996  1.00  0.00     0.006 C 
BRANCH   2   3
ATOM      3  C   UNL     1      63.762  35.524  61.384  1.00  0.00     0.053 C 
BRANCH   3   4
ATOM      4  C   UNL     1      65.002  36.119  60.793  1.00  0.00     0.041 C 
ATOM      5  O   UNL     1      66.027  36.285  61.505  1.00  0.00    -0.550 OA
ATOM      6  O   UNL     1      65.038  36.458  59.446  1.00  0.00    -0.550 OA
ENDBRANCH   3   4
ENDBRANCH   2   3
ENDBRANCH   1   2
BRANCH   1   7
ATOM      7  C   UNL     1      61.150  33.412  60.542  1.00  0.00     0.000 C 
BRANCH   7   8
ATOM      8  C   UNL     1      60.853  31.908  60.429  1.00  0.00     0.004 C 
BRANCH   8   9
ATOM      9  C   UNL     1      60.875  31.200  61.793  1.00  0.00     0.027 C 
BRANCH   9  10
ATOM     10  C   UNL     1      61.927  30.126  61.831  1.00  0.00    -0.035 C 
ATOM     11  C   UNL     1      63.210  30.387  61.566  1.00  0.00     0.004 C 
ENDBRANCH   9  10
ENDBRANCH   8   9
ENDBRANCH   7   8
ENDBRANCH   1   7
TORSDOF 7
ENDMDL
MODEL 7
REMARK VINA RESULT:    -3.203      1.132      2.019
REMARK INTER + INTRA:          -4.895
REMARK INTER:                  -4.337
REMARK INTRA:                  -0.558
REMARK UNBOUND:                -0.381
REMARK SMILES C=CCCCCCCC(=O)[O-]
REMARK SMILES IDX 6 1 7 2 8 3 9 4 10 5 11 6 5 7 4 8 3 9 2 10 1 11
REMARK H PARENT
REMARK Flexibility Score: inf
ROOT
ATOM      1  C   UNL     1      57.724  27.804  50.936  1.00  0.00     0.000 C 
ENDROOT
BRANCH   1   2
ATOM      2  C   UNL     1      57.715  29.117  50.131  1.00  0.00     0.006 C 
BRANCH   2   3
ATOM      3  C   UNL     1      58.878  29.253  49.134  1.00  0.00     0.053 C 
BRANCH   3   4
ATOM      4  C   UNL     1      60.202  28.965  49.772  1.00  0.00     0.041 C 
ATOM      5  O   UNL     1      60.665  29.740  50.649  1.00  0.00    -0.550 OA
ATOM      6  O   UNL     1      60.907  27.820  49.423  1.00  0.00    -0.550 OA
ENDBRANCH   3   4
ENDBRANCH   2   3
ENDBRANCH   1   2
BRANCH   1   7
ATOM      7  C   UNL     1      56.865  26.705  50.287  1.00  0.00     0.000 C 
BRANCH   7   8
ATOM      8  C   UNL     1      55.423  26.691  50.818  1.00  0.00     0.004 C 
BRANCH   8   9
ATOM      9  C   UNL     1      54.381  26.812  49.695  1.00  0.00     0.027 C 
BRANCH   9  10
ATOM     10  C   UNL     1      53.597  28.090  49.815  1.00  0.00    -0.035 C 
ATOM     11  C   UNL     1      54.071  29.146  50.483  1.00  0.00     0.004 C 
ENDBRANCH   9  10
ENDBRANCH   8   9
ENDBRANCH   7   8
ENDBRANCH   1   7
TORSDOF 7
ENDMDL
MODEL 8
REMARK VINA RESULT:    -3.201     12.558     13.886
REMARK INTER + INTRA:          -4.892
REMARK INTER:                  -4.339
REMARK INTRA:                  -0.552
REMARK UNBOUND:                -0.381
REMARK SMILES C=CCCCCCCC(=O)[O-]
REMARK SMILES IDX 6 1 7 2 8 3 9 4 10 5 11 6 5 7 4 8 3 9 2 10 1 11
REMARK H PARENT
REMARK Flexibility Score: inf
ROOT
ATOM      1  C   UNL     1      63.387  31.475  59.798  1.00  0.00     0.000 C 
ENDROOT
BRANCH   1   2
ATOM      2  C   UNL     1      62.952  30.103  60.344  1.00  0.00     0.006 C 
BRANCH   2   3
ATOM      3  C   UNL     1      62.260  30.160  61.716  1.00  0.00     0.053 C 
BRANCH   3   4
ATOM      4  C   UNL     1      60.804  30.489  61.598  1.00  0.00     0.041 C 
ATOM      5  O   UNL     1      60.353  31.555  62.094  1.00  0.00    -0.550 OA
ATOM      6  O   UNL     1      59.951  29.637  60.908  1.00  0.00    -0.550 OA
ENDBRANCH   3   4
ENDBRANCH   2   3
ENDBRANCH   1   2
BRANCH   1   7
ATOM      7  C   UNL     1      64.197  32.291  60.821  1.00  0.00     0.000 C 
BRANCH   7   8
ATOM      8  C   UNL     1      63.663  33.722  60.991  1.00  0.00     0.004 C 
BRANCH   8   9
ATOM      9  C   UNL     1      62.267  33.906  60.375  1.00  0.00     0.027 C 
BRANCH   9  10
ATOM     10  C   UNL     1      61.702  35.261  60.703  1.00  0.00    -0.035 C 
ATOM     11  C   UNL     1      62.466  36.244  61.187  1.00  0.00     0.004 C 
ENDBRANCH   9  10
ENDBRANCH   8   9
ENDBRANCH   7   8
ENDBRANCH   1   7
TORSDOF 7
ENDMDL
MODEL 9
REMARK VINA RESULT:    -3.199      3.100      5.457
REMARK INTER + INTRA:          -4.889
REMARK INTER:                  -4.437
REMARK INTRA:                  -0.453
REMARK UNBOUND:                -0.381
REMARK SMILES C=CCCCCCCC(=O)[O-]
REMARK SMILES IDX 6 1 7 2 8 3 9 4 10 5 11 6 5 7 4 8 3 9 2 10 1 11
REMARK H PARENT
REMARK Flexibility Score: inf
ROOT
ATOM      1  C   UNL     1      57.514  28.728  50.982  1.00  0.00     0.000 C 
ENDROOT
BRANCH   1   2
ATOM      2  C   UNL     1      56.037  28.728  50.545  1.00  0.00     0.006 C 
BRANCH   2   3
ATOM      3  C   UNL     1      55.481  27.337  50.202  1.00  0.00     0.053 C 
BRANCH   3   4
ATOM      4  C   UNL     1      54.053  27.397  49.755  1.00  0.00     0.041 C 
ATOM      5  O   UNL     1      53.429  28.490  49.773  1.00  0.00    -0.550 OA
ATOM      6  O   UNL     1      53.422  26.252  49.284  1.00  0.00    -0.550 OA
ENDBRANCH   3   4
ENDBRANCH   2   3
ENDBRANCH   1   2
BRANCH   1   7
ATOM      7  C   UNL     1      58.399  29.606  50.080  1.00  0.00     0.000 C 
BRANCH   7   8
ATOM      8  C   UNL     1      59.197  28.784  49.057  1.00  0.00     0.004 C 
BRANCH   8   9
ATOM      9  C   UNL     1      59.369  27.318  49.484  1.00  0.00     0.027 C 
BRANCH   9  10
ATOM     10  C   UNL     1      60.771  27.049  49.956  1.00  0.00    -0.035 C 
ATOM     11  C   UNL     1      61.800  27.813  49.577  1.00  0.00     0.004 C 
ENDBRANCH   9  10
ENDBRANCH   8   9
ENDBRANCH   7   8
ENDBRANCH   1   7
TORSDOF 7
ENDMDL
