MODEL 1
REMARK VINA RESULT:    -8.901      0.000      0.000
REMARK INTER + INTRA:          -9.941
REMARK INTER:                  -9.941
REMARK INTRA:                   0.000
REMARK UNBOUND:                 0.000
REMARK SMILES Oc1cc(O)c2c(ccc3ccc(O)c(O)c32)c1
REMARK SMILES IDX 9 1 8 2 7 3 18 4 2 5 3 6 4 7 6 8 17 9 10 10 11 11 12 12
REMARK SMILES IDX 13 13 15 14 16 15 1 17 5 19 14 21
REMARK H PARENT 16 16 1 18 5 20 14 22
REMARK Flexibility Score: inf
ROOT
ATOM      1  C   UNL     1       1.529  44.738   1.145  1.00  0.00     0.009 A 
ATOM      2  C   UNL     1       2.239  44.469  -0.017  1.00  0.00     0.009 A 
ATOM      3  C   UNL     1       1.607  44.530  -1.263  1.00  0.00    -0.010 A 
ATOM      4  C   UNL     1       2.365  44.326  -2.426  1.00  0.00     0.055 A 
ATOM      5  C   UNL     1       1.792  44.513  -3.684  1.00  0.00     0.119 A 
ATOM      6  C   UNL     1       0.478  44.963  -3.784  1.00  0.00     0.093 A 
ATOM      7  C   UNL     1      -0.290  45.195  -2.634  1.00  0.00     0.127 A 
ATOM      8  C   UNL     1       0.220  44.844  -1.352  1.00  0.00     0.035 A 
ATOM      9  C   UNL     1      -0.548  44.888  -0.143  1.00  0.00     0.039 A 
ATOM     10  C   UNL     1       0.145  44.938   1.100  1.00  0.00    -0.014 A 
ATOM     11  C   UNL     1      -0.557  45.142   2.296  1.00  0.00     0.013 A 
ATOM     12  C   UNL     1      -1.944  45.221   2.291  1.00  0.00     0.051 A 
ATOM     13  C   UNL     1      -2.655  45.008   1.109  1.00  0.00     0.158 A 
ATOM     14  C   UNL     1      -1.969  44.780  -0.098  1.00  0.00     0.166 A 
ENDROOT
BRANCH  14  15
ATOM     15  O   UNL     1      -2.690  44.347  -1.212  1.00  0.00    -0.504 OA
ATOM     16  H   UNL     1      -2.983  43.385  -1.333  1.00  0.00     0.293 HD
ENDBRANCH  14  15
BRANCH   5  17
ATOM     17  O   UNL     1       2.533  44.291  -4.843  1.00  0.00    -0.508 OA
ATOM     18  H   UNL     1       2.623  43.366  -5.246  1.00  0.00     0.293 HD
ENDBRANCH   5  17
BRANCH   7  19
ATOM     19  O   UNL     1      -1.505  45.864  -2.775  1.00  0.00    -0.507 OA
ATOM     20  H   UNL     1      -2.250  45.506  -3.361  1.00  0.00     0.293 HD
ENDBRANCH   7  19
BRANCH  13  21
ATOM     21  O   UNL     1      -4.050  44.993   1.133  1.00  0.00    -0.504 OA
ATOM     22  H   UNL     1      -4.567  44.924   2.001  1.00  0.00     0.293 HD
ENDBRANCH  13  21
TORSDOF 4
ENDMDL
MODEL 2
REMARK VINA RESULT:    -8.480      1.271      5.005
REMARK INTER + INTRA:          -9.471
REMARK INTER:                  -9.471
REMARK INTRA:                   0.000
REMARK UNBOUND:                 0.000
REMARK SMILES Oc1cc(O)c2c(ccc3ccc(O)c(O)c32)c1
REMARK SMILES IDX 9 1 8 2 7 3 18 4 2 5 3 6 4 7 6 8 17 9 10 10 11 11 12 12
REMARK SMILES IDX 13 13 15 14 16 15 1 17 5 19 14 21
REMARK H PARENT 16 16 1 18 5 20 14 22
REMARK Flexibility Score: inf
ROOT
ATOM      1  C   UNL     1       2.591  44.704   0.716  1.00  0.00     0.009 A 
ATOM      2  C   UNL     1       1.881  45.092   1.845  1.00  0.00     0.009 A 
ATOM      3  C   UNL     1       0.486  45.175   1.810  1.00  0.00    -0.010 A 
ATOM      4  C   UNL     1      -0.210  45.498   2.986  1.00  0.00     0.055 A 
ATOM      5  C   UNL     1      -1.604  45.456   3.015  1.00  0.00     0.119 A 
ATOM      6  C   UNL     1      -2.305  45.032   1.888  1.00  0.00     0.093 A 
ATOM      7  C   UNL     1      -1.628  44.683   0.711  1.00  0.00     0.127 A 
ATOM      8  C   UNL     1      -0.223  44.885   0.609  1.00  0.00     0.035 A 
ATOM      9  C   UNL     1       0.526  44.716  -0.602  1.00  0.00     0.039 A 
ATOM     10  C   UNL     1       1.934  44.523  -0.506  1.00  0.00    -0.014 A 
ATOM     11  C   UNL     1       2.683  44.196  -1.644  1.00  0.00     0.013 A 
ATOM     12  C   UNL     1       2.074  44.131  -2.892  1.00  0.00     0.051 A 
ATOM     13  C   UNL     1       0.730  44.480  -3.035  1.00  0.00     0.158 A 
ATOM     14  C   UNL     1      -0.034  44.832  -1.907  1.00  0.00     0.166 A 
ENDROOT
BRANCH  14  15
ATOM     15  O   UNL     1      -1.298  45.392  -2.097  1.00  0.00    -0.504 OA
ATOM     16  H   UNL     1      -1.527  45.967  -2.899  1.00  0.00     0.293 HD
ENDBRANCH  14  15
BRANCH   5  17
ATOM     17  O   UNL     1      -2.302  45.797   4.172  1.00  0.00    -0.508 OA
ATOM     18  H   UNL     1      -2.950  46.575   4.190  1.00  0.00     0.293 HD
ENDBRANCH   5  17
BRANCH   7  19
ATOM     19  O   UNL     1      -2.347  44.045  -0.299  1.00  0.00    -0.507 OA
ATOM     20  H   UNL     1      -2.450  43.037  -0.330  1.00  0.00     0.293 HD
ENDBRANCH   7  19
BRANCH  13  21
ATOM     21  O   UNL     1       0.152  44.505  -4.305  1.00  0.00    -0.504 OA
ATOM     22  H   UNL     1       0.717  44.501  -5.146  1.00  0.00     0.293 HD
ENDBRANCH  13  21
TORSDOF 4
ENDMDL
MODEL 3
REMARK VINA RESULT:    -8.306      0.969      1.137
REMARK INTER + INTRA:          -9.277
REMARK INTER:                  -9.277
REMARK INTRA:                   0.000
REMARK UNBOUND:                 0.000
REMARK SMILES Oc1cc(O)c2c(ccc3ccc(O)c(O)c32)c1
REMARK SMILES IDX 9 1 8 2 7 3 18 4 2 5 3 6 4 7 6 8 17 9 10 10 11 11 12 12
REMARK SMILES IDX 13 13 15 14 16 15 1 17 5 19 14 21
REMARK H PARENT 16 16 1 18 5 20 14 22
REMARK Flexibility Score: inf
ROOT
ATOM      1  C   UNL     1       1.736  45.249   2.223  1.00  0.00     0.009 A 
ATOM      2  C   UNL     1       2.529  44.871   1.147  1.00  0.00     0.009 A 
ATOM      3  C   UNL     1       1.959  44.653  -0.111  1.00  0.00    -0.010 A 
ATOM      4  C   UNL     1       2.793  44.344  -1.196  1.00  0.00     0.055 A 
ATOM      5  C   UNL     1       2.269  44.255  -2.486  1.00  0.00     0.119 A 
ATOM      6  C   UNL     1       0.922  44.535  -2.705  1.00  0.00     0.093 A 
ATOM      7  C   UNL     1       0.076  44.867  -1.637  1.00  0.00     0.127 A 
ATOM      8  C   UNL     1       0.553  44.793  -0.298  1.00  0.00     0.035 A 
ATOM      9  C   UNL     1      -0.277  44.952   0.860  1.00  0.00     0.039 A 
ATOM     10  C   UNL     1       0.343  45.284   2.098  1.00  0.00    -0.014 A 
ATOM     11  C   UNL     1      -0.437  45.605   3.217  1.00  0.00     0.013 A 
ATOM     12  C   UNL     1      -1.823  45.528   3.154  1.00  0.00     0.051 A 
ATOM     13  C   UNL     1      -2.446  45.043   2.002  1.00  0.00     0.158 A 
ATOM     14  C   UNL     1      -1.678  44.696   0.875  1.00  0.00     0.166 A 
ENDROOT
BRANCH  14  15
ATOM     15  O   UNL     1      -2.293  44.007  -0.172  1.00  0.00    -0.504 OA
ATOM     16  H   UNL     1      -3.239  43.651  -0.112  1.00  0.00     0.293 HD
ENDBRANCH  14  15
BRANCH   5  17
ATOM     17  O   UNL     1       3.087  43.928  -3.566  1.00  0.00    -0.508 OA
ATOM     18  H   UNL     1       4.055  43.658  -3.434  1.00  0.00     0.293 HD
ENDBRANCH   5  17
BRANCH   7  19
ATOM     19  O   UNL     1      -1.193  45.365  -1.931  1.00  0.00    -0.507 OA
ATOM     20  H   UNL     1      -1.434  45.711  -2.852  1.00  0.00     0.293 HD
ENDBRANCH   7  19
BRANCH  13  21
ATOM     21  O   UNL     1      -3.831  44.878   1.982  1.00  0.00    -0.504 OA
ATOM     22  H   UNL     1      -4.460  45.669   1.908  1.00  0.00     0.293 HD
ENDBRANCH  13  21
TORSDOF 4
ENDMDL
MODEL 4
REMARK VINA RESULT:    -8.202      3.077      6.915
REMARK INTER + INTRA:          -9.161
REMARK INTER:                  -9.161
REMARK INTRA:                   0.000
REMARK UNBOUND:                 0.000
REMARK SMILES Oc1cc(O)c2c(ccc3ccc(O)c(O)c32)c1
REMARK SMILES IDX 9 1 8 2 7 3 18 4 2 5 3 6 4 7 6 8 17 9 10 10 11 11 12 12
REMARK SMILES IDX 13 13 15 14 16 15 1 17 5 19 14 21
REMARK H PARENT 16 16 1 18 5 20 14 22
REMARK Flexibility Score: inf
ROOT
ATOM      1  C   UNL     1       0.509  46.185   3.343  1.00  0.00     0.009 A 
ATOM      2  C   UNL     1       0.160  46.502   4.649  1.00  0.00     0.009 A 
ATOM      3  C   UNL     1      -1.063  46.081   5.178  1.00  0.00    -0.010 A 
ATOM      4  C   UNL     1      -1.357  46.352   6.523  1.00  0.00     0.055 A 
ATOM      5  C   UNL     1      -2.508  45.828   7.113  1.00  0.00     0.119 A 
ATOM      6  C   UNL     1      -3.336  44.982   6.379  1.00  0.00     0.093 A 
ATOM      7  C   UNL     1      -3.049  44.681   5.040  1.00  0.00     0.127 A 
ATOM      8  C   UNL     1      -1.979  45.342   4.374  1.00  0.00     0.035 A 
ATOM      9  C   UNL     1      -1.714  45.225   2.970  1.00  0.00     0.039 A 
ATOM     10  C   UNL     1      -0.414  45.561   2.496  1.00  0.00    -0.014 A 
ATOM     11  C   UNL     1      -0.059  45.312   1.162  1.00  0.00     0.013 A 
ATOM     12  C   UNL     1      -0.996  44.806   0.269  1.00  0.00     0.051 A 
ATOM     13  C   UNL     1      -2.321  44.627   0.670  1.00  0.00     0.158 A 
ATOM     14  C   UNL     1      -2.701  44.892   1.999  1.00  0.00     0.166 A 
ENDROOT
BRANCH  14  15
ATOM     15  O   UNL     1      -4.060  44.925   2.317  1.00  0.00    -0.504 OA
ATOM     16  H   UNL     1      -4.722  45.515   1.828  1.00  0.00     0.293 HD
ENDBRANCH  14  15
BRANCH   5  17
ATOM     17  O   UNL     1      -2.817  46.110   8.442  1.00  0.00    -0.508 OA
ATOM     18  H   UNL     1      -3.477  45.547   8.965  1.00  0.00     0.293 HD
ENDBRANCH   5  17
BRANCH   7  19
ATOM     19  O   UNL     1      -3.765  43.655   4.426  1.00  0.00    -0.507 OA
ATOM     20  H   UNL     1      -4.689  43.383   4.741  1.00  0.00     0.293 HD
ENDBRANCH   7  19
BRANCH  13  21
ATOM     21  O   UNL     1      -3.276  44.211  -0.260  1.00  0.00    -0.504 OA
ATOM     22  H   UNL     1      -3.947  43.484  -0.043  1.00  0.00     0.293 HD
ENDBRANCH  13  21
TORSDOF 4
ENDMDL
MODEL 5
REMARK VINA RESULT:    -7.831      2.746      4.799
REMARK INTER + INTRA:          -8.747
REMARK INTER:                  -8.747
REMARK INTRA:                   0.000
REMARK UNBOUND:                 0.000
REMARK SMILES Oc1cc(O)c2c(ccc3ccc(O)c(O)c32)c1
REMARK SMILES IDX 9 1 8 2 7 3 18 4 2 5 3 6 4 7 6 8 17 9 10 10 11 11 12 12
REMARK SMILES IDX 13 13 15 14 16 15 1 17 5 19 14 21
REMARK H PARENT 16 16 1 18 5 20 14 22
REMARK Flexibility Score: inf
ROOT
ATOM      1  C   UNL     1       0.393  46.399   3.626  1.00  0.00     0.009 A 
ATOM      2  C   UNL     1       0.378  46.018   2.290  1.00  0.00     0.009 A 
ATOM      3  C   UNL     1      -0.780  45.479   1.721  1.00  0.00    -0.010 A 
ATOM      4  C   UNL     1      -0.790  45.172   0.352  1.00  0.00     0.055 A 
ATOM      5  C   UNL     1      -1.969  44.761  -0.271  1.00  0.00     0.119 A 
ATOM      6  C   UNL     1      -3.155  44.715   0.459  1.00  0.00     0.093 A 
ATOM      7  C   UNL     1      -3.171  45.040   1.822  1.00  0.00     0.127 A 
ATOM      8  C   UNL     1      -1.951  45.292   2.510  1.00  0.00     0.035 A 
ATOM      9  C   UNL     1      -1.852  45.467   3.930  1.00  0.00     0.039 A 
ATOM     10  C   UNL     1      -0.702  46.124   4.453  1.00  0.00    -0.014 A 
ATOM     11  C   UNL     1      -0.634  46.460   5.812  1.00  0.00     0.013 A 
ATOM     12  C   UNL     1      -1.654  46.088   6.680  1.00  0.00     0.051 A 
ATOM     13  C   UNL     1      -2.710  45.299   6.222  1.00  0.00     0.158 A 
ATOM     14  C   UNL     1      -2.785  44.933   4.865  1.00  0.00     0.166 A 
ENDROOT
BRANCH  14  15
ATOM     15  O   UNL     1      -3.714  43.966   4.478  1.00  0.00    -0.504 OA
ATOM     16  H   UNL     1      -4.060  43.888   3.529  1.00  0.00     0.293 HD
ENDBRANCH  14  15
BRANCH   5  17
ATOM     17  O   UNL     1      -1.981  44.433  -1.625  1.00  0.00    -0.508 OA
ATOM     18  H   UNL     1      -2.318  45.083  -2.325  1.00  0.00     0.293 HD
ENDBRANCH   5  17
BRANCH   7  19
ATOM     19  O   UNL     1      -4.406  45.207   2.446  1.00  0.00    -0.507 OA
ATOM     20  H   UNL     1      -5.082  44.455   2.511  1.00  0.00     0.293 HD
ENDBRANCH   7  19
BRANCH  13  21
ATOM     21  O   UNL     1      -3.679  44.850   7.120  1.00  0.00    -0.504 OA
ATOM     22  H   UNL     1      -4.664  44.847   6.883  1.00  0.00     0.293 HD
ENDBRANCH  13  21
TORSDOF 4
ENDMDL
MODEL 6
REMARK VINA RESULT:    -7.780      2.718      4.479
REMARK INTER + INTRA:          -8.690
REMARK INTER:                  -8.690
REMARK INTRA:                   0.000
REMARK UNBOUND:                 0.000
REMARK SMILES Oc1cc(O)c2c(ccc3ccc(O)c(O)c32)c1
REMARK SMILES IDX 9 1 8 2 7 3 18 4 2 5 3 6 4 7 6 8 17 9 10 10 11 11 12 12
REMARK SMILES IDX 13 13 15 14 16 15 1 17 5 19 14 21
REMARK H PARENT 16 16 1 18 5 20 14 22
REMARK Flexibility Score: inf
ROOT
ATOM      1  C   UNL     1       0.974  46.395   4.291  1.00  0.00     0.009 A 
ATOM      2  C   UNL     1       1.269  45.944   3.011  1.00  0.00     0.009 A 
ATOM      3  C   UNL     1       0.254  45.463   2.179  1.00  0.00    -0.010 A 
ATOM      4  C   UNL     1       0.568  45.083   0.865  1.00  0.00     0.055 A 
ATOM      5  C   UNL     1      -0.443  44.727  -0.028  1.00  0.00     0.119 A 
ATOM      6  C   UNL     1      -1.775  44.809   0.370  1.00  0.00     0.093 A 
ATOM      7  C   UNL     1      -2.112  45.208   1.671  1.00  0.00     0.127 A 
ATOM      8  C   UNL     1      -1.092  45.406   2.644  1.00  0.00     0.035 A 
ATOM      9  C   UNL     1      -1.345  45.651   4.034  1.00  0.00     0.039 A 
ATOM     10  C   UNL     1      -0.315  46.248   4.815  1.00  0.00    -0.014 A 
ATOM     11  C   UNL     1      -0.568  46.651   6.133  1.00  0.00     0.013 A 
ATOM     12  C   UNL     1      -1.805  46.404   6.718  1.00  0.00     0.051 A 
ATOM     13  C   UNL     1      -2.773  45.672   6.028  1.00  0.00     0.158 A 
ATOM     14  C   UNL     1      -2.528  45.239   4.712  1.00  0.00     0.166 A 
ENDROOT
BRANCH  14  15
ATOM     15  O   UNL     1      -3.406  44.324   4.129  1.00  0.00    -0.504 OA
ATOM     16  H   UNL     1      -3.487  44.204   3.127  1.00  0.00     0.293 HD
ENDBRANCH  14  15
BRANCH   5  17
ATOM     17  O   UNL     1      -0.136  44.328  -1.327  1.00  0.00    -0.508 OA
ATOM     18  H   UNL     1       0.746  44.570  -1.762  1.00  0.00     0.293 HD
ENDBRANCH   5  17
BRANCH   7  19
ATOM     19  O   UNL     1      -3.447  45.501   1.947  1.00  0.00    -0.507 OA
ATOM     20  H   UNL     1      -3.765  45.728   2.882  1.00  0.00     0.293 HD
ENDBRANCH   7  19
BRANCH  13  21
ATOM     21  O   UNL     1      -3.974  45.346   6.659  1.00  0.00    -0.504 OA
ATOM     22  H   UNL     1      -4.064  44.518   7.236  1.00  0.00     0.293 HD
ENDBRANCH  13  21
TORSDOF 4
ENDMDL
MODEL 7
REMARK VINA RESULT:    -7.471      2.574      3.967
REMARK INTER + INTRA:          -8.345
REMARK INTER:                  -8.345
REMARK INTRA:                   0.000
REMARK UNBOUND:                 0.000
REMARK SMILES Oc1cc(O)c2c(ccc3ccc(O)c(O)c32)c1
REMARK SMILES IDX 9 1 8 2 7 3 18 4 2 5 3 6 4 7 6 8 17 9 10 10 11 11 12 12
REMARK SMILES IDX 13 13 15 14 16 15 1 17 5 19 14 21
REMARK H PARENT 16 16 1 18 5 20 14 22
REMARK Flexibility Score: inf
ROOT
ATOM      1  C   UNL     1       2.683  45.012   1.586  1.00  0.00     0.009 A 
ATOM      2  C   UNL     1       2.030  44.596   0.433  1.00  0.00     0.009 A 
ATOM      3  C   UNL     1       0.676  44.886   0.243  1.00  0.00    -0.010 A 
ATOM      4  C   UNL     1       0.060  44.518  -0.964  1.00  0.00     0.055 A 
ATOM      5  C   UNL     1      -1.250  44.913  -1.236  1.00  0.00     0.119 A 
ATOM      6  C   UNL     1      -1.928  45.727  -0.332  1.00  0.00     0.093 A 
ATOM      7  C   UNL     1      -1.323  46.124   0.869  1.00  0.00     0.127 A 
ATOM      8  C   UNL     1      -0.057  45.590   1.241  1.00  0.00     0.035 A 
ATOM      9  C   UNL     1       0.561  45.805   2.517  1.00  0.00     0.039 A 
ATOM     10  C   UNL     1       1.966  45.604   2.632  1.00  0.00    -0.014 A 
ATOM     11  C   UNL     1       2.638  45.954   3.811  1.00  0.00     0.013 A 
ATOM     12  C   UNL     1       1.930  46.430   4.908  1.00  0.00     0.051 A 
ATOM     13  C   UNL     1       0.535  46.477   4.876  1.00  0.00     0.158 A 
ATOM     14  C   UNL     1      -0.159  46.110   3.708  1.00  0.00     0.166 A 
ENDROOT
BRANCH  14  15
ATOM     15  O   UNL     1      -1.543  45.948   3.771  1.00  0.00    -0.504 OA
ATOM     16  H   UNL     1      -2.087  46.196   4.588  1.00  0.00     0.293 HD
ENDBRANCH  14  15
BRANCH   5  17
ATOM     17  O   UNL     1      -1.875  44.533  -2.423  1.00  0.00    -0.508 OA
ATOM     18  H   UNL     1      -1.356  44.435  -3.287  1.00  0.00     0.293 HD
ENDBRANCH   5  17
BRANCH   7  19
ATOM     19  O   UNL     1      -1.943  47.120   1.622  1.00  0.00    -0.507 OA
ATOM     20  H   UNL     1      -1.426  47.704   2.269  1.00  0.00     0.293 HD
ENDBRANCH   7  19
BRANCH  13  21
ATOM     21  O   UNL     1      -0.171  46.865   6.016  1.00  0.00    -0.504 OA
ATOM     22  H   UNL     1      -1.176  46.761   6.079  1.00  0.00     0.293 HD
ENDBRANCH  13  21
TORSDOF 4
ENDMDL
MODEL 8
REMARK VINA RESULT:    -7.378      2.715      6.296
REMARK INTER + INTRA:          -8.241
REMARK INTER:                  -8.241
REMARK INTRA:                   0.000
REMARK UNBOUND:                 0.000
REMARK SMILES Oc1cc(O)c2c(ccc3ccc(O)c(O)c32)c1
REMARK SMILES IDX 9 1 8 2 7 3 18 4 2 5 3 6 4 7 6 8 17 9 10 10 11 11 12 12
REMARK SMILES IDX 13 13 15 14 16 15 1 17 5 19 14 21
REMARK H PARENT 16 16 1 18 5 20 14 22
REMARK Flexibility Score: inf
ROOT
ATOM      1  C   UNL     1       1.457  45.809   2.639  1.00  0.00     0.009 A 
ATOM      2  C   UNL     1       1.200  46.263   3.926  1.00  0.00     0.009 A 
ATOM      3  C   UNL     1      -0.081  46.147   4.475  1.00  0.00    -0.010 A 
ATOM      4  C   UNL     1      -0.295  46.545   5.803  1.00  0.00     0.055 A 
ATOM      5  C   UNL     1      -1.526  46.317   6.419  1.00  0.00     0.119 A 
ATOM      6  C   UNL     1      -2.526  45.634   5.730  1.00  0.00     0.093 A 
ATOM      7  C   UNL     1      -2.325  45.207   4.410  1.00  0.00     0.127 A 
ATOM      8  C   UNL     1      -1.143  45.583   3.711  1.00  0.00     0.035 A 
ATOM      9  C   UNL     1      -0.924  45.338   2.315  1.00  0.00     0.039 A 
ATOM     10  C   UNL     1       0.413  45.356   1.825  1.00  0.00    -0.014 A 
ATOM     11  C   UNL     1       0.690  44.966   0.508  1.00  0.00     0.013 A 
ATOM     12  C   UNL     1      -0.343  44.630  -0.358  1.00  0.00     0.051 A 
ATOM     13  C   UNL     1      -1.671  44.765   0.050  1.00  0.00     0.158 A 
ATOM     14  C   UNL     1      -1.971  45.176   1.362  1.00  0.00     0.166 A 
ENDROOT
BRANCH  14  15
ATOM     15  O   UNL     1      -3.286  45.521   1.676  1.00  0.00    -0.504 OA
ATOM     16  H   UNL     1      -4.025  44.835   1.767  1.00  0.00     0.293 HD
ENDBRANCH  14  15
BRANCH   5  17
ATOM     17  O   UNL     1      -1.752  46.730   7.730  1.00  0.00    -0.508 OA
ATOM     18  H   UNL     1      -2.449  47.431   7.953  1.00  0.00     0.293 HD
ENDBRANCH   5  17
BRANCH   7  19
ATOM     19  O   UNL     1      -3.253  44.331   3.851  1.00  0.00    -0.507 OA
ATOM     20  H   UNL     1      -4.146  44.651   3.492  1.00  0.00     0.293 HD
ENDBRANCH   7  19
BRANCH  13  21
ATOM     21  O   UNL     1      -2.703  44.518  -0.858  1.00  0.00    -0.504 OA
ATOM     22  H   UNL     1      -2.873  43.591  -1.229  1.00  0.00     0.293 HD
ENDBRANCH  13  21
TORSDOF 4
ENDMDL
MODEL 9
REMARK VINA RESULT:    -7.352      3.199      4.457
REMARK INTER + INTRA:          -8.212
REMARK INTER:                  -8.212
REMARK INTRA:                   0.000
REMARK UNBOUND:                 0.000
REMARK SMILES Oc1cc(O)c2c(ccc3ccc(O)c(O)c32)c1
REMARK SMILES IDX 9 1 8 2 7 3 18 4 2 5 3 6 4 7 6 8 17 9 10 10 11 11 12 12
REMARK SMILES IDX 13 13 15 14 16 15 1 17 5 19 14 21
REMARK H PARENT 16 16 1 18 5 20 14 22
REMARK Flexibility Score: inf
ROOT
ATOM      1  C   UNL     1      -2.270  44.585   1.967  1.00  0.00     0.009 A 
ATOM      2  C   UNL     1      -1.587  44.464   0.764  1.00  0.00     0.009 A 
ATOM      3  C   UNL     1      -0.214  44.720   0.701  1.00  0.00    -0.010 A 
ATOM      4  C   UNL     1       0.464  44.519  -0.511  1.00  0.00     0.055 A 
ATOM      5  C   UNL     1       1.854  44.636  -0.570  1.00  0.00     0.119 A 
ATOM      6  C   UNL     1       2.574  44.893   0.594  1.00  0.00     0.093 A 
ATOM      7  C   UNL     1       1.918  45.075   1.820  1.00  0.00     0.127 A 
ATOM      8  C   UNL     1       0.496  45.131   1.866  1.00  0.00     0.035 A 
ATOM      9  C   UNL     1      -0.256  45.477   3.037  1.00  0.00     0.039 A 
ATOM     10  C   UNL     1      -1.626  45.094   3.100  1.00  0.00    -0.014 A 
ATOM     11  C   UNL     1      -2.356  45.267   4.284  1.00  0.00     0.013 A 
ATOM     12  C   UNL     1      -1.774  45.884   5.385  1.00  0.00     0.051 A 
ATOM     13  C   UNL     1      -0.488  46.417   5.291  1.00  0.00     0.158 A 
ATOM     14  C   UNL     1       0.254  46.273   4.103  1.00  0.00     0.166 A 
ENDROOT
BRANCH  14  15
ATOM     15  O   UNL     1       1.434  47.002   3.953  1.00  0.00    -0.504 OA
ATOM     16  H   UNL     1       1.491  47.841   3.389  1.00  0.00     0.293 HD
ENDBRANCH  14  15
BRANCH   5  17
ATOM     17  O   UNL     1       2.532  44.459  -1.774  1.00  0.00    -0.508 OA
ATOM     18  H   UNL     1       2.043  44.208  -2.626  1.00  0.00     0.293 HD
ENDBRANCH   5  17
BRANCH   7  19
ATOM     19  O   UNL     1       2.685  45.093   2.983  1.00  0.00    -0.507 OA
ATOM     20  H   UNL     1       2.943  45.958   3.443  1.00  0.00     0.293 HD
ENDBRANCH   7  19
BRANCH  13  21
ATOM     21  O   UNL     1       0.052  47.120   6.369  1.00  0.00    -0.504 OA
ATOM     22  H   UNL     1       0.529  48.004   6.243  1.00  0.00     0.293 HD
ENDBRANCH  13  21
TORSDOF 4
ENDMDL
