MODEL 1
REMARK VINA RESULT:    -4.289      0.000      0.000
REMARK INTER + INTRA:          -7.390
REMARK INTER:                  -6.546
REMARK INTRA:                  -0.844
REMARK UNBOUND:                -0.844
REMARK SMILES O=C([O-])CCCCCCCCC(=O)[O-]
REMARK SMILES IDX 7 1 6 2 5 3 4 4 2 5 1 6 3 7 8 8 9 9 10 10 11 11 12 12 13 13
REMARK SMILES IDX 14 14
REMARK H PARENT
REMARK Flexibility Score: inf
ROOT
ATOM      1  C   UNL     1      12.985  -1.889   3.603  1.00  0.00     0.000 C 
ENDROOT
BRANCH   1   2
ATOM      2  C   UNL     1      14.314  -2.260   2.929  1.00  0.00     0.000 C 
BRANCH   2   3
ATOM      3  C   UNL     1      14.249  -2.161   1.397  1.00  0.00     0.006 C 
BRANCH   3   4
ATOM      4  C   UNL     1      14.711  -0.795   0.873  1.00  0.00     0.053 C 
BRANCH   4   5
ATOM      5  C   UNL     1      14.114  -0.522  -0.471  1.00  0.00     0.041 C 
ATOM      6  O   UNL     1      12.864  -0.541  -0.625  1.00  0.00    -0.550 OA
ATOM      7  O   UNL     1      14.938  -0.296  -1.566  1.00  0.00    -0.550 OA
ENDBRANCH   4   5
ENDBRANCH   3   4
ENDBRANCH   2   3
ENDBRANCH   1   2
BRANCH   1   8
ATOM      8  C   UNL     1      13.089  -0.527   4.306  1.00  0.00     0.000 C 
BRANCH   8   9
ATOM      9  C   UNL     1      11.884   0.382   4.014  1.00  0.00     0.000 C 
BRANCH   9  10
ATOM     10  C   UNL     1      11.523   0.426   2.520  1.00  0.00     0.006 C 
BRANCH  10  11
ATOM     11  C   UNL     1      10.009   0.325   2.287  1.00  0.00     0.053 C 
BRANCH  11  12
ATOM     12  C   UNL     1       9.574  -1.091   2.067  1.00  0.00     0.041 C 
ATOM     13  O   UNL     1       8.441  -1.474   2.460  1.00  0.00    -0.550 OA
ATOM     14  O   UNL     1      10.405  -1.979   1.395  1.00  0.00    -0.550 OA
ENDBRANCH  11  12
ENDBRANCH  10  11
ENDBRANCH   9  10
ENDBRANCH   8   9
ENDBRANCH   1   8
TORSDOF 9
ENDMDL
MODEL 2
REMARK VINA RESULT:    -4.261      2.172      3.381
REMARK INTER + INTRA:          -7.347
REMARK INTER:                  -6.505
REMARK INTRA:                  -0.842
REMARK UNBOUND:                -0.844
REMARK SMILES O=C([O-])CCCCCCCCC(=O)[O-]
REMARK SMILES IDX 7 1 6 2 5 3 4 4 2 5 1 6 3 7 8 8 9 9 10 10 11 11 12 12 13 13
REMARK SMILES IDX 14 14
REMARK H PARENT
REMARK Flexibility Score: inf
ROOT
ATOM      1  C   UNL     1      11.907   0.657   1.555  1.00  0.00     0.000 C 
ENDROOT
BRANCH   1   2
ATOM      2  C   UNL     1      11.644  -0.271   0.359  1.00  0.00     0.000 C 
BRANCH   2   3
ATOM      3  C   UNL     1      12.919  -0.585  -0.440  1.00  0.00     0.006 C 
BRANCH   3   4
ATOM      4  C   UNL     1      14.197  -0.165   0.298  1.00  0.00     0.053 C 
BRANCH   4   5
ATOM      5  C   UNL     1      15.391  -0.344  -0.584  1.00  0.00     0.041 C 
ATOM      6  O   UNL     1      16.550  -0.342  -0.090  1.00  0.00    -0.550 OA
ATOM      7  O   UNL     1      15.231  -0.464  -1.959  1.00  0.00    -0.550 OA
ENDBRANCH   4   5
ENDBRANCH   3   4
ENDBRANCH   2   3
ENDBRANCH   1   2
BRANCH   1   8
ATOM      8  C   UNL     1      11.201   0.137   2.817  1.00  0.00     0.000 C 
BRANCH   8   9
ATOM      9  C   UNL     1      12.131   0.099   4.040  1.00  0.00     0.000 C 
BRANCH   9  10
ATOM     10  C   UNL     1      13.213  -0.988   3.929  1.00  0.00     0.006 C 
BRANCH  10  11
ATOM     11  C   UNL     1      12.685  -2.265   3.263  1.00  0.00     0.053 C 
BRANCH  11  12
ATOM     12  C   UNL     1      13.773  -3.016   2.559  1.00  0.00     0.041 C 
ATOM     13  O   UNL     1      13.488  -3.971   1.790  1.00  0.00    -0.550 OA
ATOM     14  O   UNL     1      15.100  -2.637   2.723  1.00  0.00    -0.550 OA
ENDBRANCH  11  12
ENDBRANCH  10  11
ENDBRANCH   9  10
ENDBRANCH   8   9
ENDBRANCH   1   8
TORSDOF 9
ENDMDL
MODEL 3
REMARK VINA RESULT:    -4.256      1.744      4.313
REMARK INTER + INTRA:          -7.339
REMARK INTER:                  -6.278
REMARK INTRA:                  -1.061
REMARK UNBOUND:                -0.844
REMARK SMILES O=C([O-])CCCCCCCCC(=O)[O-]
REMARK SMILES IDX 7 1 6 2 5 3 4 4 2 5 1 6 3 7 8 8 9 9 10 10 11 11 12 12 13 13
REMARK SMILES IDX 14 14
REMARK H PARENT
REMARK Flexibility Score: inf
ROOT
ATOM      1  C   UNL     1      11.509   1.026   3.681  1.00  0.00     0.000 C 
ENDROOT
BRANCH   1   2
ATOM      2  C   UNL     1      10.375   0.132   3.156  1.00  0.00     0.000 C 
BRANCH   2   3
ATOM      3  C   UNL     1      10.197   0.233   1.633  1.00  0.00     0.006 C 
BRANCH   3   4
ATOM      4  C   UNL     1      11.497   0.606   0.909  1.00  0.00     0.053 C 
BRANCH   4   5
ATOM      5  C   UNL     1      12.016  -0.564   0.135  1.00  0.00     0.041 C 
ATOM      6  O   UNL     1      13.009  -0.428  -0.629  1.00  0.00    -0.550 OA
ATOM      7  O   UNL     1      11.376  -1.794   0.217  1.00  0.00    -0.550 OA
ENDBRANCH   4   5
ENDBRANCH   3   4
ENDBRANCH   2   3
ENDBRANCH   1   2
BRANCH   1   8
ATOM      8  C   UNL     1      12.580   0.189   4.396  1.00  0.00     0.000 C 
BRANCH   8   9
ATOM      9  C   UNL     1      12.526  -1.297   4.007  1.00  0.00     0.000 C 
BRANCH   9  10
ATOM     10  C   UNL     1      13.743  -1.737   3.175  1.00  0.00     0.006 C 
BRANCH  10  11
ATOM     11  C   UNL     1      14.647  -0.555   2.801  1.00  0.00     0.053 C 
BRANCH  11  12
ATOM     12  C   UNL     1      15.683  -0.945   1.793  1.00  0.00     0.041 C 
ATOM     13  O   UNL     1      16.751  -0.286   1.694  1.00  0.00    -0.550 OA
ATOM     14  O   UNL     1      15.486  -2.060   0.986  1.00  0.00    -0.550 OA
ENDBRANCH  11  12
ENDBRANCH  10  11
ENDBRANCH   9  10
ENDBRANCH   8   9
ENDBRANCH   1   8
TORSDOF 9
ENDMDL
MODEL 4
REMARK VINA RESULT:    -4.239      0.677      4.697
REMARK INTER + INTRA:          -7.314
REMARK INTER:                  -6.297
REMARK INTRA:                  -1.017
REMARK UNBOUND:                -0.844
REMARK SMILES O=C([O-])CCCCCCCCC(=O)[O-]
REMARK SMILES IDX 7 1 6 2 5 3 4 4 2 5 1 6 3 7 8 8 9 9 10 10 11 11 12 12 13 13
REMARK SMILES IDX 14 14
REMARK H PARENT
REMARK Flexibility Score: inf
ROOT
ATOM      1  C   UNL     1      11.871   0.095   3.930  1.00  0.00     0.000 C 
ENDROOT
BRANCH   1   2
ATOM      2  C   UNL     1      11.627   0.921   2.658  1.00  0.00     0.000 C 
BRANCH   2   3
ATOM      3  C   UNL     1      10.535   0.317   1.760  1.00  0.00     0.006 C 
BRANCH   3   4
ATOM      4  C   UNL     1       9.498  -0.489   2.551  1.00  0.00     0.053 C 
BRANCH   4   5
ATOM      5  C   UNL     1       9.303  -1.838   1.934  1.00  0.00     0.041 C 
ATOM      6  O   UNL     1      10.247  -2.390   1.308  1.00  0.00    -0.550 OA
ATOM      7  O   UNL     1       8.066  -2.465   2.006  1.00  0.00    -0.550 OA
ENDBRANCH   4   5
ENDBRANCH   3   4
ENDBRANCH   2   3
ENDBRANCH   1   2
BRANCH   1   8
ATOM      8  C   UNL     1      13.224  -0.630   3.860  1.00  0.00     0.000 C 
BRANCH   8   9
ATOM      9  C   UNL     1      13.109  -2.039   3.256  1.00  0.00     0.000 C 
BRANCH   9  10
ATOM     10  C   UNL     1      14.052  -2.252   2.060  1.00  0.00     0.006 C 
BRANCH  10  11
ATOM     11  C   UNL     1      14.540  -0.925   1.465  1.00  0.00     0.053 C 
BRANCH  11  12
ATOM     12  C   UNL     1      14.099  -0.758   0.043  1.00  0.00     0.041 C 
ATOM     13  O   UNL     1      12.952  -1.137  -0.313  1.00  0.00    -0.550 OA
ATOM     14  O   UNL     1      14.940  -0.151  -0.882  1.00  0.00    -0.550 OA
ENDBRANCH  11  12
ENDBRANCH  10  11
ENDBRANCH   9  10
ENDBRANCH   8   9
ENDBRANCH   1   8
TORSDOF 9
ENDMDL
MODEL 5
REMARK VINA RESULT:    -4.201      1.639      2.699
REMARK INTER + INTRA:          -7.255
REMARK INTER:                  -6.191
REMARK INTRA:                  -1.064
REMARK UNBOUND:                -0.844
REMARK SMILES O=C([O-])CCCCCCCCC(=O)[O-]
REMARK SMILES IDX 7 1 6 2 5 3 4 4 2 5 1 6 3 7 8 8 9 9 10 10 11 11 12 12 13 13
REMARK SMILES IDX 14 14
REMARK H PARENT
REMARK Flexibility Score: inf
ROOT
ATOM      1  C   UNL     1      12.692  -0.897   4.378  1.00  0.00     0.000 C 
ENDROOT
BRANCH   1   2
ATOM      2  C   UNL     1      13.140  -2.058   3.477  1.00  0.00     0.000 C 
BRANCH   2   3
ATOM      3  C   UNL     1      14.667  -2.132   3.321  1.00  0.00     0.006 C 
BRANCH   3   4
ATOM      4  C   UNL     1      15.116  -2.053   1.856  1.00  0.00     0.053 C 
BRANCH   4   5
ATOM      5  C   UNL     1      15.704  -0.709   1.562  1.00  0.00     0.041 C 
ATOM      6  O   UNL     1      15.436   0.276   2.301  1.00  0.00    -0.550 OA
ATOM      7  O   UNL     1      16.508  -0.530   0.443  1.00  0.00    -0.550 OA
ENDBRANCH   4   5
ENDBRANCH   3   4
ENDBRANCH   2   3
ENDBRANCH   1   2
BRANCH   1   8
ATOM      8  C   UNL     1      12.130   0.261   3.540  1.00  0.00     0.000 C 
BRANCH   8   9
ATOM      9  C   UNL     1      10.697  -0.005   3.051  1.00  0.00     0.000 C 
BRANCH   9  10
ATOM     10  C   UNL     1      10.552   0.153   1.528  1.00  0.00     0.006 C 
BRANCH  10  11
ATOM     11  C   UNL     1      11.896   0.435   0.844  1.00  0.00     0.053 C 
BRANCH  11  12
ATOM     12  C   UNL     1      12.314  -0.694  -0.047  1.00  0.00     0.041 C 
ATOM     13  O   UNL     1      13.212  -0.519  -0.912  1.00  0.00    -0.550 OA
ATOM     14  O   UNL     1      11.738  -1.950   0.101  1.00  0.00    -0.550 OA
ENDBRANCH  11  12
ENDBRANCH  10  11
ENDBRANCH   9  10
ENDBRANCH   8   9
ENDBRANCH   1   8
TORSDOF 9
ENDMDL
MODEL 6
REMARK VINA RESULT:    -4.160      2.168      4.573
REMARK INTER + INTRA:          -7.192
REMARK INTER:                  -6.198
REMARK INTRA:                  -0.995
REMARK UNBOUND:                -0.844
REMARK SMILES O=C([O-])CCCCCCCCC(=O)[O-]
REMARK SMILES IDX 7 1 6 2 5 3 4 4 2 5 1 6 3 7 8 8 9 9 10 10 11 11 12 12 13 13
REMARK SMILES IDX 14 14
REMARK H PARENT
REMARK Flexibility Score: inf
ROOT
ATOM      1  C   UNL     1      10.271   0.290   3.111  1.00  0.00     0.000 C 
ENDROOT
BRANCH   1   2
ATOM      2  C   UNL     1      11.515   0.868   3.803  1.00  0.00     0.000 C 
BRANCH   2   3
ATOM      3  C   UNL     1      12.359  -0.211   4.502  1.00  0.00     0.006 C 
BRANCH   3   4
ATOM      4  C   UNL     1      13.679  -0.492   3.774  1.00  0.00     0.053 C 
BRANCH   4   5
ATOM      5  C   UNL     1      14.020  -1.946   3.853  1.00  0.00     0.041 C 
ATOM      6  O   UNL     1      13.341  -2.792   3.214  1.00  0.00    -0.550 OA
ATOM      7  O   UNL     1      15.057  -2.375   4.673  1.00  0.00    -0.550 OA
ENDBRANCH   4   5
ENDBRANCH   3   4
ENDBRANCH   2   3
ENDBRANCH   1   2
BRANCH   1   8
ATOM      8  C   UNL     1      10.531   0.073   1.612  1.00  0.00     0.000 C 
BRANCH   8   9
ATOM      9  C   UNL     1      10.698  -1.412   1.251  1.00  0.00     0.000 C 
BRANCH   9  10
ATOM     10  C   UNL     1      11.936  -1.675   0.378  1.00  0.00     0.006 C 
BRANCH  10  11
ATOM     11  C   UNL     1      12.734  -0.393   0.103  1.00  0.00     0.053 C 
BRANCH  11  12
ATOM     12  C   UNL     1      14.124  -0.693  -0.367  1.00  0.00     0.041 C 
ATOM     13  O   UNL     1      14.481  -0.377  -1.532  1.00  0.00    -0.550 OA
ATOM     14  O   UNL     1      15.037  -1.290   0.494  1.00  0.00    -0.550 OA
ENDBRANCH  11  12
ENDBRANCH  10  11
ENDBRANCH   9  10
ENDBRANCH   8   9
ENDBRANCH   1   8
TORSDOF 9
ENDMDL
MODEL 7
REMARK VINA RESULT:    -4.138      2.559      5.046
REMARK INTER + INTRA:          -7.159
REMARK INTER:                  -6.229
REMARK INTRA:                  -0.930
REMARK UNBOUND:                -0.844
REMARK SMILES O=C([O-])CCCCCCCCC(=O)[O-]
REMARK SMILES IDX 7 1 6 2 5 3 4 4 2 5 1 6 3 7 8 8 9 9 10 10 11 11 12 12 13 13
REMARK SMILES IDX 14 14
REMARK H PARENT
REMARK Flexibility Score: inf
ROOT
ATOM      1  C   UNL     1      11.311   0.620   0.856  1.00  0.00     0.000 C 
ENDROOT
BRANCH   1   2
ATOM      2  C   UNL     1      10.129   0.381   1.807  1.00  0.00     0.000 C 
BRANCH   2   3
ATOM      3  C   UNL     1      10.555  -0.287   3.124  1.00  0.00     0.006 C 
BRANCH   3   4
ATOM      4  C   UNL     1      11.674   0.478   3.841  1.00  0.00     0.053 C 
BRANCH   4   5
ATOM      5  C   UNL     1      12.838  -0.424   4.103  1.00  0.00     0.041 C 
ATOM      6  O   UNL     1      12.662  -1.665   4.227  1.00  0.00    -0.550 OA
ATOM      7  O   UNL     1      14.111   0.109   4.262  1.00  0.00    -0.550 OA
ENDBRANCH   4   5
ENDBRANCH   3   4
ENDBRANCH   2   3
ENDBRANCH   1   2
BRANCH   1   8
ATOM      8  C   UNL     1      11.693  -0.675   0.121  1.00  0.00     0.000 C 
BRANCH   8   9
ATOM      9  C   UNL     1      13.147  -0.664  -0.377  1.00  0.00     0.000 C 
BRANCH   9  10
ATOM     10  C   UNL     1      14.148  -0.272   0.722  1.00  0.00     0.006 C 
BRANCH  10  11
ATOM     11  C   UNL     1      15.363  -1.209   0.761  1.00  0.00     0.053 C 
BRANCH  11  12
ATOM     12  C   UNL     1      15.206  -2.278   1.798  1.00  0.00     0.041 C 
ATOM     13  O   UNL     1      15.964  -2.302   2.803  1.00  0.00    -0.550 OA
ATOM     14  O   UNL     1      14.199  -3.228   1.674  1.00  0.00    -0.550 OA
ENDBRANCH  11  12
ENDBRANCH  10  11
ENDBRANCH   9  10
ENDBRANCH   8   9
ENDBRANCH   1   8
TORSDOF 9
ENDMDL
MODEL 8
REMARK VINA RESULT:    -4.089      1.027      4.455
REMARK INTER + INTRA:          -7.085
REMARK INTER:                  -6.141
REMARK INTRA:                  -0.944
REMARK UNBOUND:                -0.844
REMARK SMILES O=C([O-])CCCCCCCCC(=O)[O-]
REMARK SMILES IDX 7 1 6 2 5 3 4 4 2 5 1 6 3 7 8 8 9 9 10 10 11 11 12 12 13 13
REMARK SMILES IDX 14 14
REMARK H PARENT
REMARK Flexibility Score: inf
ROOT
ATOM      1  C   UNL     1      13.548  -2.065   3.995  1.00  0.00     0.000 C 
ENDROOT
BRANCH   1   2
ATOM      2  C   UNL     1      13.413  -0.546   4.186  1.00  0.00     0.000 C 
BRANCH   2   3
ATOM      3  C   UNL     1      12.276   0.058   3.348  1.00  0.00     0.006 C 
BRANCH   3   4
ATOM      4  C   UNL     1      11.374  -1.011   2.718  1.00  0.00     0.053 C 
BRANCH   4   5
ATOM      5  C   UNL     1      10.163  -0.378   2.108  1.00  0.00     0.041 C 
ATOM      6  O   UNL     1       9.011  -0.780   2.424  1.00  0.00    -0.550 OA
ATOM      7  O   UNL     1      10.305   0.621   1.153  1.00  0.00    -0.550 OA
ENDBRANCH   4   5
ENDBRANCH   3   4
ENDBRANCH   2   3
ENDBRANCH   1   2
BRANCH   1   8
ATOM      8  C   UNL     1      14.896  -2.417   3.349  1.00  0.00     0.000 C 
BRANCH   8   9
ATOM      9  C   UNL     1      14.825  -2.447   1.813  1.00  0.00     0.000 C 
BRANCH   9  10
ATOM     10  C   UNL     1      15.695  -1.361   1.158  1.00  0.00     0.006 C 
BRANCH  10  11
ATOM     11  C   UNL     1      14.860  -0.177   0.654  1.00  0.00     0.053 C 
BRANCH  11  12
ATOM     12  C   UNL     1      14.145  -0.504  -0.621  1.00  0.00     0.041 C 
ATOM     13  O   UNL     1      12.906  -0.733  -0.612  1.00  0.00    -0.550 OA
ATOM     14  O   UNL     1      14.838  -0.521  -1.825  1.00  0.00    -0.550 OA
ENDBRANCH  11  12
ENDBRANCH  10  11
ENDBRANCH   9  10
ENDBRANCH   8   9
ENDBRANCH   1   8
TORSDOF 9
ENDMDL
MODEL 9
REMARK VINA RESULT:    -4.045      1.779      2.533
REMARK INTER + INTRA:          -7.018
REMARK INTER:                  -6.194
REMARK INTRA:                  -0.823
REMARK UNBOUND:                -0.844
REMARK SMILES O=C([O-])CCCCCCCCC(=O)[O-]
REMARK SMILES IDX 7 1 6 2 5 3 4 4 2 5 1 6 3 7 8 8 9 9 10 10 11 11 12 12 13 13
REMARK SMILES IDX 14 14
REMARK H PARENT
REMARK Flexibility Score: inf
ROOT
ATOM      1  C   UNL     1      12.376  -0.814   4.263  1.00  0.00     0.000 C 
ENDROOT
BRANCH   1   2
ATOM      2  C   UNL     1      13.825  -1.034   3.801  1.00  0.00     0.000 C 
BRANCH   2   3
ATOM      3  C   UNL     1      14.244  -0.064   2.685  1.00  0.00     0.006 C 
BRANCH   3   4
ATOM      4  C   UNL     1      15.767   0.065   2.555  1.00  0.00     0.053 C 
BRANCH   4   5
ATOM      5  C   UNL     1      16.228  -0.494   1.246  1.00  0.00     0.041 C 
ATOM      6  O   UNL     1      15.689  -1.531   0.775  1.00  0.00    -0.550 OA
ATOM      7  O   UNL     1      17.287   0.099   0.570  1.00  0.00    -0.550 OA
ENDBRANCH   4   5
ENDBRANCH   3   4
ENDBRANCH   2   3
ENDBRANCH   1   2
BRANCH   1   8
ATOM      8  C   UNL     1      11.900   0.604   3.914  1.00  0.00     0.000 C 
BRANCH   8   9
ATOM      9  C   UNL     1      10.469   0.625   3.353  1.00  0.00     0.000 C 
BRANCH   9  10
ATOM     10  C   UNL     1      10.304  -0.272   2.115  1.00  0.00     0.006 C 
BRANCH  10  11
ATOM     11  C   UNL     1      11.026   0.297   0.887  1.00  0.00     0.053 C 
BRANCH  11  12
ATOM     12  C   UNL     1      11.791  -0.761   0.153  1.00  0.00     0.041 C 
ATOM     13  O   UNL     1      11.418  -1.962   0.203  1.00  0.00    -0.550 OA
ATOM     14  O   UNL     1      12.896  -0.415  -0.617  1.00  0.00    -0.550 OA
ENDBRANCH  11  12
ENDBRANCH  10  11
ENDBRANCH   9  10
ENDBRANCH   8   9
ENDBRANCH   1   8
TORSDOF 9
ENDMDL
