MODEL 1
REMARK VINA RESULT:    -2.953      0.000      0.000
REMARK INTER + INTRA:          -3.039
REMARK INTER:                  -3.039
REMARK INTRA:                   0.000
REMARK UNBOUND:                 0.000
REMARK SMILES O=c1ccc2cc(O)ccc2o1
REMARK SMILES IDX 9 1 10 2 11 3 5 4 4 5 3 6 2 7 1 8 12 9 6 10 7 11 8 12
REMARK H PARENT 8 13
REMARK Flexibility Score: inf
ROOT
ATOM      1  C   UNL     1     -45.737 -23.168  40.266  1.00  0.00     0.050 A 
ATOM      2  C   UNL     1     -45.169 -22.894  41.514  1.00  0.00     0.052 A 
ATOM      3  C   UNL     1     -45.283 -23.822  42.555  1.00  0.00     0.138 A 
ATOM      4  C   UNL     1     -45.973 -25.036  42.339  1.00  0.00     0.021 A 
ATOM      5  C   UNL     1     -46.070 -25.944  43.398  1.00  0.00     0.019 A 
ATOM      6  C   UNL     1     -45.489 -25.628  44.627  1.00  0.00     0.094 A 
ATOM      7  C   UNL     1     -44.822 -24.406  44.766  1.00  0.00     0.336 A 
ATOM      8  O   UNL     1     -44.291 -24.103  45.867  1.00  0.00    -0.246 OA
ATOM      9  O   UNL     1     -44.744 -23.560  43.743  1.00  0.00    -0.423 OA
ATOM     10  C   UNL     1     -46.539 -25.306  41.086  1.00  0.00     0.058 A 
ATOM     11  C   UNL     1     -46.420 -24.370  40.047  1.00  0.00     0.116 A 
ENDROOT
BRANCH  11  12
ATOM     12  O   UNL     1     -46.978 -24.624  38.796  1.00  0.00    -0.508 OA
ATOM     13  H   UNL     1     -46.606 -25.343  38.187  1.00  0.00     0.293 HD
ENDBRANCH  11  12
TORSDOF 1
ENDMDL
MODEL 2
REMARK VINA RESULT:    -2.915      1.221      2.156
REMARK INTER + INTRA:          -3.000
REMARK INTER:                  -3.000
REMARK INTRA:                   0.000
REMARK UNBOUND:                 0.000
REMARK SMILES O=c1ccc2cc(O)ccc2o1
REMARK SMILES IDX 9 1 10 2 11 3 5 4 4 5 3 6 2 7 1 8 12 9 6 10 7 11 8 12
REMARK H PARENT 8 13
REMARK Flexibility Score: inf
ROOT
ATOM      1  C   UNL     1     -46.608 -24.645  40.917  1.00  0.00     0.050 A 
ATOM      2  C   UNL     1     -46.514 -25.251  42.173  1.00  0.00     0.052 A 
ATOM      3  C   UNL     1     -45.711 -24.684  43.168  1.00  0.00     0.138 A 
ATOM      4  C   UNL     1     -44.995 -23.496  42.898  1.00  0.00     0.021 A 
ATOM      5  C   UNL     1     -44.200 -22.953  43.912  1.00  0.00     0.019 A 
ATOM      6  C   UNL     1     -44.137 -23.593  45.150  1.00  0.00     0.094 A 
ATOM      7  C   UNL     1     -44.874 -24.766  45.344  1.00  0.00     0.336 A 
ATOM      8  O   UNL     1     -44.830 -25.358  46.455  1.00  0.00    -0.246 OA
ATOM      9  O   UNL     1     -45.622 -25.263  44.363  1.00  0.00    -0.423 OA
ATOM     10  C   UNL     1     -45.092 -22.892  41.636  1.00  0.00     0.058 A 
ATOM     11  C   UNL     1     -45.900 -23.468  40.645  1.00  0.00     0.116 A 
ENDROOT
BRANCH  11  12
ATOM     12  O   UNL     1     -46.006 -22.879  39.387  1.00  0.00    -0.508 OA
ATOM     13  H   UNL     1     -45.191 -22.535  38.892  1.00  0.00     0.293 HD
ENDBRANCH  11  12
TORSDOF 1
ENDMDL
MODEL 3
REMARK VINA RESULT:    -2.907     16.707     17.479
REMARK INTER + INTRA:          -2.992
REMARK INTER:                  -2.992
REMARK INTRA:                   0.000
REMARK UNBOUND:                 0.000
REMARK SMILES O=c1ccc2cc(O)ccc2o1
REMARK SMILES IDX 9 1 10 2 11 3 5 4 4 5 3 6 2 7 1 8 12 9 6 10 7 11 8 12
REMARK H PARENT 8 13
REMARK Flexibility Score: inf
ROOT
ATOM      1  C   UNL     1     -28.765 -23.313  41.089  1.00  0.00     0.050 A 
ATOM      2  C   UNL     1     -29.323 -23.394  42.369  1.00  0.00     0.052 A 
ATOM      3  C   UNL     1     -28.784 -24.275  43.313  1.00  0.00     0.138 A 
ATOM      4  C   UNL     1     -27.676 -25.080  42.969  1.00  0.00     0.021 A 
ATOM      5  C   UNL     1     -27.159 -25.951  43.934  1.00  0.00     0.019 A 
ATOM      6  C   UNL     1     -27.749 -25.998  45.198  1.00  0.00     0.094 A 
ATOM      7  C   UNL     1     -28.844 -25.171  45.467  1.00  0.00     0.336 A 
ATOM      8  O   UNL     1     -29.390 -25.200  46.601  1.00  0.00    -0.246 OA
ATOM      9  O   UNL     1     -29.316 -24.352  44.531  1.00  0.00    -0.423 OA
ATOM     10  C   UNL     1     -27.121 -24.995  41.685  1.00  0.00     0.058 A 
ATOM     11  C   UNL     1     -27.667 -24.109  40.743  1.00  0.00     0.116 A 
ENDROOT
BRANCH  11  12
ATOM     12  O   UNL     1     -27.126 -24.013  39.463  1.00  0.00    -0.508 OA
ATOM     13  H   UNL     1     -27.373 -24.671  38.733  1.00  0.00     0.293 HD
ENDBRANCH  11  12
TORSDOF 1
ENDMDL
MODEL 4
REMARK VINA RESULT:    -2.907     24.070     24.567
REMARK INTER + INTRA:          -2.992
REMARK INTER:                  -2.992
REMARK INTRA:                   0.000
REMARK UNBOUND:                 0.000
REMARK SMILES O=c1ccc2cc(O)ccc2o1
REMARK SMILES IDX 9 1 10 2 11 3 5 4 4 5 3 6 2 7 1 8 12 9 6 10 7 11 8 12
REMARK H PARENT 8 13
REMARK Flexibility Score: inf
ROOT
ATOM      1  C   UNL     1     -26.890 -40.875  41.576  1.00  0.00     0.050 A 
ATOM      2  C   UNL     1     -27.122 -40.468  42.894  1.00  0.00     0.052 A 
ATOM      3  C   UNL     1     -28.004 -41.191  43.705  1.00  0.00     0.138 A 
ATOM      4  C   UNL     1     -28.659 -42.331  43.188  1.00  0.00     0.021 A 
ATOM      5  C   UNL     1     -29.535 -43.031  44.023  1.00  0.00     0.019 A 
ATOM      6  C   UNL     1     -29.735 -42.588  45.331  1.00  0.00     0.094 A 
ATOM      7  C   UNL     1     -29.053 -41.451  45.774  1.00  0.00     0.336 A 
ATOM      8  O   UNL     1     -29.221 -41.036  46.950  1.00  0.00    -0.246 OA
ATOM      9  O   UNL     1     -28.225 -40.802  44.959  1.00  0.00    -0.423 OA
ATOM     10  C   UNL     1     -28.423 -42.734  41.867  1.00  0.00     0.058 A 
ATOM     11  C   UNL     1     -27.536 -42.004  41.060  1.00  0.00     0.116 A 
ENDROOT
BRANCH  11  12
ATOM     12  O   UNL     1     -27.292 -42.393  39.744  1.00  0.00    -0.508 OA
ATOM     13  H   UNL     1     -26.895 -43.300  39.525  1.00  0.00     0.293 HD
ENDBRANCH  11  12
TORSDOF 1
ENDMDL
MODEL 5
REMARK VINA RESULT:    -2.806     16.386     17.179
REMARK INTER + INTRA:          -2.888
REMARK INTER:                  -2.888
REMARK INTRA:                   0.000
REMARK UNBOUND:                 0.000
REMARK SMILES O=c1ccc2cc(O)ccc2o1
REMARK SMILES IDX 9 1 10 2 11 3 5 4 4 5 3 6 2 7 1 8 12 9 6 10 7 11 8 12
REMARK H PARENT 8 13
REMARK Flexibility Score: inf
ROOT
ATOM      1  C   UNL     1     -26.875 -24.509  41.266  1.00  0.00     0.050 A 
ATOM      2  C   UNL     1     -26.886 -24.958  42.591  1.00  0.00     0.052 A 
ATOM      3  C   UNL     1     -28.028 -24.782  43.381  1.00  0.00     0.138 A 
ATOM      4  C   UNL     1     -29.167 -24.149  42.836  1.00  0.00     0.021 A 
ATOM      5  C   UNL     1     -30.292 -23.987  43.650  1.00  0.00     0.019 A 
ATOM      6  C   UNL     1     -30.257 -24.451  44.966  1.00  0.00     0.094 A 
ATOM      7  C   UNL     1     -29.094 -25.067  45.437  1.00  0.00     0.336 A 
ATOM      8  O   UNL     1     -29.043 -25.492  46.621  1.00  0.00    -0.246 OA
ATOM      9  O   UNL     1     -28.036 -25.209  44.641  1.00  0.00    -0.423 OA
ATOM     10  C   UNL     1     -29.150 -23.701  41.508  1.00  0.00     0.058 A 
ATOM     11  C   UNL     1     -28.002 -23.882  40.722  1.00  0.00     0.116 A 
ENDROOT
BRANCH  11  12
ATOM     12  O   UNL     1     -27.971 -23.441  39.401  1.00  0.00    -0.508 OA
ATOM     13  H   UNL     1     -27.097 -23.219  38.937  1.00  0.00     0.293 HD
ENDBRANCH  11  12
TORSDOF 1
ENDMDL
MODEL 6
REMARK VINA RESULT:    -2.754      0.933      4.778
REMARK INTER + INTRA:          -2.834
REMARK INTER:                  -2.834
REMARK INTRA:                   0.000
REMARK UNBOUND:                 0.000
REMARK SMILES O=c1ccc2cc(O)ccc2o1
REMARK SMILES IDX 9 1 10 2 11 3 5 4 4 5 3 6 2 7 1 8 12 9 6 10 7 11 8 12
REMARK H PARENT 8 13
REMARK Flexibility Score: inf
ROOT
ATOM      1  C   UNL     1     -45.394 -25.718  44.868  1.00  0.00     0.050 A 
ATOM      2  C   UNL     1     -46.004 -26.042  43.652  1.00  0.00     0.052 A 
ATOM      3  C   UNL     1     -45.973 -25.133  42.589  1.00  0.00     0.138 A 
ATOM      4  C   UNL     1     -45.325 -23.888  42.749  1.00  0.00     0.021 A 
ATOM      5  C   UNL     1     -45.312 -23.000  41.668  1.00  0.00     0.019 A 
ATOM      6  C   UNL     1     -45.934 -23.366  40.474  1.00  0.00     0.094 A 
ATOM      7  C   UNL     1     -46.556 -24.616  40.389  1.00  0.00     0.336 A 
ATOM      8  O   UNL     1     -47.123 -24.964  39.320  1.00  0.00    -0.246 OA
ATOM      9  O   UNL     1     -46.555 -25.442  41.432  1.00  0.00    -0.423 OA
ATOM     10  C   UNL     1     -44.715 -23.568  43.970  1.00  0.00     0.058 A 
ATOM     11  C   UNL     1     -44.750 -24.486  45.031  1.00  0.00     0.116 A 
ENDROOT
BRANCH  11  12
ATOM     12  O   UNL     1     -44.148 -24.182  46.250  1.00  0.00    -0.508 OA
ATOM     13  H   UNL     1     -44.669 -24.209  47.119  1.00  0.00     0.293 HD
ENDBRANCH  11  12
TORSDOF 1
ENDMDL
MODEL 7
REMARK VINA RESULT:    -2.706     16.392     17.710
REMARK INTER + INTRA:          -2.785
REMARK INTER:                  -2.785
REMARK INTRA:                   0.000
REMARK UNBOUND:                 0.000
REMARK SMILES O=c1ccc2cc(O)ccc2o1
REMARK SMILES IDX 9 1 10 2 11 3 5 4 4 5 3 6 2 7 1 8 12 9 6 10 7 11 8 12
REMARK H PARENT 8 13
REMARK Flexibility Score: inf
ROOT
ATOM      1  C   UNL     1     -27.426 -25.921  45.490  1.00  0.00     0.050 A 
ATOM      2  C   UNL     1     -27.074 -25.593  44.177  1.00  0.00     0.052 A 
ATOM      3  C   UNL     1     -27.940 -24.826  43.390  1.00  0.00     0.138 A 
ATOM      4  C   UNL     1     -29.170 -24.384  43.927  1.00  0.00     0.021 A 
ATOM      5  C   UNL     1     -30.013 -23.618  43.116  1.00  0.00     0.019 A 
ATOM      6  C   UNL     1     -29.621 -23.317  41.812  1.00  0.00     0.094 A 
ATOM      7  C   UNL     1     -28.388 -23.789  41.348  1.00  0.00     0.336 A 
ATOM      8  O   UNL     1     -28.016 -23.527  40.174  1.00  0.00    -0.246 OA
ATOM      9  O   UNL     1     -27.604 -24.515  42.140  1.00  0.00    -0.423 OA
ATOM     10  C   UNL     1     -29.517 -24.715  45.244  1.00  0.00     0.058 A 
ATOM     11  C   UNL     1     -28.644 -25.485  46.026  1.00  0.00     0.116 A 
ENDROOT
BRANCH  11  12
ATOM     12  O   UNL     1     -28.976 -25.822  47.337  1.00  0.00    -0.508 OA
ATOM     13  H   UNL     1     -28.296 -26.229  47.968  1.00  0.00     0.293 HD
ENDBRANCH  11  12
TORSDOF 1
ENDMDL
MODEL 8
REMARK VINA RESULT:    -2.688     16.647     17.858
REMARK INTER + INTRA:          -2.767
REMARK INTER:                  -2.767
REMARK INTRA:                   0.000
REMARK UNBOUND:                 0.000
REMARK SMILES O=c1ccc2cc(O)ccc2o1
REMARK SMILES IDX 9 1 10 2 11 3 5 4 4 5 3 6 2 7 1 8 12 9 6 10 7 11 8 12
REMARK H PARENT 8 13
REMARK Flexibility Score: inf
ROOT
ATOM      1  C   UNL     1     -29.459 -24.747  45.040  1.00  0.00     0.050 A 
ATOM      2  C   UNL     1     -29.775 -24.092  43.846  1.00  0.00     0.052 A 
ATOM      3  C   UNL     1     -28.910 -24.179  42.749  1.00  0.00     0.138 A 
ATOM      4  C   UNL     1     -27.719 -24.930  42.853  1.00  0.00     0.021 A 
ATOM      5  C   UNL     1     -26.875 -24.998  41.740  1.00  0.00     0.019 A 
ATOM      6  C   UNL     1     -27.231 -24.327  40.569  1.00  0.00     0.094 A 
ATOM      7  C   UNL     1     -28.427 -23.603  40.540  1.00  0.00     0.336 A 
ATOM      8  O   UNL     1     -28.765 -22.990  39.493  1.00  0.00    -0.246 OA
ATOM      9  O   UNL     1     -29.212 -23.553  41.613  1.00  0.00    -0.423 OA
ATOM     10  C   UNL     1     -27.407 -25.585  44.052  1.00  0.00     0.058 A 
ATOM     11  C   UNL     1     -28.279 -25.493  45.147  1.00  0.00     0.116 A 
ENDROOT
BRANCH  11  12
ATOM     12  O   UNL     1     -27.983 -26.139  46.346  1.00  0.00    -0.508 OA
ATOM     13  H   UNL     1     -27.264 -26.852  46.400  1.00  0.00     0.293 HD
ENDBRANCH  11  12
TORSDOF 1
ENDMDL
MODEL 9
REMARK VINA RESULT:    -2.655      1.365      4.461
REMARK INTER + INTRA:          -2.733
REMARK INTER:                  -2.733
REMARK INTRA:                   0.000
REMARK UNBOUND:                 0.000
REMARK SMILES O=c1ccc2cc(O)ccc2o1
REMARK SMILES IDX 9 1 10 2 11 3 5 4 4 5 3 6 2 7 1 8 12 9 6 10 7 11 8 12
REMARK H PARENT 8 13
REMARK Flexibility Score: inf
ROOT
ATOM      1  C   UNL     1     -44.110 -23.352  45.174  1.00  0.00     0.050 A 
ATOM      2  C   UNL     1     -44.537 -23.126  43.862  1.00  0.00     0.052 A 
ATOM      3  C   UNL     1     -45.318 -24.082  43.204  1.00  0.00     0.138 A 
ATOM      4  C   UNL     1     -45.674 -25.276  43.870  1.00  0.00     0.021 A 
ATOM      5  C   UNL     1     -46.455 -26.213  43.187  1.00  0.00     0.019 A 
ATOM      6  C   UNL     1     -46.857 -25.944  41.878  1.00  0.00     0.094 A 
ATOM      7  C   UNL     1     -46.467 -24.741  41.282  1.00  0.00     0.336 A 
ATOM      8  O   UNL     1     -46.819 -24.480  40.102  1.00  0.00    -0.246 OA
ATOM      9  O   UNL     1     -45.723 -23.866  41.955  1.00  0.00    -0.423 OA
ATOM     10  C   UNL     1     -45.244 -25.497  45.186  1.00  0.00     0.058 A 
ATOM     11  C   UNL     1     -44.461 -24.533  45.838  1.00  0.00     0.116 A 
ENDROOT
BRANCH  11  12
ATOM     12  O   UNL     1     -44.026 -24.740  47.146  1.00  0.00    -0.508 OA
ATOM     13  H   UNL     1     -43.045 -24.876  47.363  1.00  0.00     0.293 HD
ENDBRANCH  11  12
TORSDOF 1
ENDMDL
