MODEL 1
REMARK VINA RESULT:    -3.613      0.000      0.000
REMARK INTER + INTRA:          -5.160
REMARK INTER:                  -4.880
REMARK INTRA:                  -0.279
REMARK UNBOUND:                -0.279
REMARK SMILES CCCCCCCC(=O)[O-]
REMARK SMILES IDX 5 1 6 2 7 3 8 4 9 5 10 6 4 7 3 8 2 9 1 10
REMARK H PARENT
REMARK Flexibility Score: inf
ROOT
ATOM      1  C   UNL     1     -34.691 -53.113  27.376  1.00  0.00     0.000 C 
ENDROOT
BRANCH   1   2
ATOM      2  C   UNL     1     -35.665 -52.995  28.555  1.00  0.00     0.006 C 
BRANCH   2   3
ATOM      3  C   UNL     1     -36.297 -54.351  28.884  1.00  0.00     0.053 C 
BRANCH   3   4
ATOM      4  C   UNL     1     -35.242 -55.344  29.258  1.00  0.00     0.041 C 
ATOM      5  O   UNL     1     -35.110 -56.408  28.598  1.00  0.00    -0.550 OA
ATOM      6  O   UNL     1     -34.372 -55.071  30.306  1.00  0.00    -0.550 OA
ENDBRANCH   3   4
ENDBRANCH   2   3
ENDBRANCH   1   2
BRANCH   1   7
ATOM      7  C   UNL     1     -33.796 -51.869  27.278  1.00  0.00     0.000 C 
BRANCH   7   8
ATOM      8  C   UNL     1     -33.307 -51.603  25.845  1.00  0.00    -0.000 C 
BRANCH   8   9
ATOM      9  C   UNL     1     -34.393 -51.870  24.792  1.00  0.00    -0.003 C 
ATOM     10  C   UNL     1     -34.875 -50.568  24.159  1.00  0.00     0.004 C 
ENDBRANCH   8   9
ENDBRANCH   7   8
ENDBRANCH   1   7
TORSDOF 6
ENDMDL
MODEL 2
REMARK VINA RESULT:    -3.570      3.900      5.740
REMARK INTER + INTRA:          -5.101
REMARK INTER:                  -4.950
REMARK INTRA:                  -0.151
REMARK UNBOUND:                -0.279
REMARK SMILES CCCCCCCC(=O)[O-]
REMARK SMILES IDX 5 1 6 2 7 3 8 4 9 5 10 6 4 7 3 8 2 9 1 10
REMARK H PARENT
REMARK Flexibility Score: inf
ROOT
ATOM      1  C   UNL     1     -33.735 -54.090  30.833  1.00  0.00     0.000 C 
ENDROOT
BRANCH   1   2
ATOM      2  C   UNL     1     -33.353 -54.072  29.347  1.00  0.00     0.006 C 
BRANCH   2   3
ATOM      3  C   UNL     1     -34.599 -54.027  28.458  1.00  0.00     0.053 C 
BRANCH   3   4
ATOM      4  C   UNL     1     -35.517 -55.163  28.784  1.00  0.00     0.041 C 
ATOM      5  O   UNL     1     -35.128 -56.352  28.645  1.00  0.00    -0.550 OA
ATOM      6  O   UNL     1     -36.785 -54.907  29.288  1.00  0.00    -0.550 OA
ENDBRANCH   3   4
ENDBRANCH   2   3
ENDBRANCH   1   2
BRANCH   1   7
ATOM      7  C   UNL     1     -32.938 -53.038  31.618  1.00  0.00     0.000 C 
BRANCH   7   8
ATOM      8  C   UNL     1     -32.672 -53.461  33.071  1.00  0.00    -0.000 C 
BRANCH   8   9
ATOM      9  C   UNL     1     -31.481 -52.718  33.694  1.00  0.00    -0.003 C 
ATOM     10  C   UNL     1     -30.506 -53.693  34.348  1.00  0.00     0.004 C 
ENDBRANCH   8   9
ENDBRANCH   7   8
ENDBRANCH   1   7
TORSDOF 6
ENDMDL
MODEL 3
REMARK VINA RESULT:    -3.565     10.086     10.903
REMARK INTER + INTRA:          -5.094
REMARK INTER:                  -4.679
REMARK INTRA:                  -0.415
REMARK UNBOUND:                -0.279
REMARK SMILES CCCCCCCC(=O)[O-]
REMARK SMILES IDX 5 1 6 2 7 3 8 4 9 5 10 6 4 7 3 8 2 9 1 10
REMARK H PARENT
REMARK Flexibility Score: inf
ROOT
ATOM      1  C   UNL     1     -26.907 -53.445  31.986  1.00  0.00     0.000 C 
ENDROOT
BRANCH   1   2
ATOM      2  C   UNL     1     -26.760 -51.958  32.333  1.00  0.00     0.006 C 
BRANCH   2   3
ATOM      3  C   UNL     1     -26.173 -51.777  33.737  1.00  0.00     0.053 C 
BRANCH   3   4
ATOM      4  C   UNL     1     -24.847 -51.087  33.666  1.00  0.00     0.041 C 
ATOM      5  O   UNL     1     -24.438 -50.611  32.575  1.00  0.00    -0.550 OA
ATOM      6  O   UNL     1     -24.086 -50.928  34.816  1.00  0.00    -0.550 OA
ENDBRANCH   3   4
ENDBRANCH   2   3
ENDBRANCH   1   2
BRANCH   1   7
ATOM      7  C   UNL     1     -25.644 -53.974  31.290  1.00  0.00     0.000 C 
BRANCH   7   8
ATOM      8  C   UNL     1     -25.874 -54.284  29.802  1.00  0.00    -0.000 C 
BRANCH   8   9
ATOM      9  C   UNL     1     -24.804 -53.658  28.896  1.00  0.00    -0.003 C 
ATOM     10  C   UNL     1     -24.077 -52.521  29.609  1.00  0.00     0.004 C 
ENDBRANCH   8   9
ENDBRANCH   7   8
ENDBRANCH   1   7
TORSDOF 6
ENDMDL
MODEL 4
REMARK VINA RESULT:    -3.532      3.245      5.117
REMARK INTER + INTRA:          -5.050
REMARK INTER:                  -4.916
REMARK INTRA:                  -0.133
REMARK UNBOUND:                -0.279
REMARK SMILES CCCCCCCC(=O)[O-]
REMARK SMILES IDX 5 1 6 2 7 3 8 4 9 5 10 6 4 7 3 8 2 9 1 10
REMARK H PARENT
REMARK Flexibility Score: inf
ROOT
ATOM      1  C   UNL     1     -33.384 -53.248  29.303  1.00  0.00     0.000 C 
ENDROOT
BRANCH   1   2
ATOM      2  C   UNL     1     -34.777 -52.777  28.867  1.00  0.00     0.006 C 
BRANCH   2   3
ATOM      3  C   UNL     1     -35.448 -53.812  27.959  1.00  0.00     0.053 C 
BRANCH   3   4
ATOM      4  C   UNL     1     -35.981 -54.952  28.768  1.00  0.00     0.041 C 
ATOM      5  O   UNL     1     -37.025 -54.809  29.454  1.00  0.00    -0.550 OA
ATOM      6  O   UNL     1     -35.349 -56.188  28.724  1.00  0.00    -0.550 OA
ENDBRANCH   3   4
ENDBRANCH   2   3
ENDBRANCH   1   2
BRANCH   1   7
ATOM      7  C   UNL     1     -33.415 -53.799  30.737  1.00  0.00     0.000 C 
BRANCH   7   8
ATOM      8  C   UNL     1     -32.790 -52.833  31.756  1.00  0.00    -0.000 C 
BRANCH   8   9
ATOM      9  C   UNL     1     -32.878 -53.356  33.197  1.00  0.00    -0.003 C 
ATOM     10  C   UNL     1     -31.498 -53.412  33.846  1.00  0.00     0.004 C 
ENDBRANCH   8   9
ENDBRANCH   7   8
ENDBRANCH   1   7
TORSDOF 6
ENDMDL
MODEL 5
REMARK VINA RESULT:    -3.448      1.224      1.496
REMARK INTER + INTRA:          -4.936
REMARK INTER:                  -4.694
REMARK INTRA:                  -0.242
REMARK UNBOUND:                -0.279
REMARK SMILES CCCCCCCC(=O)[O-]
REMARK SMILES IDX 5 1 6 2 7 3 8 4 9 5 10 6 4 7 3 8 2 9 1 10
REMARK H PARENT
REMARK Flexibility Score: inf
ROOT
ATOM      1  C   UNL     1     -33.934 -52.795  27.815  1.00  0.00     0.000 C 
ENDROOT
BRANCH   1   2
ATOM      2  C   UNL     1     -34.770 -52.697  29.098  1.00  0.00     0.006 C 
BRANCH   2   3
ATOM      3  C   UNL     1     -34.685 -53.993  29.910  1.00  0.00     0.053 C 
BRANCH   3   4
ATOM      4  C   UNL     1     -35.664 -54.999  29.394  1.00  0.00     0.041 C 
ATOM      5  O   UNL     1     -36.897 -54.746  29.402  1.00  0.00    -0.550 OA
ATOM      6  O   UNL     1     -35.211 -56.198  28.859  1.00  0.00    -0.550 OA
ENDBRANCH   3   4
ENDBRANCH   2   3
ENDBRANCH   1   2
BRANCH   1   7
ATOM      7  C   UNL     1     -34.826 -52.693  26.570  1.00  0.00     0.000 C 
BRANCH   7   8
ATOM      8  C   UNL     1     -34.041 -52.293  25.310  1.00  0.00    -0.000 C 
BRANCH   8   9
ATOM      9  C   UNL     1     -34.757 -51.213  24.486  1.00  0.00    -0.003 C 
ATOM     10  C   UNL     1     -33.978 -49.901  24.506  1.00  0.00     0.004 C 
ENDBRANCH   8   9
ENDBRANCH   7   8
ENDBRANCH   1   7
TORSDOF 6
ENDMDL
MODEL 6
REMARK VINA RESULT:    -3.429      9.391     10.599
REMARK INTER + INTRA:          -4.911
REMARK INTER:                  -4.641
REMARK INTRA:                  -0.271
REMARK UNBOUND:                -0.279
REMARK SMILES CCCCCCCC(=O)[O-]
REMARK SMILES IDX 5 1 6 2 7 3 8 4 9 5 10 6 4 7 3 8 2 9 1 10
REMARK H PARENT
REMARK Flexibility Score: inf
ROOT
ATOM      1  C   UNL     1     -26.832 -53.367  31.657  1.00  0.00     0.000 C 
ENDROOT
BRANCH   1   2
ATOM      2  C   UNL     1     -25.572 -54.044  31.103  1.00  0.00     0.006 C 
BRANCH   2   3
ATOM      3  C   UNL     1     -25.634 -54.158  29.577  1.00  0.00     0.053 C 
BRANCH   3   4
ATOM      4  C   UNL     1     -24.633 -53.245  28.942  1.00  0.00     0.041 C 
ATOM      5  O   UNL     1     -23.843 -52.576  29.657  1.00  0.00    -0.550 OA
ATOM      6  O   UNL     1     -24.541 -53.172  27.558  1.00  0.00    -0.550 OA
ENDBRANCH   3   4
ENDBRANCH   2   3
ENDBRANCH   1   2
BRANCH   1   7
ATOM      7  C   UNL     1     -26.496 -52.493  32.874  1.00  0.00     0.000 C 
BRANCH   7   8
ATOM      8  C   UNL     1     -27.420 -52.765  34.072  1.00  0.00    -0.000 C 
BRANCH   8   9
ATOM      9  C   UNL     1     -28.277 -54.025  33.882  1.00  0.00    -0.003 C 
ATOM     10  C   UNL     1     -29.733 -53.761  34.256  1.00  0.00     0.004 C 
ENDBRANCH   8   9
ENDBRANCH   7   8
ENDBRANCH   1   7
TORSDOF 6
ENDMDL
MODEL 7
REMARK VINA RESULT:    -3.396      8.365      8.902
REMARK INTER + INTRA:          -4.866
REMARK INTER:                  -4.606
REMARK INTRA:                  -0.260
REMARK UNBOUND:                -0.279
REMARK SMILES CCCCCCCC(=O)[O-]
REMARK SMILES IDX 5 1 6 2 7 3 8 4 9 5 10 6 4 7 3 8 2 9 1 10
REMARK H PARENT
REMARK Flexibility Score: inf
ROOT
ATOM      1  C   UNL     1     -34.189 -45.105  31.220  1.00  0.00     0.000 C 
ENDROOT
BRANCH   1   2
ATOM      2  C   UNL     1     -34.365 -45.710  32.619  1.00  0.00     0.006 C 
BRANCH   2   3
ATOM      3  C   UNL     1     -35.675 -46.496  32.718  1.00  0.00     0.053 C 
BRANCH   3   4
ATOM      4  C   UNL     1     -35.827 -47.093  34.081  1.00  0.00     0.041 C 
ATOM      5  O   UNL     1     -34.810 -47.430  34.742  1.00  0.00    -0.550 OA
ATOM      6  O   UNL     1     -37.090 -47.233  34.641  1.00  0.00    -0.550 OA
ENDBRANCH   3   4
ENDBRANCH   2   3
ENDBRANCH   1   2
BRANCH   1   7
ATOM      7  C   UNL     1     -35.247 -44.024  30.952  1.00  0.00     0.000 C 
BRANCH   7   8
ATOM      8  C   UNL     1     -35.457 -43.761  29.452  1.00  0.00    -0.000 C 
BRANCH   8   9
ATOM      9  C   UNL     1     -36.274 -44.866  28.767  1.00  0.00    -0.003 C 
ATOM     10  C   UNL     1     -35.990 -44.910  27.269  1.00  0.00     0.004 C 
ENDBRANCH   8   9
ENDBRANCH   7   8
ENDBRANCH   1   7
TORSDOF 6
ENDMDL
MODEL 8
REMARK VINA RESULT:    -3.362      4.487      5.906
REMARK INTER + INTRA:          -4.820
REMARK INTER:                  -4.676
REMARK INTRA:                  -0.144
REMARK UNBOUND:                -0.279
REMARK SMILES CCCCCCCC(=O)[O-]
REMARK SMILES IDX 5 1 6 2 7 3 8 4 9 5 10 6 4 7 3 8 2 9 1 10
REMARK H PARENT
REMARK Flexibility Score: inf
ROOT
ATOM      1  C   UNL     1     -33.030 -53.380  31.213  1.00  0.00     0.000 C 
ENDROOT
BRANCH   1   2
ATOM      2  C   UNL     1     -32.855 -53.483  32.734  1.00  0.00     0.006 C 
BRANCH   2   3
ATOM      3  C   UNL     1     -31.735 -52.560  33.223  1.00  0.00     0.053 C 
BRANCH   3   4
ATOM      4  C   UNL     1     -30.914 -53.242  34.270  1.00  0.00     0.041 C 
ATOM      5  O   UNL     1     -30.792 -54.495  34.264  1.00  0.00    -0.550 OA
ATOM      6  O   UNL     1     -30.242 -52.490  35.225  1.00  0.00    -0.550 OA
ENDBRANCH   3   4
ENDBRANCH   2   3
ENDBRANCH   1   2
BRANCH   1   7
ATOM      7  C   UNL     1     -34.241 -54.198  30.742  1.00  0.00     0.000 C 
BRANCH   7   8
ATOM      8  C   UNL     1     -33.982 -54.928  29.415  1.00  0.00    -0.000 C 
BRANCH   8   9
ATOM      9  C   UNL     1     -35.230 -55.648  28.883  1.00  0.00    -0.003 C 
ATOM     10  C   UNL     1     -36.355 -54.657  28.598  1.00  0.00     0.004 C 
ENDBRANCH   8   9
ENDBRANCH   7   8
ENDBRANCH   1   7
TORSDOF 6
ENDMDL
MODEL 9
REMARK VINA RESULT:    -3.362      3.899      5.954
REMARK INTER + INTRA:          -4.820
REMARK INTER:                  -4.661
REMARK INTRA:                  -0.159
REMARK UNBOUND:                -0.279
REMARK SMILES CCCCCCCC(=O)[O-]
REMARK SMILES IDX 5 1 6 2 7 3 8 4 9 5 10 6 4 7 3 8 2 9 1 10
REMARK H PARENT
REMARK Flexibility Score: inf
ROOT
ATOM      1  C   UNL     1     -34.131 -52.134  26.749  1.00  0.00     0.000 C 
ENDROOT
BRANCH   1   2
ATOM      2  C   UNL     1     -33.854 -52.104  25.241  1.00  0.00     0.006 C 
BRANCH   2   3
ATOM      3  C   UNL     1     -34.905 -51.267  24.505  1.00  0.00     0.053 C 
BRANCH   3   4
ATOM      4  C   UNL     1     -34.267 -50.085  23.847  1.00  0.00     0.041 C 
ATOM      5  O   UNL     1     -34.904 -49.006  23.728  1.00  0.00    -0.550 OA
ATOM      6  O   UNL     1     -32.951 -50.161  23.408  1.00  0.00    -0.550 OA
ENDBRANCH   3   4
ENDBRANCH   2   3
ENDBRANCH   1   2
BRANCH   1   7
ATOM      7  C   UNL     1     -34.853 -53.430  27.148  1.00  0.00     0.000 C 
BRANCH   7   8
ATOM      8  C   UNL     1     -35.626 -53.293  28.470  1.00  0.00    -0.000 C 
BRANCH   8   9
ATOM      9  C   UNL     1     -36.301 -54.605  28.898  1.00  0.00    -0.003 C 
ATOM     10  C   UNL     1     -35.282 -55.736  29.008  1.00  0.00     0.004 C 
ENDBRANCH   8   9
ENDBRANCH   7   8
ENDBRANCH   1   7
TORSDOF 6
ENDMDL
