MODEL 1
REMARK VINA RESULT:    -6.963      0.000      0.000
REMARK INTER + INTRA:          -6.963
REMARK INTER:                  -6.963
REMARK INTRA:                   0.000
REMARK UNBOUND:                 0.000
REMARK SMILES C=C1CCC[C@@]2(C)CC(=O)C(=C(C)C)C[C@@H]12
REMARK SMILES IDX 13 1 12 2 11 3 15 4 16 5 2 6 1 7 3 8 4 9 5 10 6 11 8 12 9 13
REMARK SMILES IDX 10 14 7 15 14 16
REMARK H PARENT
REMARK Flexibility Score: inf
ROOT
ATOM      1  C   UNL     1      16.271   9.626 -26.716  1.00  0.00     0.039 C 
ATOM      2  C   UNL     1      17.219   8.840 -25.839  1.00  0.00    -0.070 C 
ATOM      3  C   UNL     1      18.402   9.372 -25.418  1.00  0.00    -0.006 C 
ATOM      4  C   UNL     1      18.887  10.751 -25.823  1.00  0.00     0.047 C 
ATOM      5  C   UNL     1      20.274  10.713 -26.541  1.00  0.00     0.025 C 
ATOM      6  C   UNL     1      20.942  12.105 -26.597  1.00  0.00    -0.073 C 
ATOM      7  C   UNL     1      20.231  13.251 -26.549  1.00  0.00     0.008 C 
ATOM      8  C   UNL     1      22.420  12.250 -26.890  1.00  0.00     0.031 C 
ATOM      9  C   UNL     1      23.125  10.910 -27.047  1.00  0.00     0.005 C 
ATOM     10  C   UNL     1      22.722   9.985 -25.906  1.00  0.00     0.008 C 
ATOM     11  C   UNL     1      21.229   9.551 -26.001  1.00  0.00    -0.018 C 
ATOM     12  C   UNL     1      20.800   9.076 -24.581  1.00  0.00     0.088 C 
ATOM     13  C   UNL     1      19.364   8.648 -24.555  1.00  0.00     0.159 C 
ATOM     14  O   UNL     1      18.999   7.750 -23.750  1.00  0.00    -0.295 OA
ATOM     15  C   UNL     1      21.149   8.335 -26.968  1.00  0.00     0.012 C 
ATOM     16  C   UNL     1      16.820   7.426 -25.487  1.00  0.00     0.039 C 
ENDROOT
TORSDOF 0
ENDMDL
MODEL 2
REMARK VINA RESULT:    -6.806      1.834      5.279
REMARK INTER + INTRA:          -6.806
REMARK INTER:                  -6.806
REMARK INTRA:                   0.000
REMARK UNBOUND:                 0.000
REMARK SMILES C=C1CCC[C@@]2(C)CC(=O)C(=C(C)C)C[C@@H]12
REMARK SMILES IDX 13 1 12 2 11 3 15 4 16 5 2 6 1 7 3 8 4 9 5 10 6 11 8 12 9 13
REMARK SMILES IDX 10 14 7 15 14 16
REMARK H PARENT
REMARK Flexibility Score: inf
ROOT
ATOM      1  C   UNL     1      23.124   9.255 -25.284  1.00  0.00     0.039 C 
ATOM      2  C   UNL     1      22.262  10.455 -25.605  1.00  0.00    -0.070 C 
ATOM      3  C   UNL     1      20.925  10.461 -25.335  1.00  0.00    -0.006 C 
ATOM      4  C   UNL     1      20.188   9.272 -24.749  1.00  0.00     0.047 C 
ATOM      5  C   UNL     1      19.016   8.783 -25.658  1.00  0.00     0.025 C 
ATOM      6  C   UNL     1      18.036   7.857 -24.904  1.00  0.00    -0.073 C 
ATOM      7  C   UNL     1      18.409   7.135 -23.827  1.00  0.00     0.008 C 
ATOM      8  C   UNL     1      16.652   7.575 -25.449  1.00  0.00     0.031 C 
ATOM      9  C   UNL     1      16.356   8.340 -26.731  1.00  0.00     0.005 C 
ATOM     10  C   UNL     1      16.761   9.798 -26.561  1.00  0.00     0.008 C 
ATOM     11  C   UNL     1      18.306   9.969 -26.461  1.00  0.00    -0.018 C 
ATOM     12  C   UNL     1      18.570  11.350 -25.786  1.00  0.00     0.088 C 
ATOM     13  C   UNL     1      20.037  11.611 -25.625  1.00  0.00     0.159 C 
ATOM     14  O   UNL     1      20.462  12.796 -25.655  1.00  0.00    -0.295 OA
ATOM     15  C   UNL     1      18.874  10.017 -27.908  1.00  0.00     0.012 C 
ATOM     16  C   UNL     1      22.937  11.628 -26.277  1.00  0.00     0.039 C 
ENDROOT
TORSDOF 0
ENDMDL
MODEL 3
REMARK VINA RESULT:    -6.424     15.476     17.489
REMARK INTER + INTRA:          -6.424
REMARK INTER:                  -6.424
REMARK INTRA:                   0.000
REMARK UNBOUND:                 0.000
REMARK SMILES C=C1CCC[C@@]2(C)CC(=O)C(=C(C)C)C[C@@H]12
REMARK SMILES IDX 13 1 12 2 11 3 15 4 16 5 2 6 1 7 3 8 4 9 5 10 6 11 8 12 9 13
REMARK SMILES IDX 10 14 7 15 14 16
REMARK H PARENT
REMARK Flexibility Score: inf
ROOT
ATOM      1  C   UNL     1       9.999  20.537 -20.185  1.00  0.00     0.039 C 
ATOM      2  C   UNL     1      10.259  20.449 -21.671  1.00  0.00    -0.070 C 
ATOM      3  C   UNL     1       9.851  21.434 -22.523  1.00  0.00    -0.006 C 
ATOM      4  C   UNL     1       9.073  22.655 -22.073  1.00  0.00     0.047 C 
ATOM      5  C   UNL     1       7.699  22.795 -22.803  1.00  0.00     0.025 C 
ATOM      6  C   UNL     1       7.095  24.209 -22.650  1.00  0.00    -0.073 C 
ATOM      7  C   UNL     1       7.400  25.016 -21.613  1.00  0.00     0.008 C 
ATOM      8  C   UNL     1       5.989  24.688 -23.565  1.00  0.00     0.031 C 
ATOM      9  C   UNL     1       5.624  23.668 -24.634  1.00  0.00     0.005 C 
ATOM     10  C   UNL     1       6.893  23.135 -25.286  1.00  0.00     0.008 C 
ATOM     11  C   UNL     1       7.730  22.257 -24.308  1.00  0.00    -0.018 C 
ATOM     12  C   UNL     1       9.184  22.212 -24.866  1.00  0.00     0.088 C 
ATOM     13  C   UNL     1      10.085  21.400 -23.985  1.00  0.00     0.159 C 
ATOM     14  O   UNL     1      11.058  20.782 -24.495  1.00  0.00    -0.295 OA
ATOM     15  C   UNL     1       7.147  20.815 -24.346  1.00  0.00     0.012 C 
ATOM     16  C   UNL     1      10.950  19.204 -22.178  1.00  0.00     0.039 C 
ENDROOT
TORSDOF 0
ENDMDL
MODEL 4
REMARK VINA RESULT:    -6.356      1.567      4.941
REMARK INTER + INTRA:          -6.356
REMARK INTER:                  -6.356
REMARK INTRA:                   0.000
REMARK UNBOUND:                 0.000
REMARK SMILES C=C1CCC[C@@]2(C)CC(=O)C(=C(C)C)C[C@@H]12
REMARK SMILES IDX 13 1 12 2 11 3 15 4 16 5 2 6 1 7 3 8 4 9 5 10 6 11 8 12 9 13
REMARK SMILES IDX 10 14 7 15 14 16
REMARK H PARENT
REMARK Flexibility Score: inf
ROOT
ATOM      1  C   UNL     1      20.107  12.736 -25.602  1.00  0.00     0.039 C 
ATOM      2  C   UNL     1      20.707  11.361 -25.784  1.00  0.00    -0.070 C 
ATOM      3  C   UNL     1      19.970  10.324 -26.277  1.00  0.00    -0.006 C 
ATOM      4  C   UNL     1      18.500  10.441 -26.632  1.00  0.00     0.047 C 
ATOM      5  C   UNL     1      17.609   9.427 -25.845  1.00  0.00     0.025 C 
ATOM      6  C   UNL     1      16.207   9.269 -26.475  1.00  0.00    -0.073 C 
ATOM      7  C   UNL     1      15.639  10.235 -27.226  1.00  0.00     0.008 C 
ATOM      8  C   UNL     1      15.325   8.088 -26.128  1.00  0.00     0.031 C 
ATOM      9  C   UNL     1      16.000   7.106 -25.181  1.00  0.00     0.005 C 
ATOM     10  C   UNL     1      17.410   6.808 -25.674  1.00  0.00     0.008 C 
ATOM     11  C   UNL     1      18.349   8.044 -25.542  1.00  0.00    -0.018 C 
ATOM     12  C   UNL     1      19.546   7.813 -26.514  1.00  0.00     0.088 C 
ATOM     13  C   UNL     1      20.511   8.960 -26.479  1.00  0.00     0.159 C 
ATOM     14  O   UNL     1      21.732   8.748 -26.703  1.00  0.00    -0.295 OA
ATOM     15  C   UNL     1      18.901   8.069 -24.087  1.00  0.00     0.012 C 
ATOM     16  C   UNL     1      22.143  11.174 -25.354  1.00  0.00     0.039 C 
ENDROOT
TORSDOF 0
ENDMDL
MODEL 5
REMARK VINA RESULT:    -6.231      1.598      3.013
REMARK INTER + INTRA:          -6.231
REMARK INTER:                  -6.231
REMARK INTRA:                   0.000
REMARK UNBOUND:                 0.000
REMARK SMILES C=C1CCC[C@@]2(C)CC(=O)C(=C(C)C)C[C@@H]12
REMARK SMILES IDX 13 1 12 2 11 3 15 4 16 5 2 6 1 7 3 8 4 9 5 10 6 11 8 12 9 13
REMARK SMILES IDX 10 14 7 15 14 16
REMARK H PARENT
REMARK Flexibility Score: inf
ROOT
ATOM      1  C   UNL     1      18.409   7.170 -23.761  1.00  0.00     0.039 C 
ATOM      2  C   UNL     1      17.837   7.885 -24.963  1.00  0.00    -0.070 C 
ATOM      3  C   UNL     1      18.644   8.518 -25.863  1.00  0.00    -0.006 C 
ATOM      4  C   UNL     1      20.151   8.604 -25.715  1.00  0.00     0.047 C 
ATOM      5  C   UNL     1      20.669  10.077 -25.680  1.00  0.00     0.025 C 
ATOM      6  C   UNL     1      22.191  10.168 -25.927  1.00  0.00    -0.073 C 
ATOM      7  C   UNL     1      23.029   9.145 -25.660  1.00  0.00     0.008 C 
ATOM      8  C   UNL     1      22.842  11.479 -26.313  1.00  0.00     0.031 C 
ATOM      9  C   UNL     1      21.837  12.611 -26.480  1.00  0.00     0.005 C 
ATOM     10  C   UNL     1      20.665  12.131 -27.326  1.00  0.00     0.008 C 
ATOM     11  C   UNL     1      19.800  11.070 -26.582  1.00  0.00    -0.018 C 
ATOM     12  C   UNL     1      18.995  10.295 -27.669  1.00  0.00     0.088 C 
ATOM     13  C   UNL     1      18.135   9.229 -27.059  1.00  0.00     0.159 C 
ATOM     14  O   UNL     1      17.053   8.910 -27.620  1.00  0.00    -0.295 OA
ATOM     15  C   UNL     1      18.789  11.830 -25.676  1.00  0.00     0.012 C 
ATOM     16  C   UNL     1      16.332   7.907 -25.101  1.00  0.00     0.039 C 
ENDROOT
TORSDOF 0
ENDMDL
MODEL 6
REMARK VINA RESULT:    -5.885     13.380     15.338
REMARK INTER + INTRA:          -5.885
REMARK INTER:                  -5.885
REMARK INTRA:                   0.000
REMARK UNBOUND:                 0.000
REMARK SMILES C=C1CCC[C@@]2(C)CC(=O)C(=C(C)C)C[C@@H]12
REMARK SMILES IDX 13 1 12 2 11 3 15 4 16 5 2 6 1 7 3 8 4 9 5 10 6 11 8 12 9 13
REMARK SMILES IDX 10 14 7 15 14 16
REMARK H PARENT
REMARK Flexibility Score: inf
ROOT
ATOM      1  C   UNL     1       7.627  22.120 -23.270  1.00  0.00     0.039 C 
ATOM      2  C   UNL     1       9.023  21.594 -23.507  1.00  0.00    -0.070 C 
ATOM      3  C   UNL     1       9.446  20.424 -22.946  1.00  0.00    -0.006 C 
ATOM      4  C   UNL     1       8.589  19.590 -22.013  1.00  0.00     0.047 C 
ATOM      5  C   UNL     1       9.256  19.372 -20.618  1.00  0.00     0.025 C 
ATOM      6  C   UNL     1       8.593  18.224 -19.824  1.00  0.00    -0.073 C 
ATOM      7  C   UNL     1       7.316  17.844 -20.035  1.00  0.00     0.008 C 
ATOM      8  C   UNL     1       9.292  17.588 -18.642  1.00  0.00     0.031 C 
ATOM      9  C   UNL     1      10.682  18.159 -18.400  1.00  0.00     0.005 C 
ATOM     10  C   UNL     1      11.445  18.219 -19.718  1.00  0.00     0.008 C 
ATOM     11  C   UNL     1      10.850  19.281 -20.691  1.00  0.00    -0.018 C 
ATOM     12  C   UNL     1      11.333  18.907 -22.125  1.00  0.00     0.088 C 
ATOM     13  C   UNL     1      10.801  19.861 -23.150  1.00  0.00     0.159 C 
ATOM     14  O   UNL     1      11.475  20.094 -24.189  1.00  0.00    -0.295 OA
ATOM     15  C   UNL     1      11.458  20.663 -20.316  1.00  0.00     0.012 C 
ATOM     16  C   UNL     1       9.945  22.440 -24.355  1.00  0.00     0.039 C 
ENDROOT
TORSDOF 0
ENDMDL
MODEL 7
REMARK VINA RESULT:    -5.880     13.198     15.053
REMARK INTER + INTRA:          -5.880
REMARK INTER:                  -5.880
REMARK INTRA:                   0.000
REMARK UNBOUND:                 0.000
REMARK SMILES C=C1CCC[C@@]2(C)CC(=O)C(=C(C)C)C[C@@H]12
REMARK SMILES IDX 13 1 12 2 11 3 15 4 16 5 2 6 1 7 3 8 4 9 5 10 6 11 8 12 9 13
REMARK SMILES IDX 10 14 7 15 14 16
REMARK H PARENT
REMARK Flexibility Score: inf
ROOT
ATOM      1  C   UNL     1      10.018  20.149 -25.407  1.00  0.00     0.039 C 
ATOM      2  C   UNL     1       9.532  20.954 -24.225  1.00  0.00    -0.070 C 
ATOM      3  C   UNL     1      10.059  20.776 -22.979  1.00  0.00    -0.006 C 
ATOM      4  C   UNL     1      11.122  19.742 -22.664  1.00  0.00     0.047 C 
ATOM      5  C   UNL     1      10.671  18.735 -21.558  1.00  0.00     0.025 C 
ATOM      6  C   UNL     1      11.861  17.948 -20.963  1.00  0.00    -0.073 C 
ATOM      7  C   UNL     1      13.005  17.741 -21.648  1.00  0.00     0.008 C 
ATOM      8  C   UNL     1      11.730  17.214 -19.646  1.00  0.00     0.031 C 
ATOM      9  C   UNL     1      10.366  17.404 -18.997  1.00  0.00     0.005 C 
ATOM     10  C   UNL     1       9.992  18.881 -19.019  1.00  0.00     0.008 C 
ATOM     11  C   UNL     1       9.710  19.392 -20.464  1.00  0.00    -0.018 C 
ATOM     12  C   UNL     1       9.858  20.944 -20.435  1.00  0.00     0.088 C 
ATOM     13  C   UNL     1       9.622  21.543 -21.789  1.00  0.00     0.159 C 
ATOM     14  O   UNL     1       9.141  22.704 -21.877  1.00  0.00    -0.295 OA
ATOM     15  C   UNL     1       8.233  19.049 -20.810  1.00  0.00     0.012 C 
ATOM     16  C   UNL     1       8.407  21.932 -24.473  1.00  0.00     0.039 C 
ENDROOT
TORSDOF 0
ENDMDL
MODEL 8
REMARK VINA RESULT:    -5.873     11.150     13.295
REMARK INTER + INTRA:          -5.873
REMARK INTER:                  -5.873
REMARK INTRA:                   0.000
REMARK UNBOUND:                 0.000
REMARK SMILES C=C1CCC[C@@]2(C)CC(=O)C(=C(C)C)C[C@@H]12
REMARK SMILES IDX 13 1 12 2 11 3 15 4 16 5 2 6 1 7 3 8 4 9 5 10 6 11 8 12 9 13
REMARK SMILES IDX 10 14 7 15 14 16
REMARK H PARENT
REMARK Flexibility Score: inf
ROOT
ATOM      1  C   UNL     1      14.903  17.444 -23.268  1.00  0.00     0.039 C 
ATOM      2  C   UNL     1      14.762  17.711 -21.787  1.00  0.00    -0.070 C 
ATOM      3  C   UNL     1      13.575  17.525 -21.141  1.00  0.00    -0.006 C 
ATOM      4  C   UNL     1      12.303  17.092 -21.845  1.00  0.00     0.047 C 
ATOM      5  C   UNL     1      11.135  18.112 -21.656  1.00  0.00     0.025 C 
ATOM      6  C   UNL     1       9.762  17.505 -22.020  1.00  0.00    -0.073 C 
ATOM      7  C   UNL     1       9.634  16.474 -22.881  1.00  0.00     0.008 C 
ATOM      8  C   UNL     1       8.474  18.157 -21.564  1.00  0.00     0.031 C 
ATOM      9  C   UNL     1       8.710  19.383 -20.693  1.00  0.00     0.005 C 
ATOM     10  C   UNL     1       9.750  19.060 -19.628  1.00  0.00     0.008 C 
ATOM     11  C   UNL     1      11.168  18.849 -20.238  1.00  0.00    -0.018 C 
ATOM     12  C   UNL     1      11.998  18.041 -19.196  1.00  0.00     0.088 C 
ATOM     13  C   UNL     1      13.385  17.767 -19.692  1.00  0.00     0.159 C 
ATOM     14  O   UNL     1      14.331  17.666 -18.865  1.00  0.00    -0.295 OA
ATOM     15  C   UNL     1      11.826  20.249 -20.406  1.00  0.00     0.012 C 
ATOM     16  C   UNL     1      15.981  18.234 -21.062  1.00  0.00     0.039 C 
ENDROOT
TORSDOF 0
ENDMDL
MODEL 9
REMARK VINA RESULT:    -5.780     12.904     14.739
REMARK INTER + INTRA:          -5.780
REMARK INTER:                  -5.780
REMARK INTRA:                   0.000
REMARK UNBOUND:                 0.000
REMARK SMILES C=C1CCC[C@@]2(C)CC(=O)C(=C(C)C)C[C@@H]12
REMARK SMILES IDX 13 1 12 2 11 3 15 4 16 5 2 6 1 7 3 8 4 9 5 10 6 11 8 12 9 13
REMARK SMILES IDX 10 14 7 15 14 16
REMARK H PARENT
REMARK Flexibility Score: inf
ROOT
ATOM      1  C   UNL     1      12.146  17.191 -19.642  1.00  0.00     0.039 C 
ATOM      2  C   UNL     1      10.690  17.596 -19.608  1.00  0.00    -0.070 C 
ATOM      3  C   UNL     1      10.058  18.066 -20.722  1.00  0.00    -0.006 C 
ATOM      4  C   UNL     1      10.756  18.268 -22.053  1.00  0.00     0.047 C 
ATOM      5  C   UNL     1      10.662  19.741 -22.563  1.00  0.00     0.025 C 
ATOM      6  C   UNL     1      11.011  19.865 -24.063  1.00  0.00    -0.073 C 
ATOM      7  C   UNL     1      11.802  18.974 -24.697  1.00  0.00     0.008 C 
ATOM      8  C   UNL     1      10.628  21.098 -24.854  1.00  0.00     0.031 C 
ATOM      9  C   UNL     1       9.839  22.106 -24.031  1.00  0.00     0.005 C 
ATOM     10  C   UNL     1       8.734  21.389 -23.268  1.00  0.00     0.008 C 
ATOM     11  C   UNL     1       9.298  20.464 -22.148  1.00  0.00    -0.018 C 
ATOM     12  C   UNL     1       8.186  19.428 -21.807  1.00  0.00     0.088 C 
ATOM     13  C   UNL     1       8.633  18.471 -20.744  1.00  0.00     0.159 C 
ATOM     14  O   UNL     1       7.782  17.976 -19.958  1.00  0.00    -0.295 OA
ATOM     15  C   UNL     1       9.550  21.342 -20.888  1.00  0.00     0.012 C 
ATOM     16  C   UNL     1       9.979  17.500 -18.278  1.00  0.00     0.039 C 
ENDROOT
TORSDOF 0
ENDMDL
