MODEL 1
REMARK VINA RESULT:    -3.288      0.000      0.000
REMARK INTER + INTRA:          -3.955
REMARK INTER:                  -3.865
REMARK INTRA:                  -0.091
REMARK UNBOUND:                -0.091
REMARK SMILES CCCCC(=O)[O-]
REMARK SMILES IDX 4 1 5 2 6 3 7 4 3 5 2 6 1 7
REMARK H PARENT
REMARK Flexibility Score: inf
ROOT
ATOM      1  C   UNL     1      50.025  10.966  -7.187  1.00  0.00     0.053 C 
ENDROOT
BRANCH   1   2
ATOM      2  C   UNL     1      49.491  11.993  -8.138  1.00  0.00     0.041 C 
ATOM      3  O   UNL     1      50.275  12.787  -8.719  1.00  0.00    -0.550 OA
ATOM      4  O   UNL     1      48.122  12.093  -8.357  1.00  0.00    -0.550 OA
ENDBRANCH   1   2
BRANCH   1   5
ATOM      5  C   UNL     1      50.394  11.583  -5.830  1.00  0.00     0.006 C 
BRANCH   5   6
ATOM      6  C   UNL     1      49.388  11.212  -4.732  1.00  0.00    -0.003 C 
ATOM      7  C   UNL     1      48.245  12.220  -4.668  1.00  0.00     0.004 C 
ENDBRANCH   5   6
ENDBRANCH   1   5
TORSDOF 3
ENDMDL
MODEL 2
REMARK VINA RESULT:    -3.276      2.703      3.544
REMARK INTER + INTRA:          -3.942
REMARK INTER:                  -3.925
REMARK INTRA:                  -0.017
REMARK UNBOUND:                -0.091
REMARK SMILES CCCCC(=O)[O-]
REMARK SMILES IDX 4 1 5 2 6 3 7 4 3 5 2 6 1 7
REMARK H PARENT
REMARK Flexibility Score: inf
ROOT
ATOM      1  C   UNL     1      46.029  12.928  -7.851  1.00  0.00     0.053 C 
ENDROOT
BRANCH   1   2
ATOM      2  C   UNL     1      45.990  12.357  -9.235  1.00  0.00     0.041 C 
ATOM      3  O   UNL     1      44.901  11.964  -9.728  1.00  0.00    -0.550 OA
ATOM      4  O   UNL     1      47.164  12.229  -9.968  1.00  0.00    -0.550 OA
ENDBRANCH   1   2
BRANCH   1   5
ATOM      5  C   UNL     1      47.245  12.425  -7.061  1.00  0.00     0.006 C 
BRANCH   5   6
ATOM      6  C   UNL     1      46.968  12.354  -5.553  1.00  0.00    -0.003 C 
ATOM      7  C   UNL     1      48.266  12.222  -4.761  1.00  0.00     0.004 C 
ENDBRANCH   5   6
ENDBRANCH   1   5
TORSDOF 3
ENDMDL
MODEL 3
REMARK VINA RESULT:    -3.266      2.106      2.510
REMARK INTER + INTRA:          -3.930
REMARK INTER:                  -3.840
REMARK INTRA:                  -0.089
REMARK UNBOUND:                -0.091
REMARK SMILES CCCCC(=O)[O-]
REMARK SMILES IDX 4 1 5 2 6 3 7 4 3 5 2 6 1 7
REMARK H PARENT
REMARK Flexibility Score: inf
ROOT
ATOM      1  C   UNL     1      50.276   9.843  -6.834  1.00  0.00     0.053 C 
ENDROOT
BRANCH   1   2
ATOM      2  C   UNL     1      49.183   9.201  -7.632  1.00  0.00     0.041 C 
ATOM      3  O   UNL     1      48.139   9.846  -7.911  1.00  0.00    -0.550 OA
ATOM      4  O   UNL     1      49.304   7.878  -8.040  1.00  0.00    -0.550 OA
ENDBRANCH   1   2
BRANCH   1   5
ATOM      5  C   UNL     1      50.003  11.335  -6.593  1.00  0.00     0.006 C 
BRANCH   5   6
ATOM      6  C   UNL     1      49.818  11.657  -5.103  1.00  0.00    -0.003 C 
ATOM      7  C   UNL     1      48.407  12.164  -4.821  1.00  0.00     0.004 C 
ENDBRANCH   5   6
ENDBRANCH   1   5
TORSDOF 3
ENDMDL
MODEL 4
REMARK VINA RESULT:    -3.240     21.294     22.047
REMARK INTER + INTRA:          -3.898
REMARK INTER:                  -3.879
REMARK INTRA:                  -0.019
REMARK UNBOUND:                -0.091
REMARK SMILES CCCCC(=O)[O-]
REMARK SMILES IDX 4 1 5 2 6 3 7 4 3 5 2 6 1 7
REMARK H PARENT
REMARK Flexibility Score: inf
ROOT
ATOM      1  C   UNL     1      33.492   3.474   5.320  1.00  0.00     0.053 C 
ENDROOT
BRANCH   1   2
ATOM      2  C   UNL     1      33.755   3.771   6.765  1.00  0.00     0.041 C 
ATOM      3  O   UNL     1      33.928   4.958   7.146  1.00  0.00    -0.550 OA
ATOM      4  O   UNL     1      33.841   2.733   7.684  1.00  0.00    -0.550 OA
ENDBRANCH   1   2
BRANCH   1   5
ATOM      5  C   UNL     1      33.877   2.033   4.956  1.00  0.00     0.006 C 
BRANCH   5   6
ATOM      6  C   UNL     1      34.293   1.898   3.485  1.00  0.00    -0.003 C 
ATOM      7  C   UNL     1      34.521   0.436   3.109  1.00  0.00     0.004 C 
ENDBRANCH   5   6
ENDBRANCH   1   5
TORSDOF 3
ENDMDL
MODEL 5
REMARK VINA RESULT:    -3.238      2.351      3.771
REMARK INTER + INTRA:          -3.897
REMARK INTER:                  -3.827
REMARK INTRA:                  -0.070
REMARK UNBOUND:                -0.091
REMARK SMILES CCCCC(=O)[O-]
REMARK SMILES IDX 4 1 5 2 6 3 7 4 3 5 2 6 1 7
REMARK H PARENT
REMARK Flexibility Score: inf
ROOT
ATOM      1  C   UNL     1      49.256  11.851  -7.595  1.00  0.00     0.053 C 
ENDROOT
BRANCH   1   2
ATOM      2  C   UNL     1      50.081  11.017  -6.663  1.00  0.00     0.041 C 
ATOM      3  O   UNL     1      50.399   9.841  -6.979  1.00  0.00    -0.550 OA
ATOM      4  O   UNL     1      50.471  11.529  -5.432  1.00  0.00    -0.550 OA
ENDBRANCH   1   2
BRANCH   1   5
ATOM      5  C   UNL     1      50.127  12.599  -8.613  1.00  0.00     0.006 C 
BRANCH   5   6
ATOM      6  C   UNL     1      49.659  12.369 -10.057  1.00  0.00    -0.003 C 
ATOM      7  C   UNL     1      48.334  11.612 -10.092  1.00  0.00     0.004 C 
ENDBRANCH   5   6
ENDBRANCH   1   5
TORSDOF 3
ENDMDL
MODEL 6
REMARK VINA RESULT:    -3.230     20.982     21.634
REMARK INTER + INTRA:          -3.888
REMARK INTER:                  -3.784
REMARK INTRA:                  -0.104
REMARK UNBOUND:                -0.091
REMARK SMILES CCCCC(=O)[O-]
REMARK SMILES IDX 4 1 5 2 6 3 7 4 3 5 2 6 1 7
REMARK H PARENT
REMARK Flexibility Score: inf
ROOT
ATOM      1  C   UNL     1      36.265  -0.744   6.051  1.00  0.00     0.053 C 
ENDROOT
BRANCH   1   2
ATOM      2  C   UNL     1      37.177   0.419   6.291  1.00  0.00     0.041 C 
ATOM      3  O   UNL     1      38.006   0.390   7.238  1.00  0.00    -0.550 OA
ATOM      4  O   UNL     1      37.089   1.549   5.487  1.00  0.00    -0.550 OA
ENDBRANCH   1   2
BRANCH   1   5
ATOM      5  C   UNL     1      36.129  -1.064   4.556  1.00  0.00     0.006 C 
BRANCH   5   6
ATOM      6  C   UNL     1      34.696  -0.857   4.046  1.00  0.00    -0.003 C 
ATOM      7  C   UNL     1      34.612   0.347   3.113  1.00  0.00     0.004 C 
ENDBRANCH   5   6
ENDBRANCH   1   5
TORSDOF 3
ENDMDL
MODEL 7
REMARK VINA RESULT:    -3.229     20.854     21.665
REMARK INTER + INTRA:          -3.886
REMARK INTER:                  -3.868
REMARK INTRA:                  -0.018
REMARK UNBOUND:                -0.091
REMARK SMILES CCCCC(=O)[O-]
REMARK SMILES IDX 4 1 5 2 6 3 7 4 3 5 2 6 1 7
REMARK H PARENT
REMARK Flexibility Score: inf
ROOT
ATOM      1  C   UNL     1      37.181   0.689   6.722  1.00  0.00     0.053 C 
ENDROOT
BRANCH   1   2
ATOM      2  C   UNL     1      36.146  -0.286   6.251  1.00  0.00     0.041 C 
ATOM      3  O   UNL     1      36.428  -1.128   5.360  1.00  0.00    -0.550 OA
ATOM      4  O   UNL     1      34.860  -0.243   6.775  1.00  0.00    -0.550 OA
ENDBRANCH   1   2
BRANCH   1   5
ATOM      5  C   UNL     1      36.550   2.011   7.182  1.00  0.00     0.006 C 
BRANCH   5   6
ATOM      6  C   UNL     1      37.551   3.175   7.144  1.00  0.00    -0.003 C 
ATOM      7  C   UNL     1      37.043   4.363   7.957  1.00  0.00     0.004 C 
ENDBRANCH   5   6
ENDBRANCH   1   5
TORSDOF 3
ENDMDL
MODEL 8
REMARK VINA RESULT:    -3.174      2.524      2.899
REMARK INTER + INTRA:          -3.821
REMARK INTER:                  -3.745
REMARK INTRA:                  -0.075
REMARK UNBOUND:                -0.091
REMARK SMILES CCCCC(=O)[O-]
REMARK SMILES IDX 4 1 5 2 6 3 7 4 3 5 2 6 1 7
REMARK H PARENT
REMARK Flexibility Score: inf
ROOT
ATOM      1  C   UNL     1      50.316  11.559  -5.610  1.00  0.00     0.053 C 
ENDROOT
BRANCH   1   2
ATOM      2  C   UNL     1      50.321  10.111  -5.992  1.00  0.00     0.041 C 
ATOM      3  O   UNL     1      50.418   9.775  -7.201  1.00  0.00    -0.550 OA
ATOM      4  O   UNL     1      50.185   9.133  -5.015  1.00  0.00    -0.550 OA
ENDBRANCH   1   2
BRANCH   1   5
ATOM      5  C   UNL     1      48.957  11.994  -5.044  1.00  0.00     0.006 C 
BRANCH   5   6
ATOM      6  C   UNL     1      47.853  11.982  -6.111  1.00  0.00    -0.003 C 
ATOM      7  C   UNL     1      46.517  12.430  -5.525  1.00  0.00     0.004 C 
ENDBRANCH   5   6
ENDBRANCH   1   5
TORSDOF 3
ENDMDL
MODEL 9
REMARK VINA RESULT:    -3.147     20.448     21.376
REMARK INTER + INTRA:          -3.789
REMARK INTER:                  -3.682
REMARK INTRA:                  -0.107
REMARK UNBOUND:                -0.091
REMARK SMILES CCCCC(=O)[O-]
REMARK SMILES IDX 4 1 5 2 6 3 7 4 3 5 2 6 1 7
REMARK H PARENT
REMARK Flexibility Score: inf
ROOT
ATOM      1  C   UNL     1      35.369   4.515   8.395  1.00  0.00     0.053 C 
ENDROOT
BRANCH   1   2
ATOM      2  C   UNL     1      34.485   4.921   7.255  1.00  0.00     0.041 C 
ATOM      3  O   UNL     1      34.644   6.038   6.698  1.00  0.00    -0.550 OA
ATOM      4  O   UNL     1      33.466   4.078   6.831  1.00  0.00    -0.550 OA
ENDBRANCH   1   2
BRANCH   1   5
ATOM      5  C   UNL     1      36.846   4.462   7.980  1.00  0.00     0.006 C 
BRANCH   5   6
ATOM      6  C   UNL     1      37.094   3.456   6.847  1.00  0.00    -0.003 C 
ATOM      7  C   UNL     1      36.685   2.046   7.264  1.00  0.00     0.004 C 
ENDBRANCH   5   6
ENDBRANCH   1   5
TORSDOF 3
ENDMDL
