MODEL 1
REMARK VINA RESULT:    -3.617      0.000      0.000
REMARK INTER + INTRA:          -7.149
REMARK INTER:                  -6.154
REMARK INTRA:                  -0.995
REMARK UNBOUND:                -0.995
REMARK SMILES CCCCCCCCCCCCCC(=O)[O-]
REMARK SMILES IDX 8 1 9 2 10 3 11 4 12 5 13 6 14 7 15 8 16 9 7 10 6 11 5 12
REMARK SMILES IDX 4 13 3 14 2 15 1 16
REMARK H PARENT
REMARK Flexibility Score: inf
ROOT
ATOM      1  C   UNL     1       8.134  -6.011  -6.751  1.00  0.00     0.000 C 
ENDROOT
BRANCH   1   2
ATOM      2  C   UNL     1       8.705  -4.935  -7.683  1.00  0.00     0.000 C 
BRANCH   2   3
ATOM      3  C   UNL     1       8.123  -5.069  -9.098  1.00  0.00     0.000 C 
BRANCH   3   4
ATOM      4  C   UNL     1       7.984  -3.714  -9.810  1.00  0.00     0.000 C 
BRANCH   4   5
ATOM      5  C   UNL     1       6.520  -3.359 -10.125  1.00  0.00     0.006 C 
BRANCH   5   6
ATOM      6  C   UNL     1       5.531  -4.216  -9.324  1.00  0.00     0.053 C 
BRANCH   6   7
ATOM      7  C   UNL     1       4.139  -3.669  -9.396  1.00  0.00     0.041 C 
ATOM      8  O   UNL     1       3.866  -2.559  -8.867  1.00  0.00    -0.550 OA
ATOM      9  O   UNL     1       3.136  -4.401 -10.017  1.00  0.00    -0.550 OA
ENDBRANCH   6   7
ENDBRANCH   5   6
ENDBRANCH   4   5
ENDBRANCH   3   4
ENDBRANCH   2   3
ENDBRANCH   1   2
BRANCH   1  10
ATOM     10  C   UNL     1       9.015  -7.266  -6.753  1.00  0.00     0.000 C 
BRANCH  10  11
ATOM     11  C   UNL     1      10.500  -6.895  -6.882  1.00  0.00    -0.000 C 
BRANCH  11  12
ATOM     12  C   UNL     1      11.363  -7.463  -5.741  1.00  0.00    -0.000 C 
BRANCH  12  13
ATOM     13  C   UNL     1      12.069  -6.408  -4.870  1.00  0.00    -0.000 C 
BRANCH  13  14
ATOM     14  C   UNL     1      11.627  -4.973  -5.192  1.00  0.00    -0.000 C 
BRANCH  14  15
ATOM     15  C   UNL     1      11.365  -4.178  -3.907  1.00  0.00    -0.003 C 
ATOM     16  C   UNL     1      11.108  -5.109  -2.726  1.00  0.00     0.004 C 
ENDBRANCH  14  15
ENDBRANCH  13  14
ENDBRANCH  12  13
ENDBRANCH  11  12
ENDBRANCH  10  11
ENDBRANCH   1  10
TORSDOF 12
ENDMDL
MODEL 2
REMARK VINA RESULT:    -3.007     14.220     15.721
REMARK INTER + INTRA:          -6.112
REMARK INTER:                  -4.407
REMARK INTRA:                  -1.705
REMARK UNBOUND:                -0.995
REMARK SMILES CCCCCCCCCCCCCC(=O)[O-]
REMARK SMILES IDX 8 1 9 2 10 3 11 4 12 5 13 6 14 7 15 8 16 9 7 10 6 11 5 12
REMARK SMILES IDX 4 13 3 14 2 15 1 16
REMARK H PARENT
REMARK Flexibility Score: inf
ROOT
ATOM      1  C   UNL     1      -5.530  -5.518  -5.780  1.00  0.00     0.000 C 
ENDROOT
BRANCH   1   2
ATOM      2  C   UNL     1      -6.312  -4.691  -4.752  1.00  0.00     0.000 C 
BRANCH   2   3
ATOM      3  C   UNL     1      -7.798  -4.607  -5.131  1.00  0.00     0.000 C 
BRANCH   3   4
ATOM      4  C   UNL     1      -8.025  -3.906  -6.479  1.00  0.00     0.000 C 
BRANCH   4   5
ATOM      5  C   UNL     1      -7.433  -2.486  -6.516  1.00  0.00     0.006 C 
BRANCH   5   6
ATOM      6  C   UNL     1      -7.797  -1.740  -7.806  1.00  0.00     0.053 C 
BRANCH   6   7
ATOM      7  C   UNL     1      -6.884  -2.108  -8.935  1.00  0.00     0.041 C 
ATOM      8  O   UNL     1      -7.217  -1.866 -10.125  1.00  0.00    -0.550 OA
ATOM      9  O   UNL     1      -5.681  -2.750  -8.675  1.00  0.00    -0.550 OA
ENDBRANCH   6   7
ENDBRANCH   5   6
ENDBRANCH   4   5
ENDBRANCH   3   4
ENDBRANCH   2   3
ENDBRANCH   1   2
BRANCH   1  10
ATOM     10  C   UNL     1      -5.171  -6.899  -5.218  1.00  0.00     0.000 C 
BRANCH  10  11
ATOM     11  C   UNL     1      -5.563  -8.011  -6.203  1.00  0.00    -0.000 C 
BRANCH  11  12
ATOM     12  C   UNL     1      -7.066  -8.013  -6.539  1.00  0.00    -0.000 C 
BRANCH  12  13
ATOM     13  C   UNL     1      -7.399  -7.882  -8.037  1.00  0.00    -0.000 C 
BRANCH  13  14
ATOM     14  C   UNL     1      -6.155  -7.655  -8.909  1.00  0.00    -0.000 C 
BRANCH  14  15
ATOM     15  C   UNL     1      -6.131  -6.228  -9.470  1.00  0.00    -0.003 C 
ATOM     16  C   UNL     1      -7.544  -5.677  -9.636  1.00  0.00     0.004 C 
ENDBRANCH  14  15
ENDBRANCH  13  14
ENDBRANCH  12  13
ENDBRANCH  11  12
ENDBRANCH  10  11
ENDBRANCH   1  10
TORSDOF 12
ENDMDL
MODEL 3
REMARK VINA RESULT:    -2.737     13.942     15.769
REMARK INTER + INTRA:          -5.652
REMARK INTER:                  -4.503
REMARK INTRA:                  -1.150
REMARK UNBOUND:                -0.995
REMARK SMILES CCCCCCCCCCCCCC(=O)[O-]
REMARK SMILES IDX 8 1 9 2 10 3 11 4 12 5 13 6 14 7 15 8 16 9 7 10 6 11 5 12
REMARK SMILES IDX 4 13 3 14 2 15 1 16
REMARK H PARENT
REMARK Flexibility Score: inf
ROOT
ATOM      1  C   UNL     1      -6.020  -4.610  -4.415  1.00  0.00     0.000 C 
ENDROOT
BRANCH   1   2
ATOM      2  C   UNL     1      -5.588  -5.393  -5.661  1.00  0.00     0.000 C 
BRANCH   2   3
ATOM      3  C   UNL     1      -4.977  -6.748  -5.275  1.00  0.00     0.000 C 
BRANCH   3   4
ATOM      4  C   UNL     1      -5.672  -7.929  -5.969  1.00  0.00     0.000 C 
BRANCH   4   5
ATOM      5  C   UNL     1      -5.326  -8.023  -7.466  1.00  0.00     0.006 C 
BRANCH   5   6
ATOM      6  C   UNL     1      -6.580  -8.124  -8.344  1.00  0.00     0.053 C 
BRANCH   6   7
ATOM      7  C   UNL     1      -6.670  -6.987  -9.314  1.00  0.00     0.041 C 
ATOM      8  O   UNL     1      -5.705  -6.727 -10.080  1.00  0.00    -0.550 OA
ATOM      9  O   UNL     1      -7.807  -6.190  -9.346  1.00  0.00    -0.550 OA
ENDBRANCH   6   7
ENDBRANCH   5   6
ENDBRANCH   4   5
ENDBRANCH   3   4
ENDBRANCH   2   3
ENDBRANCH   1   2
BRANCH   1  10
ATOM     10  C   UNL     1      -7.522  -4.304  -4.450  1.00  0.00     0.000 C 
BRANCH  10  11
ATOM     11  C   UNL     1      -7.948  -3.798  -5.836  1.00  0.00    -0.000 C 
BRANCH  11  12
ATOM     12  C   UNL     1      -7.813  -2.272  -5.986  1.00  0.00    -0.000 C 
BRANCH  12  13
ATOM     13  C   UNL     1      -7.445  -1.786  -7.400  1.00  0.00    -0.000 C 
BRANCH  13  14
ATOM     14  C   UNL     1      -7.245  -2.938  -8.396  1.00  0.00    -0.000 C 
BRANCH  14  15
ATOM     15  C   UNL     1      -5.756  -3.156  -8.689  1.00  0.00    -0.003 C 
ATOM     16  C   UNL     1      -5.357  -2.521 -10.018  1.00  0.00     0.004 C 
ENDBRANCH  14  15
ENDBRANCH  13  14
ENDBRANCH  12  13
ENDBRANCH  11  12
ENDBRANCH  10  11
ENDBRANCH   1  10
TORSDOF 12
ENDMDL
MODEL 4
REMARK VINA RESULT:    -2.469      3.858      7.204
REMARK INTER + INTRA:          -5.196
REMARK INTER:                  -4.380
REMARK INTRA:                  -0.817
REMARK UNBOUND:                -0.995
REMARK SMILES CCCCCCCCCCCCCC(=O)[O-]
REMARK SMILES IDX 8 1 9 2 10 3 11 4 12 5 13 6 14 7 15 8 16 9 7 10 6 11 5 12
REMARK SMILES IDX 4 13 3 14 2 15 1 16
REMARK H PARENT
REMARK Flexibility Score: inf
ROOT
ATOM      1  C   UNL     1      10.612  -6.824  -8.773  1.00  0.00     0.000 C 
ENDROOT
BRANCH   1   2
ATOM      2  C   UNL     1      12.019  -6.477  -8.270  1.00  0.00     0.000 C 
BRANCH   2   3
ATOM      3  C   UNL     1      12.113  -6.640  -6.746  1.00  0.00     0.000 C 
BRANCH   3   4
ATOM      4  C   UNL     1      10.825  -6.209  -6.026  1.00  0.00     0.000 C 
BRANCH   4   5
ATOM      5  C   UNL     1      10.948  -4.820  -5.375  1.00  0.00     0.006 C 
BRANCH   5   6
ATOM      6  C   UNL     1      11.908  -4.824  -4.178  1.00  0.00     0.053 C 
BRANCH   6   7
ATOM      7  C   UNL     1      11.324  -5.543  -3.002  1.00  0.00     0.041 C 
ATOM      8  O   UNL     1      10.498  -4.962  -2.249  1.00  0.00    -0.550 OA
ATOM      9  O   UNL     1      11.717  -6.844  -2.716  1.00  0.00    -0.550 OA
ENDBRANCH   6   7
ENDBRANCH   5   6
ENDBRANCH   4   5
ENDBRANCH   3   4
ENDBRANCH   2   3
ENDBRANCH   1   2
BRANCH   1  10
ATOM     10  C   UNL     1      10.312  -6.116 -10.100  1.00  0.00     0.000 C 
BRANCH  10  11
ATOM     11  C   UNL     1       9.401  -4.899  -9.880  1.00  0.00    -0.000 C 
BRANCH  11  12
ATOM     12  C   UNL     1       7.959  -5.289  -9.506  1.00  0.00    -0.000 C 
BRANCH  12  13
ATOM     13  C   UNL     1       7.127  -4.164  -8.863  1.00  0.00    -0.000 C 
BRANCH  13  14
ATOM     14  C   UNL     1       6.913  -2.966  -9.800  1.00  0.00    -0.000 C 
BRANCH  14  15
ATOM     15  C   UNL     1       5.426  -2.782 -10.124  1.00  0.00    -0.003 C 
ATOM     16  C   UNL     1       4.604  -3.973  -9.638  1.00  0.00     0.004 C 
ENDBRANCH  14  15
ENDBRANCH  13  14
ENDBRANCH  12  13
ENDBRANCH  11  12
ENDBRANCH  10  11
ENDBRANCH   1  10
TORSDOF 12
ENDMDL
MODEL 5
REMARK VINA RESULT:    -2.321     14.415     16.373
REMARK INTER + INTRA:          -4.945
REMARK INTER:                  -4.108
REMARK INTRA:                  -0.837
REMARK UNBOUND:                -0.995
REMARK SMILES CCCCCCCCCCCCCC(=O)[O-]
REMARK SMILES IDX 8 1 9 2 10 3 11 4 12 5 13 6 14 7 15 8 16 9 7 10 6 11 5 12
REMARK SMILES IDX 4 13 3 14 2 15 1 16
REMARK H PARENT
REMARK Flexibility Score: inf
ROOT
ATOM      1  C   UNL     1      -7.427  -3.876  -6.003  1.00  0.00     0.000 C 
ENDROOT
BRANCH   1   2
ATOM      2  C   UNL     1      -8.104  -4.793  -4.977  1.00  0.00     0.000 C 
BRANCH   2   3
ATOM      3  C   UNL     1      -7.769  -6.266  -5.251  1.00  0.00     0.000 C 
BRANCH   3   4
ATOM      4  C   UNL     1      -6.363  -6.452  -5.843  1.00  0.00     0.000 C 
BRANCH   4   5
ATOM      5  C   UNL     1      -6.113  -7.888  -6.336  1.00  0.00     0.006 C 
BRANCH   5   6
ATOM      6  C   UNL     1      -5.275  -7.921  -7.621  1.00  0.00     0.053 C 
BRANCH   6   7
ATOM      7  C   UNL     1      -6.138  -7.929  -8.845  1.00  0.00     0.041 C 
ATOM      8  O   UNL     1      -5.620  -7.827  -9.988  1.00  0.00    -0.550 OA
ATOM      9  O   UNL     1      -7.519  -8.015  -8.721  1.00  0.00    -0.550 OA
ENDBRANCH   6   7
ENDBRANCH   5   6
ENDBRANCH   4   5
ENDBRANCH   3   4
ENDBRANCH   2   3
ENDBRANCH   1   2
BRANCH   1  10
ATOM     10  C   UNL     1      -7.943  -2.437  -5.883  1.00  0.00     0.000 C 
BRANCH  10  11
ATOM     11  C   UNL     1      -7.573  -1.615  -7.126  1.00  0.00    -0.000 C 
BRANCH  11  12
ATOM     12  C   UNL     1      -8.072  -2.252  -8.436  1.00  0.00    -0.000 C 
BRANCH  12  13
ATOM     13  C   UNL     1      -7.292  -1.842  -9.699  1.00  0.00    -0.000 C 
BRANCH  13  14
ATOM     14  C   UNL     1      -5.920  -2.525  -9.803  1.00  0.00    -0.000 C 
BRANCH  14  15
ATOM     15  C   UNL     1      -6.016  -4.008  -9.422  1.00  0.00    -0.003 C 
ATOM     16  C   UNL     1      -7.193  -4.681 -10.123  1.00  0.00     0.004 C 
ENDBRANCH  14  15
ENDBRANCH  13  14
ENDBRANCH  12  13
ENDBRANCH  11  12
ENDBRANCH  10  11
ENDBRANCH   1  10
TORSDOF 12
ENDMDL
MODEL 6
REMARK VINA RESULT:    -1.815      3.288      7.165
REMARK INTER + INTRA:          -4.084
REMARK INTER:                  -3.075
REMARK INTRA:                  -1.009
REMARK UNBOUND:                -0.995
REMARK SMILES CCCCCCCCCCCCCC(=O)[O-]
REMARK SMILES IDX 8 1 9 2 10 3 11 4 12 5 13 6 14 7 15 8 16 9 7 10 6 11 5 12
REMARK SMILES IDX 4 13 3 14 2 15 1 16
REMARK H PARENT
REMARK Flexibility Score: inf
ROOT
ATOM      1  C   UNL     1       8.660  -5.256  -7.245  1.00  0.00     0.000 C 
ENDROOT
BRANCH   1   2
ATOM      2  C   UNL     1       8.911  -6.463  -6.331  1.00  0.00     0.000 C 
BRANCH   2   3
ATOM      3  C   UNL     1       9.883  -7.455  -6.986  1.00  0.00     0.000 C 
BRANCH   3   4
ATOM      4  C   UNL     1      11.120  -7.730  -6.116  1.00  0.00     0.000 C 
BRANCH   4   5
ATOM      5  C   UNL     1      11.925  -6.455  -5.810  1.00  0.00     0.006 C 
BRANCH   5   6
ATOM      6  C   UNL     1      12.039  -6.190  -4.303  1.00  0.00     0.053 C 
BRANCH   6   7
ATOM      7  C   UNL     1      11.375  -4.905  -3.915  1.00  0.00     0.041 C 
ATOM      8  O   UNL     1      10.986  -4.724  -2.731  1.00  0.00    -0.550 OA
ATOM      9  O   UNL     1      11.155  -3.920  -4.869  1.00  0.00    -0.550 OA
ENDBRANCH   6   7
ENDBRANCH   5   6
ENDBRANCH   4   5
ENDBRANCH   3   4
ENDBRANCH   2   3
ENDBRANCH   1   2
BRANCH   1  10
ATOM     10  C   UNL     1       9.657  -5.230  -8.410  1.00  0.00     0.000 C 
BRANCH  10  11
ATOM     11  C   UNL     1       8.930  -5.065  -9.752  1.00  0.00    -0.000 C 
BRANCH  11  12
ATOM     12  C   UNL     1       7.986  -3.848  -9.778  1.00  0.00    -0.000 C 
BRANCH  12  13
ATOM     13  C   UNL     1       6.504  -4.178 -10.032  1.00  0.00    -0.000 C 
BRANCH  13  14
ATOM     14  C   UNL     1       5.627  -3.992  -8.786  1.00  0.00    -0.000 C 
BRANCH  14  15
ATOM     15  C   UNL     1       4.297  -3.319  -9.147  1.00  0.00    -0.003 C 
ATOM     16  C   UNL     1       3.495  -4.172 -10.125  1.00  0.00     0.004 C 
ENDBRANCH  14  15
ENDBRANCH  13  14
ENDBRANCH  12  13
ENDBRANCH  11  12
ENDBRANCH  10  11
ENDBRANCH   1  10
TORSDOF 12
ENDMDL
MODEL 7
REMARK VINA RESULT:    -1.536      1.451      2.043
REMARK INTER + INTRA:          -3.609
REMARK INTER:                  -3.546
REMARK INTRA:                  -0.064
REMARK UNBOUND:                -0.995
REMARK SMILES CCCCCCCCCCCCCC(=O)[O-]
REMARK SMILES IDX 8 1 9 2 10 3 11 4 12 5 13 6 14 7 15 8 16 9 7 10 6 11 5 12
REMARK SMILES IDX 4 13 3 14 2 15 1 16
REMARK H PARENT
REMARK Flexibility Score: inf
ROOT
ATOM      1  C   UNL     1       9.135  -8.115  -9.304  1.00  0.00     0.000 C 
ENDROOT
BRANCH   1   2
ATOM      2  C   UNL     1       9.694  -6.945 -10.125  1.00  0.00     0.000 C 
BRANCH   2   3
ATOM      3  C   UNL     1      10.166  -5.807  -9.209  1.00  0.00     0.000 C 
BRANCH   3   4
ATOM      4  C   UNL     1       9.286  -4.553  -9.323  1.00  0.00     0.000 C 
BRANCH   4   5
ATOM      5  C   UNL     1       7.816  -4.887  -9.631  1.00  0.00     0.006 C 
BRANCH   5   6
ATOM      6  C   UNL     1       6.964  -3.626  -9.826  1.00  0.00     0.053 C 
BRANCH   6   7
ATOM      7  C   UNL     1       5.526  -3.870  -9.485  1.00  0.00     0.041 C 
ATOM      8  O   UNL     1       4.858  -4.725 -10.125  1.00  0.00    -0.550 OA
ATOM      9  O   UNL     1       4.914  -3.129  -8.483  1.00  0.00    -0.550 OA
ENDBRANCH   6   7
ENDBRANCH   5   6
ENDBRANCH   4   5
ENDBRANCH   3   4
ENDBRANCH   2   3
ENDBRANCH   1   2
BRANCH   1  10
ATOM     10  C   UNL     1       9.085  -7.766  -7.811  1.00  0.00     0.000 C 
BRANCH  10  11
ATOM     11  C   UNL     1      10.468  -7.927  -7.163  1.00  0.00    -0.000 C 
BRANCH  11  12
ATOM     12  C   UNL     1      10.440  -7.735  -5.635  1.00  0.00    -0.000 C 
BRANCH  12  13
ATOM     13  C   UNL     1      11.425  -6.683  -5.093  1.00  0.00    -0.000 C 
BRANCH  13  14
ATOM     14  C   UNL     1      11.031  -6.151  -3.707  1.00  0.00    -0.000 C 
BRANCH  14  15
ATOM     15  C   UNL     1      12.014  -5.075  -3.232  1.00  0.00    -0.003 C 
ATOM     16  C   UNL     1      11.707  -3.725  -3.875  1.00  0.00     0.004 C 
ENDBRANCH  14  15
ENDBRANCH  13  14
ENDBRANCH  12  13
ENDBRANCH  11  12
ENDBRANCH  10  11
ENDBRANCH   1  10
TORSDOF 12
ENDMDL
