MODEL 1
REMARK VINA RESULT:    -2.947      0.000      0.000
REMARK INTER + INTRA:          -2.947
REMARK INTER:                  -2.947
REMARK INTRA:                   0.000
REMARK UNBOUND:                 0.000
REMARK SMILES CC(=O)[O-]
REMARK SMILES IDX 1 1 2 2 3 3 4 4
REMARK H PARENT
REMARK Flexibility Score: inf
ROOT
ATOM      1  C   UNL     1      10.921  -3.194  15.995  1.00  0.00     0.063 C 
ATOM      2  C   UNL     1       9.452  -3.102  15.751  1.00  0.00     0.038 C 
ATOM      3  O   UNL     1       8.728  -4.125  15.865  1.00  0.00    -0.550 OA
ATOM      4  O   UNL     1       8.888  -1.899  15.347  1.00  0.00    -0.550 OA
ENDROOT
TORSDOF 0
ENDMDL
MODEL 2
REMARK VINA RESULT:    -2.899      4.618      4.986
REMARK INTER + INTRA:          -2.899
REMARK INTER:                  -2.899
REMARK INTRA:                   0.000
REMARK UNBOUND:                 0.000
REMARK SMILES CC(=O)[O-]
REMARK SMILES IDX 1 1 2 2 3 3 4 4
REMARK H PARENT
REMARK Flexibility Score: inf
ROOT
ATOM      1  C   UNL     1      10.801   1.300  13.225  1.00  0.00     0.063 C 
ATOM      2  C   UNL     1       9.314   1.179  13.235  1.00  0.00     0.038 C 
ATOM      3  O   UNL     1       8.773   0.043  13.213  1.00  0.00    -0.550 OA
ATOM      4  O   UNL     1       8.523   2.320  13.216  1.00  0.00    -0.550 OA
ENDROOT
TORSDOF 0
ENDMDL
MODEL 3
REMARK VINA RESULT:    -2.596     17.522     17.901
REMARK INTER + INTRA:          -2.596
REMARK INTER:                  -2.596
REMARK INTRA:                   0.000
REMARK UNBOUND:                 0.000
REMARK SMILES CC(=O)[O-]
REMARK SMILES IDX 1 1 2 2 3 3 4 4
REMARK H PARENT
REMARK Flexibility Score: inf
ROOT
ATOM      1  C   UNL     1      26.499   1.485   8.821  1.00  0.00     0.063 C 
ATOM      2  C   UNL     1      25.141   1.196   8.276  1.00  0.00     0.038 C 
ATOM      3  O   UNL     1      24.641   0.048   8.403  1.00  0.00    -0.550 OA
ATOM      4  O   UNL     1      24.447   2.178   7.581  1.00  0.00    -0.550 OA
ENDROOT
TORSDOF 0
ENDMDL
MODEL 4
REMARK VINA RESULT:    -2.591     16.440     16.794
REMARK INTER + INTRA:          -2.591
REMARK INTER:                  -2.591
REMARK INTRA:                   0.000
REMARK UNBOUND:                 0.000
REMARK SMILES CC(=O)[O-]
REMARK SMILES IDX 1 1 2 2 3 3 4 4
REMARK H PARENT
REMARK Flexibility Score: inf
ROOT
ATOM      1  C   UNL     1      26.721  -1.985  20.254  1.00  0.00     0.063 C 
ATOM      2  C   UNL     1      25.335  -1.814  20.778  1.00  0.00     0.038 C 
ATOM      3  O   UNL     1      24.744  -0.710  20.652  1.00  0.00    -0.550 OA
ATOM      4  O   UNL     1      24.713  -2.856  21.454  1.00  0.00    -0.550 OA
ENDROOT
TORSDOF 0
ENDMDL
MODEL 5
REMARK VINA RESULT:    -2.584      4.956      5.401
REMARK INTER + INTRA:          -2.584
REMARK INTER:                  -2.584
REMARK INTRA:                   0.000
REMARK UNBOUND:                 0.000
REMARK SMILES CC(=O)[O-]
REMARK SMILES IDX 1 1 2 2 3 3 4 4
REMARK H PARENT
REMARK Flexibility Score: inf
ROOT
ATOM      1  C   UNL     1       8.751   0.051  13.460  1.00  0.00     0.063 C 
ATOM      2  C   UNL     1       9.468   1.349  13.294  1.00  0.00     0.038 C 
ATOM      3  O   UNL     1       8.816   2.419  13.176  1.00  0.00    -0.550 OA
ATOM      4  O   UNL     1      10.854   1.373  13.216  1.00  0.00    -0.550 OA
ENDROOT
TORSDOF 0
ENDMDL
MODEL 6
REMARK VINA RESULT:    -2.532      1.460      2.156
REMARK INTER + INTRA:          -2.532
REMARK INTER:                  -2.532
REMARK INTRA:                   0.000
REMARK UNBOUND:                 0.000
REMARK SMILES CC(=O)[O-]
REMARK SMILES IDX 1 1 2 2 3 3 4 4
REMARK H PARENT
REMARK Flexibility Score: inf
ROOT
ATOM      1  C   UNL     1       9.099  -1.951  15.503  1.00  0.00     0.063 C 
ATOM      2  C   UNL     1       9.844  -3.190  15.868  1.00  0.00     0.038 C 
ATOM      3  O   UNL     1      11.096  -3.159  15.996  1.00  0.00    -0.550 OA
ATOM      4  O   UNL     1       9.165  -4.393  16.017  1.00  0.00    -0.550 OA
ENDROOT
TORSDOF 0
ENDMDL
MODEL 7
REMARK VINA RESULT:    -2.496     17.509     17.924
REMARK INTER + INTRA:          -2.496
REMARK INTER:                  -2.496
REMARK INTRA:                   0.000
REMARK UNBOUND:                 0.000
REMARK SMILES CC(=O)[O-]
REMARK SMILES IDX 1 1 2 2 3 3 4 4
REMARK H PARENT
REMARK Flexibility Score: inf
ROOT
ATOM      1  C   UNL     1      26.366   1.434   9.197  1.00  0.00     0.063 C 
ATOM      2  C   UNL     1      25.156   1.233   8.349  1.00  0.00     0.038 C 
ATOM      3  O   UNL     1      24.635   2.210   7.751  1.00  0.00    -0.550 OA
ATOM      4  O   UNL     1      24.570  -0.023   8.258  1.00  0.00    -0.550 OA
ENDROOT
TORSDOF 0
ENDMDL
MODEL 8
REMARK VINA RESULT:    -2.357      1.419      2.132
REMARK INTER + INTRA:          -2.357
REMARK INTER:                  -2.357
REMARK INTRA:                   0.000
REMARK UNBOUND:                 0.000
REMARK SMILES CC(=O)[O-]
REMARK SMILES IDX 1 1 2 2 3 3 4 4
REMARK H PARENT
REMARK Flexibility Score: inf
ROOT
ATOM      1  C   UNL     1       8.612  -4.011  15.918  1.00  0.00     0.063 C 
ATOM      2  C   UNL     1       9.584  -2.888  15.773  1.00  0.00     0.038 C 
ATOM      3  O   UNL     1       9.192  -1.763  15.367  1.00  0.00    -0.550 OA
ATOM      4  O   UNL     1      10.932  -3.096  16.036  1.00  0.00    -0.550 OA
ENDROOT
TORSDOF 0
ENDMDL
MODEL 9
REMARK VINA RESULT:    -2.240     15.492     15.785
REMARK INTER + INTRA:          -2.240
REMARK INTER:                  -2.240
REMARK INTRA:                   0.000
REMARK UNBOUND:                 0.000
REMARK SMILES CC(=O)[O-]
REMARK SMILES IDX 1 1 2 2 3 3 4 4
REMARK H PARENT
REMARK Flexibility Score: inf
ROOT
ATOM      1  C   UNL     1      24.433   1.572  12.571  1.00  0.00     0.063 C 
ATOM      2  C   UNL     1      24.442   1.178  14.010  1.00  0.00     0.038 C 
ATOM      3  O   UNL     1      24.534   2.059  14.904  1.00  0.00    -0.550 OA
ATOM      4  O   UNL     1      24.400  -0.164  14.365  1.00  0.00    -0.550 OA
ENDROOT
TORSDOF 0
ENDMDL
