MODEL 1
REMARK VINA RESULT:    -2.139      0.000      0.000
REMARK INTER + INTRA:          -2.326
REMARK INTER:                  -2.326
REMARK INTRA:                   0.000
REMARK UNBOUND:                 0.000
REMARK SMILES [NH3+]CC(=O)[O-]
REMARK SMILES IDX 2 1 1 2 3 6 4 7 5 8
REMARK H PARENT 1 3 1 4 1 5
REMARK Flexibility Score: inf
ROOT
ATOM      1  C   UNL     1       1.203  -0.042  -8.339  1.00  0.00     0.312 C 
ENDROOT
BRANCH   1   2
ATOM      2  N   UNL     1       2.462   0.335  -8.980  1.00  0.00    -0.353 N 
ATOM      3  H   UNL     1       3.250   0.151  -8.319  1.00  0.00     0.344 HD
ATOM      4  H   UNL     1       2.450   1.354  -9.221  1.00  0.00     0.344 HD
ATOM      5  H   UNL     1       2.606  -0.232  -9.847  1.00  0.00     0.344 HD
ENDBRANCH   1   2
BRANCH   1   6
ATOM      6  C   UNL     1       1.230   0.294  -6.881  1.00  0.00     0.096 C 
ATOM      7  O   UNL     1       2.134  -0.174  -6.140  1.00  0.00    -0.544 OA
ATOM      8  O   UNL     1       0.287   1.164  -6.350  1.00  0.00    -0.544 OA
ENDBRANCH   1   6
TORSDOF 2
ENDMDL
MODEL 2
REMARK VINA RESULT:    -2.120      0.081      1.449
REMARK INTER + INTRA:          -2.306
REMARK INTER:                  -2.306
REMARK INTRA:                   0.000
REMARK UNBOUND:                 0.000
REMARK SMILES [NH3+]CC(=O)[O-]
REMARK SMILES IDX 2 1 1 2 3 6 4 7 5 8
REMARK H PARENT 1 3 1 4 1 5
REMARK Flexibility Score: inf
ROOT
ATOM      1  C   UNL     1       1.147  -0.060  -8.338  1.00  0.00     0.312 C 
ENDROOT
BRANCH   1   2
ATOM      2  N   UNL     1       2.401   0.290  -9.002  1.00  0.00    -0.353 N 
ATOM      3  H   UNL     1       3.053  -0.526  -8.955  1.00  0.00     0.344 HD
ATOM      4  H   UNL     1       2.844   1.108  -8.524  1.00  0.00     0.344 HD
ATOM      5  H   UNL     1       2.221   0.523 -10.006  1.00  0.00     0.344 HD
ENDBRANCH   1   2
BRANCH   1   6
ATOM      6  C   UNL     1       1.182   0.342  -6.897  1.00  0.00     0.096 C 
ATOM      7  O   UNL     1       0.294   1.102  -6.429  1.00  0.00    -0.544 OA
ATOM      8  O   UNL     1       2.166  -0.164  -6.057  1.00  0.00    -0.544 OA
ENDBRANCH   1   6
TORSDOF 2
ENDMDL
MODEL 3
REMARK VINA RESULT:    -1.996      2.316      2.630
REMARK INTER + INTRA:          -2.171
REMARK INTER:                  -2.171
REMARK INTRA:                   0.000
REMARK UNBOUND:                 0.000
REMARK SMILES [NH3+]CC(=O)[O-]
REMARK SMILES IDX 2 1 1 2 3 6 4 7 5 8
REMARK H PARENT 1 3 1 4 1 5
REMARK Flexibility Score: inf
ROOT
ATOM      1  C   UNL     1       1.528   0.059  -6.813  1.00  0.00     0.312 C 
ENDROOT
BRANCH   1   2
ATOM      2  N   UNL     1       2.875  -0.299  -6.372  1.00  0.00    -0.353 N 
ATOM      3  H   UNL     1       2.965  -1.340  -6.357  1.00  0.00     0.344 HD
ATOM      4  H   UNL     1       3.047   0.072  -5.408  1.00  0.00     0.344 HD
ATOM      5  H   UNL     1       3.585   0.094  -7.033  1.00  0.00     0.344 HD
ENDBRANCH   1   2
BRANCH   1   6
ATOM      6  C   UNL     1       1.381  -0.152  -8.287  1.00  0.00     0.096 C 
ATOM      7  O   UNL     1       0.416  -0.826  -8.737  1.00  0.00    -0.544 OA
ATOM      8  O   UNL     1       2.279   0.437  -9.168  1.00  0.00    -0.544 OA
ENDBRANCH   1   6
TORSDOF 2
ENDMDL
MODEL 4
REMARK VINA RESULT:    -1.979      5.562      5.874
REMARK INTER + INTRA:          -2.152
REMARK INTER:                  -2.152
REMARK INTRA:                   0.000
REMARK UNBOUND:                 0.000
REMARK SMILES [NH3+]CC(=O)[O-]
REMARK SMILES IDX 2 1 1 2 3 6 4 7 5 8
REMARK H PARENT 1 3 1 4 1 5
REMARK Flexibility Score: inf
ROOT
ATOM      1  C   UNL     1      -1.827   2.822  -4.395  1.00  0.00     0.312 C 
ENDROOT
BRANCH   1   2
ATOM      2  N   UNL     1      -1.031   2.653  -5.610  1.00  0.00    -0.353 N 
ATOM      3  H   UNL     1      -1.317   1.768  -6.086  1.00  0.00     0.344 HD
ATOM      4  H   UNL     1      -0.015   2.597  -5.367  1.00  0.00     0.344 HD
ATOM      5  H   UNL     1      -1.196   3.456  -6.260  1.00  0.00     0.344 HD
ENDBRANCH   1   2
BRANCH   1   6
ATOM      6  C   UNL     1      -1.773   4.239  -3.920  1.00  0.00     0.096 C 
ATOM      7  O   UNL     1      -2.273   5.161  -4.616  1.00  0.00    -0.544 OA
ATOM      8  O   UNL     1      -1.216   4.537  -2.682  1.00  0.00    -0.544 OA
ENDBRANCH   1   6
TORSDOF 2
ENDMDL
MODEL 5
REMARK VINA RESULT:    -1.960      5.799      6.062
REMARK INTER + INTRA:          -2.132
REMARK INTER:                  -2.132
REMARK INTRA:                   0.000
REMARK UNBOUND:                 0.000
REMARK SMILES [NH3+]CC(=O)[O-]
REMARK SMILES IDX 2 1 1 2 3 6 4 7 5 8
REMARK H PARENT 1 3 1 4 1 5
REMARK Flexibility Score: inf
ROOT
ATOM      1  C   UNL     1      -1.441   3.190  -4.322  1.00  0.00     0.312 C 
ENDROOT
BRANCH   1   2
ATOM      2  N   UNL     1      -1.558   3.410  -5.763  1.00  0.00    -0.353 N 
ATOM      3  H   UNL     1      -0.646   3.764  -6.131  1.00  0.00     0.344 HD
ATOM      4  H   UNL     1      -2.303   4.119  -5.958  1.00  0.00     0.344 HD
ATOM      5  H   UNL     1      -1.792   2.511  -6.244  1.00  0.00     0.344 HD
ENDBRANCH   1   2
BRANCH   1   6
ATOM      6  C   UNL     1      -1.610   4.476  -3.576  1.00  0.00     0.096 C 
ATOM      7  O   UNL     1      -1.117   4.611  -2.425  1.00  0.00    -0.544 OA
ATOM      8  O   UNL     1      -2.266   5.546  -4.172  1.00  0.00    -0.544 OA
ENDBRANCH   1   6
TORSDOF 2
ENDMDL
MODEL 6
REMARK VINA RESULT:    -1.893      6.222      6.663
REMARK INTER + INTRA:          -2.059
REMARK INTER:                  -2.059
REMARK INTRA:                   0.000
REMARK UNBOUND:                 0.000
REMARK SMILES [NH3+]CC(=O)[O-]
REMARK SMILES IDX 2 1 1 2 3 6 4 7 5 8
REMARK H PARENT 1 3 1 4 1 5
REMARK Flexibility Score: inf
ROOT
ATOM      1  C   UNL     1      -2.294   5.314  -4.547  1.00  0.00     0.312 C 
ENDROOT
BRANCH   1   2
ATOM      2  N   UNL     1      -1.941   6.575  -3.897  1.00  0.00    -0.353 N 
ATOM      3  H   UNL     1      -1.317   7.124  -4.531  1.00  0.00     0.344 HD
ATOM      4  H   UNL     1      -1.435   6.386  -3.000  1.00  0.00     0.344 HD
ATOM      5  H   UNL     1      -2.805   7.132  -3.704  1.00  0.00     0.344 HD
ENDBRANCH   1   2
BRANCH   1   6
ATOM      6  C   UNL     1      -1.554   4.172  -3.924  1.00  0.00     0.096 C 
ATOM      7  O   UNL     1      -1.198   4.230  -2.717  1.00  0.00    -0.544 OA
ATOM      8  O   UNL     1      -1.301   3.022  -4.660  1.00  0.00    -0.544 OA
ENDBRANCH   1   6
TORSDOF 2
ENDMDL
MODEL 7
REMARK VINA RESULT:    -1.807      1.726      2.281
REMARK INTER + INTRA:          -1.965
REMARK INTER:                  -1.965
REMARK INTRA:                   0.000
REMARK UNBOUND:                 0.000
REMARK SMILES [NH3+]CC(=O)[O-]
REMARK SMILES IDX 2 1 1 2 3 6 4 7 5 8
REMARK H PARENT 1 3 1 4 1 5
REMARK Flexibility Score: inf
ROOT
ATOM      1  C   UNL     1       2.173  -0.004  -5.839  1.00  0.00     0.312 C 
ENDROOT
BRANCH   1   2
ATOM      2  N   UNL     1       3.417  -0.375  -6.512  1.00  0.00    -0.353 N 
ATOM      3  H   UNL     1       4.212   0.143  -6.072  1.00  0.00     0.344 HD
ATOM      4  H   UNL     1       3.365  -0.121  -7.526  1.00  0.00     0.344 HD
ATOM      5  H   UNL     1       3.585  -1.403  -6.413  1.00  0.00     0.344 HD
ENDBRANCH   1   2
BRANCH   1   6
ATOM      6  C   UNL     1       1.125   0.376  -6.837  1.00  0.00     0.096 C 
ATOM      7  O   UNL     1       0.171   1.126  -6.500  1.00  0.00    -0.544 OA
ATOM      8  O   UNL     1       1.229  -0.054  -8.154  1.00  0.00    -0.544 OA
ENDBRANCH   1   6
TORSDOF 2
ENDMDL
MODEL 8
REMARK VINA RESULT:    -1.727      4.159      4.696
REMARK INTER + INTRA:          -1.878
REMARK INTER:                  -1.878
REMARK INTRA:                   0.000
REMARK UNBOUND:                 0.000
REMARK SMILES [NH3+]CC(=O)[O-]
REMARK SMILES IDX 2 1 1 2 3 6 4 7 5 8
REMARK H PARENT 1 3 1 4 1 5
REMARK Flexibility Score: inf
ROOT
ATOM      1  C   UNL     1      -1.395   3.395  -4.581  1.00  0.00     0.312 C 
ENDROOT
BRANCH   1   2
ATOM      2  N   UNL     1      -1.829   4.503  -5.430  1.00  0.00    -0.353 N 
ATOM      3  H   UNL     1      -1.258   5.350  -5.206  1.00  0.00     0.344 HD
ATOM      4  H   UNL     1      -2.838   4.716  -5.253  1.00  0.00     0.344 HD
ATOM      5  H   UNL     1      -1.691   4.258  -6.437  1.00  0.00     0.344 HD
ENDBRANCH   1   2
BRANCH   1   6
ATOM      6  C   UNL     1      -0.820   2.288  -5.409  1.00  0.00     0.096 C 
ATOM      7  O   UNL     1      -1.518   1.735  -6.299  1.00  0.00    -0.544 OA
ATOM      8  O   UNL     1       0.503   1.903  -5.233  1.00  0.00    -0.544 OA
ENDBRANCH   1   6
TORSDOF 2
ENDMDL
MODEL 9
REMARK VINA RESULT:    -1.500      7.745      8.023
REMARK INTER + INTRA:          -1.632
REMARK INTER:                  -1.632
REMARK INTRA:                   0.000
REMARK UNBOUND:                 0.000
REMARK SMILES [NH3+]CC(=O)[O-]
REMARK SMILES IDX 2 1 1 2 3 6 4 7 5 8
REMARK H PARENT 1 3 1 4 1 5
REMARK Flexibility Score: inf
ROOT
ATOM      1  C   UNL     1      -2.591  -4.510 -10.978  1.00  0.00     0.312 C 
ENDROOT
BRANCH   1   2
ATOM      2  N   UNL     1      -1.617  -3.797 -10.152  1.00  0.00    -0.353 N 
ATOM      3  H   UNL     1      -1.049  -4.491  -9.616  1.00  0.00     0.344 HD
ATOM      4  H   UNL     1      -2.112  -3.168  -9.478  1.00  0.00     0.344 HD
ATOM      5  H   UNL     1      -0.979  -3.233 -10.759  1.00  0.00     0.344 HD
ENDBRANCH   1   2
BRANCH   1   6
ATOM      6  C   UNL     1      -1.900  -5.436 -11.929  1.00  0.00     0.096 C 
ATOM      7  O   UNL     1      -1.207  -4.974 -12.873  1.00  0.00    -0.544 OA
ATOM      8  O   UNL     1      -1.978  -6.811 -11.742  1.00  0.00    -0.544 OA
ENDBRANCH   1   6
TORSDOF 2
ENDMDL
