MODEL 1
REMARK VINA RESULT:    -5.428      0.000      0.000
REMARK INTER + INTRA:          -6.644
REMARK INTER:                  -6.380
REMARK INTRA:                  -0.264
REMARK UNBOUND:                -0.264
REMARK SMILES O=c1cc(-c2ccc(O)c(O)c2)oc2cc(O)cc(O)c12
REMARK SMILES IDX 4 1 3 2 2 3 1 4 21 5 19 6 18 7 16 8 15 9 14 10 13 11 5 12
REMARK SMILES IDX 6 13 7 14 8 15 12 16 10 17 9 18 11 20 20 22 17 24
REMARK H PARENT 9 19 11 21 20 23 17 25
REMARK Flexibility Score: inf
ROOT
ATOM      1  C   UNL     1       0.953  11.129   4.357  1.00  0.00     0.138 A 
ATOM      2  C   UNL     1       1.297  12.267   3.616  1.00  0.00     0.100 A 
ATOM      3  C   UNL     1       0.444  13.372   3.612  1.00  0.00     0.197 A 
ATOM      4  O   UNL     1       0.810  14.402   2.989  1.00  0.00    -0.289 OA
ATOM      5  C   UNL     1      -0.774  13.322   4.330  1.00  0.00     0.107 A 
ATOM      6  C   UNL     1      -1.740  14.373   4.367  1.00  0.00     0.134 A 
ATOM      7  C   UNL     1      -2.855  14.257   5.206  1.00  0.00     0.093 A 
ATOM      8  C   UNL     1      -3.070  13.105   5.963  1.00  0.00     0.123 A 
ATOM      9  C   UNL     1      -2.159  12.050   5.894  1.00  0.00     0.094 A 
ATOM     10  C   UNL     1      -1.020  12.149   5.094  1.00  0.00     0.146 A 
ATOM     11  O   UNL     1      -0.170  11.128   5.067  1.00  0.00    -0.456 OA
ENDROOT
BRANCH   1  12
ATOM     12  C   UNL     1       1.823   9.925   4.395  1.00  0.00     0.021 A 
ATOM     13  C   UNL     1       1.442   8.774   3.687  1.00  0.00     0.016 A 
ATOM     14  C   UNL     1       2.246   7.632   3.702  1.00  0.00     0.051 A 
ATOM     15  C   UNL     1       3.449   7.622   4.413  1.00  0.00     0.157 A 
ATOM     16  C   UNL     1       3.043   9.917   5.100  1.00  0.00     0.062 A 
ATOM     17  C   UNL     1       3.852   8.770   5.113  1.00  0.00     0.158 A 
BRANCH  15  18
ATOM     18  O   UNL     1       4.231   6.467   4.409  1.00  0.00    -0.504 OA
ATOM     19  H   UNL     1       5.242   6.503   4.373  1.00  0.00     0.293 HD
ENDBRANCH  15  18
BRANCH  17  20
ATOM     20  O   UNL     1       5.057   8.773   5.815  1.00  0.00    -0.504 OA
ATOM     21  H   UNL     1       5.328   7.997   6.409  1.00  0.00     0.293 HD
ENDBRANCH  17  20
ENDBRANCH   1  12
BRANCH   6  22
ATOM     22  O   UNL     1      -1.665  15.530   3.585  1.00  0.00    -0.507 OA
ATOM     23  H   UNL     1      -1.538  15.543   2.585  1.00  0.00     0.293 HD
ENDBRANCH   6  22
BRANCH   8  24
ATOM     24  O   UNL     1      -4.198  13.018   6.775  1.00  0.00    -0.508 OA
ATOM     25  H   UNL     1      -5.097  13.374   6.473  1.00  0.00     0.293 HD
ENDBRANCH   8  24
TORSDOF 5
ENDMDL
MODEL 2
REMARK VINA RESULT:    -5.338      1.218      2.715
REMARK INTER + INTRA:          -6.538
REMARK INTER:                  -6.263
REMARK INTRA:                  -0.275
REMARK UNBOUND:                -0.264
REMARK SMILES O=c1cc(-c2ccc(O)c(O)c2)oc2cc(O)cc(O)c12
REMARK SMILES IDX 4 1 3 2 2 3 1 4 21 5 19 6 18 7 16 8 15 9 14 10 13 11 5 12
REMARK SMILES IDX 6 13 7 14 8 15 12 16 10 17 9 18 11 20 20 22 17 24
REMARK H PARENT 9 19 11 21 20 23 17 25
REMARK Flexibility Score: inf
ROOT
ATOM      1  C   UNL     1       0.693  10.920   4.465  1.00  0.00     0.138 A 
ATOM      2  C   UNL     1      -0.615  10.803   4.954  1.00  0.00     0.100 A 
ATOM      3  C   UNL     1      -1.448  11.922   4.972  1.00  0.00     0.197 A 
ATOM      4  O   UNL     1      -2.636  11.772   5.359  1.00  0.00    -0.289 OA
ATOM      5  C   UNL     1      -0.957  13.172   4.524  1.00  0.00     0.107 A 
ATOM      6  C   UNL     1      -1.703  14.389   4.533  1.00  0.00     0.134 A 
ATOM      7  C   UNL     1      -1.152  15.540   3.957  1.00  0.00     0.093 A 
ATOM      8  C   UNL     1       0.139  15.534   3.427  1.00  0.00     0.123 A 
ATOM      9  C   UNL     1       0.897  14.362   3.461  1.00  0.00     0.094 A 
ATOM     10  C   UNL     1       0.363  13.190   3.998  1.00  0.00     0.146 A 
ATOM     11  O   UNL     1       1.112  12.091   3.998  1.00  0.00    -0.456 OA
ENDROOT
BRANCH   1  12
ATOM     12  C   UNL     1       1.622   9.762   4.424  1.00  0.00     0.021 A 
ATOM     13  C   UNL     1       1.299   8.643   3.638  1.00  0.00     0.016 A 
ATOM     14  C   UNL     1       2.160   7.545   3.578  1.00  0.00     0.051 A 
ATOM     15  C   UNL     1       3.362   7.547   4.291  1.00  0.00     0.157 A 
ATOM     16  C   UNL     1       2.841   9.766   5.132  1.00  0.00     0.062 A 
ATOM     17  C   UNL     1       3.707   8.663   5.069  1.00  0.00     0.158 A 
BRANCH  15  18
ATOM     18  O   UNL     1       4.200   6.435   4.212  1.00  0.00    -0.504 OA
ATOM     19  H   UNL     1       3.892   5.557   3.813  1.00  0.00     0.293 HD
ENDBRANCH  15  18
BRANCH  17  20
ATOM     20  O   UNL     1       4.909   8.678   5.774  1.00  0.00    -0.504 OA
ATOM     21  H   UNL     1       5.701   9.229   5.463  1.00  0.00     0.293 HD
ENDBRANCH  17  20
ENDBRANCH   1  12
BRANCH   6  22
ATOM     22  O   UNL     1      -2.967  14.525   5.113  1.00  0.00    -0.507 OA
ATOM     23  H   UNL     1      -3.594  13.762   5.316  1.00  0.00     0.293 HD
ENDBRANCH   6  22
BRANCH   8  24
ATOM     24  O   UNL     1       0.660  16.702   2.875  1.00  0.00    -0.508 OA
ATOM     25  H   UNL     1       0.418  16.999   1.937  1.00  0.00     0.293 HD
ENDBRANCH   8  24
TORSDOF 5
ENDMDL
MODEL 3
REMARK VINA RESULT:    -5.092      1.394      7.228
REMARK INTER + INTRA:          -6.249
REMARK INTER:                  -5.986
REMARK INTRA:                  -0.263
REMARK UNBOUND:                -0.264
REMARK SMILES O=c1cc(-c2ccc(O)c(O)c2)oc2cc(O)cc(O)c12
REMARK SMILES IDX 4 1 3 2 2 3 1 4 21 5 19 6 18 7 16 8 15 9 14 10 13 11 5 12
REMARK SMILES IDX 6 13 7 14 8 15 12 16 10 17 9 18 11 20 20 22 17 24
REMARK H PARENT 9 19 11 21 20 23 17 25
REMARK Flexibility Score: inf
ROOT
ATOM      1  C   UNL     1      -0.258  10.811   4.371  1.00  0.00     0.138 A 
ATOM      2  C   UNL     1      -0.674   9.683   3.652  1.00  0.00     0.100 A 
ATOM      3  C   UNL     1       0.206   8.614   3.476  1.00  0.00     0.197 A 
ATOM      4  O   UNL     1      -0.216   7.589   2.879  1.00  0.00    -0.289 OA
ATOM      5  C   UNL     1       1.519   8.691   3.998  1.00  0.00     0.107 A 
ATOM      6  C   UNL     1       2.515   7.679   3.846  1.00  0.00     0.134 A 
ATOM      7  C   UNL     1       3.742   7.814   4.506  1.00  0.00     0.093 A 
ATOM      8  C   UNL     1       4.033   8.949   5.262  1.00  0.00     0.123 A 
ATOM      9  C   UNL     1       3.086   9.969   5.374  1.00  0.00     0.094 A 
ATOM     10  C   UNL     1       1.841   9.848   4.756  1.00  0.00     0.146 A 
ATOM     11  O   UNL     1       0.961  10.836   4.899  1.00  0.00    -0.456 OA
ENDROOT
BRANCH   1  12
ATOM     12  C   UNL     1      -1.153  11.977   4.587  1.00  0.00     0.021 A 
ATOM     13  C   UNL     1      -1.033  13.104   3.758  1.00  0.00     0.016 A 
ATOM     14  C   UNL     1      -1.867  14.210   3.937  1.00  0.00     0.051 A 
ATOM     15  C   UNL     1      -2.842  14.207   4.938  1.00  0.00     0.157 A 
ATOM     16  C   UNL     1      -2.145  11.972   5.588  1.00  0.00     0.062 A 
ATOM     17  C   UNL     1      -2.985  13.082   5.765  1.00  0.00     0.158 A 
BRANCH  15  18
ATOM     18  O   UNL     1      -3.659  15.326   5.093  1.00  0.00    -0.504 OA
ATOM     19  H   UNL     1      -4.669  15.260   5.081  1.00  0.00     0.293 HD
ENDBRANCH  15  18
BRANCH  17  20
ATOM     20  O   UNL     1      -3.963  13.067   6.759  1.00  0.00    -0.504 OA
ATOM     21  H   UNL     1      -3.816  12.593   7.643  1.00  0.00     0.293 HD
ENDBRANCH  17  20
ENDBRANCH   1  12
BRANCH   6  22
ATOM     22  O   UNL     1       2.359   6.544   3.044  1.00  0.00    -0.507 OA
ATOM     23  H   UNL     1       2.060   5.640   3.376  1.00  0.00     0.293 HD
ENDBRANCH   6  22
BRANCH   8  24
ATOM     24  O   UNL     1       5.270   9.056   5.893  1.00  0.00    -0.508 OA
ATOM     25  H   UNL     1       5.345   9.228   6.888  1.00  0.00     0.293 HD
ENDBRANCH   8  24
TORSDOF 5
ENDMDL
MODEL 4
REMARK VINA RESULT:    -5.044      1.371      2.099
REMARK INTER + INTRA:          -6.192
REMARK INTER:                  -5.910
REMARK INTRA:                  -0.282
REMARK UNBOUND:                -0.264
REMARK SMILES O=c1cc(-c2ccc(O)c(O)c2)oc2cc(O)cc(O)c12
REMARK SMILES IDX 4 1 3 2 2 3 1 4 21 5 19 6 18 7 16 8 15 9 14 10 13 11 5 12
REMARK SMILES IDX 6 13 7 14 8 15 12 16 10 17 9 18 11 20 20 22 17 24
REMARK H PARENT 9 19 11 21 20 23 17 25
REMARK Flexibility Score: inf
ROOT
ATOM      1  C   UNL     1       1.841  11.559   3.987  1.00  0.00     0.138 A 
ATOM      2  C   UNL     1       2.602  12.617   3.475  1.00  0.00     0.100 A 
ATOM      3  C   UNL     1       2.034  13.887   3.367  1.00  0.00     0.197 A 
ATOM      4  O   UNL     1       2.762  14.831   2.961  1.00  0.00    -0.289 OA
ATOM      5  C   UNL     1       0.686  14.089   3.746  1.00  0.00     0.107 A 
ATOM      6  C   UNL     1      -0.010  15.331   3.643  1.00  0.00     0.134 A 
ATOM      7  C   UNL     1      -1.307  15.440   4.158  1.00  0.00     0.093 A 
ATOM      8  C   UNL     1      -1.955  14.339   4.718  1.00  0.00     0.123 A 
ATOM      9  C   UNL     1      -1.303  13.106   4.775  1.00  0.00     0.094 A 
ATOM     10  C   UNL     1       0.003  12.974   4.302  1.00  0.00     0.146 A 
ATOM     11  O   UNL     1       0.594  11.787   4.388  1.00  0.00    -0.456 OA
ENDROOT
BRANCH   1  12
ATOM     12  C   UNL     1       2.395  10.187   4.123  1.00  0.00     0.021 A 
ATOM     13  C   UNL     1       3.569   9.986   4.867  1.00  0.00     0.016 A 
ATOM     14  C   UNL     1       4.106   8.705   5.016  1.00  0.00     0.051 A 
ATOM     15  C   UNL     1       3.475   7.602   4.435  1.00  0.00     0.157 A 
ATOM     16  C   UNL     1       1.754   9.071   3.550  1.00  0.00     0.062 A 
ATOM     17  C   UNL     1       2.292   7.783   3.701  1.00  0.00     0.158 A 
BRANCH  15  18
ATOM     18  O   UNL     1       4.035   6.335   4.600  1.00  0.00    -0.504 OA
ATOM     19  H   UNL     1       4.469   5.836   3.833  1.00  0.00     0.293 HD
ENDBRANCH  15  18
BRANCH  17  20
ATOM     20  O   UNL     1       1.651   6.686   3.128  1.00  0.00    -0.504 OA
ATOM     21  H   UNL     1       1.318   6.705   2.171  1.00  0.00     0.293 HD
ENDBRANCH  17  20
ENDBRANCH   1  12
BRANCH   6  22
ATOM     22  O   UNL     1       0.513  16.471   3.025  1.00  0.00    -0.507 OA
ATOM     23  H   UNL     1       1.483  16.746   3.049  1.00  0.00     0.293 HD
ENDBRANCH   6  22
BRANCH   8  24
ATOM     24  O   UNL     1      -3.252  14.480   5.206  1.00  0.00    -0.508 OA
ATOM     25  H   UNL     1      -3.465  15.113   5.969  1.00  0.00     0.293 HD
ENDBRANCH   8  24
TORSDOF 5
ENDMDL
MODEL 5
REMARK VINA RESULT:    -5.038      2.278      3.883
REMARK INTER + INTRA:          -6.185
REMARK INTER:                  -5.900
REMARK INTRA:                  -0.285
REMARK UNBOUND:                -0.264
REMARK SMILES O=c1cc(-c2ccc(O)c(O)c2)oc2cc(O)cc(O)c12
REMARK SMILES IDX 4 1 3 2 2 3 1 4 21 5 19 6 18 7 16 8 15 9 14 10 13 11 5 12
REMARK SMILES IDX 6 13 7 14 8 15 12 16 10 17 9 18 11 20 20 22 17 24
REMARK H PARENT 9 19 11 21 20 23 17 25
REMARK Flexibility Score: inf
ROOT
ATOM      1  C   UNL     1       1.884  11.084   3.694  1.00  0.00     0.138 A 
ATOM      2  C   UNL     1       0.513  11.316   3.527  1.00  0.00     0.100 A 
ATOM      3  C   UNL     1       0.054  12.616   3.310  1.00  0.00     0.197 A 
ATOM      4  O   UNL     1      -1.176  12.785   3.102  1.00  0.00    -0.289 OA
ATOM      5  C   UNL     1       0.973  13.692   3.292  1.00  0.00     0.107 A 
ATOM      6  C   UNL     1       0.615  15.063   3.119  1.00  0.00     0.134 A 
ATOM      7  C   UNL     1       1.622  16.029   3.002  1.00  0.00     0.093 A 
ATOM      8  C   UNL     1       2.969  15.684   3.111  1.00  0.00     0.123 A 
ATOM      9  C   UNL     1       3.327  14.354   3.333  1.00  0.00     0.094 A 
ATOM     10  C   UNL     1       2.349  13.362   3.420  1.00  0.00     0.146 A 
ATOM     11  O   UNL     1       2.732  12.105   3.618  1.00  0.00    -0.456 OA
ENDROOT
BRANCH   1  12
ATOM     12  C   UNL     1       2.427   9.722   3.929  1.00  0.00     0.021 A 
ATOM     13  C   UNL     1       3.563   9.559   4.738  1.00  0.00     0.016 A 
ATOM     14  C   UNL     1       4.088   8.287   4.980  1.00  0.00     0.051 A 
ATOM     15  C   UNL     1       3.483   7.155   4.427  1.00  0.00     0.157 A 
ATOM     16  C   UNL     1       1.812   8.577   3.384  1.00  0.00     0.062 A 
ATOM     17  C   UNL     1       2.338   7.299   3.628  1.00  0.00     0.158 A 
BRANCH  15  18
ATOM     18  O   UNL     1       4.031   5.899   4.685  1.00  0.00    -0.504 OA
ATOM     19  H   UNL     1       3.572   5.226   5.286  1.00  0.00     0.293 HD
ENDBRANCH  15  18
BRANCH  17  20
ATOM     20  O   UNL     1       1.721   6.173   3.084  1.00  0.00    -0.504 OA
ATOM     21  H   UNL     1       0.746   5.963   3.261  1.00  0.00     0.293 HD
ENDBRANCH  17  20
ENDBRANCH   1  12
BRANCH   6  22
ATOM     22  O   UNL     1      -0.703  15.528   3.083  1.00  0.00    -0.507 OA
ATOM     23  H   UNL     1      -1.273  15.583   2.253  1.00  0.00     0.293 HD
ENDBRANCH   6  22
BRANCH   8  24
ATOM     24  O   UNL     1       3.943  16.674   3.004  1.00  0.00    -0.508 OA
ATOM     25  H   UNL     1       4.311  17.145   3.822  1.00  0.00     0.293 HD
ENDBRANCH   8  24
TORSDOF 5
ENDMDL
MODEL 6
REMARK VINA RESULT:    -4.948      1.414      7.153
REMARK INTER + INTRA:          -6.080
REMARK INTER:                  -5.787
REMARK INTRA:                  -0.292
REMARK UNBOUND:                -0.264
REMARK SMILES O=c1cc(-c2ccc(O)c(O)c2)oc2cc(O)cc(O)c12
REMARK SMILES IDX 4 1 3 2 2 3 1 4 21 5 19 6 18 7 16 8 15 9 14 10 13 11 5 12
REMARK SMILES IDX 6 13 7 14 8 15 12 16 10 17 9 18 11 20 20 22 17 24
REMARK H PARENT 9 19 11 21 20 23 17 25
REMARK Flexibility Score: inf
ROOT
ATOM      1  C   UNL     1      -0.140  10.900   4.244  1.00  0.00     0.138 A 
ATOM      2  C   UNL     1      -0.579   9.756   3.565  1.00  0.00     0.100 A 
ATOM      3  C   UNL     1       0.275   8.660   3.436  1.00  0.00     0.197 A 
ATOM      4  O   UNL     1      -0.169   7.624   2.875  1.00  0.00    -0.289 OA
ATOM      5  C   UNL     1       1.587   8.724   3.963  1.00  0.00     0.107 A 
ATOM      6  C   UNL     1       2.557   7.683   3.856  1.00  0.00     0.134 A 
ATOM      7  C   UNL     1       3.784   7.814   4.519  1.00  0.00     0.093 A 
ATOM      8  C   UNL     1       4.098   8.969   5.234  1.00  0.00     0.123 A 
ATOM      9  C   UNL     1       3.177  10.015   5.300  1.00  0.00     0.094 A 
ATOM     10  C   UNL     1       1.932   9.902   4.679  1.00  0.00     0.146 A 
ATOM     11  O   UNL     1       1.076  10.915   4.779  1.00  0.00    -0.456 OA
ENDROOT
BRANCH   1  12
ATOM     12  C   UNL     1      -1.007  12.095   4.410  1.00  0.00     0.021 A 
ATOM     13  C   UNL     1      -2.345  11.930   4.804  1.00  0.00     0.016 A 
ATOM     14  C   UNL     1      -3.178  13.038   4.974  1.00  0.00     0.051 A 
ATOM     15  C   UNL     1      -2.689  14.330   4.765  1.00  0.00     0.157 A 
ATOM     16  C   UNL     1      -0.513  13.400   4.212  1.00  0.00     0.062 A 
ATOM     17  C   UNL     1      -1.350  14.514   4.386  1.00  0.00     0.158 A 
BRANCH  15  18
ATOM     18  O   UNL     1      -3.545  15.417   4.942  1.00  0.00    -0.504 OA
ATOM     19  H   UNL     1      -3.429  16.281   4.427  1.00  0.00     0.293 HD
ENDBRANCH  15  18
BRANCH  17  20
ATOM     20  O   UNL     1      -0.851  15.800   4.186  1.00  0.00    -0.504 OA
ATOM     21  H   UNL     1       0.145  15.982   4.132  1.00  0.00     0.293 HD
ENDBRANCH  17  20
ENDBRANCH   1  12
BRANCH   6  22
ATOM     22  O   UNL     1       2.378   6.524   3.097  1.00  0.00    -0.507 OA
ATOM     23  H   UNL     1       2.580   6.442   2.112  1.00  0.00     0.293 HD
ENDBRANCH   6  22
BRANCH   8  24
ATOM     24  O   UNL     1       5.334   9.070   5.868  1.00  0.00    -0.508 OA
ATOM     25  H   UNL     1       5.487   9.719   6.631  1.00  0.00     0.293 HD
ENDBRANCH   8  24
TORSDOF 5
ENDMDL
MODEL 7
REMARK VINA RESULT:    -4.584      2.563      3.596
REMARK INTER + INTRA:          -5.652
REMARK INTER:                  -5.383
REMARK INTRA:                  -0.269
REMARK UNBOUND:                -0.264
REMARK SMILES O=c1cc(-c2ccc(O)c(O)c2)oc2cc(O)cc(O)c12
REMARK SMILES IDX 4 1 3 2 2 3 1 4 21 5 19 6 18 7 16 8 15 9 14 10 13 11 5 12
REMARK SMILES IDX 6 13 7 14 8 15 12 16 10 17 9 18 11 20 20 22 17 24
REMARK H PARENT 9 19 11 21 20 23 17 25
REMARK Flexibility Score: inf
ROOT
ATOM      1  C   UNL     1      -0.174  10.193   4.979  1.00  0.00     0.138 A 
ATOM      2  C   UNL     1      -0.557  11.216   5.856  1.00  0.00     0.100 A 
ATOM      3  C   UNL     1      -1.906  11.384   6.173  1.00  0.00     0.197 A 
ATOM      4  O   UNL     1      -2.213  12.272   7.011  1.00  0.00    -0.289 OA
ATOM      5  C   UNL     1      -2.877  10.540   5.585  1.00  0.00     0.107 A 
ATOM      6  C   UNL     1      -4.284  10.643   5.804  1.00  0.00     0.134 A 
ATOM      7  C   UNL     1      -5.140   9.678   5.259  1.00  0.00     0.093 A 
ATOM      8  C   UNL     1      -4.648   8.650   4.455  1.00  0.00     0.123 A 
ATOM      9  C   UNL     1      -3.280   8.571   4.190  1.00  0.00     0.094 A 
ATOM     10  C   UNL     1      -2.397   9.497   4.747  1.00  0.00     0.146 A 
ATOM     11  O   UNL     1      -1.099   9.379   4.483  1.00  0.00    -0.456 OA
ENDROOT
BRANCH   1  12
ATOM     12  C   UNL     1       1.246   9.971   4.606  1.00  0.00     0.021 A 
ATOM     13  C   UNL     1       1.617   9.991   3.251  1.00  0.00     0.016 A 
ATOM     14  C   UNL     1       2.947   9.792   2.875  1.00  0.00     0.051 A 
ATOM     15  C   UNL     1       3.932   9.580   3.843  1.00  0.00     0.157 A 
ATOM     16  C   UNL     1       2.244   9.770   5.580  1.00  0.00     0.062 A 
ATOM     17  C   UNL     1       3.582   9.572   5.202  1.00  0.00     0.158 A 
BRANCH  15  18
ATOM     18  O   UNL     1       5.252   9.383   3.437  1.00  0.00    -0.504 OA
ATOM     19  H   UNL     1       5.797   8.588   3.747  1.00  0.00     0.293 HD
ENDBRANCH  15  18
BRANCH  17  20
ATOM     20  O   UNL     1       4.560   9.373   6.175  1.00  0.00    -0.504 OA
ATOM     21  H   UNL     1       4.624   9.966   6.995  1.00  0.00     0.293 HD
ENDBRANCH  17  20
ENDBRANCH   1  12
BRANCH   6  22
ATOM     22  O   UNL     1      -4.889  11.679   6.522  1.00  0.00    -0.507 OA
ATOM     23  H   UNL     1      -4.962  12.634   6.205  1.00  0.00     0.293 HD
ENDBRANCH   6  22
BRANCH   8  24
ATOM     24  O   UNL     1      -5.531   7.717   3.917  1.00  0.00    -0.508 OA
ATOM     25  H   UNL     1      -5.938   7.841   2.997  1.00  0.00     0.293 HD
ENDBRANCH   8  24
TORSDOF 5
ENDMDL
MODEL 8
REMARK VINA RESULT:    -4.517      3.649      6.700
REMARK INTER + INTRA:          -5.572
REMARK INTER:                  -5.255
REMARK INTRA:                  -0.318
REMARK UNBOUND:                -0.264
REMARK SMILES O=c1cc(-c2ccc(O)c(O)c2)oc2cc(O)cc(O)c12
REMARK SMILES IDX 4 1 3 2 2 3 1 4 21 5 19 6 18 7 16 8 15 9 14 10 13 11 5 12
REMARK SMILES IDX 6 13 7 14 8 15 12 16 10 17 9 18 11 20 20 22 17 24
REMARK H PARENT 9 19 11 21 20 23 17 25
REMARK Flexibility Score: inf
ROOT
ATOM      1  C   UNL     1       0.006   7.723   3.243  1.00  0.00     0.138 A 
ATOM      2  C   UNL     1       1.125   6.902   3.050  1.00  0.00     0.100 A 
ATOM      3  C   UNL     1       2.404   7.459   3.087  1.00  0.00     0.197 A 
ATOM      4  O   UNL     1       3.392   6.687   2.973  1.00  0.00    -0.289 OA
ATOM      5  C   UNL     1       2.560   8.851   3.289  1.00  0.00     0.107 A 
ATOM      6  C   UNL     1       3.812   9.535   3.306  1.00  0.00     0.134 A 
ATOM      7  C   UNL     1       3.850  10.897   3.630  1.00  0.00     0.093 A 
ATOM      8  C   UNL     1       2.679  11.612   3.879  1.00  0.00     0.123 A 
ATOM      9  C   UNL     1       1.444  10.964   3.812  1.00  0.00     0.094 A 
ATOM     10  C   UNL     1       1.376   9.600   3.525  1.00  0.00     0.146 A 
ATOM     11  O   UNL     1       0.181   9.017   3.486  1.00  0.00    -0.456 OA
ENDROOT
BRANCH   1  12
ATOM     12  C   UNL     1      -1.377   7.183   3.212  1.00  0.00     0.021 A 
ATOM     13  C   UNL     1      -1.583   5.824   2.925  1.00  0.00     0.016 A 
ATOM     14  C   UNL     1      -2.874   5.290   2.897  1.00  0.00     0.051 A 
ATOM     15  C   UNL     1      -3.980   6.100   3.166  1.00  0.00     0.157 A 
ATOM     16  C   UNL     1      -2.494   7.994   3.497  1.00  0.00     0.062 A 
ATOM     17  C   UNL     1      -3.791   7.457   3.471  1.00  0.00     0.158 A 
BRANCH  15  18
ATOM     18  O   UNL     1      -5.257   5.540   3.130  1.00  0.00    -0.504 OA
ATOM     19  H   UNL     1      -6.092   6.109   3.074  1.00  0.00     0.293 HD
ENDBRANCH  15  18
BRANCH  17  20
ATOM     20  O   UNL     1      -4.888   8.269   3.753  1.00  0.00    -0.504 OA
ATOM     21  H   UNL     1      -4.775   9.224   4.076  1.00  0.00     0.293 HD
ENDBRANCH  17  20
ENDBRANCH   1  12
BRANCH   6  22
ATOM     22  O   UNL     1       5.034   8.935   2.990  1.00  0.00    -0.507 OA
ATOM     23  H   UNL     1       5.503   8.246   3.558  1.00  0.00     0.293 HD
ENDBRANCH   6  22
BRANCH   8  24
ATOM     24  O   UNL     1       2.754  12.969   4.184  1.00  0.00    -0.508 OA
ATOM     25  H   UNL     1       2.903  13.291   5.133  1.00  0.00     0.293 HD
ENDBRANCH   8  24
TORSDOF 5
ENDMDL
