MODEL 1
REMARK VINA RESULT:     0.943      0.000      0.000
REMARK INTER + INTRA:          14.642
REMARK INTER:                   1.549
REMARK INTRA:                  13.093
REMARK UNBOUND:                13.093
REMARK SMILES C[C@@H]1O[C@H](OC[C@@H]2O[C@H](Oc3c(-c4ccc(O)c(O)c4)oc4cc(O)cc(O)c4c3=O)[C@H](O)[C@@H](O)[C@H]2O)[C@H](O)[C@H](O)[C@@H]1O
REMARK SMILES IDX 7 1 36 2 34 3 32 4 9 5 8 6 6 7 5 8 4 9 1 10 2 11 42 12 3 13
REMARK SMILES IDX 40 14 38 15 43 16 41 18 39 20 37 22 35 24 10 26 11 27 12 28
REMARK SMILES IDX 30 29 21 30 29 31 31 32 22 33 27 34 23 35 26 36 24 37 13 38
REMARK SMILES IDX 20 39 14 40 18 41 15 42 16 43 19 44 17 46 28 48 25 50 33 52
REMARK H PARENT 43 17 41 19 39 21 37 23 35 25 19 45 17 47 28 49 25 51 33 53
REMARK Flexibility Score: inf
ROOT
ATOM      1  C   UNL     1      44.568  29.909  11.268  1.00  0.00     0.180 C 
ATOM      2  C   UNL     1      43.352  29.480  12.126  1.00  0.00     0.177 C 
ATOM      3  C   UNL     1      43.345  27.959  12.337  1.00  0.00     0.180 C 
ATOM      4  C   UNL     1      44.699  27.522  12.893  1.00  0.00     0.214 C 
ATOM      5  C   UNL     1      45.845  28.015  11.979  1.00  0.00     0.339 C 
ATOM      6  O   UNL     1      45.810  29.420  11.767  1.00  0.00    -0.332 OA
ENDROOT
BRANCH   1   7
ATOM      7  C   UNL     1      44.369  29.640   9.764  1.00  0.00     0.198 C 
BRANCH   7   8
ATOM      8  O   UNL     1      42.988  29.591   9.473  1.00  0.00    -0.347 OA
BRANCH   8   9
ATOM      9  C   UNL     1      42.527  28.251   9.456  1.00  0.00     0.281 C 
ATOM     10  C   UNL     1      40.559  30.124  10.944  1.00  0.00     0.041 C 
ATOM     11  C   UNL     1      40.440  28.640  10.553  1.00  0.00     0.150 C 
ATOM     12  C   UNL     1      39.629  28.369   9.262  1.00  0.00     0.174 C 
ATOM     13  O   UNL     1      41.696  27.968  10.574  1.00  0.00    -0.344 OA
ATOM     14  C   UNL     1      40.455  28.617   7.989  1.00  0.00     0.179 C 
ATOM     15  C   UNL     1      41.830  27.924   8.118  1.00  0.00     0.202 C 
BRANCH  12  16
ATOM     16  O   UNL     1      38.453  29.143   9.255  1.00  0.00    -0.388 OA
ATOM     17  H   UNL     1      38.734  30.089   9.156  1.00  0.00     0.211 HD
ENDBRANCH  12  16
BRANCH  14  18
ATOM     18  O   UNL     1      40.512  29.996   7.693  1.00  0.00    -0.387 OA
ATOM     19  H   UNL     1      40.415  30.144   6.720  1.00  0.00     0.211 HD
ENDBRANCH  14  18
BRANCH  15  20
ATOM     20  O   UNL     1      42.652  28.270   7.034  1.00  0.00    -0.385 OA
ATOM     21  H   UNL     1      43.560  28.428   7.400  1.00  0.00     0.211 HD
ENDBRANCH  15  20
ENDBRANCH   8   9
ENDBRANCH   7   8
ENDBRANCH   1   7
BRANCH   2  22
ATOM     22  O   UNL     1      43.405  30.124  13.374  1.00  0.00    -0.387 OA
ATOM     23  H   UNL     1      42.919  29.545  14.019  1.00  0.00     0.211 HD
ENDBRANCH   2  22
BRANCH   3  24
ATOM     24  O   UNL     1      42.327  27.598  13.234  1.00  0.00    -0.387 OA
ATOM     25  H   UNL     1      41.606  28.273  13.137  1.00  0.00     0.211 HD
ENDBRANCH   3  24
BRANCH   5  26
ATOM     26  O   UNL     1      45.902  27.319  10.728  1.00  0.00    -0.454 OA
BRANCH  26  27
ATOM     27  C   UNL     1      45.933  25.922  10.634  1.00  0.00     0.214 A 
ATOM     28  C   UNL     1      46.022  25.262   9.390  1.00  0.00     0.180 A 
ATOM     29  C   UNL     1      45.823  25.150  11.797  1.00  0.00     0.239 A 
ATOM     30  O   UNL     1      46.084  23.937   9.345  1.00  0.00    -0.452 OA
ATOM     31  C   UNL     1      45.891  23.745  11.712  1.00  0.00     0.111 A 
ATOM     32  O   UNL     1      45.661  25.726  12.909  1.00  0.00    -0.285 OA
ATOM     33  C   UNL     1      46.038  23.170  10.427  1.00  0.00     0.146 A 
ATOM     34  C   UNL     1      45.821  22.896  12.843  1.00  0.00     0.134 A 
ATOM     35  C   UNL     1      46.117  21.783  10.281  1.00  0.00     0.094 A 
ATOM     36  C   UNL     1      45.903  21.505  12.674  1.00  0.00     0.093 A 
ATOM     37  C   UNL     1      46.050  20.949  11.401  1.00  0.00     0.123 A 
BRANCH  28  38
ATOM     38  C   UNL     1      45.941  25.989   8.114  1.00  0.00     0.025 A 
ATOM     39  C   UNL     1      45.941  27.390   8.134  1.00  0.00     0.062 A 
ATOM     40  C   UNL     1      45.766  25.318   6.899  1.00  0.00     0.016 A 
ATOM     41  C   UNL     1      45.836  28.125   6.948  1.00  0.00     0.158 A 
ATOM     42  C   UNL     1      45.682  26.040   5.706  1.00  0.00     0.051 A 
ATOM     43  C   UNL     1      45.727  27.441   5.714  1.00  0.00     0.157 A 
BRANCH  41  44
ATOM     44  O   UNL     1      45.840  29.518   7.041  1.00  0.00    -0.504 OA
ATOM     45  H   UNL     1      46.667  30.071   7.219  1.00  0.00     0.293 HD
ENDBRANCH  41  44
BRANCH  43  46
ATOM     46  O   UNL     1      45.653  28.102   4.487  1.00  0.00    -0.504 OA
ATOM     47  H   UNL     1      45.165  27.735   3.680  1.00  0.00     0.293 HD
ENDBRANCH  43  46
ENDBRANCH  28  38
BRANCH  34  48
ATOM     48  O   UNL     1      45.671  23.423  14.124  1.00  0.00    -0.507 OA
ATOM     49  H   UNL     1      46.382  23.298  14.838  1.00  0.00     0.293 HD
ENDBRANCH  34  48
BRANCH  37  50
ATOM     50  O   UNL     1      46.125  19.564  11.260  1.00  0.00    -0.508 OA
ATOM     51  H   UNL     1      46.971  19.108  10.934  1.00  0.00     0.293 HD
ENDBRANCH  37  50
ENDBRANCH  26  27
ENDBRANCH   5  26
BRANCH   4  52
ATOM     52  O   UNL     1      44.725  26.126  13.030  1.00  0.00    -0.384 OA
ATOM     53  H   UNL     1      43.858  25.859  13.434  1.00  0.00     0.211 HD
ENDBRANCH   4  52
TORSDOF 16
ENDMDL
MODEL 2
REMARK VINA RESULT:     0.950      1.892      5.555
REMARK INTER + INTRA:          14.654
REMARK INTER:                  13.466
REMARK INTRA:                   1.188
REMARK UNBOUND:                13.093
REMARK SMILES C[C@@H]1O[C@H](OC[C@@H]2O[C@H](Oc3c(-c4ccc(O)c(O)c4)oc4cc(O)cc(O)c4c3=O)[C@H](O)[C@@H](O)[C@H]2O)[C@H](O)[C@H](O)[C@@H]1O
REMARK SMILES IDX 7 1 36 2 34 3 32 4 9 5 8 6 6 7 5 8 4 9 1 10 2 11 42 12 3 13
REMARK SMILES IDX 40 14 38 15 43 16 41 18 39 20 37 22 35 24 10 26 11 27 12 28
REMARK SMILES IDX 30 29 21 30 29 31 31 32 22 33 27 34 23 35 26 36 24 37 13 38
REMARK SMILES IDX 20 39 14 40 18 41 15 42 16 43 19 44 17 46 28 48 25 50 33 52
REMARK H PARENT 43 17 41 19 39 21 37 23 35 25 19 45 17 47 28 49 25 51 33 53
REMARK Flexibility Score: inf
ROOT
ATOM      1  C   UNL     1      42.634  28.925  12.732  1.00  0.00     0.180 C 
ATOM      2  C   UNL     1      43.820  28.534  13.648  1.00  0.00     0.177 C 
ATOM      3  C   UNL     1      44.839  27.677  12.883  1.00  0.00     0.180 C 
ATOM      4  C   UNL     1      45.242  28.401  11.600  1.00  0.00     0.214 C 
ATOM      5  C   UNL     1      43.990  28.766  10.768  1.00  0.00     0.339 C 
ATOM      6  O   UNL     1      43.044  29.526  11.506  1.00  0.00    -0.332 OA
ENDROOT
BRANCH   1   7
ATOM      7  C   UNL     1      41.619  27.782  12.538  1.00  0.00     0.198 C 
BRANCH   7   8
ATOM      8  O   UNL     1      40.703  28.134  11.522  1.00  0.00    -0.347 OA
BRANCH   8   9
ATOM      9  C   UNL     1      40.056  29.355  11.832  1.00  0.00     0.281 C 
ATOM     10  C   UNL     1      39.100  28.205   9.119  1.00  0.00     0.041 C 
ATOM     11  C   UNL     1      38.606  29.414   9.933  1.00  0.00     0.150 C 
ATOM     12  C   UNL     1      37.348  29.149  10.795  1.00  0.00     0.174 C 
ATOM     13  O   UNL     1      39.655  30.050  10.658  1.00  0.00    -0.344 OA
ATOM     14  C   UNL     1      37.681  28.426  12.111  1.00  0.00     0.179 C 
ATOM     15  C   UNL     1      38.875  29.123  12.800  1.00  0.00     0.202 C 
BRANCH  12  16
ATOM     16  O   UNL     1      36.393  28.426  10.054  1.00  0.00    -0.388 OA
ATOM     17  H   UNL     1      35.634  29.042   9.888  1.00  0.00     0.211 HD
ENDBRANCH  12  16
BRANCH  14  18
ATOM     18  O   UNL     1      37.851  27.042  11.889  1.00  0.00    -0.387 OA
ATOM     19  H   UNL     1      37.261  26.736  11.157  1.00  0.00     0.211 HD
ENDBRANCH  14  18
BRANCH  15  20
ATOM     20  O   UNL     1      39.291  28.385  13.919  1.00  0.00    -0.385 OA
ATOM     21  H   UNL     1      38.471  28.115  14.406  1.00  0.00     0.211 HD
ENDBRANCH  15  20
ENDBRANCH   8   9
ENDBRANCH   7   8
ENDBRANCH   1   7
BRANCH   2  22
ATOM     22  O   UNL     1      44.452  29.696  14.125  1.00  0.00    -0.387 OA
ATOM     23  H   UNL     1      44.701  29.522  15.071  1.00  0.00     0.211 HD
ENDBRANCH   2  22
BRANCH   3  24
ATOM     24  O   UNL     1      45.976  27.452  13.676  1.00  0.00    -0.387 OA
ATOM     25  H   UNL     1      46.468  28.313  13.723  1.00  0.00     0.211 HD
ENDBRANCH   3  24
BRANCH   5  26
ATOM     26  O   UNL     1      43.362  27.625  10.171  1.00  0.00    -0.454 OA
BRANCH  26  27
ATOM     27  C   UNL     1      43.901  26.947   9.071  1.00  0.00     0.214 A 
ATOM     28  C   UNL     1      44.307  25.597   9.155  1.00  0.00     0.180 A 
ATOM     29  C   UNL     1      44.093  27.631   7.865  1.00  0.00     0.239 A 
ATOM     30  O   UNL     1      44.782  24.979   8.080  1.00  0.00    -0.452 OA
ATOM     31  C   UNL     1      44.601  26.943   6.745  1.00  0.00     0.111 A 
ATOM     32  O   UNL     1      43.810  28.859   7.799  1.00  0.00    -0.285 OA
ATOM     33  C   UNL     1      44.928  25.576   6.904  1.00  0.00     0.146 A 
ATOM     34  C   UNL     1      44.792  27.555   5.481  1.00  0.00     0.134 A 
ATOM     35  C   UNL     1      45.428  24.841   5.827  1.00  0.00     0.094 A 
ATOM     36  C   UNL     1      45.296  26.798   4.412  1.00  0.00     0.093 A 
ATOM     37  C   UNL     1      45.613  25.448   4.582  1.00  0.00     0.123 A 
BRANCH  28  38
ATOM     38  C   UNL     1      44.326  24.867  10.431  1.00  0.00     0.025 A 
ATOM     39  C   UNL     1      44.920  23.598  10.475  1.00  0.00     0.062 A 
ATOM     40  C   UNL     1      43.683  25.365  11.570  1.00  0.00     0.016 A 
ATOM     41  C   UNL     1      44.937  22.853  11.659  1.00  0.00     0.158 A 
ATOM     42  C   UNL     1      43.713  24.640  12.764  1.00  0.00     0.051 A 
ATOM     43  C   UNL     1      44.344  23.391  12.826  1.00  0.00     0.157 A 
BRANCH  41  44
ATOM     44  O   UNL     1      45.543  21.596  11.631  1.00  0.00    -0.504 OA
ATOM     45  H   UNL     1      45.270  20.850  11.007  1.00  0.00     0.293 HD
ENDBRANCH  41  44
BRANCH  43  46
ATOM     46  O   UNL     1      44.351  22.724  14.053  1.00  0.00    -0.504 OA
ATOM     47  H   UNL     1      44.200  23.184  14.942  1.00  0.00     0.293 HD
ENDBRANCH  43  46
ENDBRANCH  28  38
BRANCH  34  48
ATOM     48  O   UNL     1      44.487  28.901   5.285  1.00  0.00    -0.507 OA
ATOM     49  H   UNL     1      44.102  29.237   4.408  1.00  0.00     0.293 HD
ENDBRANCH  34  48
BRANCH  37  50
ATOM     50  O   UNL     1      46.117  24.720   3.505  1.00  0.00    -0.508 OA
ATOM     51  H   UNL     1      45.522  24.115   2.948  1.00  0.00     0.293 HD
ENDBRANCH  37  50
ENDBRANCH  26  27
ENDBRANCH   5  26
BRANCH   4  52
ATOM     52  O   UNL     1      46.124  27.598  10.862  1.00  0.00    -0.384 OA
ATOM     53  H   UNL     1      45.634  27.301  10.051  1.00  0.00     0.211 HD
ENDBRANCH   4  52
TORSDOF 16
ENDMDL
