MODEL 1
REMARK VINA RESULT:    -3.162      0.000      0.000
REMARK INTER + INTRA:          -6.942
REMARK INTER:                  -5.380
REMARK INTRA:                  -1.562
REMARK UNBOUND:                -1.562
REMARK SMILES CCCCCCCCCCCCCC(=O)[O-]
REMARK SMILES IDX 8 1 9 2 10 3 11 4 12 5 13 6 14 7 15 8 16 9 7 10 6 11 5 12
REMARK SMILES IDX 4 13 3 14 2 15 1 16
REMARK H PARENT
REMARK Flexibility Score: inf
ROOT
ATOM      1  C   UNL     1      22.900  67.442  17.813  1.00  0.00     0.000 C 
ENDROOT
BRANCH   1   2
ATOM      2  C   UNL     1      22.337  68.559  18.715  1.00  0.00     0.000 C 
BRANCH   2   3
ATOM      3  C   UNL     1      22.590  69.992  18.207  1.00  0.00     0.000 C 
BRANCH   3   4
ATOM      4  C   UNL     1      21.483  70.570  17.302  1.00  0.00     0.000 C 
BRANCH   4   5
ATOM      5  C   UNL     1      21.875  70.744  15.824  1.00  0.00     0.006 C 
BRANCH   5   6
ATOM      6  C   UNL     1      21.709  72.186  15.331  1.00  0.00     0.053 C 
BRANCH   6   7
ATOM      7  C   UNL     1      23.042  72.785  15.012  1.00  0.00     0.041 C 
ATOM      8  O   UNL     1      23.980  72.727  15.849  1.00  0.00    -0.550 OA
ATOM      9  O   UNL     1      23.234  73.453  13.808  1.00  0.00    -0.550 OA
ENDBRANCH   6   7
ENDBRANCH   5   6
ENDBRANCH   4   5
ENDBRANCH   3   4
ENDBRANCH   2   3
ENDBRANCH   1   2
BRANCH   1  10
ATOM     10  C   UNL     1      22.489  66.011  18.213  1.00  0.00     0.000 C 
BRANCH  10  11
ATOM     11  C   UNL     1      21.281  65.924  19.161  1.00  0.00    -0.000 C 
BRANCH  11  12
ATOM     12  C   UNL     1      20.129  65.085  18.582  1.00  0.00    -0.000 C 
BRANCH  12  13
ATOM     13  C   UNL     1      18.792  65.843  18.577  1.00  0.00    -0.000 C 
BRANCH  13  14
ATOM     14  C   UNL     1      18.966  67.344  18.870  1.00  0.00    -0.000 C 
BRANCH  14  15
ATOM     15  C   UNL     1      18.665  68.221  17.645  1.00  0.00    -0.003 C 
ATOM     16  C   UNL     1      19.341  67.709  16.373  1.00  0.00     0.004 C 
ENDBRANCH  14  15
ENDBRANCH  13  14
ENDBRANCH  12  13
ENDBRANCH  11  12
ENDBRANCH  10  11
ENDBRANCH   1  10
TORSDOF 12
ENDMDL
MODEL 2
REMARK VINA RESULT:    -3.043      3.201      5.794
REMARK INTER + INTRA:          -6.739
REMARK INTER:                  -4.872
REMARK INTRA:                  -1.868
REMARK UNBOUND:                -1.562
REMARK SMILES CCCCCCCCCCCCCC(=O)[O-]
REMARK SMILES IDX 8 1 9 2 10 3 11 4 12 5 13 6 14 7 15 8 16 9 7 10 6 11 5 12
REMARK SMILES IDX 4 13 3 14 2 15 1 16
REMARK H PARENT
REMARK Flexibility Score: inf
ROOT
ATOM      1  C   UNL     1      22.931  67.029  18.132  1.00  0.00     0.000 C 
ENDROOT
BRANCH   1   2
ATOM      2  C   UNL     1      23.135  67.086  16.605  1.00  0.00     0.000 C 
BRANCH   2   3
ATOM      3  C   UNL     1      22.081  66.320  15.781  1.00  0.00     0.000 C 
BRANCH   3   4
ATOM      4  C   UNL     1      21.013  67.204  15.105  1.00  0.00     0.000 C 
BRANCH   4   5
ATOM      5  C   UNL     1      19.662  67.270  15.840  1.00  0.00     0.006 C 
BRANCH   5   6
ATOM      6  C   UNL     1      19.403  66.040  16.718  1.00  0.00     0.053 C 
BRANCH   6   7
ATOM      7  C   UNL     1      19.109  66.456  18.125  1.00  0.00     0.041 C 
ATOM      8  O   UNL     1      19.372  65.683  19.083  1.00  0.00    -0.550 OA
ATOM      9  O   UNL     1      18.498  67.680  18.375  1.00  0.00    -0.550 OA
ENDBRANCH   6   7
ENDBRANCH   5   6
ENDBRANCH   4   5
ENDBRANCH   3   4
ENDBRANCH   2   3
ENDBRANCH   1   2
BRANCH   1  10
ATOM     10  C   UNL     1      22.231  68.260  18.743  1.00  0.00     0.000 C 
BRANCH  10  11
ATOM     11  C   UNL     1      22.399  69.565  17.943  1.00  0.00    -0.000 C 
BRANCH  11  12
ATOM     12  C   UNL     1      21.055  70.163  17.492  1.00  0.00    -0.000 C 
BRANCH  12  13
ATOM     13  C   UNL     1      21.224  71.231  16.399  1.00  0.00    -0.000 C 
BRANCH  13  14
ATOM     14  C   UNL     1      22.071  70.733  15.215  1.00  0.00    -0.000 C 
BRANCH  14  15
ATOM     15  C   UNL     1      22.752  71.881  14.454  1.00  0.00    -0.003 C 
ATOM     16  C   UNL     1      23.647  72.734  15.353  1.00  0.00     0.004 C 
ENDBRANCH  14  15
ENDBRANCH  13  14
ENDBRANCH  12  13
ENDBRANCH  11  12
ENDBRANCH  10  11
ENDBRANCH   1  10
TORSDOF 12
ENDMDL
MODEL 3
REMARK VINA RESULT:    -3.016      3.723      5.577
REMARK INTER + INTRA:          -6.694
REMARK INTER:                  -4.462
REMARK INTRA:                  -2.232
REMARK UNBOUND:                -1.562
REMARK SMILES CCCCCCCCCCCCCC(=O)[O-]
REMARK SMILES IDX 8 1 9 2 10 3 11 4 12 5 13 6 14 7 15 8 16 9 7 10 6 11 5 12
REMARK SMILES IDX 4 13 3 14 2 15 1 16
REMARK H PARENT
REMARK Flexibility Score: inf
ROOT
ATOM      1  C   UNL     1      22.415  66.779  15.774  1.00  0.00     0.000 C 
ENDROOT
BRANCH   1   2
ATOM      2  C   UNL     1      23.420  66.467  16.902  1.00  0.00     0.000 C 
BRANCH   2   3
ATOM      3  C   UNL     1      22.823  66.476  18.323  1.00  0.00     0.000 C 
BRANCH   3   4
ATOM      4  C   UNL     1      22.076  67.769  18.709  1.00  0.00     0.000 C 
BRANCH   4   5
ATOM      5  C   UNL     1      20.631  67.565  19.196  1.00  0.00     0.006 C 
BRANCH   5   6
ATOM      6  C   UNL     1      20.147  66.118  19.034  1.00  0.00     0.053 C 
BRANCH   6   7
ATOM      7  C   UNL     1      18.653  66.059  19.086  1.00  0.00     0.041 C 
ATOM      8  O   UNL     1      17.991  67.063  19.458  1.00  0.00    -0.550 OA
ATOM      9  O   UNL     1      17.993  64.877  18.770  1.00  0.00    -0.550 OA
ENDBRANCH   6   7
ENDBRANCH   5   6
ENDBRANCH   4   5
ENDBRANCH   3   4
ENDBRANCH   2   3
ENDBRANCH   1   2
BRANCH   1  10
ATOM     10  C   UNL     1      21.458  65.624  15.415  1.00  0.00     0.000 C 
BRANCH  10  11
ATOM     11  C   UNL     1      19.973  66.016  15.325  1.00  0.00    -0.000 C 
BRANCH  11  12
ATOM     12  C   UNL     1      19.770  67.492  14.941  1.00  0.00    -0.000 C 
BRANCH  12  13
ATOM     13  C   UNL     1      18.984  68.274  16.006  1.00  0.00    -0.000 C 
BRANCH  13  14
ATOM     14  C   UNL     1      19.578  69.669  16.269  1.00  0.00    -0.000 C 
BRANCH  14  15
ATOM     15  C   UNL     1      20.735  70.005  15.316  1.00  0.00    -0.003 C 
ATOM     16  C   UNL     1      21.970  70.529  16.051  1.00  0.00     0.004 C 
ENDBRANCH  14  15
ENDBRANCH  13  14
ENDBRANCH  12  13
ENDBRANCH  11  12
ENDBRANCH  10  11
ENDBRANCH   1  10
TORSDOF 12
ENDMDL
MODEL 4
REMARK VINA RESULT:    -2.988      1.209      1.973
REMARK INTER + INTRA:          -6.646
REMARK INTER:                  -4.923
REMARK INTRA:                  -1.723
REMARK UNBOUND:                -1.562
REMARK SMILES CCCCCCCCCCCCCC(=O)[O-]
REMARK SMILES IDX 8 1 9 2 10 3 11 4 12 5 13 6 14 7 15 8 16 9 7 10 6 11 5 12
REMARK SMILES IDX 4 13 3 14 2 15 1 16
REMARK H PARENT
REMARK Flexibility Score: inf
ROOT
ATOM      1  C   UNL     1      22.678  68.561  18.081  1.00  0.00     0.000 C 
ENDROOT
BRANCH   1   2
ATOM      2  C   UNL     1      22.657  70.103  18.053  1.00  0.00     0.000 C 
BRANCH   2   3
ATOM      3  C   UNL     1      21.449  70.723  17.323  1.00  0.00     0.000 C 
BRANCH   3   4
ATOM      4  C   UNL     1      21.293  70.304  15.847  1.00  0.00     0.000 C 
BRANCH   4   5
ATOM      5  C   UNL     1      22.095  71.150  14.842  1.00  0.00     0.006 C 
BRANCH   5   6
ATOM      6  C   UNL     1      21.898  72.657  15.042  1.00  0.00     0.053 C 
BRANCH   6   7
ATOM      7  C   UNL     1      23.218  73.362  15.031  1.00  0.00     0.041 C 
ATOM      8  O   UNL     1      23.283  74.590  15.302  1.00  0.00    -0.550 OA
ATOM      9  O   UNL     1      24.371  72.674  14.673  1.00  0.00    -0.550 OA
ENDBRANCH   6   7
ENDBRANCH   5   6
ENDBRANCH   4   5
ENDBRANCH   3   4
ENDBRANCH   2   3
ENDBRANCH   1   2
BRANCH   1  10
ATOM     10  C   UNL     1      21.919  67.920  19.260  1.00  0.00     0.000 C 
BRANCH  10  11
ATOM     11  C   UNL     1      20.812  66.931  18.857  1.00  0.00    -0.000 C 
BRANCH  11  12
ATOM     12  C   UNL     1      19.438  67.606  18.703  1.00  0.00    -0.000 C 
BRANCH  12  13
ATOM     13  C   UNL     1      19.026  67.775  17.232  1.00  0.00    -0.000 C 
BRANCH  13  14
ATOM     14  C   UNL     1      19.399  66.554  16.372  1.00  0.00    -0.000 C 
BRANCH  14  15
ATOM     15  C   UNL     1      20.162  66.942  15.097  1.00  0.00    -0.003 C 
ATOM     16  C   UNL     1      21.642  66.566  15.158  1.00  0.00     0.004 C 
ENDBRANCH  14  15
ENDBRANCH  13  14
ENDBRANCH  12  13
ENDBRANCH  11  12
ENDBRANCH  10  11
ENDBRANCH   1  10
TORSDOF 12
ENDMDL
MODEL 5
REMARK VINA RESULT:    -2.972      2.161      2.311
REMARK INTER + INTRA:          -6.618
REMARK INTER:                  -4.909
REMARK INTRA:                  -1.709
REMARK UNBOUND:                -1.562
REMARK SMILES CCCCCCCCCCCCCC(=O)[O-]
REMARK SMILES IDX 8 1 9 2 10 3 11 4 12 5 13 6 14 7 15 8 16 9 7 10 6 11 5 12
REMARK SMILES IDX 4 13 3 14 2 15 1 16
REMARK H PARENT
REMARK Flexibility Score: inf
ROOT
ATOM      1  C   UNL     1      22.985  67.336  17.483  1.00  0.00     0.000 C 
ENDROOT
BRANCH   1   2
ATOM      2  C   UNL     1      22.618  68.408  18.529  1.00  0.00     0.000 C 
BRANCH   2   3
ATOM      3  C   UNL     1      22.730  69.863  18.033  1.00  0.00     0.000 C 
BRANCH   3   4
ATOM      4  C   UNL     1      21.404  70.497  17.564  1.00  0.00     0.000 C 
BRANCH   4   5
ATOM      5  C   UNL     1      21.328  70.807  16.059  1.00  0.00     0.006 C 
BRANCH   5   6
ATOM      6  C   UNL     1      20.597  72.121  15.759  1.00  0.00     0.053 C 
BRANCH   6   7
ATOM      7  C   UNL     1      19.212  72.090  16.326  1.00  0.00     0.041 C 
ATOM      8  O   UNL     1      18.870  72.919  17.210  1.00  0.00    -0.550 OA
ATOM      9  O   UNL     1      18.314  71.112  15.914  1.00  0.00    -0.550 OA
ENDBRANCH   6   7
ENDBRANCH   5   6
ENDBRANCH   4   5
ENDBRANCH   3   4
ENDBRANCH   2   3
ENDBRANCH   1   2
BRANCH   1  10
ATOM     10  C   UNL     1      23.034  65.891  18.019  1.00  0.00     0.000 C 
BRANCH  10  11
ATOM     11  C   UNL     1      21.717  65.107  17.892  1.00  0.00    -0.000 C 
BRANCH  11  12
ATOM     12  C   UNL     1      20.812  65.258  19.127  1.00  0.00    -0.000 C 
BRANCH  12  13
ATOM     13  C   UNL     1      19.421  65.810  18.775  1.00  0.00    -0.000 C 
BRANCH  13  14
ATOM     14  C   UNL     1      19.328  67.334  18.964  1.00  0.00    -0.000 C 
BRANCH  14  15
ATOM     15  C   UNL     1      18.718  68.043  17.745  1.00  0.00    -0.003 C 
ATOM     16  C   UNL     1      19.360  67.606  16.428  1.00  0.00     0.004 C 
ENDBRANCH  14  15
ENDBRANCH  13  14
ENDBRANCH  12  13
ENDBRANCH  11  12
ENDBRANCH  10  11
ENDBRANCH   1  10
TORSDOF 12
ENDMDL
MODEL 6
REMARK VINA RESULT:    -2.942      1.348      2.176
REMARK INTER + INTRA:          -6.568
REMARK INTER:                  -4.880
REMARK INTRA:                  -1.688
REMARK UNBOUND:                -1.562
REMARK SMILES CCCCCCCCCCCCCC(=O)[O-]
REMARK SMILES IDX 8 1 9 2 10 3 11 4 12 5 13 6 14 7 15 8 16 9 7 10 6 11 5 12
REMARK SMILES IDX 4 13 3 14 2 15 1 16
REMARK H PARENT
REMARK Flexibility Score: inf
ROOT
ATOM      1  C   UNL     1      22.285  68.471  18.779  1.00  0.00     0.000 C 
ENDROOT
BRANCH   1   2
ATOM      2  C   UNL     1      22.670  69.779  18.058  1.00  0.00     0.000 C 
BRANCH   2   3
ATOM      3  C   UNL     1      21.493  70.525  17.398  1.00  0.00     0.000 C 
BRANCH   3   4
ATOM      4  C   UNL     1      21.569  70.635  15.862  1.00  0.00     0.000 C 
BRANCH   4   5
ATOM      5  C   UNL     1      21.762  72.062  15.320  1.00  0.00     0.006 C 
BRANCH   5   6
ATOM      6  C   UNL     1      23.239  72.438  15.147  1.00  0.00     0.053 C 
BRANCH   6   7
ATOM      7  C   UNL     1      23.692  72.144  13.752  1.00  0.00     0.041 C 
ATOM      8  O   UNL     1      24.918  72.170  13.465  1.00  0.00    -0.550 OA
ATOM      9  O   UNL     1      22.757  71.890  12.756  1.00  0.00    -0.550 OA
ENDBRANCH   6   7
ENDBRANCH   5   6
ENDBRANCH   4   5
ENDBRANCH   3   4
ENDBRANCH   2   3
ENDBRANCH   1   2
BRANCH   1  10
ATOM     10  C   UNL     1      22.858  67.186  18.149  1.00  0.00     0.000 C 
BRANCH  10  11
ATOM     11  C   UNL     1      22.916  67.187  16.611  1.00  0.00    -0.000 C 
BRANCH  11  12
ATOM     12  C   UNL     1      21.829  66.303  15.974  1.00  0.00    -0.000 C 
BRANCH  12  13
ATOM     13  C   UNL     1      20.543  67.084  15.662  1.00  0.00    -0.000 C 
BRANCH  13  14
ATOM     14  C   UNL     1      19.382  66.704  16.599  1.00  0.00    -0.000 C 
BRANCH  14  15
ATOM     15  C   UNL     1      18.935  67.875  17.486  1.00  0.00    -0.003 C 
ATOM     16  C   UNL     1      18.693  67.456  18.937  1.00  0.00     0.004 C 
ENDBRANCH  14  15
ENDBRANCH  13  14
ENDBRANCH  12  13
ENDBRANCH  11  12
ENDBRANCH  10  11
ENDBRANCH   1  10
TORSDOF 12
ENDMDL
MODEL 7
REMARK VINA RESULT:    -2.915      1.650      2.980
REMARK INTER + INTRA:          -6.521
REMARK INTER:                  -4.717
REMARK INTRA:                  -1.804
REMARK UNBOUND:                -1.562
REMARK SMILES CCCCCCCCCCCCCC(=O)[O-]
REMARK SMILES IDX 8 1 9 2 10 3 11 4 12 5 13 6 14 7 15 8 16 9 7 10 6 11 5 12
REMARK SMILES IDX 4 13 3 14 2 15 1 16
REMARK H PARENT
REMARK Flexibility Score: inf
ROOT
ATOM      1  C   UNL     1      21.172  66.341  19.128  1.00  0.00     0.000 C 
ENDROOT
BRANCH   1   2
ATOM      2  C   UNL     1      21.307  67.877  19.127  1.00  0.00     0.000 C 
BRANCH   2   3
ATOM      3  C   UNL     1      22.643  68.411  18.575  1.00  0.00     0.000 C 
BRANCH   3   4
ATOM      4  C   UNL     1      22.601  69.861  18.051  1.00  0.00     0.000 C 
BRANCH   4   5
ATOM      5  C   UNL     1      21.306  70.251  17.317  1.00  0.00     0.006 C 
BRANCH   5   6
ATOM      6  C   UNL     1      21.525  70.511  15.822  1.00  0.00     0.053 C 
BRANCH   6   7
ATOM      7  C   UNL     1      21.862  71.950  15.587  1.00  0.00     0.041 C 
ATOM      8  O   UNL     1      23.062  72.329  15.591  1.00  0.00    -0.550 OA
ATOM      9  O   UNL     1      20.846  72.882  15.412  1.00  0.00    -0.550 OA
ENDBRANCH   6   7
ENDBRANCH   5   6
ENDBRANCH   4   5
ENDBRANCH   3   4
ENDBRANCH   2   3
ENDBRANCH   1   2
BRANCH   1  10
ATOM     10  C   UNL     1      19.992  65.790  18.303  1.00  0.00     0.000 C 
BRANCH  10  11
ATOM     11  C   UNL     1      19.507  66.710  17.168  1.00  0.00    -0.000 C 
BRANCH  11  12
ATOM     12  C   UNL     1      19.378  65.977  15.822  1.00  0.00    -0.000 C 
BRANCH  12  13
ATOM     13  C   UNL     1      20.333  66.534  14.754  1.00  0.00    -0.000 C 
BRANCH  13  14
ATOM     14  C   UNL     1      21.700  66.933  15.337  1.00  0.00    -0.000 C 
BRANCH  14  15
ATOM     15  C   UNL     1      22.695  65.763  15.359  1.00  0.00    -0.003 C 
ATOM     16  C   UNL     1      23.882  66.017  16.288  1.00  0.00     0.004 C 
ENDBRANCH  14  15
ENDBRANCH  13  14
ENDBRANCH  12  13
ENDBRANCH  11  12
ENDBRANCH  10  11
ENDBRANCH   1  10
TORSDOF 12
ENDMDL
MODEL 8
REMARK VINA RESULT:    -2.912      3.013      4.947
REMARK INTER + INTRA:          -6.516
REMARK INTER:                  -4.500
REMARK INTRA:                  -2.016
REMARK UNBOUND:                -1.562
REMARK SMILES CCCCCCCCCCCCCC(=O)[O-]
REMARK SMILES IDX 8 1 9 2 10 3 11 4 12 5 13 6 14 7 15 8 16 9 7 10 6 11 5 12
REMARK SMILES IDX 4 13 3 14 2 15 1 16
REMARK H PARENT
REMARK Flexibility Score: inf
ROOT
ATOM      1  C   UNL     1      21.176  66.423  19.127  1.00  0.00     0.000 C 
ENDROOT
BRANCH   1   2
ATOM      2  C   UNL     1      19.741  66.250  18.589  1.00  0.00     0.000 C 
BRANCH   2   3
ATOM      3  C   UNL     1      19.041  67.560  18.175  1.00  0.00     0.000 C 
BRANCH   3   4
ATOM      4  C   UNL     1      19.011  67.834  16.658  1.00  0.00     0.000 C 
BRANCH   4   5
ATOM      5  C   UNL     1      19.625  66.725  15.784  1.00  0.00     0.006 C 
BRANCH   5   6
ATOM      6  C   UNL     1      20.940  67.151  15.121  1.00  0.00     0.053 C 
BRANCH   6   7
ATOM      7  C   UNL     1      21.863  65.980  14.995  1.00  0.00     0.041 C 
ATOM      8  O   UNL     1      22.292  65.396  16.025  1.00  0.00    -0.550 OA
ATOM      9  O   UNL     1      22.291  65.564  13.739  1.00  0.00    -0.550 OA
ENDBRANCH   6   7
ENDBRANCH   5   6
ENDBRANCH   4   5
ENDBRANCH   3   4
ENDBRANCH   2   3
ENDBRANCH   1   2
BRANCH   1  10
ATOM     10  C   UNL     1      21.644  67.884  19.278  1.00  0.00     0.000 C 
BRANCH  10  11
ATOM     11  C   UNL     1      22.632  68.363  18.200  1.00  0.00    -0.000 C 
BRANCH  11  12
ATOM     12  C   UNL     1      22.672  69.896  18.067  1.00  0.00    -0.000 C 
BRANCH  12  13
ATOM     13  C   UNL     1      21.950  70.396  16.805  1.00  0.00    -0.000 C 
BRANCH  13  14
ATOM     14  C   UNL     1      20.584  71.029  17.121  1.00  0.00    -0.000 C 
BRANCH  14  15
ATOM     15  C   UNL     1      19.888  71.582  15.868  1.00  0.00    -0.003 C 
ATOM     16  C   UNL     1      20.250  70.805  14.602  1.00  0.00     0.004 C 
ENDBRANCH  14  15
ENDBRANCH  13  14
ENDBRANCH  12  13
ENDBRANCH  11  12
ENDBRANCH  10  11
ENDBRANCH   1  10
TORSDOF 12
ENDMDL
MODEL 9
REMARK VINA RESULT:    -2.889      1.441      3.357
REMARK INTER + INTRA:          -6.478
REMARK INTER:                  -4.391
REMARK INTRA:                  -2.087
REMARK UNBOUND:                -1.562
REMARK SMILES CCCCCCCCCCCCCC(=O)[O-]
REMARK SMILES IDX 8 1 9 2 10 3 11 4 12 5 13 6 14 7 15 8 16 9 7 10 6 11 5 12
REMARK SMILES IDX 4 13 3 14 2 15 1 16
REMARK H PARENT
REMARK Flexibility Score: inf
ROOT
ATOM      1  C   UNL     1      20.012  65.717  16.298  1.00  0.00     0.000 C 
ENDROOT
BRANCH   1   2
ATOM      2  C   UNL     1      19.710  67.010  15.514  1.00  0.00     0.000 C 
BRANCH   2   3
ATOM      3  C   UNL     1      18.996  68.109  16.325  1.00  0.00     0.000 C 
BRANCH   3   4
ATOM      4  C   UNL     1      19.687  69.487  16.309  1.00  0.00     0.000 C 
BRANCH   4   5
ATOM      5  C   UNL     1      21.145  69.478  15.816  1.00  0.00     0.006 C 
BRANCH   5   6
ATOM      6  C   UNL     1      22.000  70.570  16.470  1.00  0.00     0.053 C 
BRANCH   6   7
ATOM      7  C   UNL     1      22.381  71.609  15.463  1.00  0.00     0.041 C 
ATOM      8  O   UNL     1      21.815  71.638  14.338  1.00  0.00    -0.550 OA
ATOM      9  O   UNL     1      23.397  72.514  15.747  1.00  0.00    -0.550 OA
ENDBRANCH   6   7
ENDBRANCH   5   6
ENDBRANCH   4   5
ENDBRANCH   3   4
ENDBRANCH   2   3
ENDBRANCH   1   2
BRANCH   1  10
ATOM     10  C   UNL     1      19.504  65.704  17.754  1.00  0.00     0.000 C 
BRANCH  10  11
ATOM     11  C   UNL     1      20.601  65.825  18.826  1.00  0.00    -0.000 C 
BRANCH  11  12
ATOM     12  C   UNL     1      20.909  67.286  19.200  1.00  0.00    -0.000 C 
BRANCH  12  13
ATOM     13  C   UNL     1      22.328  67.712  18.790  1.00  0.00    -0.000 C 
BRANCH  13  14
ATOM     14  C   UNL     1      23.124  66.564  18.144  1.00  0.00    -0.000 C 
BRANCH  14  15
ATOM     15  C   UNL     1      23.568  66.890  16.710  1.00  0.00    -0.003 C 
ATOM     16  C   UNL     1      23.754  65.638  15.852  1.00  0.00     0.004 C 
ENDBRANCH  14  15
ENDBRANCH  13  14
ENDBRANCH  12  13
ENDBRANCH  11  12
ENDBRANCH  10  11
ENDBRANCH   1  10
TORSDOF 12
ENDMDL
