MODEL 1
REMARK VINA RESULT:    -5.386      0.000      0.000
REMARK INTER + INTRA:          -6.919
REMARK INTER:                  -6.646
REMARK INTRA:                  -0.273
REMARK UNBOUND:                -0.273
REMARK SMILES C=CC[C@H](C)C(=O)CC
REMARK SMILES IDX 4 1 5 2 6 3 7 4 8 5 9 6 3 7 2 8 1 9
REMARK H PARENT
REMARK Flexibility Score: inf
ROOT
ATOM      1  C   UNL     1      19.818  26.570   4.461  1.00  0.00     0.057 C 
ATOM      2  C   UNL     1      19.735  26.431   5.988  1.00  0.00     0.016 C 
ENDROOT
BRANCH   1   3
ATOM      3  C   UNL     1      18.437  26.419   3.857  1.00  0.00     0.135 C 
ATOM      4  O   UNL     1      18.006  27.282   3.105  1.00  0.00    -0.299 OA
BRANCH   3   5
ATOM      5  C   UNL     1      17.575  25.226   4.174  1.00  0.00     0.072 C 
ATOM      6  C   UNL     1      16.194  25.667   4.649  1.00  0.00     0.012 C 
ENDBRANCH   3   5
ENDBRANCH   1   3
BRANCH   1   7
ATOM      7  C   UNL     1      20.779  25.536   3.844  1.00  0.00     0.038 C 
BRANCH   7   8
ATOM      8  C   UNL     1      21.999  26.196   3.256  1.00  0.00    -0.034 C 
ATOM      9  C   UNL     1      21.927  27.360   2.602  1.00  0.00     0.004 C 
ENDBRANCH   7   8
ENDBRANCH   1   7
TORSDOF 4
ENDMDL
MODEL 2
REMARK VINA RESULT:    -5.358      1.015      4.204
REMARK INTER + INTRA:          -6.883
REMARK INTER:                  -6.734
REMARK INTRA:                  -0.149
REMARK UNBOUND:                -0.273
REMARK SMILES C=CC[C@H](C)C(=O)CC
REMARK SMILES IDX 4 1 5 2 6 3 7 4 8 5 9 6 3 7 2 8 1 9
REMARK H PARENT
REMARK Flexibility Score: inf
ROOT
ATOM      1  C   UNL     1      19.054  26.224   4.539  1.00  0.00     0.057 C 
ATOM      2  C   UNL     1      18.990  26.809   5.958  1.00  0.00     0.016 C 
ENDROOT
BRANCH   1   3
ATOM      3  C   UNL     1      20.120  26.943   3.737  1.00  0.00     0.135 C 
ATOM      4  O   UNL     1      19.914  28.081   3.338  1.00  0.00    -0.299 OA
BRANCH   3   5
ATOM      5  C   UNL     1      21.431  26.278   3.410  1.00  0.00     0.072 C 
ATOM      6  C   UNL     1      22.336  27.223   2.627  1.00  0.00     0.012 C 
ENDBRANCH   3   5
ENDBRANCH   1   3
BRANCH   1   7
ATOM      7  C   UNL     1      17.696  26.323   3.818  1.00  0.00     0.038 C 
BRANCH   7   8
ATOM      8  C   UNL     1      16.662  25.438   4.463  1.00  0.00    -0.034 C 
ATOM      9  C   UNL     1      15.490  25.917   4.893  1.00  0.00     0.004 C 
ENDBRANCH   7   8
ENDBRANCH   1   7
TORSDOF 4
ENDMDL
MODEL 3
REMARK VINA RESULT:    -5.286      1.307      4.348
REMARK INTER + INTRA:          -6.794
REMARK INTER:                  -6.626
REMARK INTRA:                  -0.168
REMARK UNBOUND:                -0.273
REMARK SMILES C=CC[C@H](C)C(=O)CC
REMARK SMILES IDX 4 1 5 2 6 3 7 4 8 5 9 6 3 7 2 8 1 9
REMARK H PARENT
REMARK Flexibility Score: inf
ROOT
ATOM      1  C   UNL     1      18.690  25.528   4.030  1.00  0.00     0.057 C 
ATOM      2  C   UNL     1      18.520  24.283   4.913  1.00  0.00     0.016 C 
ENDROOT
BRANCH   1   3
ATOM      3  C   UNL     1      19.993  26.221   4.367  1.00  0.00     0.135 C 
ATOM      4  O   UNL     1      20.001  27.133   5.183  1.00  0.00    -0.299 OA
BRANCH   3   5
ATOM      5  C   UNL     1      21.285  25.816   3.708  1.00  0.00     0.072 C 
ATOM      6  C   UNL     1      21.862  26.970   2.895  1.00  0.00     0.012 C 
ENDBRANCH   3   5
ENDBRANCH   1   3
BRANCH   1   7
ATOM      7  C   UNL     1      17.513  26.508   4.193  1.00  0.00     0.038 C 
BRANCH   7   8
ATOM      8  C   UNL     1      16.529  26.025   5.225  1.00  0.00    -0.034 C 
ATOM      9  C   UNL     1      15.234  25.851   4.941  1.00  0.00     0.004 C 
ENDBRANCH   7   8
ENDBRANCH   1   7
TORSDOF 4
ENDMDL
MODEL 4
REMARK VINA RESULT:    -5.272      1.691      2.252
REMARK INTER + INTRA:          -6.777
REMARK INTER:                  -6.514
REMARK INTRA:                  -0.263
REMARK UNBOUND:                -0.273
REMARK SMILES C=CC[C@H](C)C(=O)CC
REMARK SMILES IDX 4 1 5 2 6 3 7 4 8 5 9 6 3 7 2 8 1 9
REMARK H PARENT
REMARK Flexibility Score: inf
ROOT
ATOM      1  C   UNL     1      19.201  25.826   4.104  1.00  0.00     0.057 C 
ATOM      2  C   UNL     1      18.310  26.872   3.418  1.00  0.00     0.016 C 
ENDROOT
BRANCH   1   3
ATOM      3  C   UNL     1      18.514  25.305   5.349  1.00  0.00     0.135 C 
ATOM      4  O   UNL     1      17.741  24.360   5.264  1.00  0.00    -0.299 OA
BRANCH   3   5
ATOM      5  C   UNL     1      18.755  25.935   6.695  1.00  0.00     0.072 C 
ATOM      6  C   UNL     1      17.613  26.876   7.063  1.00  0.00     0.012 C 
ENDBRANCH   3   5
ENDBRANCH   1   3
BRANCH   1   7
ATOM      7  C   UNL     1      20.583  26.402   4.467  1.00  0.00     0.038 C 
BRANCH   7   8
ATOM      8  C   UNL     1      21.585  26.173   3.366  1.00  0.00    -0.034 C 
ATOM      9  C   UNL     1      22.156  27.187   2.709  1.00  0.00     0.004 C 
ENDBRANCH   7   8
ENDBRANCH   1   7
TORSDOF 4
ENDMDL
MODEL 5
REMARK VINA RESULT:    -5.108      1.628      1.962
REMARK INTER + INTRA:          -6.576
REMARK INTER:                  -6.390
REMARK INTRA:                  -0.186
REMARK UNBOUND:                -0.273
REMARK SMILES C=CC[C@H](C)C(=O)CC
REMARK SMILES IDX 4 1 5 2 6 3 7 4 8 5 9 6 3 7 2 8 1 9
REMARK H PARENT
REMARK Flexibility Score: inf
ROOT
ATOM      1  C   UNL     1      19.045  25.821   4.142  1.00  0.00     0.057 C 
ATOM      2  C   UNL     1      18.262  26.905   3.388  1.00  0.00     0.016 C 
ENDROOT
BRANCH   1   3
ATOM      3  C   UNL     1      18.364  25.521   5.461  1.00  0.00     0.135 C 
ATOM      4  O   UNL     1      18.817  25.989   6.497  1.00  0.00    -0.299 OA
BRANCH   3   5
ATOM      5  C   UNL     1      17.140  24.646   5.526  1.00  0.00     0.072 C 
ATOM      6  C   UNL     1      15.888  25.485   5.762  1.00  0.00     0.012 C 
ENDBRANCH   3   5
ENDBRANCH   1   3
BRANCH   1   7
ATOM      7  C   UNL     1      20.508  26.240   4.387  1.00  0.00     0.038 C 
BRANCH   7   8
ATOM      8  C   UNL     1      20.946  27.309   3.422  1.00  0.00    -0.034 C 
ATOM      9  C   UNL     1      22.082  27.209   2.724  1.00  0.00     0.004 C 
ENDBRANCH   7   8
ENDBRANCH   1   7
TORSDOF 4
ENDMDL
MODEL 6
REMARK VINA RESULT:    -5.070      1.890      4.483
REMARK INTER + INTRA:          -6.528
REMARK INTER:                  -6.373
REMARK INTRA:                  -0.155
REMARK UNBOUND:                -0.273
REMARK SMILES C=CC[C@H](C)C(=O)CC
REMARK SMILES IDX 4 1 5 2 6 3 7 4 8 5 9 6 3 7 2 8 1 9
REMARK H PARENT
REMARK Flexibility Score: inf
ROOT
ATOM      1  C   UNL     1      18.849  26.883   4.776  1.00  0.00     0.057 C 
ATOM      2  C   UNL     1      17.800  26.254   3.846  1.00  0.00     0.016 C 
ENDROOT
BRANCH   1   3
ATOM      3  C   UNL     1      20.230  26.714   4.178  1.00  0.00     0.135 C 
ATOM      4  O   UNL     1      20.902  25.734   4.471  1.00  0.00    -0.299 OA
BRANCH   3   5
ATOM      5  C   UNL     1      20.801  27.737   3.232  1.00  0.00     0.072 C 
ATOM      6  C   UNL     1      22.144  27.273   2.679  1.00  0.00     0.012 C 
ENDBRANCH   3   5
ENDBRANCH   1   3
BRANCH   1   7
ATOM      7  C   UNL     1      18.805  26.264   6.186  1.00  0.00     0.038 C 
BRANCH   7   8
ATOM      8  C   UNL     1      17.757  26.919   7.046  1.00  0.00    -0.034 C 
ATOM      9  C   UNL     1      16.787  26.215   7.638  1.00  0.00     0.004 C 
ENDBRANCH   7   8
ENDBRANCH   1   7
TORSDOF 4
ENDMDL
MODEL 7
REMARK VINA RESULT:    -4.726      2.523      3.953
REMARK INTER + INTRA:          -6.104
REMARK INTER:                  -5.778
REMARK INTRA:                  -0.326
REMARK UNBOUND:                -0.273
REMARK SMILES C=CC[C@H](C)C(=O)CC
REMARK SMILES IDX 4 1 5 2 6 3 7 4 8 5 9 6 3 7 2 8 1 9
REMARK H PARENT
REMARK Flexibility Score: inf
ROOT
ATOM      1  C   UNL     1      16.694  25.006   5.723  1.00  0.00     0.057 C 
ATOM      2  C   UNL     1      15.345  25.537   5.214  1.00  0.00     0.016 C 
ENDROOT
BRANCH   1   3
ATOM      3  C   UNL     1      17.230  25.922   6.803  1.00  0.00     0.135 C 
ATOM      4  O   UNL     1      16.517  26.805   7.258  1.00  0.00    -0.299 OA
BRANCH   3   5
ATOM      5  C   UNL     1      18.636  25.774   7.323  1.00  0.00     0.072 C 
ATOM      6  C   UNL     1      18.646  25.734   8.848  1.00  0.00     0.012 C 
ENDBRANCH   3   5
ENDBRANCH   1   3
BRANCH   1   7
ATOM      7  C   UNL     1      17.722  24.874   4.584  1.00  0.00     0.038 C 
BRANCH   7   8
ATOM      8  C   UNL     1      17.664  26.051   3.646  1.00  0.00    -0.034 C 
ATOM      9  C   UNL     1      18.660  26.938   3.563  1.00  0.00     0.004 C 
ENDBRANCH   7   8
ENDBRANCH   1   7
TORSDOF 4
ENDMDL
MODEL 8
REMARK VINA RESULT:    -4.649      2.538      4.370
REMARK INTER + INTRA:          -6.008
REMARK INTER:                  -5.630
REMARK INTRA:                  -0.379
REMARK UNBOUND:                -0.273
REMARK SMILES C=CC[C@H](C)C(=O)CC
REMARK SMILES IDX 4 1 5 2 6 3 7 4 8 5 9 6 3 7 2 8 1 9
REMARK H PARENT
REMARK Flexibility Score: inf
ROOT
ATOM      1  C   UNL     1      18.368  25.733   4.589  1.00  0.00     0.057 C 
ATOM      2  C   UNL     1      18.271  24.216   4.809  1.00  0.00     0.016 C 
ENDROOT
BRANCH   1   3
ATOM      3  C   UNL     1      19.093  26.374   5.753  1.00  0.00     0.135 C 
ATOM      4  O   UNL     1      20.314  26.449   5.740  1.00  0.00    -0.299 OA
BRANCH   3   5
ATOM      5  C   UNL     1      18.338  26.916   6.939  1.00  0.00     0.072 C 
ATOM      6  C   UNL     1      18.394  25.938   8.108  1.00  0.00     0.012 C 
ENDBRANCH   3   5
ENDBRANCH   1   3
BRANCH   1   7
ATOM      7  C   UNL     1      16.978  26.375   4.414  1.00  0.00     0.038 C 
BRANCH   7   8
ATOM      8  C   UNL     1      15.874  25.393   4.709  1.00  0.00    -0.034 C 
ATOM      9  C   UNL     1      15.155  25.455   5.834  1.00  0.00     0.004 C 
ENDBRANCH   7   8
ENDBRANCH   1   7
TORSDOF 4
ENDMDL
MODEL 9
REMARK VINA RESULT:    -4.511      2.197      4.485
REMARK INTER + INTRA:          -5.839
REMARK INTER:                  -5.370
REMARK INTRA:                  -0.468
REMARK UNBOUND:                -0.273
REMARK SMILES C=CC[C@H](C)C(=O)CC
REMARK SMILES IDX 4 1 5 2 6 3 7 4 8 5 9 6 3 7 2 8 1 9
REMARK H PARENT
REMARK Flexibility Score: inf
ROOT
ATOM      1  C   UNL     1      17.168  25.875   5.523  1.00  0.00     0.057 C 
ATOM      2  C   UNL     1      15.968  25.779   4.570  1.00  0.00     0.016 C 
ENDROOT
BRANCH   1   3
ATOM      3  C   UNL     1      18.313  25.037   4.992  1.00  0.00     0.135 C 
ATOM      4  O   UNL     1      18.206  23.819   4.955  1.00  0.00    -0.299 OA
BRANCH   3   5
ATOM      5  C   UNL     1      19.590  25.676   4.514  1.00  0.00     0.072 C 
ATOM      6  C   UNL     1      19.751  27.071   5.109  1.00  0.00     0.012 C 
ENDBRANCH   3   5
ENDBRANCH   1   3
BRANCH   1   7
ATOM      7  C   UNL     1      16.801  25.422   6.950  1.00  0.00     0.038 C 
BRANCH   7   8
ATOM      8  C   UNL     1      17.524  26.236   7.991  1.00  0.00    -0.034 C 
ATOM      9  C   UNL     1      18.600  25.768   8.632  1.00  0.00     0.004 C 
ENDBRANCH   7   8
ENDBRANCH   1   7
TORSDOF 4
ENDMDL
