MODEL 1
REMARK VINA RESULT:    -4.719      0.000      0.000
REMARK INTER + INTRA:         -11.493
REMARK INTER:                  -9.134
REMARK INTRA:                  -2.359
REMARK UNBOUND:                -2.359
REMARK SMILES CCCCCC=CCC=CCCCCCCCCOC(C)=O
REMARK SMILES IDX 12 1 11 2 10 3 9 4 8 5 7 6 6 7 5 8 4 9 3 10 2 11 1 12 13 13
REMARK SMILES IDX 14 14 15 15 16 16 17 17 18 18 19 19 20 20 22 21 21 22
REMARK H PARENT
REMARK Flexibility Score: inf
ROOT
ATOM      1  C   UNL     1      10.981 -29.249  30.091  1.00  0.00     0.004 C 
ENDROOT
BRANCH   1   2
ATOM      2  C   UNL     1      10.186 -29.571  31.365  1.00  0.00     0.027 C 
BRANCH   2   3
ATOM      3  C   UNL     1       9.086 -28.575  31.622  1.00  0.00    -0.031 C 
ATOM      4  C   UNL     1       9.341 -27.266  31.760  1.00  0.00    -0.027 C 
BRANCH   4   5
ATOM      5  C   UNL     1       8.239 -26.276  32.018  1.00  0.00     0.054 C 
BRANCH   5   6
ATOM      6  C   UNL     1       8.257 -25.165  31.003  1.00  0.00    -0.027 C 
ATOM      7  C   UNL     1       9.385 -24.856  30.349  1.00  0.00    -0.031 C 
BRANCH   7   8
ATOM      8  C   UNL     1       9.428 -23.751  29.326  1.00  0.00     0.027 C 
BRANCH   8   9
ATOM      9  C   UNL     1       9.748 -22.386  29.953  1.00  0.00     0.004 C 
BRANCH   9  10
ATOM     10  C   UNL     1      10.877 -22.477  30.994  1.00  0.00     0.000 C 
BRANCH  10  11
ATOM     11  C   UNL     1      10.433 -22.006  32.387  1.00  0.00    -0.003 C 
ATOM     12  C   UNL     1      10.742 -23.026  33.482  1.00  0.00     0.004 C 
ENDBRANCH  10  11
ENDBRANCH   9  10
ENDBRANCH   8   9
ENDBRANCH   7   8
ENDBRANCH   5   6
ENDBRANCH   4   5
ENDBRANCH   2   3
ENDBRANCH   1   2
BRANCH   1  13
ATOM     13  C   UNL     1      10.099 -29.302  28.831  1.00  0.00     0.000 C 
BRANCH  13  14
ATOM     14  C   UNL     1      10.107 -27.980  28.045  1.00  0.00     0.000 C 
BRANCH  14  15
ATOM     15  C   UNL     1       8.701 -27.369  27.903  1.00  0.00     0.000 C 
BRANCH  15  16
ATOM     16  C   UNL     1       8.491 -26.682  26.543  1.00  0.00     0.003 C 
BRANCH  16  17
ATOM     17  C   UNL     1       9.788 -26.089  25.972  1.00  0.00     0.042 C 
BRANCH  17  18
ATOM     18  C   UNL     1       9.696 -25.931  24.452  1.00  0.00     0.233 C 
BRANCH  18  19
ATOM     19  O   UNL     1       8.504 -25.236  24.092  1.00  0.00    -0.466 OA
BRANCH  19  20
ATOM     20  C   UNL     1       8.497 -23.940  23.562  1.00  0.00     0.302 C 
ATOM     21  O   UNL     1       8.468 -23.751  22.316  1.00  0.00    -0.253 OA
ATOM     22  C   UNL     1       8.562 -22.770  24.484  1.00  0.00     0.139 C 
ENDBRANCH  19  20
ENDBRANCH  18  19
ENDBRANCH  17  18
ENDBRANCH  16  17
ENDBRANCH  15  16
ENDBRANCH  14  15
ENDBRANCH  13  14
ENDBRANCH   1  13
TORSDOF 16
ENDMDL
MODEL 2
REMARK VINA RESULT:    -4.630      2.803      6.045
REMARK INTER + INTRA:         -11.319
REMARK INTER:                  -9.445
REMARK INTRA:                  -1.874
REMARK UNBOUND:                -2.359
REMARK SMILES CCCCCC=CCC=CCCCCCCCCOC(C)=O
REMARK SMILES IDX 12 1 11 2 10 3 9 4 8 5 7 6 6 7 5 8 4 9 3 10 2 11 1 12 13 13
REMARK SMILES IDX 14 14 15 15 16 16 17 17 18 18 19 19 20 20 22 21 21 22
REMARK H PARENT
REMARK Flexibility Score: inf
ROOT
ATOM      1  C   UNL     1      10.546 -29.251  29.190  1.00  0.00     0.004 C 
ENDROOT
BRANCH   1   2
ATOM      2  C   UNL     1       9.177 -29.692  28.650  1.00  0.00     0.027 C 
BRANCH   2   3
ATOM      3  C   UNL     1       8.579 -28.682  27.708  1.00  0.00    -0.031 C 
ATOM      4  C   UNL     1       9.301 -27.665  27.216  1.00  0.00    -0.027 C 
BRANCH   4   5
ATOM      5  C   UNL     1       8.698 -26.657  26.277  1.00  0.00     0.054 C 
BRANCH   5   6
ATOM      6  C   UNL     1       9.543 -26.489  25.043  1.00  0.00    -0.027 C 
ATOM      7  C   UNL     1      10.715 -25.842  25.102  1.00  0.00    -0.031 C 
BRANCH   7   8
ATOM      8  C   UNL     1      11.582 -25.664  23.883  1.00  0.00     0.027 C 
BRANCH   8   9
ATOM      9  C   UNL     1      11.800 -24.185  23.533  1.00  0.00     0.004 C 
BRANCH   9  10
ATOM     10  C   UNL     1      10.578 -23.569  22.831  1.00  0.00     0.000 C 
BRANCH  10  11
ATOM     11  C   UNL     1       9.998 -22.373  23.599  1.00  0.00    -0.003 C 
ATOM     12  C   UNL     1       8.714 -22.720  24.353  1.00  0.00     0.004 C 
ENDBRANCH  10  11
ENDBRANCH   9  10
ENDBRANCH   8   9
ENDBRANCH   7   8
ENDBRANCH   5   6
ENDBRANCH   4   5
ENDBRANCH   2   3
ENDBRANCH   1   2
BRANCH   1  13
ATOM     13  C   UNL     1      10.576 -29.214  30.728  1.00  0.00     0.000 C 
BRANCH  13  14
ATOM     14  C   UNL     1       9.171 -29.266  31.351  1.00  0.00     0.000 C 
BRANCH  14  15
ATOM     15  C   UNL     1       8.703 -27.894  31.867  1.00  0.00     0.000 C 
BRANCH  15  16
ATOM     16  C   UNL     1       9.666 -26.758  31.485  1.00  0.00     0.003 C 
BRANCH  16  17
ATOM     17  C   UNL     1       9.169 -25.937  30.287  1.00  0.00     0.042 C 
BRANCH  17  18
ATOM     18  C   UNL     1       8.134 -24.897  30.726  1.00  0.00     0.233 C 
BRANCH  18  19
ATOM     19  O   UNL     1       8.779 -23.740  31.255  1.00  0.00    -0.466 OA
BRANCH  19  20
ATOM     20  C   UNL     1       8.698 -22.474  30.663  1.00  0.00     0.302 C 
ATOM     21  O   UNL     1       7.998 -21.562  31.181  1.00  0.00    -0.253 OA
ATOM     22  C   UNL     1       9.418 -22.214  29.384  1.00  0.00     0.139 C 
ENDBRANCH  19  20
ENDBRANCH  18  19
ENDBRANCH  17  18
ENDBRANCH  16  17
ENDBRANCH  15  16
ENDBRANCH  14  15
ENDBRANCH  13  14
ENDBRANCH   1  13
TORSDOF 16
ENDMDL
MODEL 3
REMARK VINA RESULT:    -4.503      4.728      8.137
REMARK INTER + INTRA:         -11.074
REMARK INTER:                  -9.351
REMARK INTRA:                  -1.723
REMARK UNBOUND:                -2.359
REMARK SMILES CCCCCC=CCC=CCCCCCCCCOC(C)=O
REMARK SMILES IDX 12 1 11 2 10 3 9 4 8 5 7 6 6 7 5 8 4 9 3 10 2 11 1 12 13 13
REMARK SMILES IDX 14 14 15 15 16 16 17 17 18 18 19 19 20 20 22 21 21 22
REMARK H PARENT
REMARK Flexibility Score: inf
ROOT
ATOM      1  C   UNL     1      10.727 -22.592  35.202  1.00  0.00     0.004 C 
ENDROOT
BRANCH   1   2
ATOM      2  C   UNL     1      10.725 -21.610  34.020  1.00  0.00     0.027 C 
BRANCH   2   3
ATOM      3  C   UNL     1       9.972 -22.144  32.832  1.00  0.00    -0.031 C 
ATOM      4  C   UNL     1      10.597 -22.463  31.688  1.00  0.00    -0.027 C 
BRANCH   4   5
ATOM      5  C   UNL     1       9.841 -22.996  30.503  1.00  0.00     0.054 C 
BRANCH   5   6
ATOM      6  C   UNL     1       9.138 -24.283  30.839  1.00  0.00    -0.027 C 
ATOM      7  C   UNL     1       9.837 -25.368  31.201  1.00  0.00    -0.031 C 
BRANCH   7   8
ATOM      8  C   UNL     1       9.157 -26.667  31.546  1.00  0.00     0.027 C 
BRANCH   8   9
ATOM      9  C   UNL     1       9.461 -27.774  30.527  1.00  0.00     0.004 C 
BRANCH   9  10
ATOM     10  C   UNL     1      10.281 -28.920  31.144  1.00  0.00     0.000 C 
BRANCH  10  11
ATOM     11  C   UNL     1       9.509 -29.674  32.237  1.00  0.00    -0.003 C 
ATOM     12  C   UNL     1       8.093 -30.055  31.806  1.00  0.00     0.004 C 
ENDBRANCH  10  11
ENDBRANCH   9  10
ENDBRANCH   8   9
ENDBRANCH   7   8
ENDBRANCH   5   6
ENDBRANCH   4   5
ENDBRANCH   2   3
ENDBRANCH   1   2
BRANCH   1  13
ATOM     13  C   UNL     1      10.322 -24.013  34.773  1.00  0.00     0.000 C 
BRANCH  13  14
ATOM     14  C   UNL     1      11.532 -24.938  34.565  1.00  0.00     0.000 C 
BRANCH  14  15
ATOM     15  C   UNL     1      12.863 -24.266  34.947  1.00  0.00     0.000 C 
BRANCH  15  16
ATOM     16  C   UNL     1      13.770 -24.017  33.731  1.00  0.00     0.003 C 
BRANCH  16  17
ATOM     17  C   UNL     1      15.197 -23.611  34.129  1.00  0.00     0.042 C 
BRANCH  17  18
ATOM     18  C   UNL     1      16.234 -24.486  33.419  1.00  0.00     0.233 C 
BRANCH  18  19
ATOM     19  O   UNL     1      16.449 -24.026  32.086  1.00  0.00    -0.466 OA
BRANCH  19  20
ATOM     20  C   UNL     1      16.902 -24.850  31.050  1.00  0.00     0.302 C 
ATOM     21  O   UNL     1      17.978 -25.498  31.163  1.00  0.00    -0.253 OA
ATOM     22  C   UNL     1      16.121 -24.934  29.783  1.00  0.00     0.139 C 
ENDBRANCH  19  20
ENDBRANCH  18  19
ENDBRANCH  17  18
ENDBRANCH  16  17
ENDBRANCH  15  16
ENDBRANCH  14  15
ENDBRANCH  13  14
ENDBRANCH   1  13
TORSDOF 16
ENDMDL
MODEL 4
REMARK VINA RESULT:    -4.463      2.561      6.483
REMARK INTER + INTRA:         -10.996
REMARK INTER:                  -9.096
REMARK INTRA:                  -1.900
REMARK UNBOUND:                -2.359
REMARK SMILES CCCCCC=CCC=CCCCCCCCCOC(C)=O
REMARK SMILES IDX 12 1 11 2 10 3 9 4 8 5 7 6 6 7 5 8 4 9 3 10 2 11 1 12 13 13
REMARK SMILES IDX 14 14 15 15 16 16 17 17 18 18 19 19 20 20 22 21 21 22
REMARK H PARENT
REMARK Flexibility Score: inf
ROOT
ATOM      1  C   UNL     1      10.462 -29.228  29.680  1.00  0.00     0.004 C 
ENDROOT
BRANCH   1   2
ATOM      2  C   UNL     1       9.105 -29.307  28.965  1.00  0.00     0.027 C 
BRANCH   2   3
ATOM      3  C   UNL     1       8.792 -28.054  28.191  1.00  0.00    -0.031 C 
ATOM      4  C   UNL     1       9.755 -27.196  27.822  1.00  0.00    -0.027 C 
BRANCH   4   5
ATOM      5  C   UNL     1       9.437 -25.945  27.051  1.00  0.00     0.054 C 
BRANCH   5   6
ATOM      6  C   UNL     1       9.467 -26.197  25.568  1.00  0.00    -0.027 C 
ATOM      7  C   UNL     1      10.367 -25.582  24.789  1.00  0.00    -0.031 C 
BRANCH   7   8
ATOM      8  C   UNL     1      10.421 -25.820  23.303  1.00  0.00     0.027 C 
BRANCH   8   9
ATOM      9  C   UNL     1      10.090 -24.556  22.496  1.00  0.00     0.004 C 
BRANCH   9  10
ATOM     10  C   UNL     1       8.632 -24.108  22.693  1.00  0.00     0.000 C 
BRANCH  10  11
ATOM     11  C   UNL     1       8.516 -22.618  23.047  1.00  0.00    -0.003 C 
ATOM     12  C   UNL     1       9.844 -22.012  23.498  1.00  0.00     0.004 C 
ENDBRANCH  10  11
ENDBRANCH   9  10
ENDBRANCH   8   9
ENDBRANCH   7   8
ENDBRANCH   5   6
ENDBRANCH   4   5
ENDBRANCH   2   3
ENDBRANCH   1   2
BRANCH   1  13
ATOM     13  C   UNL     1      10.338 -29.515  31.187  1.00  0.00     0.000 C 
BRANCH  13  14
ATOM     14  C   UNL     1       9.240 -28.677  31.862  1.00  0.00     0.000 C 
BRANCH  14  15
ATOM     15  C   UNL     1       9.671 -27.219  32.100  1.00  0.00     0.000 C 
BRANCH  15  16
ATOM     16  C   UNL     1       8.752 -26.209  31.394  1.00  0.00     0.003 C 
BRANCH  16  17
ATOM     17  C   UNL     1       9.529 -25.062  30.733  1.00  0.00     0.042 C 
BRANCH  17  18
ATOM     18  C   UNL     1       8.723 -23.760  30.768  1.00  0.00     0.233 C 
BRANCH  18  19
ATOM     19  O   UNL     1       9.591 -22.631  30.693  1.00  0.00    -0.466 OA
BRANCH  19  20
ATOM     20  C   UNL     1      10.582 -22.357  31.642  1.00  0.00     0.302 C 
ATOM     21  O   UNL     1      11.795 -22.602  31.399  1.00  0.00    -0.253 OA
ATOM     22  C   UNL     1      10.194 -21.804  32.971  1.00  0.00     0.139 C 
ENDBRANCH  19  20
ENDBRANCH  18  19
ENDBRANCH  17  18
ENDBRANCH  16  17
ENDBRANCH  15  16
ENDBRANCH  14  15
ENDBRANCH  13  14
ENDBRANCH   1  13
TORSDOF 16
ENDMDL
MODEL 5
REMARK VINA RESULT:    -4.460      1.625      3.284
REMARK INTER + INTRA:         -10.990
REMARK INTER:                  -8.557
REMARK INTRA:                  -2.433
REMARK UNBOUND:                -2.359
REMARK SMILES CCCCCC=CCC=CCCCCCCCCOC(C)=O
REMARK SMILES IDX 12 1 11 2 10 3 9 4 8 5 7 6 6 7 5 8 4 9 3 10 2 11 1 12 13 13
REMARK SMILES IDX 14 14 15 15 16 16 17 17 18 18 19 19 20 20 22 21 21 22
REMARK H PARENT
REMARK Flexibility Score: inf
ROOT
ATOM      1  C   UNL     1       9.828 -27.795  32.157  1.00  0.00     0.004 C 
ENDROOT
BRANCH   1   2
ATOM      2  C   UNL     1       8.460 -27.159  31.866  1.00  0.00     0.027 C 
BRANCH   2   3
ATOM      3  C   UNL     1       8.580 -25.747  31.358  1.00  0.00    -0.031 C 
ATOM      4  C   UNL     1       9.774 -25.183  31.124  1.00  0.00    -0.027 C 
BRANCH   4   5
ATOM      5  C   UNL     1       9.889 -23.772  30.618  1.00  0.00     0.054 C 
BRANCH   5   6
ATOM      6  C   UNL     1       9.379 -22.786  31.634  1.00  0.00    -0.027 C 
ATOM      7  C   UNL     1      10.233 -22.050  32.359  1.00  0.00    -0.031 C 
BRANCH   7   8
ATOM      8  C   UNL     1       9.749 -21.054  33.379  1.00  0.00     0.027 C 
BRANCH   8   9
ATOM      9  C   UNL     1       9.750 -21.628  34.803  1.00  0.00     0.004 C 
BRANCH   9  10
ATOM     10  C   UNL     1      10.917 -22.603  35.034  1.00  0.00     0.000 C 
BRANCH  10  11
ATOM     11  C   UNL     1      10.442 -24.049  35.244  1.00  0.00    -0.003 C 
ATOM     12  C   UNL     1      11.279 -25.065  34.466  1.00  0.00     0.004 C 
ENDBRANCH  10  11
ENDBRANCH   9  10
ENDBRANCH   8   9
ENDBRANCH   7   8
ENDBRANCH   5   6
ENDBRANCH   4   5
ENDBRANCH   2   3
ENDBRANCH   1   2
BRANCH   1  13
ATOM     13  C   UNL     1       9.888 -29.267  31.712  1.00  0.00     0.000 C 
BRANCH  13  14
ATOM     14  C   UNL     1       9.629 -29.442  30.206  1.00  0.00     0.000 C 
BRANCH  14  15
ATOM     15  C   UNL     1      10.761 -28.861  29.340  1.00  0.00     0.000 C 
BRANCH  15  16
ATOM     16  C   UNL     1      10.284 -27.706  28.444  1.00  0.00     0.003 C 
BRANCH  16  17
ATOM     17  C   UNL     1       8.775 -27.754  28.168  1.00  0.00     0.042 C 
BRANCH  17  18
ATOM     18  C   UNL     1       8.495 -28.110  26.705  1.00  0.00     0.233 C 
BRANCH  18  19
ATOM     19  O   UNL     1       8.055 -26.960  25.985  1.00  0.00    -0.466 OA
BRANCH  19  20
ATOM     20  C   UNL     1       8.820 -26.328  24.998  1.00  0.00     0.302 C 
ATOM     21  O   UNL     1       9.936 -25.812  25.278  1.00  0.00    -0.253 OA
ATOM     22  C   UNL     1       8.292 -26.232  23.608  1.00  0.00     0.139 C 
ENDBRANCH  19  20
ENDBRANCH  18  19
ENDBRANCH  17  18
ENDBRANCH  16  17
ENDBRANCH  15  16
ENDBRANCH  14  15
ENDBRANCH  13  14
ENDBRANCH   1  13
TORSDOF 16
ENDMDL
MODEL 6
REMARK VINA RESULT:    -4.437      3.002      7.323
REMARK INTER + INTRA:         -10.946
REMARK INTER:                  -8.997
REMARK INTRA:                  -1.948
REMARK UNBOUND:                -2.359
REMARK SMILES CCCCCC=CCC=CCCCCCCCCOC(C)=O
REMARK SMILES IDX 12 1 11 2 10 3 9 4 8 5 7 6 6 7 5 8 4 9 3 10 2 11 1 12 13 13
REMARK SMILES IDX 14 14 15 15 16 16 17 17 18 18 19 19 20 20 22 21 21 22
REMARK H PARENT
REMARK Flexibility Score: inf
ROOT
ATOM      1  C   UNL     1       9.710 -28.196  26.215  1.00  0.00     0.004 C 
ENDROOT
BRANCH   1   2
ATOM      2  C   UNL     1       9.462 -26.696  25.999  1.00  0.00     0.027 C 
BRANCH   2   3
ATOM      3  C   UNL     1      10.663 -25.993  25.425  1.00  0.00    -0.031 C 
ATOM      4  C   UNL     1      11.598 -26.654  24.727  1.00  0.00    -0.027 C 
BRANCH   4   5
ATOM      5  C   UNL     1      12.796 -25.948  24.156  1.00  0.00     0.054 C 
BRANCH   5   6
ATOM      6  C   UNL     1      12.424 -24.595  23.614  1.00  0.00    -0.027 C 
ATOM      7  C   UNL     1      12.001 -24.460  22.349  1.00  0.00    -0.031 C 
BRANCH   7   8
ATOM      8  C   UNL     1      11.619 -23.118  21.783  1.00  0.00     0.027 C 
BRANCH   8   9
ATOM      9  C   UNL     1      10.143 -22.776  22.035  1.00  0.00     0.004 C 
BRANCH   9  10
ATOM     10  C   UNL     1       9.921 -22.160  23.427  1.00  0.00     0.000 C 
BRANCH  10  11
ATOM     11  C   UNL     1       8.752 -22.813  24.180  1.00  0.00    -0.003 C 
ATOM     12  C   UNL     1       8.246 -24.084  23.499  1.00  0.00     0.004 C 
ENDBRANCH  10  11
ENDBRANCH   9  10
ENDBRANCH   8   9
ENDBRANCH   7   8
ENDBRANCH   5   6
ENDBRANCH   4   5
ENDBRANCH   2   3
ENDBRANCH   1   2
BRANCH   1  13
ATOM     13  C   UNL     1       8.626 -28.840  27.099  1.00  0.00     0.000 C 
BRANCH  13  14
ATOM     14  C   UNL     1       8.903 -28.662  28.601  1.00  0.00     0.000 C 
BRANCH  14  15
ATOM     15  C   UNL     1      10.407 -28.576  28.919  1.00  0.00     0.000 C 
BRANCH  15  16
ATOM     16  C   UNL     1      10.770 -29.267  30.243  1.00  0.00     0.003 C 
BRANCH  16  17
ATOM     17  C   UNL     1       9.535 -29.641  31.075  1.00  0.00     0.042 C 
BRANCH  17  18
ATOM     18  C   UNL     1       9.381 -28.708  32.280  1.00  0.00     0.233 C 
BRANCH  18  19
ATOM     19  O   UNL     1       8.485 -27.640  31.975  1.00  0.00    -0.466 OA
BRANCH  19  20
ATOM     20  C   UNL     1       8.907 -26.341  31.674  1.00  0.00     0.302 C 
ATOM     21  O   UNL     1       8.546 -25.775  30.606  1.00  0.00    -0.253 OA
ATOM     22  C   UNL     1       9.827 -25.632  32.608  1.00  0.00     0.139 C 
ENDBRANCH  19  20
ENDBRANCH  18  19
ENDBRANCH  17  18
ENDBRANCH  16  17
ENDBRANCH  15  16
ENDBRANCH  14  15
ENDBRANCH  13  14
ENDBRANCH   1  13
TORSDOF 16
ENDMDL
MODEL 7
REMARK VINA RESULT:    -4.408      1.996      4.196
REMARK INTER + INTRA:         -10.891
REMARK INTER:                  -9.160
REMARK INTRA:                  -1.731
REMARK UNBOUND:                -2.359
REMARK SMILES CCCCCC=CCC=CCCCCCCCCOC(C)=O
REMARK SMILES IDX 12 1 11 2 10 3 9 4 8 5 7 6 6 7 5 8 4 9 3 10 2 11 1 12 13 13
REMARK SMILES IDX 14 14 15 15 16 16 17 17 18 18 19 19 20 20 22 21 21 22
REMARK H PARENT
REMARK Flexibility Score: inf
ROOT
ATOM      1  C   UNL     1       9.572 -27.042  31.818  1.00  0.00     0.004 C 
ENDROOT
BRANCH   1   2
ATOM      2  C   UNL     1       8.546 -26.184  31.063  1.00  0.00     0.027 C 
BRANCH   2   3
ATOM      3  C   UNL     1       9.007 -24.762  30.887  1.00  0.00    -0.031 C 
ATOM      4  C   UNL     1      10.249 -24.379  31.217  1.00  0.00    -0.027 C 
BRANCH   4   5
ATOM      5  C   UNL     1      10.704 -22.957  31.040  1.00  0.00     0.054 C 
BRANCH   5   6
ATOM      6  C   UNL     1      10.314 -22.110  32.221  1.00  0.00    -0.027 C 
ATOM      7  C   UNL     1      10.591 -22.510  33.469  1.00  0.00    -0.031 C 
BRANCH   7   8
ATOM      8  C   UNL     1      10.215 -21.679  34.668  1.00  0.00     0.027 C 
BRANCH   8   9
ATOM      9  C   UNL     1      10.450 -20.179  34.436  1.00  0.00     0.004 C 
BRANCH   9  10
ATOM     10  C   UNL     1       9.151 -19.364  34.549  1.00  0.00     0.000 C 
BRANCH  10  11
ATOM     11  C   UNL     1       7.896 -20.250  34.521  1.00  0.00    -0.003 C 
ATOM     12  C   UNL     1       7.189 -20.231  33.166  1.00  0.00     0.004 C 
ENDBRANCH  10  11
ENDBRANCH   9  10
ENDBRANCH   8   9
ENDBRANCH   7   8
ENDBRANCH   5   6
ENDBRANCH   4   5
ENDBRANCH   2   3
ENDBRANCH   1   2
BRANCH   1  13
ATOM     13  C   UNL     1       8.990 -28.404  32.236  1.00  0.00     0.000 C 
BRANCH  13  14
ATOM     14  C   UNL     1       9.348 -29.530  31.251  1.00  0.00     0.000 C 
BRANCH  14  15
ATOM     15  C   UNL     1      10.627 -29.229  30.450  1.00  0.00     0.000 C 
BRANCH  15  16
ATOM     16  C   UNL     1      10.355 -29.061  28.946  1.00  0.00     0.003 C 
BRANCH  16  17
ATOM     17  C   UNL     1       8.909 -29.410  28.562  1.00  0.00     0.042 C 
BRANCH  17  18
ATOM     18  C   UNL     1       8.465 -28.625  27.325  1.00  0.00     0.233 C 
BRANCH  18  19
ATOM     19  O   UNL     1       8.628 -27.224  27.534  1.00  0.00    -0.466 OA
BRANCH  19  20
ATOM     20  C   UNL     1       9.445 -26.415  26.737  1.00  0.00     0.302 C 
ATOM     21  O   UNL     1       9.368 -25.158  26.797  1.00  0.00    -0.253 OA
ATOM     22  C   UNL     1      10.394 -27.050  25.777  1.00  0.00     0.139 C 
ENDBRANCH  19  20
ENDBRANCH  18  19
ENDBRANCH  17  18
ENDBRANCH  16  17
ENDBRANCH  15  16
ENDBRANCH  14  15
ENDBRANCH  13  14
ENDBRANCH   1  13
TORSDOF 16
ENDMDL
MODEL 8
REMARK VINA RESULT:    -4.402      1.482      2.407
REMARK INTER + INTRA:         -10.878
REMARK INTER:                  -9.182
REMARK INTRA:                  -1.696
REMARK UNBOUND:                -2.359
REMARK SMILES CCCCCC=CCC=CCCCCCCCCOC(C)=O
REMARK SMILES IDX 12 1 11 2 10 3 9 4 8 5 7 6 6 7 5 8 4 9 3 10 2 11 1 12 13 13
REMARK SMILES IDX 14 14 15 15 16 16 17 17 18 18 19 19 20 20 22 21 21 22
REMARK H PARENT
REMARK Flexibility Score: inf
ROOT
ATOM      1  C   UNL     1       9.068 -29.507  27.264  1.00  0.00     0.004 C 
ENDROOT
BRANCH   1   2
ATOM      2  C   UNL     1       8.247 -30.245  28.332  1.00  0.00     0.027 C 
BRANCH   2   3
ATOM      3  C   UNL     1       8.490 -29.706  29.716  1.00  0.00    -0.031 C 
ATOM      4  C   UNL     1       9.696 -29.254  30.093  1.00  0.00    -0.027 C 
BRANCH   4   5
ATOM      5  C   UNL     1       9.934 -28.718  31.477  1.00  0.00     0.054 C 
BRANCH   5   6
ATOM      6  C   UNL     1       9.429 -27.308  31.611  1.00  0.00    -0.027 C 
ATOM      7  C   UNL     1       9.579 -26.432  30.608  1.00  0.00    -0.031 C 
BRANCH   7   8
ATOM      8  C   UNL     1       9.078 -25.015  30.714  1.00  0.00     0.027 C 
BRANCH   8   9
ATOM      9  C   UNL     1      10.121 -24.071  31.329  1.00  0.00     0.004 C 
BRANCH   9  10
ATOM     10  C   UNL     1      10.370 -22.832  30.451  1.00  0.00     0.000 C 
BRANCH  10  11
ATOM     11  C   UNL     1       9.071 -22.244  29.881  1.00  0.00    -0.003 C 
ATOM     12  C   UNL     1       8.167 -21.651  30.961  1.00  0.00     0.004 C 
ENDBRANCH  10  11
ENDBRANCH   9  10
ENDBRANCH   8   9
ENDBRANCH   7   8
ENDBRANCH   5   6
ENDBRANCH   4   5
ENDBRANCH   2   3
ENDBRANCH   1   2
BRANCH   1  13
ATOM     13  C   UNL     1       8.203 -28.544  26.432  1.00  0.00     0.000 C 
BRANCH  13  14
ATOM     14  C   UNL     1       8.060 -27.160  27.087  1.00  0.00     0.000 C 
BRANCH  14  15
ATOM     15  C   UNL     1       9.375 -26.361  27.075  1.00  0.00     0.000 C 
BRANCH  15  16
ATOM     16  C   UNL     1       9.614 -25.637  25.740  1.00  0.00     0.003 C 
BRANCH  16  17
ATOM     17  C   UNL     1      10.926 -26.058  25.063  1.00  0.00     0.042 C 
BRANCH  17  18
ATOM     18  C   UNL     1      11.148 -25.281  23.762  1.00  0.00     0.233 C 
BRANCH  18  19
ATOM     19  O   UNL     1       9.973 -24.555  23.406  1.00  0.00    -0.466 OA
BRANCH  19  20
ATOM     20  C   UNL     1       9.988 -23.219  22.991  1.00  0.00     0.302 C 
ATOM     21  O   UNL     1      10.832 -22.815  22.146  1.00  0.00    -0.253 OA
ATOM     22  C   UNL     1       9.018 -22.255  23.584  1.00  0.00     0.139 C 
ENDBRANCH  19  20
ENDBRANCH  18  19
ENDBRANCH  17  18
ENDBRANCH  16  17
ENDBRANCH  15  16
ENDBRANCH  14  15
ENDBRANCH  13  14
ENDBRANCH   1  13
TORSDOF 16
ENDMDL
MODEL 9
REMARK VINA RESULT:    -4.356      2.704      4.424
REMARK INTER + INTRA:         -10.789
REMARK INTER:                  -8.798
REMARK INTRA:                  -1.991
REMARK UNBOUND:                -2.359
REMARK SMILES CCCCCC=CCC=CCCCCCCCCOC(C)=O
REMARK SMILES IDX 12 1 11 2 10 3 9 4 8 5 7 6 6 7 5 8 4 9 3 10 2 11 1 12 13 13
REMARK SMILES IDX 14 14 15 15 16 16 17 17 18 18 19 19 20 20 22 21 21 22
REMARK H PARENT
REMARK Flexibility Score: inf
ROOT
ATOM      1  C   UNL     1       9.869 -28.665  32.414  1.00  0.00     0.004 C 
ENDROOT
BRANCH   1   2
ATOM      2  C   UNL     1       8.854 -27.659  31.849  1.00  0.00     0.027 C 
BRANCH   2   3
ATOM      3  C   UNL     1       9.381 -26.249  31.854  1.00  0.00    -0.031 C 
ATOM      4  C   UNL     1       9.371 -25.490  30.748  1.00  0.00    -0.027 C 
BRANCH   4   5
ATOM      5  C   UNL     1       9.899 -24.083  30.758  1.00  0.00     0.054 C 
BRANCH   5   6
ATOM      6  C   UNL     1       9.883 -23.504  32.147  1.00  0.00    -0.027 C 
ATOM      7  C   UNL     1      10.929 -22.805  32.608  1.00  0.00    -0.031 C 
BRANCH   7   8
ATOM      8  C   UNL     1      10.936 -22.213  33.992  1.00  0.00     0.027 C 
BRANCH   8   9
ATOM      9  C   UNL     1       9.588 -21.575  34.361  1.00  0.00     0.004 C 
BRANCH   9  10
ATOM     10  C   UNL     1       9.627 -20.040  34.262  1.00  0.00     0.000 C 
BRANCH  10  11
ATOM     11  C   UNL     1      11.039 -19.472  34.469  1.00  0.00    -0.003 C 
ATOM     12  C   UNL     1      11.029 -18.021  34.949  1.00  0.00     0.004 C 
ENDBRANCH  10  11
ENDBRANCH   9  10
ENDBRANCH   8   9
ENDBRANCH   7   8
ENDBRANCH   5   6
ENDBRANCH   4   5
ENDBRANCH   2   3
ENDBRANCH   1   2
BRANCH   1  13
ATOM     13  C   UNL     1      10.526 -29.507  31.307  1.00  0.00     0.000 C 
BRANCH  13  14
ATOM     14  C   UNL     1       9.917 -29.243  29.920  1.00  0.00     0.000 C 
BRANCH  14  15
ATOM     15  C   UNL     1      10.954 -28.726  28.907  1.00  0.00     0.000 C 
BRANCH  15  16
ATOM     16  C   UNL     1      10.360 -27.706  27.922  1.00  0.00     0.003 C 
BRANCH  16  17
ATOM     17  C   UNL     1       8.827 -27.770  27.856  1.00  0.00     0.042 C 
BRANCH  17  18
ATOM     18  C   UNL     1       8.348 -28.021  26.423  1.00  0.00     0.233 C 
BRANCH  18  19
ATOM     19  O   UNL     1       7.599 -29.233  26.350  1.00  0.00    -0.466 OA
BRANCH  19  20
ATOM     20  C   UNL     1       7.973 -30.411  27.006  1.00  0.00     0.302 C 
ATOM     21  O   UNL     1       7.298 -30.854  27.974  1.00  0.00    -0.253 OA
ATOM     22  C   UNL     1       9.206 -31.130  26.577  1.00  0.00     0.139 C 
ENDBRANCH  19  20
ENDBRANCH  18  19
ENDBRANCH  17  18
ENDBRANCH  16  17
ENDBRANCH  15  16
ENDBRANCH  14  15
ENDBRANCH  13  14
ENDBRANCH   1  13
TORSDOF 16
ENDMDL
