MODEL 1
REMARK VINA RESULT:    -4.476      0.000      0.000
REMARK INTER + INTRA:          -5.105
REMARK INTER:                  -4.868
REMARK INTRA:                  -0.237
REMARK UNBOUND:                -0.237
REMARK SMILES O=C([O-])c1ccccc1O
REMARK SMILES IDX 4 1 9 2 5 3 8 4 6 5 7 6 2 7 1 8 3 9 10 10
REMARK H PARENT 10 11
REMARK Flexibility Score: inf
ROOT
ATOM      1  C   UNL     1      12.432  23.032  34.429  1.00  0.00     0.039 A 
ATOM      2  C   UNL     1      11.603  22.859  33.289  1.00  0.00     0.124 A 
ATOM      3  C   UNL     1      12.339  22.104  35.482  1.00  0.00     0.014 A 
ATOM      4  C   UNL     1      10.762  21.742  33.207  1.00  0.00     0.047 A 
ATOM      5  C   UNL     1      11.479  21.007  35.394  1.00  0.00     0.001 A 
ATOM      6  C   UNL     1      10.699  20.822  34.254  1.00  0.00     0.004 A 
ENDROOT
BRANCH   1   7
ATOM      7  C   UNL     1      13.417  24.131  34.545  1.00  0.00     0.075 C 
ATOM      8  O   UNL     1      13.064  25.333  34.415  1.00  0.00    -0.545 OA
ATOM      9  O   UNL     1      14.762  23.840  34.732  1.00  0.00    -0.545 OA
ENDBRANCH   1   7
BRANCH   2  10
ATOM     10  O   UNL     1      11.560  23.782  32.240  1.00  0.00    -0.507 OA
ATOM     11  H   UNL     1      12.155  23.730  31.426  1.00  0.00     0.293 HD
ENDBRANCH   2  10
TORSDOF 2
ENDMDL
MODEL 2
REMARK VINA RESULT:    -4.450     12.068     12.990
REMARK INTER + INTRA:          -5.077
REMARK INTER:                  -4.840
REMARK INTRA:                  -0.237
REMARK UNBOUND:                -0.237
REMARK SMILES O=C([O-])c1ccccc1O
REMARK SMILES IDX 4 1 9 2 5 3 8 4 6 5 7 6 2 7 1 8 3 9 10 10
REMARK H PARENT 10 11
REMARK Flexibility Score: inf
ROOT
ATOM      1  C   UNL     1      19.369  12.538  33.635  1.00  0.00     0.039 A 
ATOM      2  C   UNL     1      20.595  13.111  34.064  1.00  0.00     0.124 A 
ATOM      3  C   UNL     1      18.301  12.458  34.547  1.00  0.00     0.014 A 
ATOM      4  C   UNL     1      20.697  13.639  35.357  1.00  0.00     0.047 A 
ATOM      5  C   UNL     1      18.426  12.971  35.840  1.00  0.00     0.001 A 
ATOM      6  C   UNL     1      19.620  13.569  36.241  1.00  0.00     0.004 A 
ENDROOT
BRANCH   1   7
ATOM      7  C   UNL     1      19.151  12.048  32.255  1.00  0.00     0.075 C 
ATOM      8  O   UNL     1      19.928  11.201  31.739  1.00  0.00    -0.545 OA
ATOM      9  O   UNL     1      18.121  12.574  31.486  1.00  0.00    -0.545 OA
ENDBRANCH   1   7
BRANCH   2  10
ATOM     10  O   UNL     1      21.735  13.145  33.257  1.00  0.00    -0.507 OA
ATOM     11  H   UNL     1      22.660  13.353  33.605  1.00  0.00     0.293 HD
ENDBRANCH   2  10
TORSDOF 2
ENDMDL
MODEL 3
REMARK VINA RESULT:    -4.433     10.693     11.495
REMARK INTER + INTRA:          -5.058
REMARK INTER:                  -4.831
REMARK INTRA:                  -0.227
REMARK UNBOUND:                -0.237
REMARK SMILES O=C([O-])c1ccccc1O
REMARK SMILES IDX 4 1 9 2 5 3 8 4 6 5 7 6 2 7 1 8 3 9 10 10
REMARK H PARENT 10 11
REMARK Flexibility Score: inf
ROOT
ATOM      1  C   UNL     1      15.358  13.173  29.450  1.00  0.00     0.039 A 
ATOM      2  C   UNL     1      13.970  13.448  29.339  1.00  0.00     0.124 A 
ATOM      3  C   UNL     1      16.269  13.987  28.753  1.00  0.00     0.014 A 
ATOM      4  C   UNL     1      13.540  14.553  28.593  1.00  0.00     0.047 A 
ATOM      5  C   UNL     1      15.822  15.073  27.996  1.00  0.00     0.001 A 
ATOM      6  C   UNL     1      14.460  15.361  27.924  1.00  0.00     0.004 A 
ENDROOT
BRANCH   1   7
ATOM      7  C   UNL     1      15.895  12.085  30.298  1.00  0.00     0.075 C 
ATOM      8  O   UNL     1      15.550  10.888  30.110  1.00  0.00    -0.545 OA
ATOM      9  O   UNL     1      16.738  12.385  31.361  1.00  0.00    -0.545 OA
ENDBRANCH   1   7
BRANCH   2  10
ATOM     10  O   UNL     1      12.991  12.636  29.919  1.00  0.00    -0.507 OA
ATOM     11  H   UNL     1      13.153  12.062  30.734  1.00  0.00     0.293 HD
ENDBRANCH   2  10
TORSDOF 2
ENDMDL
MODEL 4
REMARK VINA RESULT:    -4.345      5.830      7.455
REMARK INTER + INTRA:          -4.963
REMARK INTER:                  -4.728
REMARK INTRA:                  -0.234
REMARK UNBOUND:                -0.237
REMARK SMILES O=C([O-])c1ccccc1O
REMARK SMILES IDX 4 1 9 2 5 3 8 4 6 5 7 6 2 7 1 8 3 9 10 10
REMARK H PARENT 10 11
REMARK Flexibility Score: inf
ROOT
ATOM      1  C   UNL     1      18.141  23.768  36.364  1.00  0.00     0.039 A 
ATOM      2  C   UNL     1      19.098  23.000  37.077  1.00  0.00     0.124 A 
ATOM      3  C   UNL     1      18.289  23.915  34.973  1.00  0.00     0.014 A 
ATOM      4  C   UNL     1      20.129  22.357  36.380  1.00  0.00     0.047 A 
ATOM      5  C   UNL     1      19.335  23.285  34.295  1.00  0.00     0.001 A 
ATOM      6  C   UNL     1      20.248  22.499  34.997  1.00  0.00     0.004 A 
ENDROOT
BRANCH   1   7
ATOM      7  C   UNL     1      16.969  24.395  37.015  1.00  0.00     0.075 C 
ATOM      8  O   UNL     1      17.114  25.191  37.980  1.00  0.00    -0.545 OA
ATOM      9  O   UNL     1      15.684  24.055  36.609  1.00  0.00    -0.545 OA
ENDBRANCH   1   7
BRANCH   2  10
ATOM     10  O   UNL     1      19.083  22.879  38.469  1.00  0.00    -0.507 OA
ATOM     11  H   UNL     1      19.435  22.072  38.964  1.00  0.00     0.293 HD
ENDBRANCH   2  10
TORSDOF 2
ENDMDL
MODEL 5
REMARK VINA RESULT:    -4.328     10.401     11.280
REMARK INTER + INTRA:          -4.944
REMARK INTER:                  -4.733
REMARK INTRA:                  -0.212
REMARK UNBOUND:                -0.237
REMARK SMILES O=C([O-])c1ccccc1O
REMARK SMILES IDX 4 1 9 2 5 3 8 4 6 5 7 6 2 7 1 8 3 9 10 10
REMARK H PARENT 10 11
REMARK Flexibility Score: inf
ROOT
ATOM      1  C   UNL     1      15.255  13.924  29.474  1.00  0.00     0.039 A 
ATOM      2  C   UNL     1      15.230  12.610  30.011  1.00  0.00     0.124 A 
ATOM      3  C   UNL     1      16.448  14.665  29.551  1.00  0.00     0.014 A 
ATOM      4  C   UNL     1      16.401  12.057  30.545  1.00  0.00     0.047 A 
ATOM      5  C   UNL     1      17.602  14.107  30.107  1.00  0.00     0.001 A 
ATOM      6  C   UNL     1      17.580  12.802  30.594  1.00  0.00     0.004 A 
ENDROOT
BRANCH   1   7
ATOM      7  C   UNL     1      14.088  14.540  28.805  1.00  0.00     0.075 C 
ATOM      8  O   UNL     1      12.958  13.984  28.833  1.00  0.00    -0.545 OA
ATOM      9  O   UNL     1      14.244  15.712  28.075  1.00  0.00    -0.545 OA
ENDBRANCH   1   7
BRANCH   2  10
ATOM     10  O   UNL     1      14.066  11.838  30.063  1.00  0.00    -0.507 OA
ATOM     11  H   UNL     1      13.946  11.050  30.683  1.00  0.00     0.293 HD
ENDBRANCH   2  10
TORSDOF 2
ENDMDL
MODEL 6
REMARK VINA RESULT:    -4.325     11.432     12.245
REMARK INTER + INTRA:          -4.941
REMARK INTER:                  -4.731
REMARK INTRA:                  -0.210
REMARK UNBOUND:                -0.237
REMARK SMILES O=C([O-])c1ccccc1O
REMARK SMILES IDX 4 1 9 2 5 3 8 4 6 5 7 6 2 7 1 8 3 9 10 10
REMARK H PARENT 10 11
REMARK Flexibility Score: inf
ROOT
ATOM      1  C   UNL     1      19.158  13.135  34.045  1.00  0.00     0.039 A 
ATOM      2  C   UNL     1      19.553  12.544  32.816  1.00  0.00     0.124 A 
ATOM      3  C   UNL     1      17.793  13.395  34.266  1.00  0.00     0.014 A 
ATOM      4  C   UNL     1      18.578  12.176  31.880  1.00  0.00     0.047 A 
ATOM      5  C   UNL     1      16.835  13.040  33.313  1.00  0.00     0.001 A 
ATOM      6  C   UNL     1      17.227  12.423  32.126  1.00  0.00     0.004 A 
ENDROOT
BRANCH   1   7
ATOM      7  C   UNL     1      20.118  13.462  35.123  1.00  0.00     0.075 C 
ATOM      8  O   UNL     1      19.715  13.802  36.267  1.00  0.00    -0.545 OA
ATOM      9  O   UNL     1      21.482  13.462  34.861  1.00  0.00    -0.545 OA
ENDBRANCH   1   7
BRANCH   2  10
ATOM     10  O   UNL     1      20.892  12.339  32.473  1.00  0.00    -0.507 OA
ATOM     11  H   UNL     1      21.489  13.061  32.096  1.00  0.00     0.293 HD
ENDBRANCH   2  10
TORSDOF 2
ENDMDL
MODEL 7
REMARK VINA RESULT:    -4.322      2.503      3.208
REMARK INTER + INTRA:          -4.937
REMARK INTER:                  -4.690
REMARK INTRA:                  -0.247
REMARK UNBOUND:                -0.237
REMARK SMILES O=C([O-])c1ccccc1O
REMARK SMILES IDX 4 1 9 2 5 3 8 4 6 5 7 6 2 7 1 8 3 9 10 10
REMARK H PARENT 10 11
REMARK Flexibility Score: inf
ROOT
ATOM      1  C   UNL     1      12.289  22.339  35.976  1.00  0.00     0.039 A 
ATOM      2  C   UNL     1      11.074  21.606  35.935  1.00  0.00     0.124 A 
ATOM      3  C   UNL     1      12.349  23.511  36.752  1.00  0.00     0.014 A 
ATOM      4  C   UNL     1       9.986  22.025  36.712  1.00  0.00     0.047 A 
ATOM      5  C   UNL     1      11.248  23.927  37.505  1.00  0.00     0.001 A 
ATOM      6  C   UNL     1      10.072  23.179  37.492  1.00  0.00     0.004 A 
ENDROOT
BRANCH   1   7
ATOM      7  C   UNL     1      13.511  21.907  35.262  1.00  0.00     0.075 C 
ATOM      8  O   UNL     1      13.468  21.573  34.049  1.00  0.00    -0.545 OA
ATOM      9  O   UNL     1      14.714  21.798  35.948  1.00  0.00    -0.545 OA
ENDBRANCH   1   7
BRANCH   2  10
ATOM     10  O   UNL     1      10.895  20.487  35.119  1.00  0.00    -0.507 OA
ATOM     11  H   UNL     1      11.644  19.861  34.858  1.00  0.00     0.293 HD
ENDBRANCH   2  10
TORSDOF 2
ENDMDL
MODEL 8
REMARK VINA RESULT:    -4.321      5.352      6.731
REMARK INTER + INTRA:          -4.936
REMARK INTER:                  -4.731
REMARK INTRA:                  -0.205
REMARK UNBOUND:                -0.237
REMARK SMILES O=C([O-])c1ccccc1O
REMARK SMILES IDX 4 1 9 2 5 3 8 4 6 5 7 6 2 7 1 8 3 9 10 10
REMARK H PARENT 10 11
REMARK Flexibility Score: inf
ROOT
ATOM      1  C   UNL     1      18.359  23.028  35.688  1.00  0.00     0.039 A 
ATOM      2  C   UNL     1      17.529  23.697  36.625  1.00  0.00     0.124 A 
ATOM      3  C   UNL     1      17.880  22.822  34.381  1.00  0.00     0.014 A 
ATOM      4  C   UNL     1      16.284  24.193  36.216  1.00  0.00     0.047 A 
ATOM      5  C   UNL     1      16.627  23.305  33.996  1.00  0.00     0.001 A 
ATOM      6  C   UNL     1      15.835  23.997  34.910  1.00  0.00     0.004 A 
ENDROOT
BRANCH   1   7
ATOM      7  C   UNL     1      19.726  22.563  36.015  1.00  0.00     0.075 C 
ATOM      8  O   UNL     1      20.487  22.108  35.121  1.00  0.00    -0.545 OA
ATOM      9  O   UNL     1      20.160  22.559  37.335  1.00  0.00    -0.545 OA
ENDBRANCH   1   7
BRANCH   2  10
ATOM     10  O   UNL     1      17.884  23.860  37.966  1.00  0.00    -0.507 OA
ATOM     11  H   UNL     1      17.331  24.384  38.630  1.00  0.00     0.293 HD
ENDBRANCH   2  10
TORSDOF 2
ENDMDL
MODEL 9
REMARK VINA RESULT:    -4.273      1.664      3.462
REMARK INTER + INTRA:          -4.884
REMARK INTER:                  -4.693
REMARK INTRA:                  -0.191
REMARK UNBOUND:                -0.237
REMARK SMILES O=C([O-])c1ccccc1O
REMARK SMILES IDX 4 1 9 2 5 3 8 4 6 5 7 6 2 7 1 8 3 9 10 10
REMARK H PARENT 10 11
REMARK Flexibility Score: inf
ROOT
ATOM      1  C   UNL     1      12.308  22.337  34.359  1.00  0.00     0.039 A 
ATOM      2  C   UNL     1      12.722  23.653  34.024  1.00  0.00     0.124 A 
ATOM      3  C   UNL     1      12.988  21.651  35.381  1.00  0.00     0.014 A 
ATOM      4  C   UNL     1      13.752  24.262  34.753  1.00  0.00     0.047 A 
ATOM      5  C   UNL     1      14.027  22.264  36.084  1.00  0.00     0.001 A 
ATOM      6  C   UNL     1      14.402  23.571  35.777  1.00  0.00     0.004 A 
ENDROOT
BRANCH   1   7
ATOM      7  C   UNL     1      11.164  21.665  33.702  1.00  0.00     0.075 C 
ATOM      8  O   UNL     1      10.813  20.505  34.044  1.00  0.00    -0.545 OA
ATOM      9  O   UNL     1      10.508  22.285  32.646  1.00  0.00    -0.545 OA
ENDBRANCH   1   7
BRANCH   2  10
ATOM     10  O   UNL     1      12.167  24.372  32.962  1.00  0.00    -0.507 OA
ATOM     11  H   UNL     1      12.618  24.479  32.064  1.00  0.00     0.293 HD
ENDBRANCH   2  10
TORSDOF 2
ENDMDL
