MODEL 1
REMARK VINA RESULT:    -7.219      0.000      0.000
REMARK INTER + INTRA:          -8.748
REMARK INTER:                  -8.485
REMARK INTRA:                  -0.263
REMARK UNBOUND:                -0.263
REMARK SMILES O=c1cc(-c2ccc(O)c(O)c2)oc2cc(O)cc(O)c12
REMARK SMILES IDX 4 1 3 2 2 3 1 4 21 5 19 6 18 7 16 8 15 9 14 10 13 11 5 12
REMARK SMILES IDX 6 13 7 14 8 15 12 16 10 17 9 18 11 20 20 22 17 24
REMARK H PARENT 9 19 11 21 20 23 17 25
REMARK Flexibility Score: inf
ROOT
ATOM      1  C   UNL     1      31.509 -92.104  37.669  1.00  0.00     0.138 A 
ATOM      2  C   UNL     1      30.284 -92.705  37.354  1.00  0.00     0.100 A 
ATOM      3  C   UNL     1      30.136 -94.086  37.492  1.00  0.00     0.197 A 
ATOM      4  O   UNL     1      29.006 -94.589  37.262  1.00  0.00    -0.289 OA
ATOM      5  C   UNL     1      31.234 -94.871  37.917  1.00  0.00     0.107 A 
ATOM      6  C   UNL     1      31.212 -96.292  38.055  1.00  0.00     0.134 A 
ATOM      7  C   UNL     1      32.323 -96.950  38.596  1.00  0.00     0.093 A 
ATOM      8  C   UNL     1      33.476 -96.248  38.947  1.00  0.00     0.123 A 
ATOM      9  C   UNL     1      33.528 -94.865  38.767  1.00  0.00     0.094 A 
ATOM     10  C   UNL     1      32.423 -94.175  38.262  1.00  0.00     0.146 A 
ATOM     11  O   UNL     1      32.508 -92.857  38.118  1.00  0.00    -0.456 OA
ENDROOT
BRANCH   1  12
ATOM     12  C   UNL     1      31.721 -90.640  37.539  1.00  0.00     0.021 A 
ATOM     13  C   UNL     1      32.635 -90.155  36.587  1.00  0.00     0.016 A 
ATOM     14  C   UNL     1      32.848 -88.782  36.441  1.00  0.00     0.051 A 
ATOM     15  C   UNL     1      32.146 -87.869  37.233  1.00  0.00     0.157 A 
ATOM     16  C   UNL     1      31.006 -89.715  38.326  1.00  0.00     0.062 A 
ATOM     17  C   UNL     1      31.217 -88.337  38.177  1.00  0.00     0.158 A 
BRANCH  15  18
ATOM     18  O   UNL     1      32.379 -86.505  37.064  1.00  0.00    -0.504 OA
ATOM     19  H   UNL     1      32.778 -86.128  36.213  1.00  0.00     0.293 HD
ENDBRANCH  15  18
BRANCH  17  20
ATOM     20  O   UNL     1      30.506 -87.431  38.962  1.00  0.00    -0.504 OA
ATOM     21  H   UNL     1      30.632 -87.384  39.966  1.00  0.00     0.293 HD
ENDBRANCH  17  20
ENDBRANCH   1  12
BRANCH   6  22
ATOM     22  O   UNL     1      30.143 -97.099  37.655  1.00  0.00    -0.507 OA
ATOM     23  H   UNL     1      29.570 -97.648  38.277  1.00  0.00     0.293 HD
ENDBRANCH   6  22
BRANCH   8  24
ATOM     24  O   UNL     1      34.568 -96.938  39.469  1.00  0.00    -0.508 OA
ATOM     25  H   UNL     1      35.262 -97.366  38.867  1.00  0.00     0.293 HD
ENDBRANCH   8  24
TORSDOF 5
ENDMDL
MODEL 2
REMARK VINA RESULT:    -6.923      1.246      2.828
REMARK INTER + INTRA:          -8.400
REMARK INTER:                  -8.127
REMARK INTRA:                  -0.274
REMARK UNBOUND:                -0.263
REMARK SMILES O=c1cc(-c2ccc(O)c(O)c2)oc2cc(O)cc(O)c12
REMARK SMILES IDX 4 1 3 2 2 3 1 4 21 5 19 6 18 7 16 8 15 9 14 10 13 11 5 12
REMARK SMILES IDX 6 13 7 14 8 15 12 16 10 17 9 18 11 20 20 22 17 24
REMARK H PARENT 9 19 11 21 20 23 17 25
REMARK Flexibility Score: inf
ROOT
ATOM      1  C   UNL     1      31.572 -92.076  37.747  1.00  0.00     0.138 A 
ATOM      2  C   UNL     1      32.601 -92.892  38.234  1.00  0.00     0.100 A 
ATOM      3  C   UNL     1      32.376 -94.259  38.405  1.00  0.00     0.197 A 
ATOM      4  O   UNL     1      33.338 -94.976  38.784  1.00  0.00    -0.289 OA
ATOM      5  C   UNL     1      31.103 -94.803  38.116  1.00  0.00     0.107 A 
ATOM      6  C   UNL     1      30.746 -96.174  38.289  1.00  0.00     0.134 A 
ATOM      7  C   UNL     1      29.491 -96.621  37.860  1.00  0.00     0.093 A 
ATOM      8  C   UNL     1      28.558 -95.737  37.318  1.00  0.00     0.123 A 
ATOM      9  C   UNL     1      28.876 -94.383  37.192  1.00  0.00     0.094 A 
ATOM     10  C   UNL     1      30.133 -93.913  37.580  1.00  0.00     0.146 A 
ATOM     11  O   UNL     1      30.402 -92.621  37.431  1.00  0.00    -0.456 OA
ENDROOT
BRANCH   1  12
ATOM     12  C   UNL     1      31.757 -90.616  37.548  1.00  0.00     0.021 A 
ATOM     13  C   UNL     1      32.692 -90.159  36.603  1.00  0.00     0.016 A 
ATOM     14  C   UNL     1      32.880 -88.791  36.392  1.00  0.00     0.051 A 
ATOM     15  C   UNL     1      32.132 -87.855  37.111  1.00  0.00     0.157 A 
ATOM     16  C   UNL     1      30.995 -89.669  38.261  1.00  0.00     0.062 A 
ATOM     17  C   UNL     1      31.182 -88.295  38.047  1.00  0.00     0.158 A 
BRANCH  15  18
ATOM     18  O   UNL     1      32.342 -86.497  36.879  1.00  0.00    -0.504 OA
ATOM     19  H   UNL     1      31.580 -85.829  36.865  1.00  0.00     0.293 HD
ENDBRANCH  15  18
BRANCH  17  20
ATOM     20  O   UNL     1      30.424 -87.366  38.760  1.00  0.00    -0.504 OA
ATOM     21  H   UNL     1      30.748 -86.417  38.906  1.00  0.00     0.293 HD
ENDBRANCH  17  20
ENDBRANCH   1  12
BRANCH   6  22
ATOM     22  O   UNL     1      31.571 -97.124  38.898  1.00  0.00    -0.507 OA
ATOM     23  H   UNL     1      32.153 -97.785  38.404  1.00  0.00     0.293 HD
ENDBRANCH   6  22
BRANCH   8  24
ATOM     24  O   UNL     1      27.313 -96.214  36.914  1.00  0.00    -0.508 OA
ATOM     25  H   UNL     1      26.456 -95.727  37.151  1.00  0.00     0.293 HD
ENDBRANCH   8  24
TORSDOF 5
ENDMDL
MODEL 3
REMARK VINA RESULT:    -5.706      9.258     10.820
REMARK INTER + INTRA:          -6.970
REMARK INTER:                  -6.691
REMARK INTRA:                  -0.279
REMARK UNBOUND:                -0.263
REMARK SMILES O=c1cc(-c2ccc(O)c(O)c2)oc2cc(O)cc(O)c12
REMARK SMILES IDX 4 1 3 2 2 3 1 4 21 5 19 6 18 7 16 8 15 9 14 10 13 11 5 12
REMARK SMILES IDX 6 13 7 14 8 15 12 16 10 17 9 18 11 20 20 22 17 24
REMARK H PARENT 9 19 11 21 20 23 17 25
REMARK Flexibility Score: inf
ROOT
ATOM      1  C   UNL     1      38.024 -95.151  31.129  1.00  0.00     0.138 A 
ATOM      2  C   UNL     1      38.675 -95.756  30.046  1.00  0.00     0.100 A 
ATOM      3  C   UNL     1      38.004 -95.900  28.830  1.00  0.00     0.197 A 
ATOM      4  O   UNL     1      38.635 -96.389  27.858  1.00  0.00    -0.289 OA
ATOM      5  C   UNL     1      36.664 -95.463  28.711  1.00  0.00     0.107 A 
ATOM      6  C   UNL     1      35.867 -95.595  27.533  1.00  0.00     0.134 A 
ATOM      7  C   UNL     1      34.591 -95.021  27.495  1.00  0.00     0.093 A 
ATOM      8  C   UNL     1      34.059 -94.373  28.610  1.00  0.00     0.123 A 
ATOM      9  C   UNL     1      34.807 -94.285  29.784  1.00  0.00     0.094 A 
ATOM     10  C   UNL     1      36.098 -94.817  29.842  1.00  0.00     0.146 A 
ATOM     11  O   UNL     1      36.783 -94.700  30.975  1.00  0.00    -0.456 OA
ENDROOT
BRANCH   1  12
ATOM     12  C   UNL     1      38.689 -94.974  32.444  1.00  0.00     0.021 A 
ATOM     13  C   UNL     1      39.884 -94.237  32.522  1.00  0.00     0.016 A 
ATOM     14  C   UNL     1      40.526 -94.050  33.749  1.00  0.00     0.051 A 
ATOM     15  C   UNL     1      39.983 -94.586  34.920  1.00  0.00     0.157 A 
ATOM     16  C   UNL     1      38.139 -95.501  33.630  1.00  0.00     0.062 A 
ATOM     17  C   UNL     1      38.782 -95.312  34.862  1.00  0.00     0.158 A 
BRANCH  15  18
ATOM     18  O   UNL     1      40.647 -94.384  36.129  1.00  0.00    -0.504 OA
ATOM     19  H   UNL     1      40.837 -95.143  36.772  1.00  0.00     0.293 HD
ENDBRANCH  15  18
BRANCH  17  20
ATOM     20  O   UNL     1      38.231 -95.839  36.028  1.00  0.00    -0.504 OA
ATOM     21  H   UNL     1      37.867 -96.784  36.064  1.00  0.00     0.293 HD
ENDBRANCH  17  20
ENDBRANCH   1  12
BRANCH   6  22
ATOM     22  O   UNL     1      36.270 -96.296  26.393  1.00  0.00    -0.507 OA
ATOM     23  H   UNL     1      37.192 -96.256  25.986  1.00  0.00     0.293 HD
ENDBRANCH   6  22
BRANCH   8  24
ATOM     24  O   UNL     1      32.779 -93.826  28.540  1.00  0.00    -0.508 OA
ATOM     25  H   UNL     1      32.578 -92.900  28.898  1.00  0.00     0.293 HD
ENDBRANCH   8  24
TORSDOF 5
ENDMDL
MODEL 4
REMARK VINA RESULT:    -5.560     15.422     17.424
REMARK INTER + INTRA:          -6.798
REMARK INTER:                  -6.503
REMARK INTRA:                  -0.295
REMARK UNBOUND:                -0.263
REMARK SMILES O=c1cc(-c2ccc(O)c(O)c2)oc2cc(O)cc(O)c12
REMARK SMILES IDX 4 1 3 2 2 3 1 4 21 5 19 6 18 7 16 8 15 9 14 10 13 11 5 12
REMARK SMILES IDX 6 13 7 14 8 15 12 16 10 17 9 18 11 20 20 22 17 24
REMARK H PARENT 9 19 11 21 20 23 17 25
REMARK Flexibility Score: inf
ROOT
ATOM      1  C   UNL     1      38.041 -77.265  34.536  1.00  0.00     0.138 A 
ATOM      2  C   UNL     1      38.311 -77.185  35.909  1.00  0.00     0.100 A 
ATOM      3  C   UNL     1      37.260 -77.258  36.824  1.00  0.00     0.197 A 
ATOM      4  O   UNL     1      37.539 -77.246  38.051  1.00  0.00    -0.289 OA
ATOM      5  C   UNL     1      35.929 -77.381  36.359  1.00  0.00     0.107 A 
ATOM      6  C   UNL     1      34.775 -77.424  37.199  1.00  0.00     0.134 A 
ATOM      7  C   UNL     1      33.518 -77.665  36.632  1.00  0.00     0.093 A 
ATOM      8  C   UNL     1      33.364 -77.804  35.253  1.00  0.00     0.123 A 
ATOM      9  C   UNL     1      34.478 -77.710  34.417  1.00  0.00     0.094 A 
ATOM     10  C   UNL     1      35.751 -77.505  34.955  1.00  0.00     0.146 A 
ATOM     11  O   UNL     1      36.787 -77.435  34.127  1.00  0.00    -0.456 OA
ENDROOT
BRANCH   1  12
ATOM     12  C   UNL     1      39.120 -77.192  33.519  1.00  0.00     0.021 A 
ATOM     13  C   UNL     1      38.786 -76.974  32.171  1.00  0.00     0.016 A 
ATOM     14  C   UNL     1      39.783 -76.893  31.196  1.00  0.00     0.051 A 
ATOM     15  C   UNL     1      41.130 -77.019  31.549  1.00  0.00     0.157 A 
ATOM     16  C   UNL     1      40.480 -77.304  33.872  1.00  0.00     0.062 A 
ATOM     17  C   UNL     1      41.481 -77.220  32.893  1.00  0.00     0.158 A 
BRANCH  15  18
ATOM     18  O   UNL     1      42.102 -76.935  30.553  1.00  0.00    -0.504 OA
ATOM     19  H   UNL     1      42.457 -77.755  30.077  1.00  0.00     0.293 HD
ENDBRANCH  15  18
BRANCH  17  20
ATOM     20  O   UNL     1      42.823 -77.335  33.253  1.00  0.00    -0.504 OA
ATOM     21  H   UNL     1      43.507 -77.746  32.629  1.00  0.00     0.293 HD
ENDBRANCH  17  20
ENDBRANCH   1  12
BRANCH   6  22
ATOM     22  O   UNL     1      34.807 -77.213  38.580  1.00  0.00    -0.507 OA
ATOM     23  H   UNL     1      34.145 -76.651  39.094  1.00  0.00     0.293 HD
ENDBRANCH   6  22
BRANCH   8  24
ATOM     24  O   UNL     1      32.095 -78.028  34.722  1.00  0.00    -0.508 OA
ATOM     25  H   UNL     1      31.353 -78.435  35.278  1.00  0.00     0.293 HD
ENDBRANCH   8  24
TORSDOF 5
ENDMDL
MODEL 5
REMARK VINA RESULT:    -5.531      8.516     10.455
REMARK INTER + INTRA:          -6.765
REMARK INTER:                  -6.449
REMARK INTRA:                  -0.316
REMARK UNBOUND:                -0.263
REMARK SMILES O=c1cc(-c2ccc(O)c(O)c2)oc2cc(O)cc(O)c12
REMARK SMILES IDX 4 1 3 2 2 3 1 4 21 5 19 6 18 7 16 8 15 9 14 10 13 11 5 12
REMARK SMILES IDX 6 13 7 14 8 15 12 16 10 17 9 18 11 20 20 22 17 24
REMARK H PARENT 9 19 11 21 20 23 17 25
REMARK Flexibility Score: inf
ROOT
ATOM      1  C   UNL     1      40.057 -94.951  33.994  1.00  0.00     0.138 A 
ATOM      2  C   UNL     1      41.441 -94.755  34.087  1.00  0.00     0.100 A 
ATOM      3  C   UNL     1      42.046 -94.687  35.342  1.00  0.00     0.197 A 
ATOM      4  O   UNL     1      43.298 -94.574  35.393  1.00  0.00    -0.289 OA
ATOM      5  C   UNL     1      41.254 -94.784  36.511  1.00  0.00     0.107 A 
ATOM      6  C   UNL     1      41.756 -94.689  37.844  1.00  0.00     0.134 A 
ATOM      7  C   UNL     1      40.894 -94.917  38.923  1.00  0.00     0.093 A 
ATOM      8  C   UNL     1      39.539 -95.178  38.722  1.00  0.00     0.123 A 
ATOM      9  C   UNL     1      39.026 -95.221  37.424  1.00  0.00     0.094 A 
ATOM     10  C   UNL     1      39.867 -95.032  36.325  1.00  0.00     0.146 A 
ATOM     11  O   UNL     1      39.343 -95.094  35.106  1.00  0.00    -0.456 OA
ENDROOT
BRANCH   1  12
ATOM     12  C   UNL     1      39.362 -95.030  32.684  1.00  0.00     0.021 A 
ATOM     13  C   UNL     1      40.119 -95.148  31.505  1.00  0.00     0.016 A 
ATOM     14  C   UNL     1      39.489 -95.230  30.261  1.00  0.00     0.051 A 
ATOM     15  C   UNL     1      38.094 -95.207  30.171  1.00  0.00     0.157 A 
ATOM     16  C   UNL     1      37.956 -95.021  32.589  1.00  0.00     0.062 A 
ATOM     17  C   UNL     1      37.323 -95.106  31.340  1.00  0.00     0.158 A 
BRANCH  15  18
ATOM     18  O   UNL     1      37.494 -95.290  28.916  1.00  0.00    -0.504 OA
ATOM     19  H   UNL     1      37.525 -94.526  28.252  1.00  0.00     0.293 HD
ENDBRANCH  15  18
BRANCH  17  20
ATOM     20  O   UNL     1      35.932 -95.094  31.258  1.00  0.00    -0.504 OA
ATOM     21  H   UNL     1      35.452 -94.813  30.411  1.00  0.00     0.293 HD
ENDBRANCH  17  20
ENDBRANCH   1  12
BRANCH   6  22
ATOM     22  O   UNL     1      43.075 -94.349  38.159  1.00  0.00    -0.507 OA
ATOM     23  H   UNL     1      43.349 -93.557  38.719  1.00  0.00     0.293 HD
ENDBRANCH   6  22
BRANCH   8  24
ATOM     24  O   UNL     1      38.708 -95.385  39.821  1.00  0.00    -0.508 OA
ATOM     25  H   UNL     1      37.714 -95.542  39.711  1.00  0.00     0.293 HD
ENDBRANCH   8  24
TORSDOF 5
ENDMDL
MODEL 6
REMARK VINA RESULT:    -5.529      8.891     10.900
REMARK INTER + INTRA:          -6.761
REMARK INTER:                  -6.497
REMARK INTRA:                  -0.264
REMARK UNBOUND:                -0.263
REMARK SMILES O=c1cc(-c2ccc(O)c(O)c2)oc2cc(O)cc(O)c12
REMARK SMILES IDX 4 1 3 2 2 3 1 4 21 5 19 6 18 7 16 8 15 9 14 10 13 11 5 12
REMARK SMILES IDX 6 13 7 14 8 15 12 16 10 17 9 18 11 20 20 22 17 24
REMARK H PARENT 9 19 11 21 20 23 17 25
REMARK Flexibility Score: inf
ROOT
ATOM      1  C   UNL     1      40.647 -95.374  35.966  1.00  0.00     0.138 A 
ATOM      2  C   UNL     1      41.845 -95.411  35.240  1.00  0.00     0.100 A 
ATOM      3  C   UNL     1      41.813 -95.285  33.851  1.00  0.00     0.197 A 
ATOM      4  O   UNL     1      42.908 -95.259  33.232  1.00  0.00    -0.289 OA
ATOM      5  C   UNL     1      40.572 -95.154  33.184  1.00  0.00     0.107 A 
ATOM      6  C   UNL     1      40.416 -95.059  31.769  1.00  0.00     0.134 A 
ATOM      7  C   UNL     1      39.147 -94.815  31.230  1.00  0.00     0.093 A 
ATOM      8  C   UNL     1      38.021 -94.722  32.048  1.00  0.00     0.123 A 
ATOM      9  C   UNL     1      38.155 -94.867  33.430  1.00  0.00     0.094 A 
ATOM     10  C   UNL     1      39.413 -95.076  34.001  1.00  0.00     0.146 A 
ATOM     11  O   UNL     1      39.499 -95.195  35.321  1.00  0.00    -0.456 OA
ENDROOT
BRANCH   1  12
ATOM     12  C   UNL     1      40.623 -95.504  37.445  1.00  0.00     0.021 A 
ATOM     13  C   UNL     1      40.761 -96.775  38.030  1.00  0.00     0.016 A 
ATOM     14  C   UNL     1      40.749 -96.923  39.420  1.00  0.00     0.051 A 
ATOM     15  C   UNL     1      40.607 -95.807  40.249  1.00  0.00     0.157 A 
ATOM     16  C   UNL     1      40.494 -94.380  38.286  1.00  0.00     0.062 A 
ATOM     17  C   UNL     1      40.484 -94.529  39.681  1.00  0.00     0.158 A 
BRANCH  15  18
ATOM     18  O   UNL     1      40.597 -95.986  41.631  1.00  0.00    -0.504 OA
ATOM     19  H   UNL     1      39.898 -96.552  42.096  1.00  0.00     0.293 HD
ENDBRANCH  15  18
BRANCH  17  20
ATOM     20  O   UNL     1      40.354 -93.411  40.503  1.00  0.00    -0.504 OA
ATOM     21  H   UNL     1      40.662 -93.423  41.469  1.00  0.00     0.293 HD
ENDBRANCH  17  20
ENDBRANCH   1  12
BRANCH   6  22
ATOM     22  O   UNL     1      41.461 -95.222  30.855  1.00  0.00    -0.507 OA
ATOM     23  H   UNL     1      41.569 -94.695  30.001  1.00  0.00     0.293 HD
ENDBRANCH   6  22
BRANCH   8  24
ATOM     24  O   UNL     1      36.772 -94.493  31.475  1.00  0.00    -0.508 OA
ATOM     25  H   UNL     1      36.142 -93.790  31.842  1.00  0.00     0.293 HD
ENDBRANCH   8  24
TORSDOF 5
ENDMDL
MODEL 7
REMARK VINA RESULT:    -5.513      9.861     11.088
REMARK INTER + INTRA:          -6.743
REMARK INTER:                  -6.427
REMARK INTRA:                  -0.316
REMARK UNBOUND:                -0.263
REMARK SMILES O=c1cc(-c2ccc(O)c(O)c2)oc2cc(O)cc(O)c12
REMARK SMILES IDX 4 1 3 2 2 3 1 4 21 5 19 6 18 7 16 8 15 9 14 10 13 11 5 12
REMARK SMILES IDX 6 13 7 14 8 15 12 16 10 17 9 18 11 20 20 22 17 24
REMARK H PARENT 9 19 11 21 20 23 17 25
REMARK Flexibility Score: inf
ROOT
ATOM      1  C   UNL     1      36.612 -95.222  29.231  1.00  0.00     0.138 A 
ATOM      2  C   UNL     1      37.725 -95.654  28.498  1.00  0.00     0.100 A 
ATOM      3  C   UNL     1      38.984 -95.672  29.101  1.00  0.00     0.197 A 
ATOM      4  O   UNL     1      39.953 -96.124  28.438  1.00  0.00    -0.289 OA
ATOM      5  C   UNL     1      39.132 -95.223  30.434  1.00  0.00     0.107 A 
ATOM      6  C   UNL     1      40.372 -95.158  31.138  1.00  0.00     0.134 A 
ATOM      7  C   UNL     1      40.380 -94.807  32.492  1.00  0.00     0.093 A 
ATOM      8  C   UNL     1      39.201 -94.461  33.154  1.00  0.00     0.123 A 
ATOM      9  C   UNL     1      37.989 -94.469  32.462  1.00  0.00     0.094 A 
ATOM     10  C   UNL     1      37.944 -94.849  31.118  1.00  0.00     0.146 A 
ATOM     11  O   UNL     1      36.769 -94.857  30.500  1.00  0.00    -0.456 OA
ENDROOT
BRANCH   1  12
ATOM     12  C   UNL     1      35.251 -95.182  28.639  1.00  0.00     0.021 A 
ATOM     13  C   UNL     1      35.092 -95.370  27.255  1.00  0.00     0.016 A 
ATOM     14  C   UNL     1      33.822 -95.343  26.675  1.00  0.00     0.051 A 
ATOM     15  C   UNL     1      32.687 -95.139  27.465  1.00  0.00     0.157 A 
ATOM     16  C   UNL     1      34.103 -94.990  29.434  1.00  0.00     0.062 A 
ATOM     17  C   UNL     1      32.827 -94.966  28.852  1.00  0.00     0.158 A 
BRANCH  15  18
ATOM     18  O   UNL     1      31.433 -95.117  26.858  1.00  0.00    -0.504 OA
ATOM     19  H   UNL     1      30.734 -95.828  27.039  1.00  0.00     0.293 HD
ENDBRANCH  15  18
BRANCH  17  20
ATOM     20  O   UNL     1      31.698 -94.773  29.647  1.00  0.00    -0.504 OA
ATOM     21  H   UNL     1      30.854 -94.352  29.277  1.00  0.00     0.293 HD
ENDBRANCH  17  20
ENDBRANCH   1  12
BRANCH   6  22
ATOM     22  O   UNL     1      41.617 -95.401  30.549  1.00  0.00    -0.507 OA
ATOM     23  H   UNL     1      42.088 -94.774  29.916  1.00  0.00     0.293 HD
ENDBRANCH   6  22
BRANCH   8  24
ATOM     24  O   UNL     1      39.249 -94.103  34.500  1.00  0.00    -0.508 OA
ATOM     25  H   UNL     1      40.010 -93.550  34.875  1.00  0.00     0.293 HD
ENDBRANCH   8  24
TORSDOF 5
ENDMDL
MODEL 8
REMARK VINA RESULT:    -5.504     10.059     11.516
REMARK INTER + INTRA:          -6.732
REMARK INTER:                  -6.420
REMARK INTRA:                  -0.312
REMARK UNBOUND:                -0.263
REMARK SMILES O=c1cc(-c2ccc(O)c(O)c2)oc2cc(O)cc(O)c12
REMARK SMILES IDX 4 1 3 2 2 3 1 4 21 5 19 6 18 7 16 8 15 9 14 10 13 11 5 12
REMARK SMILES IDX 6 13 7 14 8 15 12 16 10 17 9 18 11 20 20 22 17 24
REMARK H PARENT 9 19 11 21 20 23 17 25
REMARK Flexibility Score: inf
ROOT
ATOM      1  C   UNL     1      39.683 -95.280  31.210  1.00  0.00     0.138 A 
ATOM      2  C   UNL     1      40.150 -95.649  29.941  1.00  0.00     0.100 A 
ATOM      3  C   UNL     1      39.241 -95.834  28.899  1.00  0.00     0.197 A 
ATOM      4  O   UNL     1      39.694 -96.103  27.756  1.00  0.00    -0.289 OA
ATOM      5  C   UNL     1      37.855 -95.680  29.138  1.00  0.00     0.107 A 
ATOM      6  C   UNL     1      36.834 -95.883  28.161  1.00  0.00     0.134 A 
ATOM      7  C   UNL     1      35.504 -95.587  28.482  1.00  0.00     0.093 A 
ATOM      8  C   UNL     1      35.149 -95.154  29.760  1.00  0.00     0.123 A 
ATOM      9  C   UNL     1      36.133 -95.004  30.739  1.00  0.00     0.094 A 
ATOM     10  C   UNL     1      37.474 -95.257  30.439  1.00  0.00     0.146 A 
ATOM     11  O   UNL     1      38.381 -95.089  31.395  1.00  0.00    -0.456 OA
ENDROOT
BRANCH   1  12
ATOM     12  C   UNL     1      40.605 -95.072  32.354  1.00  0.00     0.021 A 
ATOM     13  C   UNL     1      41.896 -95.628  32.313  1.00  0.00     0.016 A 
ATOM     14  C   UNL     1      42.785 -95.440  33.375  1.00  0.00     0.051 A 
ATOM     15  C   UNL     1      42.407 -94.687  34.490  1.00  0.00     0.157 A 
ATOM     16  C   UNL     1      40.234 -94.302  33.475  1.00  0.00     0.062 A 
ATOM     17  C   UNL     1      41.127 -94.112  34.540  1.00  0.00     0.158 A 
BRANCH  15  18
ATOM     18  O   UNL     1      43.316 -94.518  35.534  1.00  0.00    -0.504 OA
ATOM     19  H   UNL     1      43.104 -94.800  36.483  1.00  0.00     0.293 HD
ENDBRANCH  15  18
BRANCH  17  20
ATOM     20  O   UNL     1      40.748 -93.351  35.644  1.00  0.00    -0.504 OA
ATOM     21  H   UNL     1      40.127 -93.719  36.355  1.00  0.00     0.293 HD
ENDBRANCH  17  20
ENDBRANCH   1  12
BRANCH   6  22
ATOM     22  O   UNL     1      37.068 -96.393  26.881  1.00  0.00    -0.507 OA
ATOM     23  H   UNL     1      36.536 -97.132  26.448  1.00  0.00     0.293 HD
ENDBRANCH   6  22
BRANCH   8  24
ATOM     24  O   UNL     1      33.813 -94.884  30.048  1.00  0.00    -0.508 OA
ATOM     25  H   UNL     1      33.155 -95.626  30.256  1.00  0.00     0.293 HD
ENDBRANCH   8  24
TORSDOF 5
ENDMDL
MODEL 9
REMARK VINA RESULT:    -5.412     15.018     16.402
REMARK INTER + INTRA:          -6.625
REMARK INTER:                  -6.310
REMARK INTRA:                  -0.315
REMARK UNBOUND:                -0.263
REMARK SMILES O=c1cc(-c2ccc(O)c(O)c2)oc2cc(O)cc(O)c12
REMARK SMILES IDX 4 1 3 2 2 3 1 4 21 5 19 6 18 7 16 8 15 9 14 10 13 11 5 12
REMARK SMILES IDX 6 13 7 14 8 15 12 16 10 17 9 18 11 20 20 22 17 24
REMARK H PARENT 9 19 11 21 20 23 17 25
REMARK Flexibility Score: inf
ROOT
ATOM      1  C   UNL     1      37.553 -77.814  37.446  1.00  0.00     0.138 A 
ATOM      2  C   UNL     1      38.697 -77.307  36.816  1.00  0.00     0.100 A 
ATOM      3  C   UNL     1      39.932 -77.389  37.460  1.00  0.00     0.197 A 
ATOM      4  O   UNL     1      40.951 -76.982  36.843  1.00  0.00    -0.289 OA
ATOM      5  C   UNL     1      40.015 -77.953  38.754  1.00  0.00     0.107 A 
ATOM      6  C   UNL     1      41.214 -78.053  39.523  1.00  0.00     0.134 A 
ATOM      7  C   UNL     1      41.195 -78.737  40.744  1.00  0.00     0.093 A 
ATOM      8  C   UNL     1      40.012 -79.272  41.253  1.00  0.00     0.123 A 
ATOM      9  C   UNL     1      38.823 -79.134  40.536  1.00  0.00     0.094 A 
ATOM     10  C   UNL     1      38.816 -78.487  39.297  1.00  0.00     0.146 A 
ATOM     11  O   UNL     1      37.666 -78.389  38.639  1.00  0.00    -0.456 OA
ENDROOT
BRANCH   1  12
ATOM     12  C   UNL     1      36.214 -77.751  36.808  1.00  0.00     0.021 A 
ATOM     13  C   UNL     1      36.114 -77.473  35.433  1.00  0.00     0.016 A 
ATOM     14  C   UNL     1      34.867 -77.415  34.807  1.00  0.00     0.051 A 
ATOM     15  C   UNL     1      33.697 -77.644  35.538  1.00  0.00     0.157 A 
ATOM     16  C   UNL     1      35.033 -77.995  37.537  1.00  0.00     0.062 A 
ATOM     17  C   UNL     1      33.780 -77.939  36.909  1.00  0.00     0.158 A 
BRANCH  15  18
ATOM     18  O   UNL     1      32.467 -77.579  34.887  1.00  0.00    -0.504 OA
ATOM     19  H   UNL     1      32.122 -76.722  34.471  1.00  0.00     0.293 HD
ENDBRANCH  15  18
BRANCH  17  20
ATOM     20  O   UNL     1      32.618 -78.179  37.641  1.00  0.00    -0.504 OA
ATOM     21  H   UNL     1      31.771 -78.514  37.197  1.00  0.00     0.293 HD
ENDBRANCH  17  20
ENDBRANCH   1  12
BRANCH   6  22
ATOM     22  O   UNL     1      42.432 -77.480  39.147  1.00  0.00    -0.507 OA
ATOM     23  H   UNL     1      42.670 -77.193  38.210  1.00  0.00     0.293 HD
ENDBRANCH   6  22
BRANCH   8  24
ATOM     24  O   UNL     1      40.029 -79.933  42.480  1.00  0.00    -0.508 OA
ATOM     25  H   UNL     1      40.871 -79.991  43.039  1.00  0.00     0.293 HD
ENDBRANCH   8  24
TORSDOF 5
ENDMDL
