MODEL 1
REMARK VINA RESULT:    -4.040      0.000      0.000
REMARK INTER + INTRA:          -5.036
REMARK INTER:                  -4.985
REMARK INTRA:                  -0.051
REMARK UNBOUND:                -0.051
REMARK SMILES CCCCCC(C)=O
REMARK SMILES IDX 4 1 3 2 2 3 1 4 5 5 6 6 8 7 7 8
REMARK H PARENT
REMARK Flexibility Score: inf
ROOT
ATOM      1  C   UNL     1      25.956  57.284  -9.061  1.00  0.00     0.008 C 
ENDROOT
BRANCH   1   2
ATOM      2  C   UNL     1      26.206  58.782  -9.313  1.00  0.00     0.000 C 
BRANCH   2   3
ATOM      3  C   UNL     1      27.428  59.032 -10.210  1.00  0.00    -0.003 C 
ATOM      4  C   UNL     1      27.946  60.467 -10.118  1.00  0.00     0.004 C 
ENDBRANCH   2   3
ENDBRANCH   1   2
BRANCH   1   5
ATOM      5  C   UNL     1      24.558  57.019  -8.484  1.00  0.00     0.075 C 
BRANCH   5   6
ATOM      6  C   UNL     1      24.442  55.635  -7.899  1.00  0.00     0.129 C 
ATOM      7  O   UNL     1      25.435  54.927  -7.819  1.00  0.00    -0.300 OA
ATOM      8  C   UNL     1      23.120  55.099  -7.439  1.00  0.00     0.087 C 
ENDBRANCH   5   6
ENDBRANCH   1   5
TORSDOF 4
ENDMDL
MODEL 2
REMARK VINA RESULT:    -3.957      1.894      5.022
REMARK INTER + INTRA:          -4.933
REMARK INTER:                  -4.864
REMARK INTRA:                  -0.069
REMARK UNBOUND:                -0.051
REMARK SMILES CCCCCC(C)=O
REMARK SMILES IDX 4 1 3 2 2 3 1 4 5 5 6 6 8 7 7 8
REMARK H PARENT
REMARK Flexibility Score: inf
ROOT
ATOM      1  C   UNL     1      25.821  56.856  -8.753  1.00  0.00     0.008 C 
ENDROOT
BRANCH   1   2
ATOM      2  C   UNL     1      24.534  56.012  -8.740  1.00  0.00     0.000 C 
BRANCH   2   3
ATOM      3  C   UNL     1      24.110  55.607  -7.320  1.00  0.00    -0.003 C 
ATOM      4  C   UNL     1      22.754  54.903  -7.285  1.00  0.00     0.004 C 
ENDBRANCH   2   3
ENDBRANCH   1   2
BRANCH   1   5
ATOM      5  C   UNL     1      25.533  58.350  -8.958  1.00  0.00     0.075 C 
BRANCH   5   6
ATOM      6  C   UNL     1      26.684  59.062  -9.620  1.00  0.00     0.129 C 
ATOM      7  O   UNL     1      27.274  58.526 -10.547  1.00  0.00    -0.300 OA
ATOM      8  C   UNL     1      27.139  60.407  -9.141  1.00  0.00     0.087 C 
ENDBRANCH   5   6
ENDBRANCH   1   5
TORSDOF 4
ENDMDL
MODEL 3
REMARK VINA RESULT:    -3.860      2.293      5.232
REMARK INTER + INTRA:          -4.814
REMARK INTER:                  -4.745
REMARK INTRA:                  -0.068
REMARK UNBOUND:                -0.051
REMARK SMILES CCCCCC(C)=O
REMARK SMILES IDX 4 1 3 2 2 3 1 4 5 5 6 6 8 7 7 8
REMARK H PARENT
REMARK Flexibility Score: inf
ROOT
ATOM      1  C   UNL     1      25.737  58.291  -9.011  1.00  0.00     0.008 C 
ENDROOT
BRANCH   1   2
ATOM      2  C   UNL     1      25.689  56.834  -8.519  1.00  0.00     0.000 C 
BRANCH   2   3
ATOM      3  C   UNL     1      24.351  56.149  -8.838  1.00  0.00    -0.003 C 
ATOM      4  C   UNL     1      23.788  55.367  -7.651  1.00  0.00     0.004 C 
ENDBRANCH   2   3
ENDBRANCH   1   2
BRANCH   1   5
ATOM      5  C   UNL     1      26.872  58.526 -10.018  1.00  0.00     0.075 C 
BRANCH   5   6
ATOM      6  C   UNL     1      27.672  59.760  -9.691  1.00  0.00     0.129 C 
ATOM      7  O   UNL     1      27.197  60.609  -8.950  1.00  0.00    -0.300 OA
ATOM      8  C   UNL     1      29.031  59.980 -10.284  1.00  0.00     0.087 C 
ENDBRANCH   5   6
ENDBRANCH   1   5
TORSDOF 4
ENDMDL
MODEL 4
REMARK VINA RESULT:    -3.621     16.691     18.333
REMARK INTER + INTRA:          -4.519
REMARK INTER:                  -4.271
REMARK INTRA:                  -0.247
REMARK UNBOUND:                -0.051
REMARK SMILES CCCCCC(C)=O
REMARK SMILES IDX 4 1 3 2 2 3 1 4 5 5 6 6 8 7 7 8
REMARK H PARENT
REMARK Flexibility Score: inf
ROOT
ATOM      1  C   UNL     1      17.032  43.731   1.223  1.00  0.00     0.008 C 
ENDROOT
BRANCH   1   2
ATOM      2  C   UNL     1      15.911  44.619   1.790  1.00  0.00     0.000 C 
BRANCH   2   3
ATOM      3  C   UNL     1      15.129  45.354   0.690  1.00  0.00    -0.003 C 
ATOM      4  C   UNL     1      15.949  45.559  -0.584  1.00  0.00     0.004 C 
ENDBRANCH   2   3
ENDBRANCH   1   2
BRANCH   1   5
ATOM      5  C   UNL     1      18.323  43.828   2.050  1.00  0.00     0.075 C 
BRANCH   5   6
ATOM      6  C   UNL     1      19.533  44.057   1.182  1.00  0.00     0.129 C 
ATOM      7  O   UNL     1      20.578  43.475   1.436  1.00  0.00    -0.300 OA
ATOM      8  C   UNL     1      19.486  45.011   0.026  1.00  0.00     0.087 C 
ENDBRANCH   5   6
ENDBRANCH   1   5
TORSDOF 4
ENDMDL
MODEL 5
REMARK VINA RESULT:    -3.560     17.244     18.322
REMARK INTER + INTRA:          -4.444
REMARK INTER:                  -4.256
REMARK INTRA:                  -0.188
REMARK UNBOUND:                -0.051
REMARK SMILES CCCCCC(C)=O
REMARK SMILES IDX 4 1 3 2 2 3 1 4 5 5 6 6 8 7 7 8
REMARK H PARENT
REMARK Flexibility Score: inf
ROOT
ATOM      1  C   UNL     1      17.034  43.633   1.239  1.00  0.00     0.008 C 
ENDROOT
BRANCH   1   2
ATOM      2  C   UNL     1      15.955  44.605   1.748  1.00  0.00     0.000 C 
BRANCH   2   3
ATOM      3  C   UNL     1      15.256  45.360   0.607  1.00  0.00    -0.003 C 
ATOM      4  C   UNL     1      16.163  45.573  -0.604  1.00  0.00     0.004 C 
ENDBRANCH   2   3
ENDBRANCH   1   2
BRANCH   1   5
ATOM      5  C   UNL     1      18.378  43.832   1.953  1.00  0.00     0.075 C 
BRANCH   5   6
ATOM      6  C   UNL     1      19.517  43.989   0.979  1.00  0.00     0.129 C 
ATOM      7  O   UNL     1      19.524  44.933   0.204  1.00  0.00    -0.300 OA
ATOM      8  C   UNL     1      20.630  42.986   0.925  1.00  0.00     0.087 C 
ENDBRANCH   5   6
ENDBRANCH   1   5
TORSDOF 4
ENDMDL
MODEL 6
REMARK VINA RESULT:    -3.492     16.568     18.842
REMARK INTER + INTRA:          -4.360
REMARK INTER:                  -3.981
REMARK INTRA:                  -0.380
REMARK UNBOUND:                -0.051
REMARK SMILES CCCCCC(C)=O
REMARK SMILES IDX 4 1 3 2 2 3 1 4 5 5 6 6 8 7 7 8
REMARK H PARENT
REMARK Flexibility Score: inf
ROOT
ATOM      1  C   UNL     1      17.297  43.658   1.696  1.00  0.00     0.008 C 
ENDROOT
BRANCH   1   2
ATOM      2  C   UNL     1      17.047  42.218   1.213  1.00  0.00     0.000 C 
BRANCH   2   3
ATOM      3  C   UNL     1      16.772  42.142  -0.297  1.00  0.00    -0.003 C 
ATOM      4  C   UNL     1      17.920  41.502  -1.076  1.00  0.00     0.004 C 
ENDBRANCH   2   3
ENDBRANCH   1   2
BRANCH   1   5
ATOM      5  C   UNL     1      18.753  43.879   2.130  1.00  0.00     0.075 C 
BRANCH   5   6
ATOM      6  C   UNL     1      19.677  44.031   0.950  1.00  0.00     0.129 C 
ATOM      7  O   UNL     1      20.641  43.287   0.837  1.00  0.00    -0.300 OA
ATOM      8  C   UNL     1      19.452  45.101  -0.075  1.00  0.00     0.087 C 
ENDBRANCH   5   6
ENDBRANCH   1   5
TORSDOF 4
ENDMDL
MODEL 7
REMARK VINA RESULT:    -3.475     16.909     17.987
REMARK INTER + INTRA:          -4.339
REMARK INTER:                  -4.093
REMARK INTRA:                  -0.246
REMARK UNBOUND:                -0.051
REMARK SMILES CCCCCC(C)=O
REMARK SMILES IDX 4 1 3 2 2 3 1 4 5 5 6 6 8 7 7 8
REMARK H PARENT
REMARK Flexibility Score: inf
ROOT
ATOM      1  C   UNL     1      19.204  44.896  -0.080  1.00  0.00     0.008 C 
ENDROOT
BRANCH   1   2
ATOM      2  C   UNL     1      19.587  44.498   1.356  1.00  0.00     0.000 C 
BRANCH   2   3
ATOM      3  C   UNL     1      19.923  43.004   1.484  1.00  0.00    -0.003 C 
ATOM      4  C   UNL     1      20.991  42.550   0.489  1.00  0.00     0.004 C 
ENDBRANCH   2   3
ENDBRANCH   1   2
BRANCH   1   5
ATOM      5  C   UNL     1      17.748  45.372  -0.181  1.00  0.00     0.075 C 
BRANCH   5   6
ATOM      6  C   UNL     1      16.773  44.300   0.234  1.00  0.00     0.129 C 
ATOM      7  O   UNL     1      16.701  43.266  -0.412  1.00  0.00    -0.300 OA
ATOM      8  C   UNL     1      15.868  44.494   1.413  1.00  0.00     0.087 C 
ENDBRANCH   5   6
ENDBRANCH   1   5
TORSDOF 4
ENDMDL
MODEL 8
REMARK VINA RESULT:    -3.445     17.025     18.104
REMARK INTER + INTRA:          -4.302
REMARK INTER:                  -4.038
REMARK INTRA:                  -0.264
REMARK UNBOUND:                -0.051
REMARK SMILES CCCCCC(C)=O
REMARK SMILES IDX 4 1 3 2 2 3 1 4 5 5 6 6 8 7 7 8
REMARK H PARENT
REMARK Flexibility Score: inf
ROOT
ATOM      1  C   UNL     1      17.659  44.295  -0.065  1.00  0.00     0.008 C 
ENDROOT
BRANCH   1   2
ATOM      2  C   UNL     1      19.064  44.905   0.082  1.00  0.00     0.000 C 
BRANCH   2   3
ATOM      3  C   UNL     1      19.806  44.382   1.322  1.00  0.00    -0.003 C 
ATOM      4  C   UNL     1      19.296  43.019   1.787  1.00  0.00     0.004 C 
ENDBRANCH   2   3
ENDBRANCH   1   2
BRANCH   1   5
ATOM      5  C   UNL     1      16.597  45.357  -0.383  1.00  0.00     0.075 C 
BRANCH   5   6
ATOM      6  C   UNL     1      15.486  45.366   0.635  1.00  0.00     0.129 C 
ATOM      7  O   UNL     1      14.485  46.038   0.432  1.00  0.00    -0.300 OA
ATOM      8  C   UNL     1      15.600  44.586   1.910  1.00  0.00     0.087 C 
ENDBRANCH   5   6
ENDBRANCH   1   5
TORSDOF 4
ENDMDL
MODEL 9
REMARK VINA RESULT:    -3.407     16.989     18.186
REMARK INTER + INTRA:          -4.255
REMARK INTER:                  -3.922
REMARK INTRA:                  -0.333
REMARK UNBOUND:                -0.051
REMARK SMILES CCCCCC(C)=O
REMARK SMILES IDX 4 1 3 2 2 3 1 4 5 5 6 6 8 7 7 8
REMARK H PARENT
REMARK Flexibility Score: inf
ROOT
ATOM      1  C   UNL     1      17.828  44.997  -0.150  1.00  0.00     0.008 C 
ENDROOT
BRANCH   1   2
ATOM      2  C   UNL     1      19.340  44.952   0.132  1.00  0.00     0.000 C 
BRANCH   2   3
ATOM      3  C   UNL     1      19.677  44.180   1.417  1.00  0.00    -0.003 C 
ATOM      4  C   UNL     1      20.679  43.050   1.183  1.00  0.00     0.004 C 
ENDBRANCH   2   3
ENDBRANCH   1   2
BRANCH   1   5
ATOM      5  C   UNL     1      17.097  43.769   0.410  1.00  0.00     0.075 C 
BRANCH   5   6
ATOM      6  C   UNL     1      16.887  42.709  -0.640  1.00  0.00     0.129 C 
ATOM      7  O   UNL     1      15.846  42.690  -1.280  1.00  0.00    -0.300 OA
ATOM      8  C   UNL     1      17.925  41.657  -0.894  1.00  0.00     0.087 C 
ENDBRANCH   5   6
ENDBRANCH   1   5
TORSDOF 4
ENDMDL
