MODEL 1
REMARK VINA RESULT:    -5.938      0.000      0.000
REMARK INTER + INTRA:         -10.274
REMARK INTER:                  -8.888
REMARK INTRA:                  -1.386
REMARK UNBOUND:                -1.386
REMARK SMILES C=C(CC[C@@H](C(=O)[O-])[C@@H]1[C@H](O)C[C@@]2(C)C3=C(CC[C@@]12C)[C@]1(C)CC[C@@H](OC(C)=O)C(C)(C)[C@@H]1CC3)C(C)C
REMARK SMILES IDX 4 1 5 2 6 3 7 4 8 5 9 6 10 7 19 8 12 9 13 10 18 11 20 12
REMARK SMILES IDX 14 13 15 14 17 15 16 16 35 17 21 18 34 19 33 20 23 21 22 22
REMARK SMILES IDX 30 23 24 24 25 25 31 26 32 27 11 28 26 30 27 31 29 32 28 33
REMARK SMILES IDX 3 34 2 35 1 36 36 37 37 38 38 39
REMARK H PARENT 11 29
REMARK Flexibility Score: inf
ROOT
ATOM      1  C   UNL     1      24.166  12.537  28.940  1.00  0.00     0.014 C 
ENDROOT
BRANCH   1   2
ATOM      2  C   UNL     1      24.304  11.078  29.450  1.00  0.00     0.042 C 
BRANCH   2   3
ATOM      3  C   UNL     1      25.556  10.453  28.869  1.00  0.00     0.045 C 
ATOM      4  O   UNL     1      25.560   9.246  28.512  1.00  0.00    -0.550 OA
ATOM      5  O   UNL     1      26.702  11.215  28.673  1.00  0.00    -0.550 OA
ENDBRANCH   2   3
BRANCH   2   6
ATOM      6  C   UNL     1      24.201  11.014  31.020  1.00  0.00     0.033 C 
ATOM      7  C   UNL     1      25.484  10.760  31.806  1.00  0.00     0.119 C 
ATOM      8  C   UNL     1      23.102  10.104  31.678  1.00  0.00    -0.017 C 
ATOM      9  C   UNL     1      24.976  10.619  33.233  1.00  0.00     0.043 C 
ATOM     10  C   UNL     1      23.641   9.823  33.159  1.00  0.00    -0.003 C 
ATOM     11  C   UNL     1      21.762  10.890  31.713  1.00  0.00     0.012 C 
ATOM     12  C   UNL     1      22.876   8.805  30.852  1.00  0.00     0.013 C 
ATOM     13  C   UNL     1      23.959   8.329  33.451  1.00  0.00     0.017 C 
ATOM     14  C   UNL     1      22.661  10.252  34.280  1.00  0.00    -0.064 C 
ATOM     15  C   UNL     1      20.769  10.264  32.683  1.00  0.00     0.032 C 
ATOM     16  C   UNL     1      21.315  10.222  34.103  1.00  0.00    -0.064 C 
ATOM     17  C   UNL     1      23.194  10.636  35.631  1.00  0.00     0.032 C 
ATOM     18  C   UNL     1      20.342  10.130  35.316  1.00  0.00    -0.008 C 
ATOM     19  C   UNL     1      22.492   9.952  36.796  1.00  0.00     0.009 C 
ATOM     20  C   UNL     1      21.046   9.413  36.544  1.00  0.00     0.009 C 
ATOM     21  C   UNL     1      19.897  11.551  35.737  1.00  0.00     0.015 C 
ATOM     22  C   UNL     1      19.105   9.303  34.846  1.00  0.00     0.016 C 
ATOM     23  C   UNL     1      20.203   9.425  37.902  1.00  0.00     0.005 C 
ATOM     24  C   UNL     1      19.031  11.562  37.011  1.00  0.00     0.047 C 
ATOM     25  C   UNL     1      19.725  10.880  38.213  1.00  0.00     0.182 C 
ATOM     26  C   UNL     1      18.991   8.437  37.852  1.00  0.00     0.015 C 
ATOM     27  C   UNL     1      21.076   8.926  39.100  1.00  0.00     0.015 C 
BRANCH   7  28
ATOM     28  O   UNL     1      26.109   9.564  31.413  1.00  0.00    -0.393 OA
ATOM     29  H   UNL     1      26.689   9.284  32.166  1.00  0.00     0.210 HD
ENDBRANCH   7  28
BRANCH  25  30
ATOM     30  O   UNL     1      18.844  10.861  39.341  1.00  0.00    -0.462 OA
BRANCH  30  31
ATOM     31  C   UNL     1      19.082  11.558  40.531  1.00  0.00     0.302 C 
ATOM     32  O   UNL     1      19.279  12.804  40.527  1.00  0.00    -0.253 OA
ATOM     33  C   UNL     1      19.072  10.814  41.824  1.00  0.00     0.139 C 
ENDBRANCH  30  31
ENDBRANCH  25  30
ENDBRANCH   2   6
ENDBRANCH   1   2
BRANCH   1  34
ATOM     34  C   UNL     1      22.726  13.093  29.014  1.00  0.00     0.031 C 
BRANCH  34  35
ATOM     35  C   UNL     1      21.939  12.928  27.720  1.00  0.00    -0.075 C 
ATOM     36  C   UNL     1      22.598  12.640  26.581  1.00  0.00     0.008 C 
BRANCH  35  37
ATOM     37  C   UNL     1      20.414  12.897  27.721  1.00  0.00     0.008 C 
ATOM     38  C   UNL     1      19.855  12.062  28.877  1.00  0.00     0.012 C 
ATOM     39  C   UNL     1      19.878  12.396  26.374  1.00  0.00     0.012 C 
ENDBRANCH  35  37
ENDBRANCH  34  35
ENDBRANCH   1  34
TORSDOF 9
ENDMDL
MODEL 2
REMARK VINA RESULT:    -5.518      5.470      8.806
REMARK INTER + INTRA:          -9.645
REMARK INTER:                  -7.403
REMARK INTRA:                  -2.242
REMARK UNBOUND:                -1.386
REMARK SMILES C=C(CC[C@@H](C(=O)[O-])[C@@H]1[C@H](O)C[C@@]2(C)C3=C(CC[C@@]12C)[C@]1(C)CC[C@@H](OC(C)=O)C(C)(C)[C@@H]1CC3)C(C)C
REMARK SMILES IDX 4 1 5 2 6 3 7 4 8 5 9 6 10 7 19 8 12 9 13 10 18 11 20 12
REMARK SMILES IDX 14 13 15 14 17 15 16 16 35 17 21 18 34 19 33 20 23 21 22 22
REMARK SMILES IDX 30 23 24 24 25 25 31 26 32 27 11 28 26 30 27 31 29 32 28 33
REMARK SMILES IDX 3 34 2 35 1 36 36 37 37 38 38 39
REMARK H PARENT 11 29
REMARK Flexibility Score: inf
ROOT
ATOM      1  C   UNL     1      24.647   1.062  34.477  1.00  0.00     0.014 C 
ENDROOT
BRANCH   1   2
ATOM      2  C   UNL     1      25.891   1.990  34.513  1.00  0.00     0.042 C 
BRANCH   2   3
ATOM      3  C   UNL     1      26.799   1.669  33.342  1.00  0.00     0.045 C 
ATOM      4  O   UNL     1      28.034   1.510  33.518  1.00  0.00    -0.550 OA
ATOM      5  O   UNL     1      26.273   1.496  32.067  1.00  0.00    -0.550 OA
ENDBRANCH   2   3
BRANCH   2   6
ATOM      6  C   UNL     1      25.468   3.503  34.626  1.00  0.00     0.033 C 
ATOM      7  C   UNL     1      26.400   4.548  34.020  1.00  0.00     0.119 C 
ATOM      8  C   UNL     1      25.028   4.072  36.023  1.00  0.00    -0.017 C 
ATOM      9  C   UNL     1      25.752   5.857  34.447  1.00  0.00     0.043 C 
ATOM     10  C   UNL     1      25.244   5.653  35.903  1.00  0.00    -0.003 C 
ATOM     11  C   UNL     1      23.529   3.729  36.249  1.00  0.00     0.012 C 
ATOM     12  C   UNL     1      25.848   3.428  37.178  1.00  0.00     0.013 C 
ATOM     13  C   UNL     1      26.319   6.227  36.869  1.00  0.00     0.017 C 
ATOM     14  C   UNL     1      23.968   6.487  36.181  1.00  0.00    -0.064 C 
ATOM     15  C   UNL     1      22.921   4.577  37.358  1.00  0.00     0.032 C 
ATOM     16  C   UNL     1      23.012   6.064  37.048  1.00  0.00    -0.064 C 
ATOM     17  C   UNL     1      23.807   7.840  35.547  1.00  0.00     0.032 C 
ATOM     18  C   UNL     1      22.035   7.069  37.728  1.00  0.00    -0.008 C 
ATOM     19  C   UNL     1      23.406   8.941  36.519  1.00  0.00     0.009 C 
ATOM     20  C   UNL     1      22.702   8.504  37.845  1.00  0.00     0.009 C 
ATOM     21  C   UNL     1      20.733   7.174  36.899  1.00  0.00     0.015 C 
ATOM     22  C   UNL     1      21.717   6.505  39.148  1.00  0.00     0.016 C 
ATOM     23  C   UNL     1      21.725   9.659  38.363  1.00  0.00     0.005 C 
ATOM     24  C   UNL     1      19.760   8.243  37.431  1.00  0.00     0.047 C 
ATOM     25  C   UNL     1      20.404   9.645  37.527  1.00  0.00     0.182 C 
ATOM     26  C   UNL     1      21.420   9.532  39.892  1.00  0.00     0.015 C 
ATOM     27  C   UNL     1      22.394  11.063  38.204  1.00  0.00     0.015 C 
BRANCH   7  28
ATOM     28  O   UNL     1      27.694   4.470  34.562  1.00  0.00    -0.393 OA
ATOM     29  H   UNL     1      27.857   3.515  34.773  1.00  0.00     0.210 HD
ENDBRANCH   7  28
BRANCH  25  30
ATOM     30  O   UNL     1      19.473  10.574  38.093  1.00  0.00    -0.462 OA
BRANCH  30  31
ATOM     31  C   UNL     1      18.854  11.600  37.369  1.00  0.00     0.302 C 
ATOM     32  O   UNL     1      17.740  12.069  37.729  1.00  0.00    -0.253 OA
ATOM     33  C   UNL     1      19.542  12.162  36.171  1.00  0.00     0.139 C 
ENDBRANCH  30  31
ENDBRANCH  25  30
ENDBRANCH   2   6
ENDBRANCH   1   2
BRANCH   1  34
ATOM     34  C   UNL     1      24.795  -0.217  35.331  1.00  0.00     0.031 C 
BRANCH  34  35
ATOM     35  C   UNL     1      24.502  -0.002  36.810  1.00  0.00    -0.075 C 
ATOM     36  C   UNL     1      23.275   0.411  37.185  1.00  0.00     0.008 C 
BRANCH  35  37
ATOM     37  C   UNL     1      25.503  -0.419  37.883  1.00  0.00     0.008 C 
ATOM     38  C   UNL     1      25.254   0.300  39.213  1.00  0.00     0.012 C 
ATOM     39  C   UNL     1      26.942  -0.198  37.402  1.00  0.00     0.012 C 
ENDBRANCH  35  37
ENDBRANCH  34  35
ENDBRANCH   1  34
TORSDOF 9
ENDMDL
MODEL 3
REMARK VINA RESULT:    -5.477      6.177     10.384
REMARK INTER + INTRA:          -9.584
REMARK INTER:                  -7.334
REMARK INTRA:                  -2.250
REMARK UNBOUND:                -1.386
REMARK SMILES C=C(CC[C@@H](C(=O)[O-])[C@@H]1[C@H](O)C[C@@]2(C)C3=C(CC[C@@]12C)[C@]1(C)CC[C@@H](OC(C)=O)C(C)(C)[C@@H]1CC3)C(C)C
REMARK SMILES IDX 4 1 5 2 6 3 7 4 8 5 9 6 10 7 19 8 12 9 13 10 18 11 20 12
REMARK SMILES IDX 14 13 15 14 17 15 16 16 35 17 21 18 34 19 33 20 23 21 22 22
REMARK SMILES IDX 30 23 24 24 25 25 31 26 32 27 11 28 26 30 27 31 29 32 28 33
REMARK SMILES IDX 3 34 2 35 1 36 36 37 37 38 38 39
REMARK H PARENT 11 29
REMARK Flexibility Score: inf
ROOT
ATOM      1  C   UNL     1      19.524   7.950  39.012  1.00  0.00     0.014 C 
ENDROOT
BRANCH   1   2
ATOM      2  C   UNL     1      20.927   8.615  39.037  1.00  0.00     0.042 C 
BRANCH   2   3
ATOM      3  C   UNL     1      20.964   9.682  40.113  1.00  0.00     0.045 C 
ATOM      4  O   UNL     1      21.454  10.816  39.870  1.00  0.00    -0.550 OA
ATOM      5  O   UNL     1      20.412   9.443  41.366  1.00  0.00    -0.550 OA
ENDBRANCH   2   3
BRANCH   2   6
ATOM      6  C   UNL     1      22.066   7.533  39.141  1.00  0.00     0.033 C 
ATOM      7  C   UNL     1      23.300   7.878  39.970  1.00  0.00     0.119 C 
ATOM      8  C   UNL     1      22.601   6.857  37.827  1.00  0.00    -0.017 C 
ATOM      9  C   UNL     1      24.212   6.687  39.717  1.00  0.00     0.043 C 
ATOM     10  C   UNL     1      24.054   6.311  38.215  1.00  0.00    -0.003 C 
ATOM     11  C   UNL     1      21.650   5.688  37.447  1.00  0.00     0.012 C 
ATOM     12  C   UNL     1      22.621   7.865  36.642  1.00  0.00     0.013 C 
ATOM     13  C   UNL     1      25.219   6.978  37.430  1.00  0.00     0.017 C 
ATOM     14  C   UNL     1      24.238   4.789  37.988  1.00  0.00    -0.064 C 
ATOM     15  C   UNL     1      22.299   4.738  36.451  1.00  0.00     0.032 C 
ATOM     16  C   UNL     1      23.580   4.128  37.001  1.00  0.00    -0.064 C 
ATOM     17  C   UNL     1      25.229   4.024  38.820  1.00  0.00     0.032 C 
ATOM     18  C   UNL     1      24.120   2.785  36.428  1.00  0.00    -0.008 C 
ATOM     19  C   UNL     1      26.171   3.141  38.013  1.00  0.00     0.009 C 
ATOM     20  C   UNL     1      25.697   2.702  36.589  1.00  0.00     0.009 C 
ATOM     21  C   UNL     1      23.465   1.597  37.172  1.00  0.00     0.015 C 
ATOM     22  C   UNL     1      23.731   2.746  34.917  1.00  0.00     0.016 C 
ATOM     23  C   UNL     1      26.339   1.291  36.199  1.00  0.00     0.005 C 
ATOM     24  C   UNL     1      24.037   0.230  36.754  1.00  0.00     0.047 C 
ATOM     25  C   UNL     1      25.571   0.143  36.929  1.00  0.00     0.182 C 
ATOM     26  C   UNL     1      26.354   1.058  34.652  1.00  0.00     0.015 C 
ATOM     27  C   UNL     1      27.842   1.230  36.628  1.00  0.00     0.015 C 
BRANCH   7  28
ATOM     28  O   UNL     1      23.924   9.050  39.512  1.00  0.00    -0.393 OA
ATOM     29  H   UNL     1      24.668   9.241  40.140  1.00  0.00     0.210 HD
ENDBRANCH   7  28
BRANCH  25  30
ATOM     30  O   UNL     1      26.047  -1.122  36.458  1.00  0.00    -0.462 OA
BRANCH  30  31
ATOM     31  C   UNL     1      26.651  -2.084  37.276  1.00  0.00     0.302 C 
ATOM     32  O   UNL     1      27.013  -3.199  36.811  1.00  0.00    -0.253 OA
ATOM     33  C   UNL     1      26.896  -1.767  38.713  1.00  0.00     0.139 C 
ENDBRANCH  30  31
ENDBRANCH  25  30
ENDBRANCH   2   6
ENDBRANCH   1   2
BRANCH   1  34
ATOM     34  C   UNL     1      18.467   8.749  38.217  1.00  0.00     0.031 C 
BRANCH  34  35
ATOM     35  C   UNL     1      18.960   9.233  36.860  1.00  0.00    -0.075 C 
ATOM     36  C   UNL     1      19.062   8.354  35.844  1.00  0.00     0.008 C 
BRANCH  35  37
ATOM     37  C   UNL     1      19.163  10.718  36.576  1.00  0.00     0.008 C 
ATOM     38  C   UNL     1      20.617  11.044  36.221  1.00  0.00     0.012 C 
ATOM     39  C   UNL     1      18.684  11.569  37.759  1.00  0.00     0.012 C 
ENDBRANCH  35  37
ENDBRANCH  34  35
ENDBRANCH   1  34
TORSDOF 9
ENDMDL
MODEL 4
REMARK VINA RESULT:    -5.467      4.611      8.718
REMARK INTER + INTRA:          -9.569
REMARK INTER:                  -8.221
REMARK INTRA:                  -1.348
REMARK UNBOUND:                -1.386
REMARK SMILES C=C(CC[C@@H](C(=O)[O-])[C@@H]1[C@H](O)C[C@@]2(C)C3=C(CC[C@@]12C)[C@]1(C)CC[C@@H](OC(C)=O)C(C)(C)[C@@H]1CC3)C(C)C
REMARK SMILES IDX 4 1 5 2 6 3 7 4 8 5 9 6 10 7 19 8 12 9 13 10 18 11 20 12
REMARK SMILES IDX 14 13 15 14 17 15 16 16 35 17 21 18 34 19 33 20 23 21 22 22
REMARK SMILES IDX 30 23 24 24 25 25 31 26 32 27 11 28 26 30 27 31 29 32 28 33
REMARK SMILES IDX 3 34 2 35 1 36 36 37 37 38 38 39
REMARK H PARENT 11 29
REMARK Flexibility Score: inf
ROOT
ATOM      1  C   UNL     1      19.938  11.635  35.542  1.00  0.00     0.014 C 
ENDROOT
BRANCH   1   2
ATOM      2  C   UNL     1      20.260  11.114  36.968  1.00  0.00     0.042 C 
BRANCH   2   3
ATOM      3  C   UNL     1      19.230  11.642  37.947  1.00  0.00     0.045 C 
ATOM      4  O   UNL     1      19.561  11.937  39.125  1.00  0.00    -0.550 OA
ATOM      5  O   UNL     1      17.917  11.857  37.544  1.00  0.00    -0.550 OA
ENDBRANCH   2   3
BRANCH   2   6
ATOM      6  C   UNL     1      20.436   9.549  36.976  1.00  0.00     0.033 C 
ATOM      7  C   UNL     1      19.274   8.706  37.491  1.00  0.00     0.119 C 
ATOM      8  C   UNL     1      21.735   8.928  37.605  1.00  0.00    -0.017 C 
ATOM      9  C   UNL     1      19.856   7.300  37.485  1.00  0.00     0.043 C 
ATOM     10  C   UNL     1      21.331   7.423  37.967  1.00  0.00    -0.003 C 
ATOM     11  C   UNL     1      22.867   8.960  36.540  1.00  0.00     0.012 C 
ATOM     12  C   UNL     1      22.212   9.748  38.839  1.00  0.00     0.013 C 
ATOM     13  C   UNL     1      21.365   7.099  39.488  1.00  0.00     0.017 C 
ATOM     14  C   UNL     1      22.234   6.350  37.308  1.00  0.00    -0.064 C 
ATOM     15  C   UNL     1      24.011   8.027  36.910  1.00  0.00     0.032 C 
ATOM     16  C   UNL     1      23.545   6.585  37.043  1.00  0.00    -0.064 C 
ATOM     17  C   UNL     1      21.683   4.982  37.023  1.00  0.00     0.032 C 
ATOM     18  C   UNL     1      24.561   5.414  36.891  1.00  0.00    -0.008 C 
ATOM     19  C   UNL     1      22.565   3.840  37.511  1.00  0.00     0.009 C 
ATOM     20  C   UNL     1      24.084   4.148  37.721  1.00  0.00     0.009 C 
ATOM     21  C   UNL     1      24.696   5.028  35.399  1.00  0.00     0.015 C 
ATOM     22  C   UNL     1      25.932   5.927  37.433  1.00  0.00     0.016 C 
ATOM     23  C   UNL     1      24.956   2.828  37.494  1.00  0.00     0.005 C 
ATOM     24  C   UNL     1      25.587   3.793  35.169  1.00  0.00     0.047 C 
ATOM     25  C   UNL     1      25.110   2.555  35.963  1.00  0.00     0.182 C 
ATOM     26  C   UNL     1      26.354   2.918  38.188  1.00  0.00     0.015 C 
ATOM     27  C   UNL     1      24.263   1.588  38.148  1.00  0.00     0.015 C 
BRANCH   7  28
ATOM     28  O   UNL     1      18.916   9.058  38.803  1.00  0.00    -0.393 OA
ATOM     29  H   UNL     1      19.731   9.423  39.233  1.00  0.00     0.210 HD
ENDBRANCH   7  28
BRANCH  25  30
ATOM     30  O   UNL     1      26.017   1.466  35.762  1.00  0.00    -0.462 OA
BRANCH  30  31
ATOM     31  C   UNL     1      25.657   0.246  35.176  1.00  0.00     0.302 C 
ATOM     32  O   UNL     1      24.457  -0.003  34.879  1.00  0.00    -0.253 OA
ATOM     33  C   UNL     1      26.718  -0.757  34.874  1.00  0.00     0.139 C 
ENDBRANCH  30  31
ENDBRANCH  25  30
ENDBRANCH   2   6
ENDBRANCH   1   2
BRANCH   1  34
ATOM     34  C   UNL     1      19.513  10.528  34.552  1.00  0.00     0.031 C 
BRANCH  34  35
ATOM     35  C   UNL     1      20.386  10.453  33.306  1.00  0.00    -0.075 C 
ATOM     36  C   UNL     1      21.726  10.476  33.439  1.00  0.00     0.008 C 
BRANCH  35  37
ATOM     37  C   UNL     1      19.782  10.168  31.934  1.00  0.00     0.008 C 
ATOM     38  C   UNL     1      20.726  10.569  30.796  1.00  0.00     0.012 C 
ATOM     39  C   UNL     1      18.420  10.855  31.784  1.00  0.00     0.012 C 
ENDBRANCH  35  37
ENDBRANCH  34  35
ENDBRANCH   1  34
TORSDOF 9
ENDMDL
MODEL 5
REMARK VINA RESULT:    -5.457      6.075     10.110
REMARK INTER + INTRA:          -9.555
REMARK INTER:                  -8.214
REMARK INTRA:                  -1.341
REMARK UNBOUND:                -1.386
REMARK SMILES C=C(CC[C@@H](C(=O)[O-])[C@@H]1[C@H](O)C[C@@]2(C)C3=C(CC[C@@]12C)[C@]1(C)CC[C@@H](OC(C)=O)C(C)(C)[C@@H]1CC3)C(C)C
REMARK SMILES IDX 4 1 5 2 6 3 7 4 8 5 9 6 10 7 19 8 12 9 13 10 18 11 20 12
REMARK SMILES IDX 14 13 15 14 17 15 16 16 35 17 21 18 34 19 33 20 23 21 22 22
REMARK SMILES IDX 30 23 24 24 25 25 31 26 32 27 11 28 26 30 27 31 29 32 28 33
REMARK SMILES IDX 3 34 2 35 1 36 36 37 37 38 38 39
REMARK H PARENT 11 29
REMARK Flexibility Score: inf
ROOT
ATOM      1  C   UNL     1      19.340   7.801  36.196  1.00  0.00     0.014 C 
ENDROOT
BRANCH   1   2
ATOM      2  C   UNL     1      20.079   8.139  37.518  1.00  0.00     0.042 C 
BRANCH   2   3
ATOM      3  C   UNL     1      19.070   8.546  38.574  1.00  0.00     0.045 C 
ATOM      4  O   UNL     1      17.995   7.905  38.709  1.00  0.00    -0.550 OA
ATOM      5  O   UNL     1      19.339   9.598  39.442  1.00  0.00    -0.550 OA
ENDBRANCH   2   3
BRANCH   2   6
ATOM      6  C   UNL     1      21.046   6.972  37.944  1.00  0.00     0.033 C 
ATOM      7  C   UNL     1      21.611   6.998  39.361  1.00  0.00     0.119 C 
ATOM      8  C   UNL     1      22.248   6.594  37.005  1.00  0.00    -0.017 C 
ATOM      9  C   UNL     1      22.588   5.832  39.350  1.00  0.00     0.043 C 
ATOM     10  C   UNL     1      23.292   5.848  37.962  1.00  0.00    -0.003 C 
ATOM     11  C   UNL     1      21.729   5.639  35.895  1.00  0.00     0.012 C 
ATOM     12  C   UNL     1      22.843   7.855  36.314  1.00  0.00     0.013 C 
ATOM     13  C   UNL     1      24.651   6.586  38.124  1.00  0.00     0.017 C 
ATOM     14  C   UNL     1      23.664   4.418  37.497  1.00  0.00    -0.064 C 
ATOM     15  C   UNL     1      22.873   4.908  35.204  1.00  0.00     0.032 C 
ATOM     16  C   UNL     1      23.687   4.076  36.183  1.00  0.00    -0.064 C 
ATOM     17  C   UNL     1      24.093   3.392  38.508  1.00  0.00     0.032 C 
ATOM     18  C   UNL     1      24.535   2.873  35.676  1.00  0.00    -0.008 C 
ATOM     19  C   UNL     1      25.375   2.656  38.144  1.00  0.00     0.009 C 
ATOM     20  C   UNL     1      25.775   2.620  36.633  1.00  0.00     0.009 C 
ATOM     21  C   UNL     1      23.658   1.599  35.625  1.00  0.00     0.015 C 
ATOM     22  C   UNL     1      25.029   3.236  34.241  1.00  0.00     0.016 C 
ATOM     23  C   UNL     1      26.614   1.297  36.311  1.00  0.00     0.005 C 
ATOM     24  C   UNL     1      24.450   0.332  35.253  1.00  0.00     0.047 C 
ATOM     25  C   UNL     1      25.647   0.075  36.198  1.00  0.00     0.182 C 
ATOM     26  C   UNL     1      27.478   1.447  35.016  1.00  0.00     0.015 C 
ATOM     27  C   UNL     1      27.646   1.006  37.449  1.00  0.00     0.015 C 
BRANCH   7  28
ATOM     28  O   UNL     1      22.308   8.189  39.623  1.00  0.00    -0.393 OA
ATOM     29  H   UNL     1      22.101   8.810  38.879  1.00  0.00     0.210 HD
ENDBRANCH   7  28
BRANCH  25  30
ATOM     30  O   UNL     1      26.380  -1.073  35.758  1.00  0.00    -0.462 OA
BRANCH  30  31
ATOM     31  C   UNL     1      26.604  -2.208  36.547  1.00  0.00     0.302 C 
ATOM     32  O   UNL     1      26.424  -2.177  37.795  1.00  0.00    -0.253 OA
ATOM     33  C   UNL     1      27.032  -3.477  35.892  1.00  0.00     0.139 C 
ENDBRANCH  30  31
ENDBRANCH  25  30
ENDBRANCH   2   6
ENDBRANCH   1   2
BRANCH   1  34
ATOM     34  C   UNL     1      18.758   9.034  35.470  1.00  0.00     0.031 C 
BRANCH  34  35
ATOM     35  C   UNL     1      19.809  10.062  35.072  1.00  0.00    -0.075 C 
ATOM     36  C   UNL     1      20.153  10.184  33.775  1.00  0.00     0.008 C 
BRANCH  35  37
ATOM     37  C   UNL     1      20.342  11.078  36.077  1.00  0.00     0.008 C 
ATOM     38  C   UNL     1      19.457  12.325  36.161  1.00  0.00     0.012 C 
ATOM     39  C   UNL     1      21.793  11.456  35.753  1.00  0.00     0.012 C 
ENDBRANCH  35  37
ENDBRANCH  34  35
ENDBRANCH   1  34
TORSDOF 9
ENDMDL
MODEL 6
REMARK VINA RESULT:    -5.401      5.291      9.937
REMARK INTER + INTRA:          -9.471
REMARK INTER:                  -7.608
REMARK INTRA:                  -1.862
REMARK UNBOUND:                -1.386
REMARK SMILES C=C(CC[C@@H](C(=O)[O-])[C@@H]1[C@H](O)C[C@@]2(C)C3=C(CC[C@@]12C)[C@]1(C)CC[C@@H](OC(C)=O)C(C)(C)[C@@H]1CC3)C(C)C
REMARK SMILES IDX 4 1 5 2 6 3 7 4 8 5 9 6 10 7 19 8 12 9 13 10 18 11 20 12
REMARK SMILES IDX 14 13 15 14 17 15 16 16 35 17 21 18 34 19 33 20 23 21 22 22
REMARK SMILES IDX 30 23 24 24 25 25 31 26 32 27 11 28 26 30 27 31 29 32 28 33
REMARK SMILES IDX 3 34 2 35 1 36 36 37 37 38 38 39
REMARK H PARENT 11 29
REMARK Flexibility Score: inf
ROOT
ATOM      1  C   UNL     1      19.109  10.632  40.163  1.00  0.00     0.014 C 
ENDROOT
BRANCH   1   2
ATOM      2  C   UNL     1      20.415  10.457  40.983  1.00  0.00     0.042 C 
BRANCH   2   3
ATOM      3  C   UNL     1      20.137  10.734  42.448  1.00  0.00     0.045 C 
ATOM      4  O   UNL     1      20.927  11.441  43.125  1.00  0.00    -0.550 OA
ATOM      5  O   UNL     1      18.979  10.255  43.050  1.00  0.00    -0.550 OA
ENDBRANCH   2   3
BRANCH   2   6
ATOM      6  C   UNL     1      21.089   9.064  40.691  1.00  0.00     0.033 C 
ATOM      7  C   UNL     1      21.664   8.291  41.874  1.00  0.00     0.119 C 
ATOM      8  C   UNL     1      22.155   8.956  39.542  1.00  0.00    -0.017 C 
ATOM      9  C   UNL     1      22.340   7.108  41.198  1.00  0.00     0.043 C 
ATOM     10  C   UNL     1      23.008   7.651  39.902  1.00  0.00    -0.003 C 
ATOM     11  C   UNL     1      21.411   8.779  38.189  1.00  0.00     0.012 C 
ATOM     12  C   UNL     1      23.019  10.247  39.451  1.00  0.00     0.013 C 
ATOM     13  C   UNL     1      24.505   7.932  40.218  1.00  0.00     0.017 C 
ATOM     14  C   UNL     1      23.029   6.580  38.782  1.00  0.00    -0.064 C 
ATOM     15  C   UNL     1      22.342   8.262  37.101  1.00  0.00     0.032 C 
ATOM     16  C   UNL     1      22.953   6.918  37.469  1.00  0.00    -0.064 C 
ATOM     17  C   UNL     1      23.220   5.133  39.136  1.00  0.00     0.032 C 
ATOM     18  C   UNL     1      23.488   5.968  36.358  1.00  0.00    -0.008 C 
ATOM     19  C   UNL     1      24.289   4.426  38.313  1.00  0.00     0.009 C 
ATOM     20  C   UNL     1      24.648   5.044  36.923  1.00  0.00     0.009 C 
ATOM     21  C   UNL     1      22.336   5.080  35.830  1.00  0.00     0.015 C 
ATOM     22  C   UNL     1      24.032   6.872  35.208  1.00  0.00     0.016 C 
ATOM     23  C   UNL     1      25.149   3.905  35.920  1.00  0.00     0.005 C 
ATOM     24  C   UNL     1      22.804   4.020  34.814  1.00  0.00     0.047 C 
ATOM     25  C   UNL     1      23.921   3.108  35.372  1.00  0.00     0.182 C 
ATOM     26  C   UNL     1      26.006   4.486  34.748  1.00  0.00     0.015 C 
ATOM     27  C   UNL     1      26.100   2.902  36.652  1.00  0.00     0.015 C 
BRANCH   7  28
ATOM     28  O   UNL     1      22.624   9.043  42.571  1.00  0.00    -0.393 OA
ATOM     29  H   UNL     1      23.451   8.497  42.596  1.00  0.00     0.210 HD
ENDBRANCH   7  28
BRANCH  25  30
ATOM     30  O   UNL     1      24.359   2.195  34.360  1.00  0.00    -0.462 OA
BRANCH  30  31
ATOM     31  C   UNL     1      24.776   0.884  34.618  1.00  0.00     0.302 C 
ATOM     32  O   UNL     1      25.841   0.431  34.117  1.00  0.00    -0.253 OA
ATOM     33  C   UNL     1      23.959   0.025  35.523  1.00  0.00     0.139 C 
ENDBRANCH  30  31
ENDBRANCH  25  30
ENDBRANCH   2   6
ENDBRANCH   1   2
BRANCH   1  34
ATOM     34  C   UNL     1      19.175  11.763  39.113  1.00  0.00     0.031 C 
BRANCH  34  35
ATOM     35  C   UNL     1      19.090  11.269  37.675  1.00  0.00    -0.075 C 
ATOM     36  C   UNL     1      18.254  10.256  37.375  1.00  0.00     0.008 C 
BRANCH  35  37
ATOM     37  C   UNL     1      19.789  12.013  36.541  1.00  0.00     0.008 C 
ATOM     38  C   UNL     1      19.869  11.171  35.264  1.00  0.00     0.012 C 
ATOM     39  C   UNL     1      21.182  12.485  36.975  1.00  0.00     0.012 C 
ENDBRANCH  35  37
ENDBRANCH  34  35
ENDBRANCH   1  34
TORSDOF 9
ENDMDL
MODEL 7
REMARK VINA RESULT:    -5.337      5.185      9.555
REMARK INTER + INTRA:          -9.374
REMARK INTER:                  -7.146
REMARK INTRA:                  -2.228
REMARK UNBOUND:                -1.386
REMARK SMILES C=C(CC[C@@H](C(=O)[O-])[C@@H]1[C@H](O)C[C@@]2(C)C3=C(CC[C@@]12C)[C@]1(C)CC[C@@H](OC(C)=O)C(C)(C)[C@@H]1CC3)C(C)C
REMARK SMILES IDX 4 1 5 2 6 3 7 4 8 5 9 6 10 7 19 8 12 9 13 10 18 11 20 12
REMARK SMILES IDX 14 13 15 14 17 15 16 16 35 17 21 18 34 19 33 20 23 21 22 22
REMARK SMILES IDX 30 23 24 24 25 25 31 26 32 27 11 28 26 30 27 31 29 32 28 33
REMARK SMILES IDX 3 34 2 35 1 36 36 37 37 38 38 39
REMARK H PARENT 11 29
REMARK Flexibility Score: inf
ROOT
ATOM      1  C   UNL     1      21.126  12.521  38.443  1.00  0.00     0.014 C 
ENDROOT
BRANCH   1   2
ATOM      2  C   UNL     1      20.998  11.468  39.576  1.00  0.00     0.042 C 
BRANCH   2   3
ATOM      3  C   UNL     1      19.803  11.801  40.447  1.00  0.00     0.045 C 
ATOM      4  O   UNL     1      18.767  12.307  39.942  1.00  0.00    -0.550 OA
ATOM      5  O   UNL     1      19.814  11.506  41.805  1.00  0.00    -0.550 OA
ENDBRANCH   2   3
BRANCH   2   6
ATOM      6  C   UNL     1      21.004  10.005  38.994  1.00  0.00     0.033 C 
ATOM      7  C   UNL     1      19.676   9.254  38.944  1.00  0.00     0.119 C 
ATOM      8  C   UNL     1      22.065   8.974  39.525  1.00  0.00    -0.017 C 
ATOM      9  C   UNL     1      20.096   7.869  38.478  1.00  0.00     0.043 C 
ATOM     10  C   UNL     1      21.437   7.539  39.196  1.00  0.00    -0.003 C 
ATOM     11  C   UNL     1      23.396   9.190  38.754  1.00  0.00     0.012 C 
ATOM     12  C   UNL     1      22.347   9.186  41.041  1.00  0.00     0.013 C 
ATOM     13  C   UNL     1      21.109   6.682  40.451  1.00  0.00     0.017 C 
ATOM     14  C   UNL     1      22.344   6.639  38.320  1.00  0.00    -0.064 C 
ATOM     15  C   UNL     1      24.330   7.996  38.902  1.00  0.00     0.032 C 
ATOM     16  C   UNL     1      23.698   6.715  38.381  1.00  0.00    -0.064 C 
ATOM     17  C   UNL     1      21.727   5.592  37.436  1.00  0.00     0.032 C 
ATOM     18  C   UNL     1      24.595   5.519  37.943  1.00  0.00    -0.008 C 
ATOM     19  C   UNL     1      22.359   4.213  37.568  1.00  0.00     0.009 C 
ATOM     20  C   UNL     1      23.821   4.145  38.120  1.00  0.00     0.009 C 
ATOM     21  C   UNL     1      25.007   5.688  36.462  1.00  0.00     0.015 C 
ATOM     22  C   UNL     1      25.862   5.543  38.854  1.00  0.00     0.016 C 
ATOM     23  C   UNL     1      24.578   2.866  37.533  1.00  0.00     0.005 C 
ATOM     24  C   UNL     1      25.793   4.485  35.908  1.00  0.00     0.047 C 
ATOM     25  C   UNL     1      25.030   3.149  36.064  1.00  0.00     0.182 C 
ATOM     26  C   UNL     1      25.796   2.443  38.419  1.00  0.00     0.015 C 
ATOM     27  C   UNL     1      23.635   1.618  37.528  1.00  0.00     0.015 C 
BRANCH   7  28
ATOM     28  O   UNL     1      19.083   9.160  40.214  1.00  0.00    -0.393 OA
ATOM     29  H   UNL     1      18.368   8.478  40.145  1.00  0.00     0.210 HD
ENDBRANCH   7  28
BRANCH  25  30
ATOM     30  O   UNL     1      25.839   2.065  35.597  1.00  0.00    -0.462 OA
BRANCH  30  31
ATOM     31  C   UNL     1      25.528   1.280  34.481  1.00  0.00     0.302 C 
ATOM     32  O   UNL     1      25.429   0.026  34.575  1.00  0.00    -0.253 OA
ATOM     33  C   UNL     1      25.279   1.945  33.170  1.00  0.00     0.139 C 
ENDBRANCH  30  31
ENDBRANCH  25  30
ENDBRANCH   2   6
ENDBRANCH   1   2
BRANCH   1  34
ATOM     34  C   UNL     1      21.623  11.941  37.100  1.00  0.00     0.031 C 
BRANCH  34  35
ATOM     35  C   UNL     1      20.499  11.542  36.153  1.00  0.00    -0.075 C 
ATOM     36  C   UNL     1      19.409  12.328  36.057  1.00  0.00     0.008 C 
BRANCH  35  37
ATOM     37  C   UNL     1      20.661  10.379  35.180  1.00  0.00     0.008 C 
ATOM     38  C   UNL     1      19.453   9.436  35.203  1.00  0.00     0.012 C 
ATOM     39  C   UNL     1      21.959   9.612  35.458  1.00  0.00     0.012 C 
ENDBRANCH  35  37
ENDBRANCH  34  35
ENDBRANCH   1  34
TORSDOF 9
ENDMDL
MODEL 8
REMARK VINA RESULT:    -5.276      6.416      8.504
REMARK INTER + INTRA:          -9.283
REMARK INTER:                  -7.444
REMARK INTRA:                  -1.839
REMARK UNBOUND:                -1.386
REMARK SMILES C=C(CC[C@@H](C(=O)[O-])[C@@H]1[C@H](O)C[C@@]2(C)C3=C(CC[C@@]12C)[C@]1(C)CC[C@@H](OC(C)=O)C(C)(C)[C@@H]1CC3)C(C)C
REMARK SMILES IDX 4 1 5 2 6 3 7 4 8 5 9 6 10 7 19 8 12 9 13 10 18 11 20 12
REMARK SMILES IDX 14 13 15 14 17 15 16 16 35 17 21 18 34 19 33 20 23 21 22 22
REMARK SMILES IDX 30 23 24 24 25 25 31 26 32 27 11 28 26 30 27 31 29 32 28 33
REMARK SMILES IDX 3 34 2 35 1 36 36 37 37 38 38 39
REMARK H PARENT 11 29
REMARK Flexibility Score: inf
ROOT
ATOM      1  C   UNL     1      23.988   2.517  34.812  1.00  0.00     0.014 C 
ENDROOT
BRANCH   1   2
ATOM      2  C   UNL     1      25.241   3.423  34.951  1.00  0.00     0.042 C 
BRANCH   2   3
ATOM      3  C   UNL     1      25.952   3.515  33.615  1.00  0.00     0.045 C 
ATOM      4  O   UNL     1      27.207   3.450  33.556  1.00  0.00    -0.550 OA
ATOM      5  O   UNL     1      25.227   3.619  32.434  1.00  0.00    -0.550 OA
ENDBRANCH   2   3
BRANCH   2   6
ATOM      6  C   UNL     1      24.871   4.809  35.599  1.00  0.00     0.033 C 
ATOM      7  C   UNL     1      25.841   5.969  35.397  1.00  0.00     0.119 C 
ATOM      8  C   UNL     1      24.445   4.858  37.111  1.00  0.00    -0.017 C 
ATOM      9  C   UNL     1      25.237   7.062  36.267  1.00  0.00     0.043 C 
ATOM     10  C   UNL     1      24.717   6.370  37.560  1.00  0.00    -0.003 C 
ATOM     11  C   UNL     1      22.935   4.509  37.213  1.00  0.00     0.012 C 
ATOM     12  C   UNL     1      25.237   3.817  37.954  1.00  0.00     0.013 C 
ATOM     13  C   UNL     1      25.808   6.526  38.657  1.00  0.00     0.017 C 
ATOM     14  C   UNL     1      23.470   7.094  38.128  1.00  0.00    -0.064 C 
ATOM     15  C   UNL     1      22.352   4.927  38.556  1.00  0.00     0.032 C 
ATOM     16  C   UNL     1      22.496   6.422  38.796  1.00  0.00    -0.064 C 
ATOM     17  C   UNL     1      23.359   8.588  38.018  1.00  0.00     0.032 C 
ATOM     18  C   UNL     1      21.552   7.152  39.797  1.00  0.00    -0.008 C 
ATOM     19  C   UNL     1      22.993   9.284  39.323  1.00  0.00     0.009 C 
ATOM     20  C   UNL     1      22.268   8.427  40.412  1.00  0.00     0.009 C 
ATOM     21  C   UNL     1      20.258   7.590  39.071  1.00  0.00     0.015 C 
ATOM     22  C   UNL     1      21.209   6.131  40.926  1.00  0.00     0.016 C 
ATOM     23  C   UNL     1      21.330   9.355  41.315  1.00  0.00     0.005 C 
ATOM     24  C   UNL     1      19.321   8.432  39.957  1.00  0.00     0.047 C 
ATOM     25  C   UNL     1      20.013   9.685  40.541  1.00  0.00     0.182 C 
ATOM     26  C   UNL     1      21.015   8.702  42.701  1.00  0.00     0.015 C 
ATOM     27  C   UNL     1      22.050  10.700  41.661  1.00  0.00     0.015 C 
BRANCH   7  28
ATOM     28  O   UNL     1      27.129   5.659  35.863  1.00  0.00    -0.393 OA
ATOM     29  H   UNL     1      27.367   4.777  35.480  1.00  0.00     0.210 HD
ENDBRANCH   7  28
BRANCH  25  30
ATOM     30  O   UNL     1      19.114  10.382  41.409  1.00  0.00    -0.462 OA
BRANCH  30  31
ATOM     31  C   UNL     1      18.773  11.732  41.260  1.00  0.00     0.302 C 
ATOM     32  O   UNL     1      18.751  12.276  40.122  1.00  0.00    -0.253 OA
ATOM     33  C   UNL     1      18.402  12.526  42.466  1.00  0.00     0.139 C 
ENDBRANCH  30  31
ENDBRANCH  25  30
ENDBRANCH   2   6
ENDBRANCH   1   2
BRANCH   1  34
ATOM     34  C   UNL     1      24.291   1.006  34.919  1.00  0.00     0.031 C 
BRANCH  34  35
ATOM     35  C   UNL     1      24.368   0.498  36.352  1.00  0.00    -0.075 C 
ATOM     36  C   UNL     1      23.339   0.733  37.190  1.00  0.00     0.008 C 
BRANCH  35  37
ATOM     37  C   UNL     1      25.494  -0.426  36.804  1.00  0.00     0.008 C 
ATOM     38  C   UNL     1      26.572   0.323  37.593  1.00  0.00     0.012 C 
ATOM     39  C   UNL     1      26.106  -1.166  35.608  1.00  0.00     0.012 C 
ENDBRANCH  35  37
ENDBRANCH  34  35
ENDBRANCH   1  34
TORSDOF 9
ENDMDL
MODEL 9
REMARK VINA RESULT:    -5.224      1.928      9.921
REMARK INTER + INTRA:          -9.206
REMARK INTER:                  -7.097
REMARK INTRA:                  -2.108
REMARK UNBOUND:                -1.386
REMARK SMILES C=C(CC[C@@H](C(=O)[O-])[C@@H]1[C@H](O)C[C@@]2(C)C3=C(CC[C@@]12C)[C@]1(C)CC[C@@H](OC(C)=O)C(C)(C)[C@@H]1CC3)C(C)C
REMARK SMILES IDX 4 1 5 2 6 3 7 4 8 5 9 6 10 7 19 8 12 9 13 10 18 11 20 12
REMARK SMILES IDX 14 13 15 14 17 15 16 16 35 17 21 18 34 19 33 20 23 21 22 22
REMARK SMILES IDX 30 23 24 24 25 25 31 26 32 27 11 28 26 30 27 31 29 32 28 33
REMARK SMILES IDX 3 34 2 35 1 36 36 37 37 38 38 39
REMARK H PARENT 11 29
REMARK Flexibility Score: inf
ROOT
ATOM      1  C   UNL     1      19.418   8.270  40.110  1.00  0.00     0.014 C 
ENDROOT
BRANCH   1   2
ATOM      2  C   UNL     1      19.373   9.807  39.895  1.00  0.00     0.042 C 
BRANCH   2   3
ATOM      3  C   UNL     1      19.292  10.506  41.237  1.00  0.00     0.045 C 
ATOM      4  O   UNL     1      18.633  11.571  41.363  1.00  0.00    -0.550 OA
ATOM      5  O   UNL     1      19.900   9.956  42.359  1.00  0.00    -0.550 OA
ENDBRANCH   2   3
BRANCH   2   6
ATOM      6  C   UNL     1      20.554  10.286  38.970  1.00  0.00     0.033 C 
ATOM      7  C   UNL     1      21.501  11.348  39.521  1.00  0.00     0.119 C 
ATOM      8  C   UNL     1      20.243  10.708  37.489  1.00  0.00    -0.017 C 
ATOM      9  C   UNL     1      22.389  11.652  38.324  1.00  0.00     0.043 C 
ATOM     10  C   UNL     1      21.470  11.646  37.068  1.00  0.00    -0.003 C 
ATOM     11  C   UNL     1      20.192   9.429  36.608  1.00  0.00     0.012 C 
ATOM     12  C   UNL     1      18.863  11.420  37.383  1.00  0.00     0.013 C 
ATOM     13  C   UNL     1      21.073  13.118  36.759  1.00  0.00     0.017 C 
ATOM     14  C   UNL     1      22.232  11.163  35.809  1.00  0.00    -0.064 C 
ATOM     15  C   UNL     1      20.307   9.763  35.127  1.00  0.00     0.032 C 
ATOM     16  C   UNL     1      21.606  10.489  34.809  1.00  0.00    -0.064 C 
ATOM     17  C   UNL     1      23.683  11.511  35.635  1.00  0.00     0.032 C 
ATOM     18  C   UNL     1      22.186  10.466  33.364  1.00  0.00    -0.008 C 
ATOM     19  C   UNL     1      24.025  12.091  34.269  1.00  0.00     0.009 C 
ATOM     20  C   UNL     1      23.053  11.766  33.088  1.00  0.00     0.009 C 
ATOM     21  C   UNL     1      23.069   9.210  33.176  1.00  0.00     0.015 C 
ATOM     22  C   UNL     1      20.970  10.412  32.387  1.00  0.00     0.016 C 
ATOM     23  C   UNL     1      23.845  11.763  31.700  1.00  0.00     0.005 C 
ATOM     24  C   UNL     1      23.786   9.171  31.813  1.00  0.00     0.047 C 
ATOM     25  C   UNL     1      24.646  10.429  31.553  1.00  0.00     0.182 C 
ATOM     26  C   UNL     1      22.893  11.981  30.478  1.00  0.00     0.015 C 
ATOM     27  C   UNL     1      24.855  12.955  31.637  1.00  0.00     0.015 C 
BRANCH   7  28
ATOM     28  O   UNL     1      20.814  12.513  39.901  1.00  0.00    -0.393 OA
ATOM     29  H   UNL     1      20.570  12.986  39.065  1.00  0.00     0.210 HD
ENDBRANCH   7  28
BRANCH  25  30
ATOM     30  O   UNL     1      25.226  10.365  30.246  1.00  0.00    -0.462 OA
BRANCH  30  31
ATOM     31  C   UNL     1      26.553   9.996  29.997  1.00  0.00     0.302 C 
ATOM     32  O   UNL     1      26.874   9.400  28.932  1.00  0.00    -0.253 OA
ATOM     33  C   UNL     1      27.605  10.342  30.996  1.00  0.00     0.139 C 
ENDBRANCH  30  31
ENDBRANCH  25  30
ENDBRANCH   2   6
ENDBRANCH   1   2
BRANCH   1  34
ATOM     34  C   UNL     1      20.629   7.580  39.444  1.00  0.00     0.031 C 
BRANCH  34  35
ATOM     35  C   UNL     1      21.656   7.053  40.437  1.00  0.00    -0.075 C 
ATOM     36  C   UNL     1      21.384   5.934  41.135  1.00  0.00     0.008 C 
BRANCH  35  37
ATOM     37  C   UNL     1      23.055   7.657  40.523  1.00  0.00     0.008 C 
ATOM     38  C   UNL     1      23.134   8.781  41.561  1.00  0.00     0.012 C 
ATOM     39  C   UNL     1      23.522   8.149  39.147  1.00  0.00     0.012 C 
ENDBRANCH  35  37
ENDBRANCH  34  35
ENDBRANCH   1  34
TORSDOF 9
ENDMDL
