MODEL 1
REMARK VINA RESULT:    -8.230      0.000      0.000
REMARK INTER + INTRA:          -9.621
REMARK INTER:                  -9.914
REMARK INTRA:                   0.293
REMARK UNBOUND:                 0.293
REMARK SMILES O=c1c(O)c(-c2ccc(O)c(O)c2)oc2cc(O)cc(O)c12
REMARK SMILES IDX 5 1 3 2 2 3 1 4 22 5 20 6 19 7 17 8 16 9 15 10 14 11 6 12
REMARK SMILES IDX 7 13 8 14 9 15 13 16 11 17 10 18 12 20 4 22 21 24 18 26
REMARK H PARENT 10 19 12 21 4 23 21 25 18 27
REMARK Flexibility Score: inf
ROOT
ATOM      1  C   UNL     1      83.134  63.604   8.983  1.00  0.00     0.180 A 
ATOM      2  C   UNL     1      83.369  64.939   9.355  1.00  0.00     0.208 A 
ATOM      3  C   UNL     1      84.479  65.235  10.162  1.00  0.00     0.238 A 
ATOM      4  O   UNL     1      84.654  66.424  10.537  1.00  0.00    -0.285 OA
ATOM      5  C   UNL     1      85.350  64.197  10.572  1.00  0.00     0.111 A 
ATOM      6  C   UNL     1      86.527  64.387  11.356  1.00  0.00     0.134 A 
ATOM      7  C   UNL     1      87.242  63.274  11.813  1.00  0.00     0.093 A 
ATOM      8  C   UNL     1      86.858  61.978  11.459  1.00  0.00     0.123 A 
ATOM      9  C   UNL     1      85.745  61.784  10.644  1.00  0.00     0.094 A 
ATOM     10  C   UNL     1      84.991  62.874  10.203  1.00  0.00     0.146 A 
ATOM     11  O   UNL     1      83.932  62.645   9.437  1.00  0.00    -0.452 OA
ENDROOT
BRANCH   1  12
ATOM     12  C   UNL     1      81.999  63.217   8.114  1.00  0.00     0.025 A 
ATOM     13  C   UNL     1      80.808  63.961   8.093  1.00  0.00     0.016 A 
ATOM     14  C   UNL     1      79.761  63.591   7.248  1.00  0.00     0.051 A 
ATOM     15  C   UNL     1      79.883  62.484   6.400  1.00  0.00     0.157 A 
ATOM     16  C   UNL     1      82.133  62.120   7.249  1.00  0.00     0.062 A 
ATOM     17  C   UNL     1      81.087  61.741   6.398  1.00  0.00     0.158 A 
BRANCH  15  18
ATOM     18  O   UNL     1      78.796  62.164   5.584  1.00  0.00    -0.504 OA
ATOM     19  H   UNL     1      77.935  62.690   5.559  1.00  0.00     0.293 HD
ENDBRANCH  15  18
BRANCH  17  20
ATOM     20  O   UNL     1      81.286  60.630   5.574  1.00  0.00    -0.504 OA
ATOM     21  H   UNL     1      81.596  59.729   5.907  1.00  0.00     0.293 HD
ENDBRANCH  17  20
ENDBRANCH   1  12
BRANCH   2  22
ATOM     22  O   UNL     1      82.485  65.946   8.958  1.00  0.00    -0.502 OA
ATOM     23  H   UNL     1      82.800  66.806   8.525  1.00  0.00     0.293 HD
ENDBRANCH   2  22
BRANCH   6  24
ATOM     24  O   UNL     1      87.049  65.642  11.688  1.00  0.00    -0.507 OA
ATOM     25  H   UNL     1      87.878  66.046  11.280  1.00  0.00     0.293 HD
ENDBRANCH   6  24
BRANCH   8  26
ATOM     26  O   UNL     1      87.583  60.875  11.904  1.00  0.00    -0.508 OA
ATOM     27  H   UNL     1      88.163  60.333  11.274  1.00  0.00     0.293 HD
ENDBRANCH   8  26
TORSDOF 6
ENDMDL
MODEL 2
REMARK VINA RESULT:    -8.104      1.494      1.607
REMARK INTER + INTRA:          -9.469
REMARK INTER:                  -9.192
REMARK INTRA:                  -0.277
REMARK UNBOUND:                 0.293
REMARK SMILES O=c1c(O)c(-c2ccc(O)c(O)c2)oc2cc(O)cc(O)c12
REMARK SMILES IDX 5 1 3 2 2 3 1 4 22 5 20 6 19 7 17 8 16 9 15 10 14 11 6 12
REMARK SMILES IDX 7 13 8 14 9 15 13 16 11 17 10 18 12 20 4 22 21 24 18 26
REMARK H PARENT 10 19 12 21 4 23 21 25 18 27
REMARK Flexibility Score: inf
ROOT
ATOM      1  C   UNL     1      83.594  64.203   8.983  1.00  0.00     0.180 A 
ATOM      2  C   UNL     1      83.934  65.385   9.663  1.00  0.00     0.208 A 
ATOM      3  C   UNL     1      84.962  65.350  10.618  1.00  0.00     0.238 A 
ATOM      4  O   UNL     1      85.226  66.398  11.263  1.00  0.00    -0.285 OA
ATOM      5  C   UNL     1      85.649  64.137  10.869  1.00  0.00     0.111 A 
ATOM      6  C   UNL     1      86.734  63.995  11.786  1.00  0.00     0.134 A 
ATOM      7  C   UNL     1      87.252  62.722  12.051  1.00  0.00     0.093 A 
ATOM      8  C   UNL     1      86.768  61.594  11.384  1.00  0.00     0.123 A 
ATOM      9  C   UNL     1      85.749  61.731  10.443  1.00  0.00     0.094 A 
ATOM     10  C   UNL     1      85.187  62.983  10.184  1.00  0.00     0.146 A 
ATOM     11  O   UNL     1      84.212  63.069   9.289  1.00  0.00    -0.452 OA
ENDROOT
BRANCH   1  12
ATOM     12  C   UNL     1      82.538  64.167   7.946  1.00  0.00     0.025 A 
ATOM     13  C   UNL     1      81.254  63.672   8.226  1.00  0.00     0.016 A 
ATOM     14  C   UNL     1      80.268  63.670   7.239  1.00  0.00     0.051 A 
ATOM     15  C   UNL     1      80.535  64.172   5.960  1.00  0.00     0.157 A 
ATOM     16  C   UNL     1      82.803  64.691   6.672  1.00  0.00     0.062 A 
ATOM     17  C   UNL     1      81.819  64.694   5.674  1.00  0.00     0.158 A 
BRANCH  15  18
ATOM     18  O   UNL     1      79.507  64.137   5.017  1.00  0.00    -0.504 OA
ATOM     19  H   UNL     1      78.593  63.746   5.193  1.00  0.00     0.293 HD
ENDBRANCH  15  18
BRANCH  17  20
ATOM     20  O   UNL     1      82.158  65.220   4.425  1.00  0.00    -0.504 OA
ATOM     21  H   UNL     1      81.484  65.537   3.744  1.00  0.00     0.293 HD
ENDBRANCH  17  20
ENDBRANCH   1  12
BRANCH   2  22
ATOM     22  O   UNL     1      83.228  66.566   9.416  1.00  0.00    -0.502 OA
ATOM     23  H   UNL     1      83.580  67.476   9.688  1.00  0.00     0.293 HD
ENDBRANCH   2  22
BRANCH   6  24
ATOM     24  O   UNL     1      87.352  65.068  12.436  1.00  0.00    -0.507 OA
ATOM     25  H   UNL     1      88.256  65.444  12.192  1.00  0.00     0.293 HD
ENDBRANCH   6  24
BRANCH   8  26
ATOM     26  O   UNL     1      87.300  60.333  11.641  1.00  0.00    -0.508 OA
ATOM     27  H   UNL     1      88.158  60.020  11.203  1.00  0.00     0.293 HD
ENDBRANCH   8  26
TORSDOF 6
ENDMDL
MODEL 3
REMARK VINA RESULT:    -7.906      6.997     10.439
REMARK INTER + INTRA:          -9.231
REMARK INTER:                  -9.129
REMARK INTRA:                  -0.102
REMARK UNBOUND:                 0.293
REMARK SMILES O=c1c(O)c(-c2ccc(O)c(O)c2)oc2cc(O)cc(O)c12
REMARK SMILES IDX 5 1 3 2 2 3 1 4 22 5 20 6 19 7 17 8 16 9 15 10 14 11 6 12
REMARK SMILES IDX 7 13 8 14 9 15 13 16 11 17 10 18 12 20 4 22 21 24 18 26
REMARK H PARENT 10 19 12 21 4 23 21 25 18 27
REMARK Flexibility Score: inf
ROOT
ATOM      1  C   UNL     1      75.834  62.175   1.954  1.00  0.00     0.180 A 
ATOM      2  C   UNL     1      76.300  63.229   1.149  1.00  0.00     0.208 A 
ATOM      3  C   UNL     1      77.624  63.671   1.305  1.00  0.00     0.238 A 
ATOM      4  O   UNL     1      78.019  64.650   0.621  1.00  0.00    -0.285 OA
ATOM      5  C   UNL     1      78.469  63.042   2.251  1.00  0.00     0.111 A 
ATOM      6  C   UNL     1      79.840  63.380   2.465  1.00  0.00     0.134 A 
ATOM      7  C   UNL     1      80.543  62.781   3.516  1.00  0.00     0.093 A 
ATOM      8  C   UNL     1      79.945  61.809   4.322  1.00  0.00     0.123 A 
ATOM      9  C   UNL     1      78.626  61.428   4.083  1.00  0.00     0.094 A 
ATOM     10  C   UNL     1      77.887  62.034   3.064  1.00  0.00     0.146 A 
ATOM     11  O   UNL     1      76.631  61.651   2.877  1.00  0.00    -0.452 OA
ENDROOT
BRANCH   1  12
ATOM     12  C   UNL     1      74.458  61.639   1.830  1.00  0.00     0.025 A 
ATOM     13  C   UNL     1      73.552  61.698   2.901  1.00  0.00     0.016 A 
ATOM     14  C   UNL     1      72.254  61.208   2.754  1.00  0.00     0.051 A 
ATOM     15  C   UNL     1      71.829  60.664   1.537  1.00  0.00     0.157 A 
ATOM     16  C   UNL     1      74.029  61.114   0.602  1.00  0.00     0.062 A 
ATOM     17  C   UNL     1      72.728  60.620   0.444  1.00  0.00     0.158 A 
BRANCH  15  18
ATOM     18  O   UNL     1      70.519  60.187   1.456  1.00  0.00    -0.504 OA
ATOM     19  H   UNL     1      70.049  59.700   2.206  1.00  0.00     0.293 HD
ENDBRANCH  15  18
BRANCH  17  20
ATOM     20  O   UNL     1      72.374  60.100  -0.803  1.00  0.00    -0.504 OA
ATOM     21  H   UNL     1      73.018  59.627  -1.420  1.00  0.00     0.293 HD
ENDBRANCH  17  20
ENDBRANCH   1  12
BRANCH   2  22
ATOM     22  O   UNL     1      75.442  63.851   0.237  1.00  0.00    -0.502 OA
ATOM     23  H   UNL     1      74.824  64.608   0.503  1.00  0.00     0.293 HD
ENDBRANCH   2  22
BRANCH   6  24
ATOM     24  O   UNL     1      80.558  64.270   1.661  1.00  0.00    -0.507 OA
ATOM     25  H   UNL     1      80.895  64.063   0.733  1.00  0.00     0.293 HD
ENDBRANCH   6  24
BRANCH   8  26
ATOM     26  O   UNL     1      80.656  61.206   5.356  1.00  0.00    -0.508 OA
ATOM     27  H   UNL     1      81.535  61.587   5.687  1.00  0.00     0.293 HD
ENDBRANCH   8  26
TORSDOF 6
ENDMDL
MODEL 4
REMARK VINA RESULT:    -7.776      5.893     12.026
REMARK INTER + INTRA:          -9.073
REMARK INTER:                  -9.406
REMARK INTRA:                   0.333
REMARK UNBOUND:                 0.293
REMARK SMILES O=c1c(O)c(-c2ccc(O)c(O)c2)oc2cc(O)cc(O)c12
REMARK SMILES IDX 5 1 3 2 2 3 1 4 22 5 20 6 19 7 17 8 16 9 15 10 14 11 6 12
REMARK SMILES IDX 7 13 8 14 9 15 13 16 11 17 10 18 12 20 4 22 21 24 18 26
REMARK H PARENT 10 19 12 21 4 23 21 25 18 27
REMARK Flexibility Score: inf
ROOT
ATOM      1  C   UNL     1      76.978  61.341   2.923  1.00  0.00     0.180 A 
ATOM      2  C   UNL     1      77.271  61.105   1.569  1.00  0.00     0.208 A 
ATOM      3  C   UNL     1      76.211  60.955   0.660  1.00  0.00     0.238 A 
ATOM      4  O   UNL     1      76.478  60.689  -0.541  1.00  0.00    -0.285 OA
ATOM      5  C   UNL     1      74.874  61.062   1.113  1.00  0.00     0.111 A 
ATOM      6  C   UNL     1      73.724  60.968   0.273  1.00  0.00     0.134 A 
ATOM      7  C   UNL     1      72.448  60.958   0.848  1.00  0.00     0.093 A 
ATOM      8  C   UNL     1      72.277  61.103   2.227  1.00  0.00     0.123 A 
ATOM      9  C   UNL     1      73.392  61.255   3.049  1.00  0.00     0.094 A 
ATOM     10  C   UNL     1      74.680  61.232   2.508  1.00  0.00     0.146 A 
ATOM     11  O   UNL     1      75.714  61.370   3.327  1.00  0.00    -0.452 OA
ENDROOT
BRANCH   1  12
ATOM     12  C   UNL     1      78.042  61.533   3.937  1.00  0.00     0.025 A 
ATOM     13  C   UNL     1      79.327  60.998   3.758  1.00  0.00     0.016 A 
ATOM     14  C   UNL     1      80.320  61.213   4.715  1.00  0.00     0.051 A 
ATOM     15  C   UNL     1      80.057  61.973   5.860  1.00  0.00     0.157 A 
ATOM     16  C   UNL     1      77.780  62.315   5.073  1.00  0.00     0.062 A 
ATOM     17  C   UNL     1      78.770  62.535   6.039  1.00  0.00     0.158 A 
BRANCH  15  18
ATOM     18  O   UNL     1      81.091  62.146   6.781  1.00  0.00    -0.504 OA
ATOM     19  H   UNL     1      80.954  62.200   7.780  1.00  0.00     0.293 HD
ENDBRANCH  15  18
BRANCH  17  20
ATOM     20  O   UNL     1      78.435  63.312   7.151  1.00  0.00    -0.504 OA
ATOM     21  H   UNL     1      77.636  63.927   7.189  1.00  0.00     0.293 HD
ENDBRANCH  17  20
ENDBRANCH   1  12
BRANCH   2  22
ATOM     22  O   UNL     1      78.598  60.981   1.147  1.00  0.00    -0.502 OA
ATOM     23  H   UNL     1      78.871  61.078   0.177  1.00  0.00     0.293 HD
ENDBRANCH   2  22
BRANCH   6  24
ATOM     24  O   UNL     1      73.780  60.912  -1.123  1.00  0.00    -0.507 OA
ATOM     25  H   UNL     1      73.552  60.099  -1.676  1.00  0.00     0.293 HD
ENDBRANCH   6  24
BRANCH   8  26
ATOM     26  O   UNL     1      71.003  61.107   2.789  1.00  0.00    -0.508 OA
ATOM     27  H   UNL     1      70.866  61.176   3.791  1.00  0.00     0.293 HD
ENDBRANCH   8  26
TORSDOF 6
ENDMDL
MODEL 5
REMARK VINA RESULT:    -7.620      1.426      1.825
REMARK INTER + INTRA:          -8.886
REMARK INTER:                  -8.575
REMARK INTRA:                  -0.311
REMARK UNBOUND:                 0.293
REMARK SMILES O=c1c(O)c(-c2ccc(O)c(O)c2)oc2cc(O)cc(O)c12
REMARK SMILES IDX 5 1 3 2 2 3 1 4 22 5 20 6 19 7 17 8 16 9 15 10 14 11 6 12
REMARK SMILES IDX 7 13 8 14 9 15 13 16 11 17 10 18 12 20 4 22 21 24 18 26
REMARK H PARENT 10 19 12 21 4 23 21 25 18 27
REMARK Flexibility Score: inf
ROOT
ATOM      1  C   UNL     1      82.539  64.130   7.776  1.00  0.00     0.180 A 
ATOM      2  C   UNL     1      82.636  65.391   8.389  1.00  0.00     0.208 A 
ATOM      3  C   UNL     1      83.596  65.586   9.395  1.00  0.00     0.238 A 
ATOM      4  O   UNL     1      83.642  66.700   9.978  1.00  0.00    -0.285 OA
ATOM      5  C   UNL     1      84.458  64.525   9.762  1.00  0.00     0.111 A 
ATOM      6  C   UNL     1      85.494  64.623  10.739  1.00  0.00     0.134 A 
ATOM      7  C   UNL     1      86.200  63.474  11.115  1.00  0.00     0.093 A 
ATOM      8  C   UNL     1      85.950  62.243  10.503  1.00  0.00     0.123 A 
ATOM      9  C   UNL     1      84.982  62.150   9.506  1.00  0.00     0.094 A 
ATOM     10  C   UNL     1      84.237  63.271   9.135  1.00  0.00     0.146 A 
ATOM     11  O   UNL     1      83.317  63.137   8.188  1.00  0.00    -0.452 OA
ENDROOT
BRANCH   1  12
ATOM     12  C   UNL     1      81.568  63.855   6.692  1.00  0.00     0.025 A 
ATOM     13  C   UNL     1      81.819  64.249   5.368  1.00  0.00     0.016 A 
ATOM     14  C   UNL     1      80.901  63.957   4.359  1.00  0.00     0.051 A 
ATOM     15  C   UNL     1      79.723  63.257   4.644  1.00  0.00     0.157 A 
ATOM     16  C   UNL     1      80.399  63.133   6.978  1.00  0.00     0.062 A 
ATOM     17  C   UNL     1      79.470  62.836   5.971  1.00  0.00     0.158 A 
BRANCH  15  18
ATOM     18  O   UNL     1      78.844  63.001   3.591  1.00  0.00    -0.504 OA
ATOM     19  H   UNL     1      78.961  63.366   2.656  1.00  0.00     0.293 HD
ENDBRANCH  15  18
BRANCH  17  20
ATOM     20  O   UNL     1      78.323  62.126   6.332  1.00  0.00    -0.504 OA
ATOM     21  H   UNL     1      77.433  62.558   6.536  1.00  0.00     0.293 HD
ENDBRANCH  17  20
ENDBRANCH   1  12
BRANCH   2  22
ATOM     22  O   UNL     1      81.760  66.419   8.027  1.00  0.00    -0.502 OA
ATOM     23  H   UNL     1      81.233  66.403   7.163  1.00  0.00     0.293 HD
ENDBRANCH   2  22
BRANCH   6  24
ATOM     24  O   UNL     1      85.885  65.821  11.344  1.00  0.00    -0.507 OA
ATOM     25  H   UNL     1      86.824  66.034  11.644  1.00  0.00     0.293 HD
ENDBRANCH   6  24
BRANCH   8  26
ATOM     26  O   UNL     1      86.668  61.107  10.872  1.00  0.00    -0.508 OA
ATOM     27  H   UNL     1      86.307  60.450  11.554  1.00  0.00     0.293 HD
ENDBRANCH   8  26
TORSDOF 6
ENDMDL
MODEL 6
REMARK VINA RESULT:    -7.582      1.779      6.821
REMARK INTER + INTRA:          -8.840
REMARK INTER:                  -8.930
REMARK INTRA:                   0.090
REMARK UNBOUND:                 0.293
REMARK SMILES O=c1c(O)c(-c2ccc(O)c(O)c2)oc2cc(O)cc(O)c12
REMARK SMILES IDX 5 1 3 2 2 3 1 4 22 5 20 6 19 7 17 8 16 9 15 10 14 11 6 12
REMARK SMILES IDX 7 13 8 14 9 15 13 16 11 17 10 18 12 20 4 22 21 24 18 26
REMARK H PARENT 10 19 12 21 4 23 21 25 18 27
REMARK Flexibility Score: inf
ROOT
ATOM      1  C   UNL     1      84.196  63.615   8.661  1.00  0.00     0.180 A 
ATOM      2  C   UNL     1      84.508  64.715   7.843  1.00  0.00     0.208 A 
ATOM      3  C   UNL     1      83.596  65.104   6.849  1.00  0.00     0.238 A 
ATOM      4  O   UNL     1      83.904  66.055   6.085  1.00  0.00    -0.285 OA
ATOM      5  C   UNL     1      82.378  64.400   6.696  1.00  0.00     0.111 A 
ATOM      6  C   UNL     1      81.362  64.732   5.749  1.00  0.00     0.134 A 
ATOM      7  C   UNL     1      80.256  63.888   5.597  1.00  0.00     0.093 A 
ATOM      8  C   UNL     1      80.097  62.758   6.402  1.00  0.00     0.123 A 
ATOM      9  C   UNL     1      81.052  62.458   7.371  1.00  0.00     0.094 A 
ATOM     10  C   UNL     1      82.185  63.261   7.521  1.00  0.00     0.146 A 
ATOM     11  O   UNL     1      83.076  62.935   8.449  1.00  0.00    -0.452 OA
ENDROOT
BRANCH   1  12
ATOM     12  C   UNL     1      85.096  63.160   9.746  1.00  0.00     0.025 A 
ATOM     13  C   UNL     1      85.435  61.806   9.894  1.00  0.00     0.016 A 
ATOM     14  C   UNL     1      86.304  61.404  10.910  1.00  0.00     0.051 A 
ATOM     15  C   UNL     1      86.861  62.341  11.787  1.00  0.00     0.157 A 
ATOM     16  C   UNL     1      85.670  64.105  10.609  1.00  0.00     0.062 A 
ATOM     17  C   UNL     1      86.543  63.711  11.632  1.00  0.00     0.158 A 
BRANCH  15  18
ATOM     18  O   UNL     1      87.719  61.874  12.784  1.00  0.00    -0.504 OA
ATOM     19  H   UNL     1      87.893  60.896  12.965  1.00  0.00     0.293 HD
ENDBRANCH  15  18
BRANCH  17  20
ATOM     20  O   UNL     1      87.066  64.706  12.462  1.00  0.00    -0.504 OA
ATOM     21  H   UNL     1      87.507  65.549  12.124  1.00  0.00     0.293 HD
ENDBRANCH  17  20
ENDBRANCH   1  12
BRANCH   2  22
ATOM     22  O   UNL     1      85.726  65.382   7.997  1.00  0.00    -0.502 OA
ATOM     23  H   UNL     1      85.885  66.314   7.632  1.00  0.00     0.293 HD
ENDBRANCH   2  22
BRANCH   6  24
ATOM     24  O   UNL     1      81.380  65.886   4.959  1.00  0.00    -0.507 OA
ATOM     25  H   UNL     1      80.605  66.213   4.402  1.00  0.00     0.293 HD
ENDBRANCH   6  24
BRANCH   8  26
ATOM     26  O   UNL     1      78.985  61.931   6.256  1.00  0.00    -0.508 OA
ATOM     27  H   UNL     1      79.078  60.962   5.977  1.00  0.00     0.293 HD
ENDBRANCH   8  26
TORSDOF 6
ENDMDL
MODEL 7
REMARK VINA RESULT:    -7.525      8.157     11.261
REMARK INTER + INTRA:          -8.771
REMARK INTER:                  -8.714
REMARK INTRA:                  -0.057
REMARK UNBOUND:                 0.293
REMARK SMILES O=c1c(O)c(-c2ccc(O)c(O)c2)oc2cc(O)cc(O)c12
REMARK SMILES IDX 5 1 3 2 2 3 1 4 22 5 20 6 19 7 17 8 16 9 15 10 14 11 6 12
REMARK SMILES IDX 7 13 8 14 9 15 13 16 11 17 10 18 12 20 4 22 21 24 18 26
REMARK H PARENT 10 19 12 21 4 23 21 25 18 27
REMARK Flexibility Score: inf
ROOT
ATOM      1  C   UNL     1      75.810  61.998   1.513  1.00  0.00     0.180 A 
ATOM      2  C   UNL     1      76.512  61.420   2.584  1.00  0.00     0.208 A 
ATOM      3  C   UNL     1      77.716  62.007   3.005  1.00  0.00     0.238 A 
ATOM      4  O   UNL     1      78.368  61.454   3.928  1.00  0.00    -0.285 OA
ATOM      5  C   UNL     1      78.193  63.174   2.362  1.00  0.00     0.111 A 
ATOM      6  C   UNL     1      79.379  63.877   2.731  1.00  0.00     0.134 A 
ATOM      7  C   UNL     1      79.825  64.944   1.943  1.00  0.00     0.093 A 
ATOM      8  C   UNL     1      79.092  65.375   0.834  1.00  0.00     0.123 A 
ATOM      9  C   UNL     1      77.901  64.734   0.500  1.00  0.00     0.094 A 
ATOM     10  C   UNL     1      77.450  63.643   1.246  1.00  0.00     0.146 A 
ATOM     11  O   UNL     1      76.317  63.054   0.888  1.00  0.00    -0.452 OA
ENDROOT
BRANCH   1  12
ATOM     12  C   UNL     1      74.522  61.450   1.028  1.00  0.00     0.025 A 
ATOM     13  C   UNL     1      74.359  61.035  -0.303  1.00  0.00     0.016 A 
ATOM     14  C   UNL     1      73.143  60.499  -0.731  1.00  0.00     0.051 A 
ATOM     15  C   UNL     1      72.073  60.355   0.159  1.00  0.00     0.157 A 
ATOM     16  C   UNL     1      73.458  61.287   1.928  1.00  0.00     0.062 A 
ATOM     17  C   UNL     1      72.233  60.750   1.508  1.00  0.00     0.158 A 
BRANCH  15  18
ATOM     18  O   UNL     1      70.882  59.817  -0.334  1.00  0.00    -0.504 OA
ATOM     19  H   UNL     1      70.750  58.839  -0.546  1.00  0.00     0.293 HD
ENDBRANCH  15  18
BRANCH  17  20
ATOM     20  O   UNL     1      71.215  60.630   2.456  1.00  0.00    -0.504 OA
ATOM     21  H   UNL     1      70.249  60.866   2.280  1.00  0.00     0.293 HD
ENDBRANCH  17  20
ENDBRANCH   1  12
BRANCH   2  22
ATOM     22  O   UNL     1      76.035  60.254   3.190  1.00  0.00    -0.502 OA
ATOM     23  H   UNL     1      75.843  60.198   4.183  1.00  0.00     0.293 HD
ENDBRANCH   2  22
BRANCH   6  24
ATOM     24  O   UNL     1      80.135  63.586   3.872  1.00  0.00    -0.507 OA
ATOM     25  H   UNL     1      81.117  63.788   3.978  1.00  0.00     0.293 HD
ENDBRANCH   6  24
BRANCH   8  26
ATOM     26  O   UNL     1      79.534  66.448   0.064  1.00  0.00    -0.508 OA
ATOM     27  H   UNL     1      80.419  66.905   0.249  1.00  0.00     0.293 HD
ENDBRANCH   8  26
TORSDOF 6
ENDMDL
MODEL 8
REMARK VINA RESULT:    -7.498      2.721      7.009
REMARK INTER + INTRA:          -8.739
REMARK INTER:                  -8.472
REMARK INTRA:                  -0.267
REMARK UNBOUND:                 0.293
REMARK SMILES O=c1c(O)c(-c2ccc(O)c(O)c2)oc2cc(O)cc(O)c12
REMARK SMILES IDX 5 1 3 2 2 3 1 4 22 5 20 6 19 7 17 8 16 9 15 10 14 11 6 12
REMARK SMILES IDX 7 13 8 14 9 15 13 16 11 17 10 18 12 20 4 22 21 24 18 26
REMARK H PARENT 10 19 12 21 4 23 21 25 18 27
REMARK Flexibility Score: inf
ROOT
ATOM      1  C   UNL     1      84.028  64.743   8.623  1.00  0.00     0.180 A 
ATOM      2  C   UNL     1      82.666  64.548   8.912  1.00  0.00     0.208 A 
ATOM      3  C   UNL     1      81.725  64.687   7.879  1.00  0.00     0.238 A 
ATOM      4  O   UNL     1      80.503  64.566   8.155  1.00  0.00    -0.285 OA
ATOM      5  C   UNL     1      82.158  65.002   6.569  1.00  0.00     0.111 A 
ATOM      6  C   UNL     1      81.296  65.127   5.437  1.00  0.00     0.134 A 
ATOM      7  C   UNL     1      81.817  65.569   4.216  1.00  0.00     0.093 A 
ATOM      8  C   UNL     1      83.182  65.829   4.068  1.00  0.00     0.123 A 
ATOM      9  C   UNL     1      84.041  65.653   5.151  1.00  0.00     0.094 A 
ATOM     10  C   UNL     1      83.545  65.248   6.391  1.00  0.00     0.146 A 
ATOM     11  O   UNL     1      84.395  65.102   7.399  1.00  0.00    -0.452 OA
ENDROOT
BRANCH   1  12
ATOM     12  C   UNL     1      85.081  64.591   9.653  1.00  0.00     0.025 A 
ATOM     13  C   UNL     1      85.678  65.708  10.259  1.00  0.00     0.016 A 
ATOM     14  C   UNL     1      86.651  65.539  11.245  1.00  0.00     0.051 A 
ATOM     15  C   UNL     1      87.039  64.258  11.655  1.00  0.00     0.157 A 
ATOM     16  C   UNL     1      85.451  63.306  10.078  1.00  0.00     0.062 A 
ATOM     17  C   UNL     1      86.427  63.126  11.067  1.00  0.00     0.158 A 
BRANCH  15  18
ATOM     18  O   UNL     1      88.021  64.158  12.642  1.00  0.00    -0.504 OA
ATOM     19  H   UNL     1      88.600  63.342  12.782  1.00  0.00     0.293 HD
ENDBRANCH  15  18
BRANCH  17  20
ATOM     20  O   UNL     1      86.755  61.818  11.430  1.00  0.00    -0.504 OA
ATOM     21  H   UNL     1      86.461  60.999  10.917  1.00  0.00     0.293 HD
ENDBRANCH  17  20
ENDBRANCH   1  12
BRANCH   2  22
ATOM     22  O   UNL     1      82.258  64.261  10.217  1.00  0.00    -0.502 OA
ATOM     23  H   UNL     1      82.917  64.115  10.972  1.00  0.00     0.293 HD
ENDBRANCH   2  22
BRANCH   6  24
ATOM     24  O   UNL     1      79.935  64.804   5.455  1.00  0.00    -0.507 OA
ATOM     25  H   UNL     1      79.559  63.887   5.264  1.00  0.00     0.293 HD
ENDBRANCH   6  24
BRANCH   8  26
ATOM     26  O   UNL     1      83.696  66.254   2.845  1.00  0.00    -0.508 OA
ATOM     27  H   UNL     1      83.322  65.915   1.967  1.00  0.00     0.293 HD
ENDBRANCH   8  26
TORSDOF 6
ENDMDL
MODEL 9
REMARK VINA RESULT:    -7.422      6.282     11.972
REMARK INTER + INTRA:          -8.647
REMARK INTER:                  -8.410
REMARK INTRA:                  -0.237
REMARK UNBOUND:                 0.293
REMARK SMILES O=c1c(O)c(-c2ccc(O)c(O)c2)oc2cc(O)cc(O)c12
REMARK SMILES IDX 5 1 3 2 2 3 1 4 22 5 20 6 19 7 17 8 16 9 15 10 14 11 6 12
REMARK SMILES IDX 7 13 8 14 9 15 13 16 11 17 10 18 12 20 4 22 21 24 18 26
REMARK H PARENT 10 19 12 21 4 23 21 25 18 27
REMARK Flexibility Score: inf
ROOT
ATOM      1  C   UNL     1      76.749  62.122   2.750  1.00  0.00     0.180 A 
ATOM      2  C   UNL     1      76.835  62.841   1.545  1.00  0.00     0.208 A 
ATOM      3  C   UNL     1      75.662  63.092   0.816  1.00  0.00     0.238 A 
ATOM      4  O   UNL     1      75.752  63.688  -0.288  1.00  0.00    -0.285 OA
ATOM      5  C   UNL     1      74.415  62.637   1.309  1.00  0.00     0.111 A 
ATOM      6  C   UNL     1      73.158  62.870   0.674  1.00  0.00     0.134 A 
ATOM      7  C   UNL     1      72.004  62.262   1.182  1.00  0.00     0.093 A 
ATOM      8  C   UNL     1      72.051  61.481   2.340  1.00  0.00     0.123 A 
ATOM      9  C   UNL     1      73.264  61.297   3.001  1.00  0.00     0.094 A 
ATOM     10  C   UNL     1      74.438  61.861   2.498  1.00  0.00     0.146 A 
ATOM     11  O   UNL     1      75.574  61.652   3.152  1.00  0.00    -0.452 OA
ENDROOT
BRANCH   1  12
ATOM     12  C   UNL     1      77.938  61.839   3.586  1.00  0.00     0.025 A 
ATOM     13  C   UNL     1      78.903  60.899   3.190  1.00  0.00     0.016 A 
ATOM     14  C   UNL     1      80.028  60.667   3.983  1.00  0.00     0.051 A 
ATOM     15  C   UNL     1      80.221  61.374   5.175  1.00  0.00     0.157 A 
ATOM     16  C   UNL     1      78.140  62.565   4.769  1.00  0.00     0.062 A 
ATOM     17  C   UNL     1      79.266  62.339   5.572  1.00  0.00     0.158 A 
BRANCH  15  18
ATOM     18  O   UNL     1      81.365  61.091   5.924  1.00  0.00    -0.504 OA
ATOM     19  H   UNL     1      82.264  61.521   5.765  1.00  0.00     0.293 HD
ENDBRANCH  15  18
BRANCH  17  20
ATOM     20  O   UNL     1      79.394  63.090   6.743  1.00  0.00    -0.504 OA
ATOM     21  H   UNL     1      78.657  63.659   7.132  1.00  0.00     0.293 HD
ENDBRANCH  17  20
ENDBRANCH   1  12
BRANCH   2  22
ATOM     22  O   UNL     1      78.079  63.261   1.066  1.00  0.00    -0.502 OA
ATOM     23  H   UNL     1      78.925  62.722   1.204  1.00  0.00     0.293 HD
ENDBRANCH   2  22
BRANCH   6  24
ATOM     24  O   UNL     1      72.987  63.707  -0.433  1.00  0.00    -0.507 OA
ATOM     25  H   UNL     1      72.815  63.387  -1.374  1.00  0.00     0.293 HD
ENDBRANCH   6  24
BRANCH   8  26
ATOM     26  O   UNL     1      70.896  60.892   2.848  1.00  0.00    -0.508 OA
ATOM     27  H   UNL     1      70.394  61.298   3.629  1.00  0.00     0.293 HD
ENDBRANCH   8  26
TORSDOF 6
ENDMDL
