MODEL 1
REMARK VINA RESULT:    -4.202      0.000      0.000
REMARK INTER + INTRA:          -7.228
REMARK INTER:                  -6.413
REMARK INTRA:                  -0.815
REMARK UNBOUND:                -0.815
REMARK SMILES O=C([O-])CCCCCCCCC(=O)[O-]
REMARK SMILES IDX 7 1 6 2 5 3 4 4 2 5 1 6 3 7 8 8 9 9 10 10 11 11 12 12 13 13
REMARK SMILES IDX 14 14
REMARK H PARENT
REMARK Flexibility Score: inf
ROOT
ATOM      1  C   UNL     1      14.373  52.180 159.072  1.00  0.00     0.000 C 
ENDROOT
BRANCH   1   2
ATOM      2  C   UNL     1      15.542  51.457 159.752  1.00  0.00     0.000 C 
BRANCH   2   3
ATOM      3  C   UNL     1      16.888  51.991 159.247  1.00  0.00     0.006 C 
BRANCH   3   4
ATOM      4  C   UNL     1      17.349  53.192 160.078  1.00  0.00     0.053 C 
BRANCH   4   5
ATOM      5  C   UNL     1      18.781  53.514 159.785  1.00  0.00     0.041 C 
ATOM      6  O   UNL     1      19.590  53.716 160.728  1.00  0.00    -0.550 OA
ATOM      7  O   UNL     1      19.211  53.639 158.470  1.00  0.00    -0.550 OA
ENDBRANCH   4   5
ENDBRANCH   3   4
ENDBRANCH   2   3
ENDBRANCH   1   2
BRANCH   1   8
ATOM      8  C   UNL     1      14.694  52.484 157.602  1.00  0.00     0.000 C 
BRANCH   8   9
ATOM      9  C   UNL     1      13.786  53.574 157.011  1.00  0.00     0.000 C 
BRANCH   9  10
ATOM     10  C   UNL     1      14.579  54.779 156.475  1.00  0.00     0.006 C 
BRANCH  10  11
ATOM     11  C   UNL     1      16.000  54.839 157.054  1.00  0.00     0.053 C 
BRANCH  11  12
ATOM     12  C   UNL     1      16.331  56.206 157.569  1.00  0.00     0.041 C 
ATOM     13  O   UNL     1      16.982  56.340 158.639  1.00  0.00    -0.550 OA
ATOM     14  O   UNL     1      15.890  57.334 156.887  1.00  0.00    -0.550 OA
ENDBRANCH  11  12
ENDBRANCH  10  11
ENDBRANCH   9  10
ENDBRANCH   8   9
ENDBRANCH   1   8
TORSDOF 9
ENDMDL
MODEL 2
REMARK VINA RESULT:    -4.173      1.661      2.909
REMARK INTER + INTRA:          -7.184
REMARK INTER:                  -6.565
REMARK INTRA:                  -0.620
REMARK UNBOUND:                -0.815
REMARK SMILES O=C([O-])CCCCCCCCC(=O)[O-]
REMARK SMILES IDX 7 1 6 2 5 3 4 4 2 5 1 6 3 7 8 8 9 9 10 10 11 11 12 12 13 13
REMARK SMILES IDX 14 14
REMARK H PARENT
REMARK Flexibility Score: inf
ROOT
ATOM      1  C   UNL     1      17.379  52.372 159.112  1.00  0.00     0.000 C 
ENDROOT
BRANCH   1   2
ATOM      2  C   UNL     1      17.034  53.311 160.274  1.00  0.00     0.000 C 
BRANCH   2   3
ATOM      3  C   UNL     1      18.285  54.033 160.789  1.00  0.00     0.006 C 
BRANCH   3   4
ATOM      4  C   UNL     1      19.506  53.703 159.924  1.00  0.00     0.053 C 
BRANCH   4   5
ATOM      5  C   UNL     1      20.770  53.951 160.686  1.00  0.00     0.041 C 
ATOM      6  O   UNL     1      21.877  53.591 160.207  1.00  0.00    -0.550 OA
ATOM      7  O   UNL     1      20.720  54.535 161.945  1.00  0.00    -0.550 OA
ENDBRANCH   4   5
ENDBRANCH   3   4
ENDBRANCH   2   3
ENDBRANCH   1   2
BRANCH   1   8
ATOM      8  C   UNL     1      16.184  51.477 158.755  1.00  0.00     0.000 C 
BRANCH   8   9
ATOM      9  C   UNL     1      14.909  51.856 159.524  1.00  0.00     0.000 C 
BRANCH   9  10
ATOM     10  C   UNL     1      13.874  52.571 158.638  1.00  0.00     0.006 C 
BRANCH  10  11
ATOM     11  C   UNL     1      14.397  52.807 157.214  1.00  0.00     0.053 C 
BRANCH  11  12
ATOM     12  C   UNL     1      14.534  54.267 156.908  1.00  0.00     0.041 C 
ATOM     13  O   UNL     1      13.732  54.826 156.115  1.00  0.00    -0.550 OA
ATOM     14  O   UNL     1      15.570  55.003 157.472  1.00  0.00    -0.550 OA
ENDBRANCH  11  12
ENDBRANCH  10  11
ENDBRANCH   9  10
ENDBRANCH   8   9
ENDBRANCH   1   8
TORSDOF 9
ENDMDL
MODEL 3
REMARK VINA RESULT:    -4.100      2.846      5.445
REMARK INTER + INTRA:          -7.072
REMARK INTER:                  -6.466
REMARK INTRA:                  -0.606
REMARK UNBOUND:                -0.815
REMARK SMILES O=C([O-])CCCCCCCCC(=O)[O-]
REMARK SMILES IDX 7 1 6 2 5 3 4 4 2 5 1 6 3 7 8 8 9 9 10 10 11 11 12 12 13 13
REMARK SMILES IDX 14 14
REMARK H PARENT
REMARK Flexibility Score: inf
ROOT
ATOM      1  C   UNL     1      17.692  53.184 159.760  1.00  0.00     0.000 C 
ENDROOT
BRANCH   1   2
ATOM      2  C   UNL     1      17.387  52.647 158.357  1.00  0.00     0.000 C 
BRANCH   2   3
ATOM      3  C   UNL     1      16.399  51.475 158.417  1.00  0.00     0.006 C 
BRANCH   3   4
ATOM      4  C   UNL     1      15.680  51.433 159.769  1.00  0.00     0.053 C 
BRANCH   4   5
ATOM      5  C   UNL     1      14.242  51.818 159.610  1.00  0.00     0.041 C 
ATOM      6  O   UNL     1      13.899  52.620 158.702  1.00  0.00    -0.550 OA
ATOM      7  O   UNL     1      13.289  51.329 160.494  1.00  0.00    -0.550 OA
ENDBRANCH   4   5
ENDBRANCH   3   4
ENDBRANCH   2   3
ENDBRANCH   1   2
BRANCH   1   8
ATOM      8  C   UNL     1      17.566  54.713 159.803  1.00  0.00     0.000 C 
BRANCH   8   9
ATOM      9  C   UNL     1      18.377  55.342 160.947  1.00  0.00     0.000 C 
BRANCH   9  10
ATOM     10  C   UNL     1      19.201  54.304 161.728  1.00  0.00     0.006 C 
BRANCH  10  11
ATOM     11  C   UNL     1      20.668  54.730 161.884  1.00  0.00     0.053 C 
BRANCH  11  12
ATOM     12  C   UNL     1      21.488  54.346 160.691  1.00  0.00     0.041 C 
ATOM     13  O   UNL     1      21.161  53.353 159.990  1.00  0.00    -0.550 OA
ATOM     14  O   UNL     1      22.635  55.064 160.374  1.00  0.00    -0.550 OA
ENDBRANCH  11  12
ENDBRANCH  10  11
ENDBRANCH   9  10
ENDBRANCH   8   9
ENDBRANCH   1   8
TORSDOF 9
ENDMDL
MODEL 4
REMARK VINA RESULT:    -4.099      2.465      4.694
REMARK INTER + INTRA:          -7.071
REMARK INTER:                  -6.360
REMARK INTRA:                  -0.711
REMARK UNBOUND:                -0.815
REMARK SMILES O=C([O-])CCCCCCCCC(=O)[O-]
REMARK SMILES IDX 7 1 6 2 5 3 4 4 2 5 1 6 3 7 8 8 9 9 10 10 11 11 12 12 13 13
REMARK SMILES IDX 14 14
REMARK H PARENT
REMARK Flexibility Score: inf
ROOT
ATOM      1  C   UNL     1      15.853  54.927 157.373  1.00  0.00     0.000 C 
ENDROOT
BRANCH   1   2
ATOM      2  C   UNL     1      14.800  53.994 156.764  1.00  0.00     0.000 C 
BRANCH   2   3
ATOM      3  C   UNL     1      14.159  53.109 157.840  1.00  0.00     0.006 C 
BRANCH   3   4
ATOM      4  C   UNL     1      15.201  52.193 158.490  1.00  0.00     0.053 C 
BRANCH   4   5
ATOM      5  C   UNL     1      14.605  51.463 159.653  1.00  0.00     0.041 C 
ATOM      6  O   UNL     1      13.515  51.850 160.150  1.00  0.00    -0.550 OA
ATOM      7  O   UNL     1      15.277  50.388 160.218  1.00  0.00    -0.550 OA
ENDBRANCH   4   5
ENDBRANCH   3   4
ENDBRANCH   2   3
ENDBRANCH   1   2
BRANCH   1   8
ATOM      8  C   UNL     1      17.145  54.914 156.543  1.00  0.00     0.000 C 
BRANCH   8   9
ATOM      9  C   UNL     1      18.408  54.845 157.415  1.00  0.00     0.000 C 
BRANCH   9  10
ATOM     10  C   UNL     1      18.622  53.454 158.038  1.00  0.00     0.006 C 
BRANCH  10  11
ATOM     11  C   UNL     1      18.562  53.491 159.571  1.00  0.00     0.053 C 
BRANCH  11  12
ATOM     12  C   UNL     1      19.909  53.740 160.174  1.00  0.00     0.041 C 
ATOM     13  O   UNL     1      20.954  53.506 159.511  1.00  0.00    -0.550 OA
ATOM     14  O   UNL     1      20.014  54.199 161.483  1.00  0.00    -0.550 OA
ENDBRANCH  11  12
ENDBRANCH  10  11
ENDBRANCH   9  10
ENDBRANCH   8   9
ENDBRANCH   1   8
TORSDOF 9
ENDMDL
MODEL 5
REMARK VINA RESULT:    -4.085      1.123      4.094
REMARK INTER + INTRA:          -7.049
REMARK INTER:                  -6.086
REMARK INTRA:                  -0.964
REMARK UNBOUND:                -0.815
REMARK SMILES O=C([O-])CCCCCCCCC(=O)[O-]
REMARK SMILES IDX 7 1 6 2 5 3 4 4 2 5 1 6 3 7 8 8 9 9 10 10 11 11 12 12 13 13
REMARK SMILES IDX 14 14
REMARK H PARENT
REMARK Flexibility Score: inf
ROOT
ATOM      1  C   UNL     1      14.750  52.314 157.755  1.00  0.00     0.000 C 
ENDROOT
BRANCH   1   2
ATOM      2  C   UNL     1      13.898  53.537 157.397  1.00  0.00     0.000 C 
BRANCH   2   3
ATOM      3  C   UNL     1      14.651  54.475 156.445  1.00  0.00     0.006 C 
BRANCH   3   4
ATOM      4  C   UNL     1      15.623  55.374 157.215  1.00  0.00     0.053 C 
BRANCH   4   5
ATOM      5  C   UNL     1      17.020  55.186 156.711  1.00  0.00     0.041 C 
ATOM      6  O   UNL     1      17.315  54.171 156.026  1.00  0.00    -0.550 OA
ATOM      7  O   UNL     1      18.007  56.106 157.039  1.00  0.00    -0.550 OA
ENDBRANCH   4   5
ENDBRANCH   3   4
ENDBRANCH   2   3
ENDBRANCH   1   2
BRANCH   1   8
ATOM      8  C   UNL     1      14.607  51.960 159.242  1.00  0.00     0.000 C 
BRANCH   8   9
ATOM      9  C   UNL     1      15.963  51.823 159.951  1.00  0.00     0.000 C 
BRANCH   9  10
ATOM     10  C   UNL     1      17.093  52.568 159.217  1.00  0.00     0.006 C 
BRANCH  10  11
ATOM     11  C   UNL     1      17.811  53.573 160.130  1.00  0.00     0.053 C 
BRANCH  11  12
ATOM     12  C   UNL     1      19.262  53.699 159.783  1.00  0.00     0.041 C 
ATOM     13  O   UNL     1      19.632  53.666 158.579  1.00  0.00    -0.550 OA
ATOM     14  O   UNL     1      20.212  53.816 160.791  1.00  0.00    -0.550 OA
ENDBRANCH  11  12
ENDBRANCH  10  11
ENDBRANCH   9  10
ENDBRANCH   8   9
ENDBRANCH   1   8
TORSDOF 9
ENDMDL
MODEL 6
REMARK VINA RESULT:    -4.054      1.976      3.706
REMARK INTER + INTRA:          -7.002
REMARK INTER:                  -6.029
REMARK INTRA:                  -0.973
REMARK UNBOUND:                -0.815
REMARK SMILES O=C([O-])CCCCCCCCC(=O)[O-]
REMARK SMILES IDX 7 1 6 2 5 3 4 4 2 5 1 6 3 7 8 8 9 9 10 10 11 11 12 12 13 13
REMARK SMILES IDX 14 14
REMARK H PARENT
REMARK Flexibility Score: inf
ROOT
ATOM      1  C   UNL     1      13.960  54.527 156.076  1.00  0.00     0.000 C 
ENDROOT
BRANCH   1   2
ATOM      2  C   UNL     1      13.536  53.376 156.996  1.00  0.00     0.000 C 
BRANCH   2   3
ATOM      3  C   UNL     1      14.739  52.508 157.384  1.00  0.00     0.006 C 
BRANCH   3   4
ATOM      4  C   UNL     1      14.735  52.203 158.885  1.00  0.00     0.053 C 
BRANCH   4   5
ATOM      5  C   UNL     1      15.732  51.133 159.204  1.00  0.00     0.041 C 
ATOM      6  O   UNL     1      16.737  50.964 158.466  1.00  0.00    -0.550 OA
ATOM      7  O   UNL     1      15.524  50.290 160.288  1.00  0.00    -0.550 OA
ENDBRANCH   4   5
ENDBRANCH   3   4
ENDBRANCH   2   3
ENDBRANCH   1   2
BRANCH   1   8
ATOM      8  C   UNL     1      15.451  54.851 156.252  1.00  0.00     0.000 C 
BRANCH   8   9
ATOM      9  C   UNL     1      15.687  56.107 157.104  1.00  0.00     0.000 C 
BRANCH   9  10
ATOM     10  C   UNL     1      16.893  55.964 158.049  1.00  0.00     0.006 C 
BRANCH  10  11
ATOM     11  C   UNL     1      17.670  54.663 157.801  1.00  0.00     0.053 C 
BRANCH  11  12
ATOM     12  C   UNL     1      18.237  54.105 159.069  1.00  0.00     0.041 C 
ATOM     13  O   UNL     1      17.523  54.027 160.103  1.00  0.00    -0.550 OA
ATOM     14  O   UNL     1      19.567  53.701 159.120  1.00  0.00    -0.550 OA
ENDBRANCH  11  12
ENDBRANCH  10  11
ENDBRANCH   9  10
ENDBRANCH   8   9
ENDBRANCH   1   8
TORSDOF 9
ENDMDL
MODEL 7
REMARK VINA RESULT:    -4.034      2.519      3.878
REMARK INTER + INTRA:          -6.972
REMARK INTER:                  -6.001
REMARK INTRA:                  -0.970
REMARK UNBOUND:                -0.815
REMARK SMILES O=C([O-])CCCCCCCCC(=O)[O-]
REMARK SMILES IDX 7 1 6 2 5 3 4 4 2 5 1 6 3 7 8 8 9 9 10 10 11 11 12 12 13 13
REMARK SMILES IDX 14 14
REMARK H PARENT
REMARK Flexibility Score: inf
ROOT
ATOM      1  C   UNL     1      17.657  53.716 156.344  1.00  0.00     0.000 C 
ENDROOT
BRANCH   1   2
ATOM      2  C   UNL     1      18.125  54.535 157.553  1.00  0.00     0.000 C 
BRANCH   2   3
ATOM      3  C   UNL     1      18.795  53.639 158.601  1.00  0.00     0.006 C 
BRANCH   3   4
ATOM      4  C   UNL     1      18.218  53.899 159.996  1.00  0.00     0.053 C 
BRANCH   4   5
ATOM      5  C   UNL     1      19.319  54.109 160.987  1.00  0.00     0.041 C 
ATOM      6  O   UNL     1      19.048  54.292 162.204  1.00  0.00    -0.550 OA
ATOM      7  O   UNL     1      20.640  54.151 160.562  1.00  0.00    -0.550 OA
ENDBRANCH   4   5
ENDBRANCH   3   4
ENDBRANCH   2   3
ENDBRANCH   1   2
BRANCH   1   8
ATOM      8  C   UNL     1      16.164  53.943 156.070  1.00  0.00     0.000 C 
BRANCH   8   9
ATOM      9  C   UNL     1      15.329  54.012 157.359  1.00  0.00     0.000 C 
BRANCH   9  10
ATOM     10  C   UNL     1      14.632  52.680 157.684  1.00  0.00     0.006 C 
BRANCH  10  11
ATOM     11  C   UNL     1      14.870  52.243 159.136  1.00  0.00     0.053 C 
BRANCH  11  12
ATOM     12  C   UNL     1      15.808  51.078 159.219  1.00  0.00     0.041 C 
ATOM     13  O   UNL     1      16.673  50.896 158.323  1.00  0.00    -0.550 OA
ATOM     14  O   UNL     1      15.703  50.172 160.268  1.00  0.00    -0.550 OA
ENDBRANCH  11  12
ENDBRANCH  10  11
ENDBRANCH   9  10
ENDBRANCH   8   9
ENDBRANCH   1   8
TORSDOF 9
ENDMDL
MODEL 8
REMARK VINA RESULT:    -3.994      2.028      3.740
REMARK INTER + INTRA:          -6.911
REMARK INTER:                  -5.991
REMARK INTRA:                  -0.921
REMARK UNBOUND:                -0.815
REMARK SMILES O=C([O-])CCCCCCCCC(=O)[O-]
REMARK SMILES IDX 7 1 6 2 5 3 4 4 2 5 1 6 3 7 8 8 9 9 10 10 11 11 12 12 13 13
REMARK SMILES IDX 14 14
REMARK H PARENT
REMARK Flexibility Score: inf
ROOT
ATOM      1  C   UNL     1      15.130  55.148 156.892  1.00  0.00     0.000 C 
ENDROOT
BRANCH   1   2
ATOM      2  C   UNL     1      16.402  56.004 156.910  1.00  0.00     0.000 C 
BRANCH   2   3
ATOM      3  C   UNL     1      17.226  55.740 158.176  1.00  0.00     0.006 C 
BRANCH   3   4
ATOM      4  C   UNL     1      18.698  55.494 157.831  1.00  0.00     0.053 C 
BRANCH   4   5
ATOM      5  C   UNL     1      19.074  54.075 158.120  1.00  0.00     0.041 C 
ATOM      6  O   UNL     1      19.946  53.816 158.991  1.00  0.00    -0.550 OA
ATOM      7  O   UNL     1      18.498  53.041 157.394  1.00  0.00    -0.550 OA
ENDBRANCH   4   5
ENDBRANCH   3   4
ENDBRANCH   2   3
ENDBRANCH   1   2
BRANCH   1   8
ATOM      8  C   UNL     1      15.354  53.847 156.108  1.00  0.00     0.000 C 
BRANCH   8   9
ATOM      9  C   UNL     1      14.860  52.606 156.868  1.00  0.00     0.000 C 
BRANCH   9  10
ATOM     10  C   UNL     1      14.190  52.959 158.207  1.00  0.00     0.006 C 
BRANCH  10  11
ATOM     11  C   UNL     1      14.472  51.908 159.290  1.00  0.00     0.053 C 
BRANCH  11  12
ATOM     12  C   UNL     1      15.936  51.794 159.584  1.00  0.00     0.041 C 
ATOM     13  O   UNL     1      16.559  50.737 159.302  1.00  0.00    -0.550 OA
ATOM     14  O   UNL     1      16.606  52.842 160.205  1.00  0.00    -0.550 OA
ENDBRANCH  11  12
ENDBRANCH  10  11
ENDBRANCH   9  10
ENDBRANCH   8   9
ENDBRANCH   1   8
TORSDOF 9
ENDMDL
MODEL 9
REMARK VINA RESULT:    -3.983      1.043      4.348
REMARK INTER + INTRA:          -6.894
REMARK INTER:                  -5.928
REMARK INTRA:                  -0.966
REMARK UNBOUND:                -0.815
REMARK SMILES O=C([O-])CCCCCCCCC(=O)[O-]
REMARK SMILES IDX 7 1 6 2 5 3 4 4 2 5 1 6 3 7 8 8 9 9 10 10 11 11 12 12 13 13
REMARK SMILES IDX 14 14
REMARK H PARENT
REMARK Flexibility Score: inf
ROOT
ATOM      1  C   UNL     1      14.539  54.118 157.044  1.00  0.00     0.000 C 
ENDROOT
BRANCH   1   2
ATOM      2  C   UNL     1      15.614  54.040 155.954  1.00  0.00     0.000 C 
BRANCH   2   3
ATOM      3  C   UNL     1      16.605  55.204 156.072  1.00  0.00     0.006 C 
BRANCH   3   4
ATOM      4  C   UNL     1      16.414  55.957 157.392  1.00  0.00     0.053 C 
BRANCH   4   5
ATOM      5  C   UNL     1      16.458  57.435 157.163  1.00  0.00     0.041 C 
ATOM      6  O   UNL     1      16.441  57.894 155.991  1.00  0.00    -0.550 OA
ATOM      7  O   UNL     1      16.568  58.303 158.242  1.00  0.00    -0.550 OA
ENDBRANCH   4   5
ENDBRANCH   3   4
ENDBRANCH   2   3
ENDBRANCH   1   2
BRANCH   1   8
ATOM      8  C   UNL     1      14.517  52.836 157.889  1.00  0.00     0.000 C 
BRANCH   8   9
ATOM      9  C   UNL     1      15.676  51.885 157.551  1.00  0.00     0.000 C 
BRANCH   9  10
ATOM     10  C   UNL     1      16.568  51.584 158.769  1.00  0.00     0.006 C 
BRANCH  10  11
ATOM     11  C   UNL     1      16.867  52.845 159.592  1.00  0.00     0.053 C 
BRANCH  11  12
ATOM     12  C   UNL     1      18.281  53.304 159.411  1.00  0.00     0.041 C 
ATOM     13  O   UNL     1      18.980  53.615 160.411  1.00  0.00    -0.550 OA
ATOM     14  O   UNL     1      18.816  53.422 158.133  1.00  0.00    -0.550 OA
ENDBRANCH  11  12
ENDBRANCH  10  11
ENDBRANCH   9  10
ENDBRANCH   8   9
ENDBRANCH   1   8
TORSDOF 9
ENDMDL
