MODEL 1
REMARK VINA RESULT:    -4.799      0.000      0.000
REMARK INTER + INTRA:          -5.884
REMARK INTER:                  -5.781
REMARK INTRA:                  -0.103
REMARK UNBOUND:                -0.103
REMARK SMILES OCCc1ccc(O)c(O)c1
REMARK SMILES IDX 3 1 4 2 5 3 6 4 7 5 11 6 9 7 8 8 10 10 2 12 1 13
REMARK H PARENT 8 9 10 11 1 14
REMARK Flexibility Score: inf
ROOT
ATOM      1  C   UNL     1      -5.904 -24.572  34.593  1.00  0.00     0.064 C 
ENDROOT
BRANCH   1   2
ATOM      2  C   UNL     1      -6.959 -25.631  34.791  1.00  0.00    -0.042 A 
ATOM      3  C   UNL     1      -6.989 -26.760  33.960  1.00  0.00     0.008 A 
ATOM      4  C   UNL     1      -7.982 -27.729  34.124  1.00  0.00     0.050 A 
ATOM      5  C   UNL     1      -8.962 -27.577  35.114  1.00  0.00     0.157 A 
ATOM      6  C   UNL     1      -7.946 -25.474  35.776  1.00  0.00     0.054 A 
ATOM      7  C   UNL     1      -8.944 -26.442  35.943  1.00  0.00     0.157 A 
BRANCH   5   8
ATOM      8  O   UNL     1      -9.951 -28.545  35.277  1.00  0.00    -0.504 OA
ATOM      9  H   UNL     1     -10.926 -28.344  35.092  1.00  0.00     0.293 HD
ENDBRANCH   5   8
BRANCH   7  10
ATOM     10  O   UNL     1      -9.907 -26.257  36.934  1.00  0.00    -0.504 OA
ATOM     11  H   UNL     1     -10.538 -25.463  36.931  1.00  0.00     0.293 HD
ENDBRANCH   7  10
ENDBRANCH   1   2
BRANCH   1  12
ATOM     12  C   UNL     1      -5.596 -24.366  33.107  1.00  0.00     0.161 C 
BRANCH  12  13
ATOM     13  O   UNL     1      -6.555 -23.537  32.506  1.00  0.00    -0.396 OA
ATOM     14  H   UNL     1      -6.170 -23.242  31.639  1.00  0.00     0.210 HD
ENDBRANCH  12  13
ENDBRANCH   1  12
TORSDOF 5
ENDMDL
MODEL 2
REMARK VINA RESULT:    -4.753      1.296      4.836
REMARK INTER + INTRA:          -5.828
REMARK INTER:                  -5.765
REMARK INTRA:                  -0.063
REMARK UNBOUND:                -0.103
REMARK SMILES OCCc1ccc(O)c(O)c1
REMARK SMILES IDX 3 1 4 2 5 3 6 4 7 5 11 6 9 7 8 8 10 10 2 12 1 13
REMARK H PARENT 8 9 10 11 1 14
REMARK Flexibility Score: inf
ROOT
ATOM      1  C   UNL     1      -7.436 -27.611  35.433  1.00  0.00     0.064 C 
ENDROOT
BRANCH   1   2
ATOM      2  C   UNL     1      -6.739 -26.405  34.858  1.00  0.00    -0.042 A 
ATOM      3  C   UNL     1      -5.852 -25.658  35.649  1.00  0.00     0.008 A 
ATOM      4  C   UNL     1      -5.227 -24.524  35.126  1.00  0.00     0.050 A 
ATOM      5  C   UNL     1      -5.486 -24.115  33.811  1.00  0.00     0.157 A 
ATOM      6  C   UNL     1      -7.005 -25.989  33.544  1.00  0.00     0.054 A 
ATOM      7  C   UNL     1      -6.382 -24.852  33.017  1.00  0.00     0.157 A 
BRANCH   5   8
ATOM      8  O   UNL     1      -4.860 -22.984  33.291  1.00  0.00    -0.504 OA
ATOM      9  H   UNL     1      -3.953 -23.037  32.845  1.00  0.00     0.293 HD
ENDBRANCH   5   8
BRANCH   7  10
ATOM     10  O   UNL     1      -6.666 -24.470  31.707  1.00  0.00    -0.504 OA
ATOM     11  H   UNL     1      -6.186 -24.876  30.911  1.00  0.00     0.293 HD
ENDBRANCH   7  10
ENDBRANCH   1   2
BRANCH   1  12
ATOM     12  C   UNL     1      -8.934 -27.354  35.614  1.00  0.00     0.161 C 
BRANCH  12  13
ATOM     13  O   UNL     1      -9.681 -28.503  35.317  1.00  0.00    -0.396 OA
ATOM     14  H   UNL     1     -10.625 -28.211  35.223  1.00  0.00     0.210 HD
ENDBRANCH  12  13
ENDBRANCH   1  12
TORSDOF 5
ENDMDL
MODEL 3
REMARK VINA RESULT:    -4.631      1.207      2.176
REMARK INTER + INTRA:          -5.681
REMARK INTER:                  -5.590
REMARK INTRA:                  -0.091
REMARK UNBOUND:                -0.103
REMARK SMILES OCCc1ccc(O)c(O)c1
REMARK SMILES IDX 3 1 4 2 5 3 6 4 7 5 11 6 9 7 8 8 10 10 2 12 1 13
REMARK H PARENT 8 9 10 11 1 14
REMARK Flexibility Score: inf
ROOT
ATOM      1  C   UNL     1      -5.960 -24.128  35.440  1.00  0.00     0.064 C 
ENDROOT
BRANCH   1   2
ATOM      2  C   UNL     1      -6.953 -25.261  35.379  1.00  0.00    -0.042 A 
ATOM      3  C   UNL     1      -7.893 -25.430  36.406  1.00  0.00     0.008 A 
ATOM      4  C   UNL     1      -8.796 -26.495  36.365  1.00  0.00     0.050 A 
ATOM      5  C   UNL     1      -8.765 -27.410  35.303  1.00  0.00     0.157 A 
ATOM      6  C   UNL     1      -6.915 -26.182  34.321  1.00  0.00     0.054 A 
ATOM      7  C   UNL     1      -7.817 -27.252  34.277  1.00  0.00     0.157 A 
BRANCH   5   8
ATOM      8  O   UNL     1      -9.667 -28.471  35.264  1.00  0.00    -0.504 OA
ATOM      9  H   UNL     1     -10.318 -28.642  36.021  1.00  0.00     0.293 HD
ENDBRANCH   5   8
BRANCH   7  10
ATOM     10  O   UNL     1      -7.756 -28.146  33.209  1.00  0.00    -0.504 OA
ATOM     11  H   UNL     1      -8.589 -28.497  32.751  1.00  0.00     0.293 HD
ENDBRANCH   7  10
ENDBRANCH   1   2
BRANCH   1  12
ATOM     12  C   UNL     1      -5.063 -24.108  34.199  1.00  0.00     0.161 C 
BRANCH  12  13
ATOM     13  O   UNL     1      -5.303 -22.964  33.425  1.00  0.00    -0.396 OA
ATOM     14  H   UNL     1      -4.792 -23.080  32.581  1.00  0.00     0.210 HD
ENDBRANCH  12  13
ENDBRANCH   1  12
TORSDOF 5
ENDMDL
MODEL 4
REMARK VINA RESULT:    -4.514      1.430      1.528
REMARK INTER + INTRA:          -5.540
REMARK INTER:                  -5.430
REMARK INTRA:                  -0.109
REMARK UNBOUND:                -0.103
REMARK SMILES OCCc1ccc(O)c(O)c1
REMARK SMILES IDX 3 1 4 2 5 3 6 4 7 5 11 6 9 7 8 8 10 10 2 12 1 13
REMARK H PARENT 8 9 10 11 1 14
REMARK Flexibility Score: inf
ROOT
ATOM      1  C   UNL     1      -4.985 -23.965  35.424  1.00  0.00     0.064 C 
ENDROOT
BRANCH   1   2
ATOM      2  C   UNL     1      -6.131 -24.924  35.624  1.00  0.00    -0.042 A 
ATOM      3  C   UNL     1      -5.926 -26.305  35.487  1.00  0.00     0.008 A 
ATOM      4  C   UNL     1      -6.993 -27.194  35.644  1.00  0.00     0.050 A 
ATOM      5  C   UNL     1      -8.278 -26.714  35.930  1.00  0.00     0.157 A 
ATOM      6  C   UNL     1      -7.420 -24.443  35.901  1.00  0.00     0.054 A 
ATOM      7  C   UNL     1      -8.491 -25.330  36.058  1.00  0.00     0.157 A 
BRANCH   5   8
ATOM      8  O   UNL     1      -9.340 -27.602  36.088  1.00  0.00    -0.504 OA
ATOM      9  H   UNL     1      -9.787 -28.041  35.292  1.00  0.00     0.293 HD
ENDBRANCH   5   8
BRANCH   7  10
ATOM     10  O   UNL     1      -9.758 -24.819  36.337  1.00  0.00    -0.504 OA
ATOM     11  H   UNL     1      -9.945 -24.267  37.166  1.00  0.00     0.293 HD
ENDBRANCH   7  10
ENDBRANCH   1   2
BRANCH   1  12
ATOM     12  C   UNL     1      -5.203 -23.089  34.187  1.00  0.00     0.161 C 
BRANCH  12  13
ATOM     13  O   UNL     1      -5.033 -23.832  33.010  1.00  0.00    -0.396 OA
ATOM     14  H   UNL     1      -4.720 -23.195  32.315  1.00  0.00     0.210 HD
ENDBRANCH  12  13
ENDBRANCH   1  12
TORSDOF 5
ENDMDL
MODEL 5
REMARK VINA RESULT:    -4.457      1.471      4.636
REMARK INTER + INTRA:          -5.471
REMARK INTER:                  -5.420
REMARK INTRA:                  -0.051
REMARK UNBOUND:                -0.103
REMARK SMILES OCCc1ccc(O)c(O)c1
REMARK SMILES IDX 3 1 4 2 5 3 6 4 7 5 11 6 9 7 8 8 10 10 2 12 1 13
REMARK H PARENT 8 9 10 11 1 14
REMARK Flexibility Score: inf
ROOT
ATOM      1  C   UNL     1      -7.718 -27.711  34.432  1.00  0.00     0.064 C 
ENDROOT
BRANCH   1   2
ATOM      2  C   UNL     1      -7.006 -26.407  34.180  1.00  0.00    -0.042 A 
ATOM      3  C   UNL     1      -7.004 -25.841  32.895  1.00  0.00     0.008 A 
ATOM      4  C   UNL     1      -6.321 -24.647  32.653  1.00  0.00     0.050 A 
ATOM      5  C   UNL     1      -5.624 -24.008  33.688  1.00  0.00     0.157 A 
ATOM      6  C   UNL     1      -6.299 -25.771  35.213  1.00  0.00     0.054 A 
ATOM      7  C   UNL     1      -5.612 -24.576  34.973  1.00  0.00     0.157 A 
BRANCH   5   8
ATOM      8  O   UNL     1      -4.944 -22.816  33.444  1.00  0.00    -0.504 OA
ATOM      9  H   UNL     1      -5.301 -22.125  32.796  1.00  0.00     0.293 HD
ENDBRANCH   5   8
BRANCH   7  10
ATOM     10  O   UNL     1      -4.924 -23.969  36.023  1.00  0.00    -0.504 OA
ATOM     11  H   UNL     1      -5.351 -23.814  36.929  1.00  0.00     0.293 HD
ENDBRANCH   7  10
ENDBRANCH   1   2
BRANCH   1  12
ATOM     12  C   UNL     1      -8.870 -27.532  35.425  1.00  0.00     0.161 C 
BRANCH  12  13
ATOM     13  O   UNL     1      -9.859 -28.507  35.228  1.00  0.00    -0.396 OA
ATOM     14  H   UNL     1      -9.836 -29.100  36.025  1.00  0.00     0.210 HD
ENDBRANCH  12  13
ENDBRANCH   1  12
TORSDOF 5
ENDMDL
MODEL 6
REMARK VINA RESULT:    -4.436      1.683      4.434
REMARK INTER + INTRA:          -5.447
REMARK INTER:                  -5.378
REMARK INTRA:                  -0.069
REMARK UNBOUND:                -0.103
REMARK SMILES OCCc1ccc(O)c(O)c1
REMARK SMILES IDX 3 1 4 2 5 3 6 4 7 5 11 6 9 7 8 8 10 10 2 12 1 13
REMARK H PARENT 8 9 10 11 1 14
REMARK Flexibility Score: inf
ROOT
ATOM      1  C   UNL     1      -7.263 -27.053  35.083  1.00  0.00     0.064 C 
ENDROOT
BRANCH   1   2
ATOM      2  C   UNL     1      -7.195 -25.676  34.475  1.00  0.00    -0.042 A 
ATOM      3  C   UNL     1      -6.581 -25.485  33.228  1.00  0.00     0.008 A 
ATOM      4  C   UNL     1      -6.492 -24.205  32.676  1.00  0.00     0.050 A 
ATOM      5  C   UNL     1      -7.006 -23.098  33.366  1.00  0.00     0.157 A 
ATOM      6  C   UNL     1      -7.700 -24.566  35.171  1.00  0.00     0.054 A 
ATOM      7  C   UNL     1      -7.611 -23.282  34.622  1.00  0.00     0.157 A 
BRANCH   5   8
ATOM      8  O   UNL     1      -6.916 -21.823  32.813  1.00  0.00    -0.504 OA
ATOM      9  H   UNL     1      -6.428 -21.072  33.286  1.00  0.00     0.293 HD
ENDBRANCH   5   8
BRANCH   7  10
ATOM     10  O   UNL     1      -8.127 -22.203  35.337  1.00  0.00    -0.504 OA
ATOM     11  H   UNL     1      -8.709 -22.329  36.157  1.00  0.00     0.293 HD
ENDBRANCH   7  10
ENDBRANCH   1   2
BRANCH   1  12
ATOM     12  C   UNL     1      -8.504 -27.210  35.966  1.00  0.00     0.161 C 
BRANCH  12  13
ATOM     13  O   UNL     1      -9.254 -28.332  35.583  1.00  0.00    -0.396 OA
ATOM     14  H   UNL     1      -9.047 -29.049  36.238  1.00  0.00     0.210 HD
ENDBRANCH  12  13
ENDBRANCH   1  12
TORSDOF 5
ENDMDL
MODEL 7
REMARK VINA RESULT:    -4.321      5.129      7.339
REMARK INTER + INTRA:          -5.308
REMARK INTER:                  -5.227
REMARK INTRA:                  -0.082
REMARK UNBOUND:                -0.103
REMARK SMILES OCCc1ccc(O)c(O)c1
REMARK SMILES IDX 3 1 4 2 5 3 6 4 7 5 11 6 9 7 8 8 10 10 2 12 1 13
REMARK H PARENT 8 9 10 11 1 14
REMARK Flexibility Score: inf
ROOT
ATOM      1  C   UNL     1      -8.871 -22.067  33.760  1.00  0.00     0.064 C 
ENDROOT
BRANCH   1   2
ATOM      2  C   UNL     1      -7.797 -21.098  34.185  1.00  0.00    -0.042 A 
ATOM      3  C   UNL     1      -7.932 -20.376  35.380  1.00  0.00     0.008 A 
ATOM      4  C   UNL     1      -6.951 -19.457  35.762  1.00  0.00     0.050 A 
ATOM      5  C   UNL     1      -5.829 -19.240  34.949  1.00  0.00     0.157 A 
ATOM      6  C   UNL     1      -6.679 -20.874  33.367  1.00  0.00     0.054 A 
ATOM      7  C   UNL     1      -5.695 -19.952  33.745  1.00  0.00     0.157 A 
BRANCH   5   8
ATOM      8  O   UNL     1      -4.852 -18.324  35.332  1.00  0.00    -0.504 OA
ATOM      9  H   UNL     1      -4.665 -18.125  36.308  1.00  0.00     0.293 HD
ENDBRANCH   5   8
BRANCH   7  10
ATOM     10  O   UNL     1      -4.595 -19.757  32.911  1.00  0.00    -0.504 OA
ATOM     11  H   UNL     1      -4.564 -20.121  31.966  1.00  0.00     0.293 HD
ENDBRANCH   7  10
ENDBRANCH   1   2
BRANCH   1  12
ATOM     12  C   UNL     1     -10.010 -21.350  33.029  1.00  0.00     0.161 C 
BRANCH  12  13
ATOM     13  O   UNL     1     -11.138 -21.230  33.854  1.00  0.00    -0.396 OA
ATOM     14  H   UNL     1     -11.259 -22.110  34.299  1.00  0.00     0.210 HD
ENDBRANCH  12  13
ENDBRANCH   1  12
TORSDOF 5
ENDMDL
MODEL 8
REMARK VINA RESULT:    -4.289      4.610      5.833
REMARK INTER + INTRA:          -5.269
REMARK INTER:                  -5.211
REMARK INTRA:                  -0.058
REMARK UNBOUND:                -0.103
REMARK SMILES OCCc1ccc(O)c(O)c1
REMARK SMILES IDX 3 1 4 2 5 3 6 4 7 5 11 6 9 7 8 8 10 10 2 12 1 13
REMARK H PARENT 8 9 10 11 1 14
REMARK Flexibility Score: inf
ROOT
ATOM      1  C   UNL     1      -8.102 -20.302  36.026  1.00  0.00     0.064 C 
ENDROOT
BRANCH   1   2
ATOM      2  C   UNL     1      -8.036 -21.069  34.730  1.00  0.00    -0.042 A 
ATOM      3  C   UNL     1      -9.108 -21.018  33.825  1.00  0.00     0.008 A 
ATOM      4  C   UNL     1      -9.061 -21.750  32.636  1.00  0.00     0.050 A 
ATOM      5  C   UNL     1      -7.948 -22.550  32.341  1.00  0.00     0.157 A 
ATOM      6  C   UNL     1      -6.927 -21.878  34.438  1.00  0.00     0.054 A 
ATOM      7  C   UNL     1      -6.877 -22.614  33.249  1.00  0.00     0.157 A 
BRANCH   5   8
ATOM      8  O   UNL     1      -7.903 -23.278  31.154  1.00  0.00    -0.504 OA
ATOM      9  H   UNL     1      -8.024 -22.832  30.253  1.00  0.00     0.293 HD
ENDBRANCH   5   8
BRANCH   7  10
ATOM     10  O   UNL     1      -5.757 -23.403  32.988  1.00  0.00    -0.504 OA
ATOM     11  H   UNL     1      -4.920 -23.026  32.560  1.00  0.00     0.293 HD
ENDBRANCH   7  10
ENDBRANCH   1   2
BRANCH   1  12
ATOM     12  C   UNL     1      -7.069 -19.173  36.056  1.00  0.00     0.161 C 
BRANCH  12  13
ATOM     13  O   UNL     1      -7.686 -17.933  36.282  1.00  0.00    -0.396 OA
ATOM     14  H   UNL     1      -7.048 -17.238  35.970  1.00  0.00     0.210 HD
ENDBRANCH  12  13
ENDBRANCH   1  12
TORSDOF 5
ENDMDL
MODEL 9
REMARK VINA RESULT:    -4.204      4.577      6.232
REMARK INTER + INTRA:          -5.166
REMARK INTER:                  -5.102
REMARK INTRA:                  -0.064
REMARK UNBOUND:                -0.103
REMARK SMILES OCCc1ccc(O)c(O)c1
REMARK SMILES IDX 3 1 4 2 5 3 6 4 7 5 11 6 9 7 8 8 10 10 2 12 1 13
REMARK H PARENT 8 9 10 11 1 14
REMARK Flexibility Score: inf
ROOT
ATOM      1  C   UNL     1      -5.125 -18.360  34.376  1.00  0.00     0.064 C 
ENDROOT
BRANCH   1   2
ATOM      2  C   UNL     1      -6.088 -19.509  34.535  1.00  0.00    -0.042 A 
ATOM      3  C   UNL     1      -7.030 -19.501  35.575  1.00  0.00     0.008 A 
ATOM      4  C   UNL     1      -7.905 -20.578  35.740  1.00  0.00     0.050 A 
ATOM      5  C   UNL     1      -7.844 -21.679  34.875  1.00  0.00     0.157 A 
ATOM      6  C   UNL     1      -6.021 -20.616  33.675  1.00  0.00     0.054 A 
ATOM      7  C   UNL     1      -6.895 -21.698  33.838  1.00  0.00     0.157 A 
BRANCH   5   8
ATOM      8  O   UNL     1      -8.718 -22.751  35.041  1.00  0.00    -0.504 OA
ATOM      9  H   UNL     1      -8.466 -23.690  34.758  1.00  0.00     0.293 HD
ENDBRANCH   5   8
BRANCH   7  10
ATOM     10  O   UNL     1      -6.803 -22.779  32.964  1.00  0.00    -0.504 OA
ATOM     11  H   UNL     1      -7.624 -23.221  32.565  1.00  0.00     0.293 HD
ENDBRANCH   7  10
ENDBRANCH   1   2
BRANCH   1  12
ATOM     12  C   UNL     1      -3.904 -18.769  33.548  1.00  0.00     0.161 C 
BRANCH  12  13
ATOM     13  O   UNL     1      -3.983 -18.251  32.247  1.00  0.00    -0.396 OA
ATOM     14  H   UNL     1      -3.606 -18.944  31.643  1.00  0.00     0.210 HD
ENDBRANCH  12  13
ENDBRANCH   1  12
TORSDOF 5
ENDMDL
