MODEL 1
REMARK VINA RESULT:    -3.979      0.000      0.000
REMARK INTER + INTRA:          -4.606
REMARK INTER:                  -4.560
REMARK INTRA:                  -0.046
REMARK UNBOUND:                -0.046
REMARK SMILES O=C([O-])c1cc(O)c(O)c(O)c1
REMARK SMILES IDX 4 1 5 2 12 3 6 4 10 5 8 6 2 7 1 8 3 9 7 10 11 12 9 14
REMARK H PARENT 7 11 11 13 9 15
REMARK Flexibility Score: inf
ROOT
ATOM      1  C   UNL     1      15.115  29.285  18.033  1.00  0.00     0.005 A 
ATOM      2  C   UNL     1      15.224  28.676  19.294  1.00  0.00     0.060 A 
ATOM      3  C   UNL     1      14.482  30.536  17.932  1.00  0.00     0.060 A 
ATOM      4  C   UNL     1      14.712  29.306  20.438  1.00  0.00     0.162 A 
ATOM      5  C   UNL     1      13.970  31.171  19.067  1.00  0.00     0.162 A 
ATOM      6  C   UNL     1      14.082  30.557  20.326  1.00  0.00     0.200 A 
ENDROOT
BRANCH   1   7
ATOM      7  C   UNL     1      15.657  28.614  16.831  1.00  0.00     0.072 C 
ATOM      8  O   UNL     1      15.176  27.517  16.437  1.00  0.00    -0.545 OA
ATOM      9  O   UNL     1      16.705  29.184  16.118  1.00  0.00    -0.545 OA
ENDBRANCH   1   7
BRANCH   4  10
ATOM     10  O   UNL     1      14.827  28.692  21.684  1.00  0.00    -0.504 OA
ATOM     11  H   UNL     1      15.471  29.035  22.388  1.00  0.00     0.293 HD
ENDBRANCH   4  10
BRANCH   5  12
ATOM     12  O   UNL     1      13.349  32.412  18.925  1.00  0.00    -0.504 OA
ATOM     13  H   UNL     1      12.358  32.540  19.081  1.00  0.00     0.293 HD
ENDBRANCH   5  12
BRANCH   6  14
ATOM     14  O   UNL     1      13.567  31.198  21.454  1.00  0.00    -0.502 OA
ATOM     15  H   UNL     1      13.899  30.995  22.389  1.00  0.00     0.293 HD
ENDBRANCH   6  14
TORSDOF 4
ENDMDL
MODEL 2
REMARK VINA RESULT:    -3.977      0.037      2.429
REMARK INTER + INTRA:          -4.605
REMARK INTER:                  -4.559
REMARK INTRA:                  -0.046
REMARK UNBOUND:                -0.046
REMARK SMILES O=C([O-])c1cc(O)c(O)c(O)c1
REMARK SMILES IDX 4 1 5 2 12 3 6 4 10 5 8 6 2 7 1 8 3 9 7 10 11 12 9 14
REMARK H PARENT 7 11 11 13 9 15
REMARK Flexibility Score: inf
ROOT
ATOM      1  C   UNL     1      15.132  29.280  18.037  1.00  0.00     0.005 A 
ATOM      2  C   UNL     1      14.509  30.534  17.921  1.00  0.00     0.060 A 
ATOM      3  C   UNL     1      15.237  28.685  19.306  1.00  0.00     0.060 A 
ATOM      4  C   UNL     1      13.995  31.183  19.053  1.00  0.00     0.162 A 
ATOM      5  C   UNL     1      14.728  29.326  20.440  1.00  0.00     0.162 A 
ATOM      6  C   UNL     1      14.104  30.579  20.318  1.00  0.00     0.200 A 
ENDROOT
BRANCH   1   7
ATOM      7  C   UNL     1      15.672  28.602  16.838  1.00  0.00     0.072 C 
ATOM      8  O   UNL     1      15.149  27.535  16.416  1.00  0.00    -0.545 OA
ATOM      9  O   UNL     1      16.763  29.132  16.159  1.00  0.00    -0.545 OA
ENDBRANCH   1   7
BRANCH   4  10
ATOM     10  O   UNL     1      13.377  32.426  18.926  1.00  0.00    -0.504 OA
ATOM     11  H   UNL     1      12.720  32.618  18.178  1.00  0.00     0.293 HD
ENDBRANCH   4  10
BRANCH   5  12
ATOM     12  O   UNL     1      14.851  28.702  21.681  1.00  0.00    -0.504 OA
ATOM     13  H   UNL     1      14.353  27.851  21.909  1.00  0.00     0.293 HD
ENDBRANCH   5  12
BRANCH   6  14
ATOM     14  O   UNL     1      13.599  31.211  21.455  1.00  0.00    -0.502 OA
ATOM     15  H   UNL     1      12.726  31.725  21.443  1.00  0.00     0.293 HD
ENDBRANCH   6  14
TORSDOF 4
ENDMDL
MODEL 3
REMARK VINA RESULT:    -3.911      9.757     11.470
REMARK INTER + INTRA:          -4.529
REMARK INTER:                  -4.483
REMARK INTRA:                  -0.046
REMARK UNBOUND:                -0.046
REMARK SMILES O=C([O-])c1cc(O)c(O)c(O)c1
REMARK SMILES IDX 4 1 5 2 12 3 6 4 10 5 8 6 2 7 1 8 3 9 7 10 11 12 9 14
REMARK H PARENT 7 11 11 13 9 15
REMARK Flexibility Score: inf
ROOT
ATOM      1  C   UNL     1      16.236  20.723  23.281  1.00  0.00     0.005 A 
ATOM      2  C   UNL     1      16.959  19.563  23.606  1.00  0.00     0.060 A 
ATOM      3  C   UNL     1      14.941  20.594  22.750  1.00  0.00     0.060 A 
ATOM      4  C   UNL     1      16.398  18.293  23.405  1.00  0.00     0.162 A 
ATOM      5  C   UNL     1      14.375  19.331  22.547  1.00  0.00     0.162 A 
ATOM      6  C   UNL     1      15.102  18.174  22.874  1.00  0.00     0.200 A 
ENDROOT
BRANCH   1   7
ATOM      7  C   UNL     1      16.834  22.059  23.496  1.00  0.00     0.072 C 
ATOM      8  O   UNL     1      17.088  22.812  22.517  1.00  0.00    -0.545 OA
ATOM      9  O   UNL     1      17.125  22.504  24.780  1.00  0.00    -0.545 OA
ENDBRANCH   1   7
BRANCH   4  10
ATOM     10  O   UNL     1      17.125  17.149  23.732  1.00  0.00    -0.504 OA
ATOM     11  H   UNL     1      17.348  16.445  23.037  1.00  0.00     0.293 HD
ENDBRANCH   4  10
BRANCH   5  12
ATOM     12  O   UNL     1      13.087  19.245  22.018  1.00  0.00    -0.504 OA
ATOM     13  H   UNL     1      12.272  19.559  22.530  1.00  0.00     0.293 HD
ENDBRANCH   5  12
BRANCH   6  14
ATOM     14  O   UNL     1      14.530  16.919  22.668  1.00  0.00    -0.502 OA
ATOM     15  H   UNL     1      13.696  16.791  22.107  1.00  0.00     0.293 HD
ENDBRANCH   6  14
TORSDOF 4
ENDMDL
MODEL 4
REMARK VINA RESULT:    -3.802      1.516      2.019
REMARK INTER + INTRA:          -4.403
REMARK INTER:                  -4.351
REMARK INTRA:                  -0.052
REMARK UNBOUND:                -0.046
REMARK SMILES O=C([O-])c1cc(O)c(O)c(O)c1
REMARK SMILES IDX 4 1 5 2 12 3 6 4 10 5 8 6 2 7 1 8 3 9 7 10 11 12 9 14
REMARK H PARENT 7 11 11 13 9 15
REMARK Flexibility Score: inf
ROOT
ATOM      1  C   UNL     1      15.391  29.441  17.070  1.00  0.00     0.005 A 
ATOM      2  C   UNL     1      14.386  29.039  17.965  1.00  0.00     0.060 A 
ATOM      3  C   UNL     1      15.751  30.798  17.013  1.00  0.00     0.060 A 
ATOM      4  C   UNL     1      13.751  29.976  18.794  1.00  0.00     0.162 A 
ATOM      5  C   UNL     1      15.122  31.738  17.836  1.00  0.00     0.162 A 
ATOM      6  C   UNL     1      14.118  31.331  18.730  1.00  0.00     0.200 A 
ENDROOT
BRANCH   1   7
ATOM      7  C   UNL     1      16.056  28.446  16.200  1.00  0.00     0.072 C 
ATOM      8  O   UNL     1      17.123  28.737  15.595  1.00  0.00    -0.545 OA
ATOM      9  O   UNL     1      15.514  27.177  16.037  1.00  0.00    -0.545 OA
ENDBRANCH   1   7
BRANCH   4  10
ATOM     10  O   UNL     1      12.755  29.564  19.678  1.00  0.00    -0.504 OA
ATOM     11  H   UNL     1      12.540  30.090  20.518  1.00  0.00     0.293 HD
ENDBRANCH   4  10
BRANCH   5  12
ATOM     12  O   UNL     1      15.509  33.076  17.750  1.00  0.00    -0.504 OA
ATOM     13  H   UNL     1      15.994  33.547  18.503  1.00  0.00     0.293 HD
ENDBRANCH   5  12
BRANCH   6  14
ATOM     14  O   UNL     1      13.496  32.276  19.546  1.00  0.00    -0.502 OA
ATOM     15  H   UNL     1      12.548  32.591  19.380  1.00  0.00     0.293 HD
ENDBRANCH   6  14
TORSDOF 4
ENDMDL
MODEL 5
REMARK VINA RESULT:    -3.785      1.454      2.687
REMARK INTER + INTRA:          -4.384
REMARK INTER:                  -4.332
REMARK INTRA:                  -0.052
REMARK UNBOUND:                -0.046
REMARK SMILES O=C([O-])c1cc(O)c(O)c(O)c1
REMARK SMILES IDX 4 1 5 2 12 3 6 4 10 5 8 6 2 7 1 8 3 9 7 10 11 12 9 14
REMARK H PARENT 7 11 11 13 9 15
REMARK Flexibility Score: inf
ROOT
ATOM      1  C   UNL     1      15.278  29.497  17.225  1.00  0.00     0.005 A 
ATOM      2  C   UNL     1      15.595  30.865  17.210  1.00  0.00     0.060 A 
ATOM      3  C   UNL     1      14.288  29.035  18.110  1.00  0.00     0.060 A 
ATOM      4  C   UNL     1      14.934  31.761  18.063  1.00  0.00     0.162 A 
ATOM      5  C   UNL     1      13.624  29.922  18.963  1.00  0.00     0.162 A 
ATOM      6  C   UNL     1      13.945  31.290  18.943  1.00  0.00     0.200 A 
ENDROOT
BRANCH   1   7
ATOM      7  C   UNL     1      15.980  28.558  16.322  1.00  0.00     0.072 C 
ATOM      8  O   UNL     1      17.074  28.882  15.786  1.00  0.00    -0.545 OA
ATOM      9  O   UNL     1      15.443  27.304  16.053  1.00  0.00    -0.545 OA
ENDBRANCH   1   7
BRANCH   4  10
ATOM     10  O   UNL     1      15.258  33.116  18.038  1.00  0.00    -0.504 OA
ATOM     11  H   UNL     1      14.814  33.780  18.663  1.00  0.00     0.293 HD
ENDBRANCH   4  10
BRANCH   5  12
ATOM     12  O   UNL     1      12.647  29.425  19.826  1.00  0.00    -0.504 OA
ATOM     13  H   UNL     1      12.858  28.740  20.541  1.00  0.00     0.293 HD
ENDBRANCH   5  12
BRANCH   6  14
ATOM     14  O   UNL     1      13.278  32.167  19.799  1.00  0.00    -0.502 OA
ATOM     15  H   UNL     1      13.394  33.172  19.739  1.00  0.00     0.293 HD
ENDBRANCH   6  14
TORSDOF 4
ENDMDL
MODEL 6
REMARK VINA RESULT:    -3.711      1.324      3.711
REMARK INTER + INTRA:          -4.300
REMARK INTER:                  -4.255
REMARK INTRA:                  -0.045
REMARK UNBOUND:                -0.046
REMARK SMILES O=C([O-])c1cc(O)c(O)c(O)c1
REMARK SMILES IDX 4 1 5 2 12 3 6 4 10 5 8 6 2 7 1 8 3 9 7 10 11 12 9 14
REMARK H PARENT 7 11 11 13 9 15
REMARK Flexibility Score: inf
ROOT
ATOM      1  C   UNL     1      14.493  29.360  20.139  1.00  0.00     0.005 A 
ATOM      2  C   UNL     1      14.985  29.107  18.848  1.00  0.00     0.060 A 
ATOM      3  C   UNL     1      14.012  30.645  20.445  1.00  0.00     0.060 A 
ATOM      4  C   UNL     1      14.997  30.118  17.877  1.00  0.00     0.162 A 
ATOM      5  C   UNL     1      14.020  31.659  19.482  1.00  0.00     0.162 A 
ATOM      6  C   UNL     1      14.513  31.399  18.192  1.00  0.00     0.200 A 
ENDROOT
BRANCH   1   7
ATOM      7  C   UNL     1      14.484  28.288  21.159  1.00  0.00     0.072 C 
ATOM      8  O   UNL     1      15.337  28.279  22.086  1.00  0.00    -0.545 OA
ATOM      9  O   UNL     1      13.533  27.276  21.109  1.00  0.00    -0.545 OA
ENDBRANCH   1   7
BRANCH   4  10
ATOM     10  O   UNL     1      15.488  29.853  16.599  1.00  0.00    -0.504 OA
ATOM     11  H   UNL     1      16.021  30.543  16.081  1.00  0.00     0.293 HD
ENDBRANCH   4  10
BRANCH   5  12
ATOM     12  O   UNL     1      13.534  32.921  19.825  1.00  0.00    -0.504 OA
ATOM     13  H   UNL     1      13.732  33.744  19.270  1.00  0.00     0.293 HD
ENDBRANCH   5  12
BRANCH   6  14
ATOM     14  O   UNL     1      14.519  32.417  17.238  1.00  0.00    -0.502 OA
ATOM     15  H   UNL     1      13.720  33.022  17.090  1.00  0.00     0.293 HD
ENDBRANCH   6  14
TORSDOF 4
ENDMDL
MODEL 7
REMARK VINA RESULT:    -3.706      1.284      3.905
REMARK INTER + INTRA:          -4.294
REMARK INTER:                  -4.249
REMARK INTRA:                  -0.045
REMARK UNBOUND:                -0.046
REMARK SMILES O=C([O-])c1cc(O)c(O)c(O)c1
REMARK SMILES IDX 4 1 5 2 12 3 6 4 10 5 8 6 2 7 1 8 3 9 7 10 11 12 9 14
REMARK H PARENT 7 11 11 13 9 15
REMARK Flexibility Score: inf
ROOT
ATOM      1  C   UNL     1      14.506  29.308  20.124  1.00  0.00     0.005 A 
ATOM      2  C   UNL     1      14.012  30.590  20.413  1.00  0.00     0.060 A 
ATOM      3  C   UNL     1      15.015  29.045  18.840  1.00  0.00     0.060 A 
ATOM      4  C   UNL     1      14.027  31.598  19.437  1.00  0.00     0.162 A 
ATOM      5  C   UNL     1      15.032  30.044  17.862  1.00  0.00     0.162 A 
ATOM      6  C   UNL     1      14.538  31.325  18.156  1.00  0.00     0.200 A 
ENDROOT
BRANCH   1   7
ATOM      7  C   UNL     1      14.488  28.251  21.159  1.00  0.00     0.072 C 
ATOM      8  O   UNL     1      15.333  28.254  22.095  1.00  0.00    -0.545 OA
ATOM      9  O   UNL     1      13.536  27.238  21.116  1.00  0.00    -0.545 OA
ENDBRANCH   1   7
BRANCH   4  10
ATOM     10  O   UNL     1      13.535  32.867  19.735  1.00  0.00    -0.504 OA
ATOM     11  H   UNL     1      13.034  33.418  19.048  1.00  0.00     0.293 HD
ENDBRANCH   4  10
BRANCH   5  12
ATOM     12  O   UNL     1      15.545  29.743  16.600  1.00  0.00    -0.504 OA
ATOM     13  H   UNL     1      15.579  28.797  16.243  1.00  0.00     0.293 HD
ENDBRANCH   5  12
BRANCH   6  14
ATOM     14  O   UNL     1      14.559  32.315  17.173  1.00  0.00    -0.502 OA
ATOM     15  H   UNL     1      15.226  33.077  17.189  1.00  0.00     0.293 HD
ENDBRANCH   6  14
TORSDOF 4
ENDMDL
MODEL 8
REMARK VINA RESULT:    -3.646     13.146     15.014
REMARK INTER + INTRA:          -4.224
REMARK INTER:                  -4.176
REMARK INTRA:                  -0.049
REMARK UNBOUND:                -0.046
REMARK SMILES O=C([O-])c1cc(O)c(O)c(O)c1
REMARK SMILES IDX 4 1 5 2 12 3 6 4 10 5 8 6 2 7 1 8 3 9 7 10 11 12 9 14
REMARK H PARENT 7 11 11 13 9 15
REMARK Flexibility Score: inf
ROOT
ATOM      1  C   UNL     1      15.052  15.736  18.900  1.00  0.00     0.005 A 
ATOM      2  C   UNL     1      15.773  14.654  18.369  1.00  0.00     0.060 A 
ATOM      3  C   UNL     1      13.931  16.217  18.200  1.00  0.00     0.060 A 
ATOM      4  C   UNL     1      15.383  14.059  17.160  1.00  0.00     0.162 A 
ATOM      5  C   UNL     1      13.536  15.630  16.994  1.00  0.00     0.162 A 
ATOM      6  C   UNL     1      14.261  14.547  16.469  1.00  0.00     0.200 A 
ENDROOT
BRANCH   1   7
ATOM      7  C   UNL     1      15.469  16.358  20.175  1.00  0.00     0.072 C 
ATOM      8  O   UNL     1      15.793  15.643  21.161  1.00  0.00    -0.545 OA
ATOM      9  O   UNL     1      15.511  17.742  20.304  1.00  0.00    -0.545 OA
ENDBRANCH   1   7
BRANCH   4  10
ATOM     10  O   UNL     1      16.107  12.986  16.645  1.00  0.00    -0.504 OA
ATOM     11  H   UNL     1      16.462  12.991  15.695  1.00  0.00     0.293 HD
ENDBRANCH   4  10
BRANCH   5  12
ATOM     12  O   UNL     1      12.418  16.136  16.331  1.00  0.00    -0.504 OA
ATOM     13  H   UNL     1      11.695  16.656  16.812  1.00  0.00     0.293 HD
ENDBRANCH   5  12
BRANCH   6  14
ATOM     14  O   UNL     1      13.860  13.968  15.265  1.00  0.00    -0.502 OA
ATOM     15  H   UNL     1      13.147  14.383  14.677  1.00  0.00     0.293 HD
ENDBRANCH   6  14
TORSDOF 4
ENDMDL
