MODEL 1
REMARK VINA RESULT:    -2.955      0.000      0.000
REMARK INTER + INTRA:          -3.102
REMARK INTER:                  -4.509
REMARK INTRA:                   1.407
REMARK UNBOUND:                 1.407
REMARK SMILES CC1=CCC[C@@H](C)C(=O)C[C@@H](C(C)C)C(=O)C1
REMARK SMILES IDX 8 1 9 2 6 3 7 4 5 5 4 6 3 7 2 8 1 9 10 11 11 12 15 13 16 14
REMARK SMILES IDX 17 15 12 17 13 18 14 19
REMARK H PARENT
REMARK Flexibility Score: 70.00
ROOT
ATOM      1  C   UNL     1      11.993   7.172   2.851  1.00  0.00     0.136 C 
ATOM      2  O   UNL     1      11.822   6.467   3.834  1.00  0.00    -0.299 OA
ENDROOT
BRANCH   1   3
ATOM      3  C   UNL     1      11.398   6.766   1.518  1.00  0.00     0.053 C 
ATOM      4  C   UNL     1      12.501   6.742   0.456  1.00  0.00     0.016 C 
BRANCH   3   5
ATOM      5  C   UNL     1      10.252   7.704   1.078  1.00  0.00     0.015 C 
BRANCH   5   6
ATOM      6  C   UNL     1      10.231   7.969  -0.434  1.00  0.00     0.028 C 
BRANCH   6   7
ATOM      7  C   UNL     1      11.131   9.126  -0.799  1.00  0.00    -0.028 C 
ATOM      8  C   UNL     1      11.306  10.260  -0.080  1.00  0.00    -0.070 CG0
ATOM      9  C   UNL     1      12.236  11.307  -0.639  1.00  0.00     0.039 C 
ATOM     10  G   UNL     1      10.607  10.545   1.237  1.00  0.00     0.000 G0
ENDBRANCH   6   7
ENDBRANCH   5   6
ENDBRANCH   3   5
ENDBRANCH   1   3
BRANCH   1  11
ATOM     11  C   UNL     1      12.695   8.499   3.004  1.00  0.00     0.087 C 
BRANCH  11  12
ATOM     12  C   UNL     1      11.779   9.644   3.504  1.00  0.00     0.066 C 
BRANCH  12  13
ATOM     13  C   UNL     1      11.595  10.675   2.390  1.00  0.00     0.140 C 
ATOM     14  O   UNL     1      12.315  11.663   2.411  1.00  0.00    -0.299 OA
BRANCH  13  15
ATOM     15  C   UNL     1      10.610  10.545   1.246  1.00  0.00     0.106 CG0
ATOM     16  G   UNL     1      11.317  10.274  -0.071  1.00  0.00     0.000 G0
ENDBRANCH  13  15
ENDBRANCH  12  13
BRANCH  12  17
ATOM     17  C   UNL     1      12.156  10.219   4.911  1.00  0.00    -0.006 C 
ATOM     18  C   UNL     1      10.896  10.581   5.721  1.00  0.00     0.008 C 
ATOM     19  C   UNL     1      12.980   9.215   5.741  1.00  0.00     0.008 C 
ENDBRANCH  12  17
ENDBRANCH  11  12
ENDBRANCH   1  11
TORSDOF 1
ENDMDL
MODEL 2
REMARK VINA RESULT:    -1.791     23.627     25.129
REMARK INTER + INTRA:          -1.326
REMARK INTER:                  -1.555
REMARK INTRA:                   0.230
REMARK UNBOUND:                 1.407
REMARK SMILES CC1=CCC[C@@H](C)C(=O)C[C@@H](C(C)C)C(=O)C1
REMARK SMILES IDX 8 1 9 2 6 3 7 4 5 5 4 6 3 7 2 8 1 9 10 11 11 12 15 13 16 14
REMARK SMILES IDX 17 15 12 17 13 18 14 19
REMARK H PARENT
REMARK Flexibility Score: 70.00
ROOT
ATOM      1  C   UNL     1       0.988  -7.504  15.547  1.00  0.00     0.136 C 
ATOM      2  O   UNL     1       2.099  -7.278  15.091  1.00  0.00    -0.299 OA
ENDROOT
BRANCH   1   3
ATOM      3  C   UNL     1      -0.118  -7.991  14.632  1.00  0.00     0.053 C 
ATOM      4  C   UNL     1       0.281  -7.742  13.175  1.00  0.00     0.016 C 
BRANCH   3   5
ATOM      5  C   UNL     1      -1.472  -7.313  14.939  1.00  0.00     0.015 C 
BRANCH   5   6
ATOM      6  C   UNL     1      -2.353  -8.123  15.900  1.00  0.00     0.028 C 
BRANCH   6   7
ATOM      7  C   UNL     1      -3.238  -7.218  16.725  1.00  0.00    -0.028 C 
ATOM      8  C   UNL     1      -2.952  -6.721  17.951  1.00  0.00    -0.070 CG0
ATOM      9  C   UNL     1      -3.990  -5.852  18.615  1.00  0.00     0.039 C 
ATOM     10  G   UNL     1      -1.662  -7.005  18.701  1.00  0.00     0.000 G0
ENDBRANCH   6   7
ENDBRANCH   5   6
ENDBRANCH   3   5
ENDBRANCH   1   3
BRANCH   1  11
ATOM     11  C   UNL     1       0.763  -7.405  17.035  1.00  0.00     0.087 C 
BRANCH  11  12
ATOM     12  C   UNL     1       0.586  -5.955  17.552  1.00  0.00     0.066 C 
BRANCH  12  13
ATOM     13  C   UNL     1      -0.620  -5.889  18.488  1.00  0.00     0.140 C 
ATOM     14  O   UNL     1      -0.801  -4.848  19.104  1.00  0.00    -0.299 OA
BRANCH  13  15
ATOM     15  C   UNL     1      -1.625  -7.006  18.683  1.00  0.00     0.106 CG0
ATOM     16  G   UNL     1      -2.926  -6.721  17.953  1.00  0.00     0.000 G0
ENDBRANCH  13  15
ENDBRANCH  12  13
BRANCH  12  17
ATOM     17  C   UNL     1       0.650  -4.852  16.442  1.00  0.00    -0.006 C 
ATOM     18  C   UNL     1      -0.733  -4.214  16.210  1.00  0.00     0.008 C 
ATOM     19  C   UNL     1       1.636  -3.725  16.807  1.00  0.00     0.008 C 
ENDBRANCH  12  17
ENDBRANCH  11  12
ENDBRANCH   1  11
TORSDOF 1
ENDMDL
MODEL 3
REMARK VINA RESULT:    -1.234     23.384     24.992
REMARK INTER + INTRA:          -0.477
REMARK INTER:                  -2.997
REMARK INTRA:                   2.520
REMARK UNBOUND:                 1.407
REMARK SMILES CC1=CCC[C@@H](C)C(=O)C[C@@H](C(C)C)C(=O)C1
REMARK SMILES IDX 8 1 9 2 6 3 7 4 5 5 4 6 3 7 2 8 1 9 10 11 11 12 15 13 16 14
REMARK SMILES IDX 17 15 12 17 13 18 14 19
REMARK H PARENT
REMARK Flexibility Score: 70.00
ROOT
ATOM      1  C   UNL     1      -1.084  -7.916  15.792  1.00  0.00     0.136 C 
ATOM      2  O   UNL     1      -0.835  -7.746  14.608  1.00  0.00    -0.299 OA
ENDROOT
BRANCH   1   3
ATOM      3  C   UNL     1      -2.523  -8.058  16.247  1.00  0.00     0.053 C 
ATOM      4  C   UNL     1      -3.387  -7.015  15.534  1.00  0.00     0.016 C 
BRANCH   3   5
ATOM      5  C   UNL     1      -2.668  -7.916  17.779  1.00  0.00     0.015 C 
BRANCH   5   6
ATOM      6  C   UNL     1      -3.365  -6.617  18.205  1.00  0.00     0.028 C 
BRANCH   6   7
ATOM      7  C   UNL     1      -2.392  -5.663  18.856  1.00  0.00    -0.028 C 
ATOM      8  C   UNL     1      -1.319  -5.087  18.264  1.00  0.00    -0.070 CG0
ATOM      9  C   UNL     1      -0.456  -4.180  19.104  1.00  0.00     0.039 C 
ATOM     10  G   UNL     1      -0.925  -5.319  16.815  1.00  0.00     0.000 G0
ENDBRANCH   6   7
ENDBRANCH   5   6
ENDBRANCH   3   5
ENDBRANCH   1   3
BRANCH   1  11
ATOM     11  C   UNL     1       0.050  -8.100  16.769  1.00  0.00     0.087 C 
BRANCH  11  12
ATOM     12  C   UNL     1       1.180  -7.049  16.629  1.00  0.00     0.066 C 
BRANCH  12  13
ATOM     13  C   UNL     1       0.585  -5.643  16.712  1.00  0.00     0.140 C 
ATOM     14  O   UNL     1       1.360  -4.698  16.666  1.00  0.00    -0.299 OA
BRANCH  13  15
ATOM     15  C   UNL     1      -0.896  -5.336  16.814  1.00  0.00     0.106 CG0
ATOM     16  G   UNL     1      -1.310  -5.054  18.248  1.00  0.00     0.000 G0
ENDBRANCH  13  15
ENDBRANCH  12  13
BRANCH  12  17
ATOM     17  C   UNL     1       2.168  -7.303  15.440  1.00  0.00    -0.006 C 
ATOM     18  C   UNL     1       2.242  -6.079  14.506  1.00  0.00     0.008 C 
ATOM     19  C   UNL     1       3.595  -7.611  15.932  1.00  0.00     0.008 C 
ENDBRANCH  12  17
ENDBRANCH  11  12
ENDBRANCH   1  11
TORSDOF 1
ENDMDL
MODEL 4
REMARK VINA RESULT:    -0.352      1.836      4.069
REMARK INTER + INTRA:           0.871
REMARK INTER:                  -2.430
REMARK INTRA:                   3.301
REMARK UNBOUND:                 1.407
REMARK SMILES CC1=CCC[C@@H](C)C(=O)C[C@@H](C(C)C)C(=O)C1
REMARK SMILES IDX 8 1 9 2 6 3 7 4 5 5 4 6 3 7 2 8 1 9 10 11 11 12 15 13 16 14
REMARK SMILES IDX 17 15 12 17 13 18 14 19
REMARK H PARENT
REMARK Flexibility Score: 70.00
ROOT
ATOM      1  C   UNL     1      12.288   8.522   0.769  1.00  0.00     0.136 C 
ATOM      2  O   UNL     1      11.314   8.670   0.045  1.00  0.00    -0.299 OA
ENDROOT
BRANCH   1   3
ATOM      3  C   UNL     1      12.790   7.127   1.082  1.00  0.00     0.053 C 
ATOM      4  C   UNL     1      11.755   6.098   0.618  1.00  0.00     0.016 C 
BRANCH   3   5
ATOM      5  C   UNL     1      13.095   6.939   2.585  1.00  0.00     0.015 C 
BRANCH   5   6
ATOM      6  C   UNL     1      11.835   6.892   3.459  1.00  0.00     0.028 C 
BRANCH   6   7
ATOM      7  C   UNL     1      11.779   8.071   4.401  1.00  0.00    -0.028 C 
ATOM      8  C   UNL     1      11.219   9.276   4.142  1.00  0.00    -0.070 CG0
ATOM      9  C   UNL     1      11.294  10.331   5.217  1.00  0.00     0.039 C 
ATOM     10  G   UNL     1      10.542   9.631   2.829  1.00  0.00     0.000 G0
ENDBRANCH   6   7
ENDBRANCH   5   6
ENDBRANCH   3   5
ENDBRANCH   1   3
BRANCH   1  11
ATOM     11  C   UNL     1      13.047   9.735   1.247  1.00  0.00     0.087 C 
BRANCH  11  12
ATOM     12  C   UNL     1      12.219  11.045   1.231  1.00  0.00     0.066 C 
BRANCH  12  13
ATOM     13  C   UNL     1      11.062  10.930   2.223  1.00  0.00     0.140 C 
ATOM     14  O   UNL     1      10.499  11.964   2.555  1.00  0.00    -0.299 OA
BRANCH  13  15
ATOM     15  C   UNL     1      10.541   9.629   2.799  1.00  0.00     0.106 CG0
ATOM     16  G   UNL     1      11.207   9.298   4.123  1.00  0.00     0.000 G0
ENDBRANCH  13  15
ENDBRANCH  12  13
BRANCH  12  17
ATOM     17  C   UNL     1      11.844  11.566  -0.198  1.00  0.00    -0.006 C 
ATOM     18  C   UNL     1      13.086  11.633  -1.109  1.00  0.00     0.008 C 
ATOM     19  C   UNL     1      10.801  10.664  -0.885  1.00  0.00     0.008 C 
ENDBRANCH  12  17
ENDBRANCH  11  12
ENDBRANCH   1  11
TORSDOF 1
ENDMDL
