MODEL 1
REMARK VINA RESULT:    -4.845      0.000      0.000
REMARK INTER + INTRA:          -4.987
REMARK INTER:                  -4.987
REMARK INTRA:                   0.000
REMARK UNBOUND:                 0.000
REMARK SMILES Nc1ncnc2nc[nH]c12
REMARK SMILES IDX 8 1 7 2 6 3 5 4 4 5 3 6 2 7 10 8 9 9 1 11
REMARK H PARENT 9 10 1 12 1 13
REMARK Flexibility Score: inf
ROOT
ATOM      1  C   UNL     1      24.756 -19.605  22.888  1.00  0.00     0.199 A 
ATOM      2  N   UNL     1      25.684 -20.451  22.364  1.00  0.00    -0.217 NA
ATOM      3  C   UNL     1      25.749 -20.045  21.086  1.00  0.00     0.182 A 
ATOM      4  N   UNL     1      26.536 -20.565  20.113  1.00  0.00    -0.215 NA
ATOM      5  C   UNL     1      26.464 -20.016  18.862  1.00  0.00     0.226 A 
ATOM      6  N   UNL     1      25.614 -18.968  18.610  1.00  0.00    -0.217 NA
ATOM      7  C   UNL     1      24.820 -18.443  19.590  1.00  0.00     0.152 A 
ATOM      8  C   UNL     1      24.905 -19.013  20.858  1.00  0.00     0.127 A 
ATOM      9  N   UNL     1      24.261 -18.714  21.992  1.00  0.00    -0.340 N 
ATOM     10  H   UNL     1      23.545 -17.973  22.161  1.00  0.00     0.168 HD
ENDROOT
BRANCH   7  11
ATOM     11  N   UNL     1      23.943 -17.352  19.305  1.00  0.00    -0.382 N 
ATOM     12  H   UNL     1      22.939 -17.373  19.587  1.00  0.00     0.158 HD
ATOM     13  H   UNL     1      24.303 -16.511  18.802  1.00  0.00     0.158 HD
ENDBRANCH   7  11
TORSDOF 1
ENDMDL
MODEL 2
REMARK VINA RESULT:    -4.707      6.615      8.011
REMARK INTER + INTRA:          -4.844
REMARK INTER:                  -4.844
REMARK INTRA:                   0.000
REMARK UNBOUND:                 0.000
REMARK SMILES Nc1ncnc2nc[nH]c12
REMARK SMILES IDX 8 1 7 2 6 3 5 4 4 5 3 6 2 7 10 8 9 9 1 11
REMARK H PARENT 9 10 1 12 1 13
REMARK Flexibility Score: inf
ROOT
ATOM      1  C   UNL     1      25.222 -10.988  21.794  1.00  0.00     0.199 A 
ATOM      2  N   UNL     1      25.742 -10.089  20.914  1.00  0.00    -0.217 NA
ATOM      3  C   UNL     1      25.688 -10.763  19.754  1.00  0.00     0.182 A 
ATOM      4  N   UNL     1      26.090 -10.315  18.540  1.00  0.00    -0.215 NA
ATOM      5  C   UNL     1      25.957 -11.151  17.466  1.00  0.00     0.226 A 
ATOM      6  N   UNL     1      25.429 -12.408  17.624  1.00  0.00    -0.217 NA
ATOM      7  C   UNL     1      25.023 -12.862  18.848  1.00  0.00     0.152 A 
ATOM      8  C   UNL     1      25.166 -11.999  19.931  1.00  0.00     0.127 A 
ATOM      9  N   UNL     1      24.861 -12.165  21.224  1.00  0.00    -0.340 N 
ATOM     10  H   UNL     1      24.444 -12.998  21.694  1.00  0.00     0.168 HD
ENDROOT
BRANCH   7  11
ATOM     11  N   UNL     1      24.477 -14.174  18.988  1.00  0.00    -0.382 N 
ATOM     12  H   UNL     1      24.729 -14.785  19.796  1.00  0.00     0.158 HD
ATOM     13  H   UNL     1      23.809 -14.541  18.274  1.00  0.00     0.158 HD
ENDBRANCH   7  11
TORSDOF 1
ENDMDL
MODEL 3
REMARK VINA RESULT:    -4.696      0.962      2.987
REMARK INTER + INTRA:          -4.833
REMARK INTER:                  -4.833
REMARK INTRA:                   0.000
REMARK UNBOUND:                 0.000
REMARK SMILES Nc1ncnc2nc[nH]c12
REMARK SMILES IDX 8 1 7 2 6 3 5 4 4 5 3 6 2 7 10 8 9 9 1 11
REMARK H PARENT 9 10 1 12 1 13
REMARK Flexibility Score: inf
ROOT
ATOM      1  C   UNL     1      24.606 -18.014  19.235  1.00  0.00     0.199 A 
ATOM      2  N   UNL     1      25.581 -18.890  18.866  1.00  0.00    -0.217 NA
ATOM      3  C   UNL     1      25.808 -19.560  20.008  1.00  0.00     0.182 A 
ATOM      4  N   UNL     1      26.702 -20.560  20.193  1.00  0.00    -0.215 NA
ATOM      5  C   UNL     1      26.792 -21.124  21.436  1.00  0.00     0.226 A 
ATOM      6  N   UNL     1      25.994 -20.681  22.461  1.00  0.00    -0.217 NA
ATOM      7  C   UNL     1      25.092 -19.672  22.275  1.00  0.00     0.152 A 
ATOM      8  C   UNL     1      25.013 -19.108  21.005  1.00  0.00     0.127 A 
ATOM      9  N   UNL     1      24.237 -18.123  20.536  1.00  0.00    -0.340 N 
ATOM     10  H   UNL     1      23.516 -17.563  21.042  1.00  0.00     0.168 HD
ENDROOT
BRANCH   7  11
ATOM     11  N   UNL     1      24.272 -19.227  23.357  1.00  0.00    -0.382 N 
ATOM     12  H   UNL     1      23.534 -19.840  23.768  1.00  0.00     0.158 HD
ATOM     13  H   UNL     1      24.403 -18.270  23.753  1.00  0.00     0.158 HD
ENDBRANCH   7  11
TORSDOF 1
ENDMDL
MODEL 4
REMARK VINA RESULT:    -4.578      6.865      8.825
REMARK INTER + INTRA:          -4.712
REMARK INTER:                  -4.712
REMARK INTRA:                   0.000
REMARK UNBOUND:                 0.000
REMARK SMILES Nc1ncnc2nc[nH]c12
REMARK SMILES IDX 8 1 7 2 6 3 5 4 4 5 3 6 2 7 10 8 9 9 1 11
REMARK H PARENT 9 10 1 12 1 13
REMARK Flexibility Score: inf
ROOT
ATOM      1  C   UNL     1      25.794 -10.578  16.673  1.00  0.00     0.199 A 
ATOM      2  N   UNL     1      25.937  -9.715  17.716  1.00  0.00    -0.217 NA
ATOM      3  C   UNL     1      25.601 -10.481  18.767  1.00  0.00     0.182 A 
ATOM      4  N   UNL     1      25.574 -10.101  20.067  1.00  0.00    -0.215 NA
ATOM      5  C   UNL     1      25.203 -11.027  21.003  1.00  0.00     0.226 A 
ATOM      6  N   UNL     1      24.868 -12.303  20.625  1.00  0.00    -0.217 NA
ATOM      7  C   UNL     1      24.894 -12.687  19.314  1.00  0.00     0.152 A 
ATOM      8  C   UNL     1      25.274 -11.734  18.374  1.00  0.00     0.127 A 
ATOM      9  N   UNL     1      25.390 -11.820  17.043  1.00  0.00    -0.340 N 
ATOM     10  H   UNL     1      25.214 -12.642  16.424  1.00  0.00     0.168 HD
ENDROOT
BRANCH   7  11
ATOM     11  N   UNL     1      24.541 -14.021  18.943  1.00  0.00    -0.382 N 
ATOM     12  H   UNL     1      24.583 -14.805  19.630  1.00  0.00     0.158 HD
ATOM     13  H   UNL     1      24.234 -14.228  17.967  1.00  0.00     0.158 HD
ENDBRANCH   7  11
TORSDOF 1
ENDMDL
MODEL 5
REMARK VINA RESULT:    -4.489     12.249     12.512
REMARK INTER + INTRA:          -4.620
REMARK INTER:                  -4.620
REMARK INTRA:                   0.000
REMARK UNBOUND:                 0.000
REMARK SMILES Nc1ncnc2nc[nH]c12
REMARK SMILES IDX 8 1 7 2 6 3 5 4 4 5 3 6 2 7 10 8 9 9 1 11
REMARK H PARENT 9 10 1 12 1 13
REMARK Flexibility Score: inf
ROOT
ATOM      1  C   UNL     1      34.361 -15.283  23.299  1.00  0.00     0.199 A 
ATOM      2  N   UNL     1      35.520 -15.516  23.973  1.00  0.00    -0.217 NA
ATOM      3  C   UNL     1      35.801 -14.305  24.482  1.00  0.00     0.182 A 
ATOM      4  N   UNL     1      36.869 -13.980  25.250  1.00  0.00    -0.215 NA
ATOM      5  C   UNL     1      36.988 -12.686  25.676  1.00  0.00     0.226 A 
ATOM      6  N   UNL     1      36.045 -11.750  25.330  1.00  0.00    -0.217 NA
ATOM      7  C   UNL     1      34.968 -12.077  24.555  1.00  0.00     0.152 A 
ATOM      8  C   UNL     1      34.862 -13.398  24.129  1.00  0.00     0.127 A 
ATOM      9  N   UNL     1      33.933 -13.998  23.375  1.00  0.00    -0.340 N 
ATOM     10  H   UNL     1      33.077 -13.586  22.942  1.00  0.00     0.168 HD
ENDROOT
BRANCH   7  11
ATOM     11  N   UNL     1      34.000 -11.086  24.208  1.00  0.00    -0.382 N 
ATOM     12  H   UNL     1      33.684 -10.368  24.897  1.00  0.00     0.158 HD
ATOM     13  H   UNL     1      33.591 -11.069  23.247  1.00  0.00     0.158 HD
ENDBRANCH   7  11
TORSDOF 1
ENDMDL
MODEL 6
REMARK VINA RESULT:    -4.407     12.319     12.608
REMARK INTER + INTRA:          -4.536
REMARK INTER:                  -4.536
REMARK INTRA:                   0.000
REMARK UNBOUND:                 0.000
REMARK SMILES Nc1ncnc2nc[nH]c12
REMARK SMILES IDX 8 1 7 2 6 3 5 4 4 5 3 6 2 7 10 8 9 9 1 11
REMARK H PARENT 9 10 1 12 1 13
REMARK Flexibility Score: inf
ROOT
ATOM      1  C   UNL     1      32.515 -11.433  25.292  1.00  0.00     0.199 A 
ATOM      2  N   UNL     1      33.585 -10.953  25.984  1.00  0.00    -0.217 NA
ATOM      3  C   UNL     1      34.581 -11.742  25.551  1.00  0.00     0.182 A 
ATOM      4  N   UNL     1      35.880 -11.686  25.932  1.00  0.00    -0.215 NA
ATOM      5  C   UNL     1      36.755 -12.579  25.378  1.00  0.00     0.226 A 
ATOM      6  N   UNL     1      36.319 -13.503  24.462  1.00  0.00    -0.217 NA
ATOM      7  C   UNL     1      35.010 -13.562  24.077  1.00  0.00     0.152 A 
ATOM      8  C   UNL     1      34.132 -12.646  24.650  1.00  0.00     0.127 A 
ATOM      9  N   UNL     1      32.817 -12.468  24.469  1.00  0.00    -0.340 N 
ATOM     10  H   UNL     1      32.168 -12.995  23.844  1.00  0.00     0.168 HD
ENDROOT
BRANCH   7  11
ATOM     11  N   UNL     1      34.579 -14.532  23.122  1.00  0.00    -0.382 N 
ATOM     12  H   UNL     1      34.407 -14.276  22.125  1.00  0.00     0.158 HD
ATOM     13  H   UNL     1      34.429 -15.523  23.416  1.00  0.00     0.158 HD
ENDBRANCH   7  11
TORSDOF 1
ENDMDL
MODEL 7
REMARK VINA RESULT:    -4.404      9.502     10.904
REMARK INTER + INTRA:          -4.532
REMARK INTER:                  -4.532
REMARK INTRA:                   0.000
REMARK UNBOUND:                 0.000
REMARK SMILES Nc1ncnc2nc[nH]c12
REMARK SMILES IDX 8 1 7 2 6 3 5 4 4 5 3 6 2 7 10 8 9 9 1 11
REMARK H PARENT 9 10 1 12 1 13
REMARK Flexibility Score: inf
ROOT
ATOM      1  C   UNL     1      25.243 -10.668  19.914  1.00  0.00     0.199 A 
ATOM      2  N   UNL     1      26.497 -10.244  19.600  1.00  0.00    -0.217 NA
ATOM      3  C   UNL     1      26.251  -9.158  18.849  1.00  0.00     0.182 A 
ATOM      4  N   UNL     1      27.172  -8.349  18.273  1.00  0.00    -0.215 NA
ATOM      5  C   UNL     1      26.727  -7.284  17.539  1.00  0.00     0.226 A 
ATOM      6  N   UNL     1      25.382  -7.050  17.397  1.00  0.00    -0.217 NA
ATOM      7  C   UNL     1      24.452  -7.865  17.978  1.00  0.00     0.152 A 
ATOM      8  C   UNL     1      24.921  -8.945  18.721  1.00  0.00     0.127 A 
ATOM      9  N   UNL     1      24.258  -9.895  19.392  1.00  0.00    -0.340 N 
ATOM     10  H   UNL     1      23.227 -10.021  19.496  1.00  0.00     0.168 HD
ENDROOT
BRANCH   7  11
ATOM     11  N   UNL     1      23.057  -7.602  17.817  1.00  0.00    -0.382 N 
ATOM     12  H   UNL     1      22.447  -8.230  17.249  1.00  0.00     0.158 HD
ATOM     13  H   UNL     1      22.628  -6.765  18.271  1.00  0.00     0.158 HD
ENDBRANCH   7  11
TORSDOF 1
ENDMDL
MODEL 8
REMARK VINA RESULT:    -4.316      9.823     11.574
REMARK INTER + INTRA:          -4.442
REMARK INTER:                  -4.442
REMARK INTRA:                   0.000
REMARK UNBOUND:                 0.000
REMARK SMILES Nc1ncnc2nc[nH]c12
REMARK SMILES IDX 8 1 7 2 6 3 5 4 4 5 3 6 2 7 10 8 9 9 1 11
REMARK H PARENT 9 10 1 12 1 13
REMARK Flexibility Score: inf
ROOT
ATOM      1  C   UNL     1      26.204  -7.208  16.106  1.00  0.00     0.199 A 
ATOM      2  N   UNL     1      25.163  -8.035  16.396  1.00  0.00    -0.217 NA
ATOM      3  C   UNL     1      25.611  -8.686  17.482  1.00  0.00     0.182 A 
ATOM      4  N   UNL     1      24.950  -9.640  18.181  1.00  0.00    -0.215 NA
ATOM      5  C   UNL     1      25.573 -10.194  19.265  1.00  0.00     0.226 A 
ATOM      6  N   UNL     1      26.833  -9.787  19.627  1.00  0.00    -0.217 NA
ATOM      7  C   UNL     1      27.501  -8.825  18.922  1.00  0.00     0.152 A 
ATOM      8  C   UNL     1      26.854  -8.272  17.821  1.00  0.00     0.127 A 
ATOM      9  N   UNL     1      27.253  -7.329  16.958  1.00  0.00    -0.340 N 
ATOM     10  H   UNL     1      28.155  -6.804  16.937  1.00  0.00     0.168 HD
ENDROOT
BRANCH   7  11
ATOM     11  N   UNL     1      28.812  -8.418  19.317  1.00  0.00    -0.382 N 
ATOM     12  H   UNL     1      29.450  -7.924  18.656  1.00  0.00     0.158 HD
ATOM     13  H   UNL     1      29.150  -8.614  20.286  1.00  0.00     0.158 HD
ENDBRANCH   7  11
TORSDOF 1
ENDMDL
MODEL 9
REMARK VINA RESULT:    -4.299     12.833     13.014
REMARK INTER + INTRA:          -4.424
REMARK INTER:                  -4.424
REMARK INTRA:                   0.000
REMARK UNBOUND:                 0.000
REMARK SMILES Nc1ncnc2nc[nH]c12
REMARK SMILES IDX 8 1 7 2 6 3 5 4 4 5 3 6 2 7 10 8 9 9 1 11
REMARK H PARENT 9 10 1 12 1 13
REMARK Flexibility Score: inf
ROOT
ATOM      1  C   UNL     1      33.433 -13.009  27.896  1.00  0.00     0.199 A 
ATOM      2  N   UNL     1      34.665 -13.588  27.920  1.00  0.00    -0.217 NA
ATOM      3  C   UNL     1      35.218 -13.128  26.786  1.00  0.00     0.182 A 
ATOM      4  N   UNL     1      36.461 -13.406  26.323  1.00  0.00    -0.215 NA
ATOM      5  C   UNL     1      36.851 -12.841  25.141  1.00  0.00     0.226 A 
ATOM      6  N   UNL     1      35.999 -12.017  24.449  1.00  0.00    -0.217 NA
ATOM      7  C   UNL     1      34.745 -11.735  24.915  1.00  0.00     0.152 A 
ATOM      8  C   UNL     1      34.363 -12.318  26.120  1.00  0.00     0.127 A 
ATOM      9  N   UNL     1      33.219 -12.227  26.808  1.00  0.00    -0.340 N 
ATOM     10  H   UNL     1      32.358 -11.685  26.573  1.00  0.00     0.168 HD
ENDROOT
BRANCH   7  11
ATOM     11  N   UNL     1      33.876 -10.874  24.178  1.00  0.00    -0.382 N 
ATOM     12  H   UNL     1      33.510 -11.144  23.239  1.00  0.00     0.158 HD
ATOM     13  H   UNL     1      33.595  -9.951  24.577  1.00  0.00     0.158 HD
ENDBRANCH   7  11
TORSDOF 1
ENDMDL
