MODEL 1
REMARK VINA RESULT:    -4.911      0.000      0.000
REMARK INTER + INTRA:          -5.198
REMARK INTER:                  -5.198
REMARK INTRA:                   0.000
REMARK UNBOUND:                 0.000
REMARK SMILES Cc1cc(O)c(C)c(C)c1O
REMARK SMILES IDX 1 1 2 2 3 3 4 4 6 5 8 6 10 7 9 8 7 9 11 10 5 12
REMARK H PARENT 11 11 5 13
REMARK Flexibility Score: inf
ROOT
ATOM      1  C   UNL     1     475.949  34.282 463.217  1.00  0.00     0.048 C 
ATOM      2  C   UNL     1     476.807  35.121 462.310  1.00  0.00    -0.005 A 
ATOM      3  C   UNL     1     477.833  34.525 461.573  1.00  0.00     0.053 A 
ATOM      4  C   UNL     1     478.660  35.292 460.749  1.00  0.00     0.119 A 
ATOM      5  C   UNL     1     478.466  36.684 460.643  1.00  0.00    -0.003 A 
ATOM      6  C   UNL     1     477.395  37.296 461.354  1.00  0.00    -0.002 A 
ATOM      7  C   UNL     1     476.593  36.507 462.217  1.00  0.00     0.121 A 
ATOM      8  C   UNL     1     477.108  38.777 461.230  1.00  0.00     0.049 C 
ATOM      9  C   UNL     1     479.386  37.497 459.763  1.00  0.00     0.049 C 
ENDROOT
BRANCH   7  10
ATOM     10  O   UNL     1     475.581  37.073 463.001  1.00  0.00    -0.507 OA
ATOM     11  H   UNL     1     474.594  36.984 462.796  1.00  0.00     0.293 HD
ENDBRANCH   7  10
BRANCH   4  12
ATOM     12  O   UNL     1     479.679  34.663 460.031  1.00  0.00    -0.508 OA
ATOM     13  H   UNL     1     480.248  35.165 459.359  1.00  0.00     0.293 HD
ENDBRANCH   4  12
TORSDOF 2
ENDMDL
MODEL 2
REMARK VINA RESULT:    -4.431      1.294      2.864
REMARK INTER + INTRA:          -4.690
REMARK INTER:                  -4.690
REMARK INTRA:                   0.000
REMARK UNBOUND:                 0.000
REMARK SMILES Cc1cc(O)c(C)c(C)c1O
REMARK SMILES IDX 1 1 2 2 3 3 4 4 6 5 8 6 10 7 9 8 7 9 11 10 5 12
REMARK H PARENT 11 11 5 13
REMARK Flexibility Score: inf
ROOT
ATOM      1  C   UNL     1     475.836  38.746 462.604  1.00  0.00     0.048 C 
ATOM      2  C   UNL     1     476.747  37.705 462.013  1.00  0.00    -0.005 A 
ATOM      3  C   UNL     1     477.729  38.081 461.093  1.00  0.00     0.053 A 
ATOM      4  C   UNL     1     478.565  37.125 460.509  1.00  0.00     0.119 A 
ATOM      5  C   UNL     1     478.432  35.763 460.847  1.00  0.00    -0.003 A 
ATOM      6  C   UNL     1     477.464  35.374 461.815  1.00  0.00    -0.002 A 
ATOM      7  C   UNL     1     476.599  36.353 462.365  1.00  0.00     0.121 A 
ATOM      8  C   UNL     1     477.320  33.933 462.255  1.00  0.00     0.049 C 
ATOM      9  C   UNL     1     479.332  34.743 460.187  1.00  0.00     0.049 C 
ENDROOT
BRANCH   7  10
ATOM     10  O   UNL     1     475.577  36.012 463.259  1.00  0.00    -0.507 OA
ATOM     11  H   UNL     1     474.677  36.473 463.288  1.00  0.00     0.293 HD
ENDBRANCH   7  10
BRANCH   4  12
ATOM     12  O   UNL     1     479.533  37.536 459.591  1.00  0.00    -0.508 OA
ATOM     13  H   UNL     1     479.490  38.441 459.137  1.00  0.00     0.293 HD
ENDBRANCH   4  12
TORSDOF 2
ENDMDL
MODEL 3
REMARK VINA RESULT:    -4.389      0.879      3.145
REMARK INTER + INTRA:          -4.646
REMARK INTER:                  -4.646
REMARK INTRA:                   0.000
REMARK UNBOUND:                 0.000
REMARK SMILES Cc1cc(O)c(C)c(C)c1O
REMARK SMILES IDX 1 1 2 2 3 3 4 4 6 5 8 6 10 7 9 8 7 9 11 10 5 12
REMARK H PARENT 11 11 5 13
REMARK Flexibility Score: inf
ROOT
ATOM      1  C   UNL     1     477.121  33.829 462.757  1.00  0.00     0.048 C 
ATOM      2  C   UNL     1     477.212  35.232 462.222  1.00  0.00    -0.005 A 
ATOM      3  C   UNL     1     476.297  36.199 462.646  1.00  0.00     0.053 A 
ATOM      4  C   UNL     1     476.345  37.499 462.137  1.00  0.00     0.119 A 
ATOM      5  C   UNL     1     477.326  37.858 461.190  1.00  0.00    -0.003 A 
ATOM      6  C   UNL     1     478.291  36.893 460.785  1.00  0.00    -0.002 A 
ATOM      7  C   UNL     1     478.200  35.568 461.281  1.00  0.00     0.121 A 
ATOM      8  C   UNL     1     479.400  37.242 459.815  1.00  0.00     0.049 C 
ATOM      9  C   UNL     1     477.347  39.264 460.637  1.00  0.00     0.049 C 
ENDROOT
BRANCH   7  10
ATOM     10  O   UNL     1     479.073  34.560 460.852  1.00  0.00    -0.507 OA
ATOM     11  H   UNL     1     479.947  34.340 461.312  1.00  0.00     0.293 HD
ENDBRANCH   7  10
BRANCH   4  12
ATOM     12  O   UNL     1     475.412  38.439 462.579  1.00  0.00    -0.508 OA
ATOM     13  H   UNL     1     475.201  38.561 463.563  1.00  0.00     0.293 HD
ENDBRANCH   4  12
TORSDOF 2
ENDMDL
MODEL 4
REMARK VINA RESULT:    -4.253      1.334      3.383
REMARK INTER + INTRA:          -4.501
REMARK INTER:                  -4.501
REMARK INTRA:                   0.000
REMARK UNBOUND:                 0.000
REMARK SMILES Cc1cc(O)c(C)c(C)c1O
REMARK SMILES IDX 1 1 2 2 3 3 4 4 6 5 8 6 10 7 9 8 7 9 11 10 5 12
REMARK H PARENT 11 11 5 13
REMARK Flexibility Score: inf
ROOT
ATOM      1  C   UNL     1     479.478  34.630 460.032  1.00  0.00     0.048 C 
ATOM      2  C   UNL     1     478.563  35.594 460.737  1.00  0.00    -0.005 A 
ATOM      3  C   UNL     1     477.601  35.115 461.629  1.00  0.00     0.053 A 
ATOM      4  C   UNL     1     476.722  35.992 462.270  1.00  0.00     0.119 A 
ATOM      5  C   UNL     1     476.798  37.379 462.029  1.00  0.00    -0.003 A 
ATOM      6  C   UNL     1     477.803  37.882 461.155  1.00  0.00    -0.002 A 
ATOM      7  C   UNL     1     478.658  36.972 460.483  1.00  0.00     0.121 A 
ATOM      8  C   UNL     1     477.964  39.366 460.907  1.00  0.00     0.049 C 
ATOM      9  C   UNL     1     475.822  38.306 462.716  1.00  0.00     0.049 C 
ENDROOT
BRANCH   7  10
ATOM     10  O   UNL     1     479.609  37.409 459.552  1.00  0.00    -0.507 OA
ATOM     11  H   UNL     1     480.542  37.025 459.478  1.00  0.00     0.293 HD
ENDBRANCH   7  10
BRANCH   4  12
ATOM     12  O   UNL     1     475.769  35.478 463.152  1.00  0.00    -0.508 OA
ATOM     13  H   UNL     1     474.832  35.240 462.849  1.00  0.00     0.293 HD
ENDBRANCH   4  12
TORSDOF 2
ENDMDL
MODEL 5
REMARK VINA RESULT:    -4.229      1.325      4.270
REMARK INTER + INTRA:          -4.476
REMARK INTER:                  -4.476
REMARK INTRA:                   0.000
REMARK UNBOUND:                 0.000
REMARK SMILES Cc1cc(O)c(C)c(C)c1O
REMARK SMILES IDX 1 1 2 2 3 3 4 4 6 5 8 6 10 7 9 8 7 9 11 10 5 12
REMARK H PARENT 11 11 5 13
REMARK Flexibility Score: inf
ROOT
ATOM      1  C   UNL     1     478.608  39.628 460.221  1.00  0.00     0.048 C 
ATOM      2  C   UNL     1     478.255  38.232 460.656  1.00  0.00    -0.005 A 
ATOM      3  C   UNL     1     477.193  38.025 461.539  1.00  0.00     0.053 A 
ATOM      4  C   UNL     1     476.869  36.739 461.980  1.00  0.00     0.119 A 
ATOM      5  C   UNL     1     477.610  35.626 461.532  1.00  0.00    -0.003 A 
ATOM      6  C   UNL     1     478.666  35.820 460.598  1.00  0.00    -0.002 A 
ATOM      7  C   UNL     1     479.005  37.137 460.195  1.00  0.00     0.121 A 
ATOM      8  C   UNL     1     479.454  34.653 460.042  1.00  0.00     0.049 C 
ATOM      9  C   UNL     1     477.256  34.247 462.038  1.00  0.00     0.049 C 
ENDROOT
BRANCH   7  10
ATOM     10  O   UNL     1     480.087  37.389 459.343  1.00  0.00    -0.507 OA
ATOM     11  H   UNL     1     480.962  36.882 459.379  1.00  0.00     0.293 HD
ENDBRANCH   7  10
BRANCH   4  12
ATOM     12  O   UNL     1     475.804  36.570 462.866  1.00  0.00    -0.508 OA
ATOM     13  H   UNL     1     475.942  36.544 463.869  1.00  0.00     0.293 HD
ENDBRANCH   4  12
TORSDOF 2
ENDMDL
MODEL 6
REMARK VINA RESULT:    -4.225      1.617      3.295
REMARK INTER + INTRA:          -4.472
REMARK INTER:                  -4.472
REMARK INTRA:                   0.000
REMARK UNBOUND:                 0.000
REMARK SMILES Cc1cc(O)c(C)c(C)c1O
REMARK SMILES IDX 1 1 2 2 3 3 4 4 6 5 8 6 10 7 9 8 7 9 11 10 5 12
REMARK H PARENT 11 11 5 13
REMARK Flexibility Score: inf
ROOT
ATOM      1  C   UNL     1     479.612  37.171 459.570  1.00  0.00     0.048 C 
ATOM      2  C   UNL     1     478.604  36.673 460.570  1.00  0.00    -0.005 A 
ATOM      3  C   UNL     1     478.632  35.339 460.983  1.00  0.00     0.053 A 
ATOM      4  C   UNL     1     477.686  34.850 461.886  1.00  0.00     0.119 A 
ATOM      5  C   UNL     1     476.688  35.703 462.403  1.00  0.00    -0.003 A 
ATOM      6  C   UNL     1     476.677  37.074 462.024  1.00  0.00    -0.002 A 
ATOM      7  C   UNL     1     477.621  37.541 461.074  1.00  0.00     0.121 A 
ATOM      8  C   UNL     1     475.664  38.044 462.593  1.00  0.00     0.049 C 
ATOM      9  C   UNL     1     475.661  35.148 463.363  1.00  0.00     0.049 C 
ENDROOT
BRANCH   7  10
ATOM     10  O   UNL     1     477.601  38.861 460.606  1.00  0.00    -0.507 OA
ATOM     11  H   UNL     1     478.202  39.593 460.962  1.00  0.00     0.293 HD
ENDBRANCH   7  10
BRANCH   4  12
ATOM     12  O   UNL     1     477.741  33.510 462.273  1.00  0.00    -0.508 OA
ATOM     13  H   UNL     1     478.068  33.231 463.191  1.00  0.00     0.293 HD
ENDBRANCH   4  12
TORSDOF 2
ENDMDL
MODEL 7
REMARK VINA RESULT:    -4.044      1.595      3.569
REMARK INTER + INTRA:          -4.280
REMARK INTER:                  -4.280
REMARK INTRA:                   0.000
REMARK UNBOUND:                 0.000
REMARK SMILES Cc1cc(O)c(C)c(C)c1O
REMARK SMILES IDX 1 1 2 2 3 3 4 4 6 5 8 6 10 7 9 8 7 9 11 10 5 12
REMARK H PARENT 11 11 5 13
REMARK Flexibility Score: inf
ROOT
ATOM      1  C   UNL     1     479.832  39.205 458.784  1.00  0.00     0.048 C 
ATOM      2  C   UNL     1     479.278  38.044 459.565  1.00  0.00    -0.005 A 
ATOM      3  C   UNL     1     479.790  36.761 459.361  1.00  0.00     0.053 A 
ATOM      4  C   UNL     1     479.268  35.665 460.053  1.00  0.00     0.119 A 
ATOM      5  C   UNL     1     478.216  35.841 460.976  1.00  0.00    -0.003 A 
ATOM      6  C   UNL     1     477.717  37.151 461.224  1.00  0.00    -0.002 A 
ATOM      7  C   UNL     1     478.232  38.244 460.482  1.00  0.00     0.121 A 
ATOM      8  C   UNL     1     476.629  37.402 462.246  1.00  0.00     0.049 C 
ATOM      9  C   UNL     1     477.652  34.639 461.697  1.00  0.00     0.049 C 
ENDROOT
BRANCH   7  10
ATOM     10  O   UNL     1     477.720  39.538 460.628  1.00  0.00    -0.507 OA
ATOM     11  H   UNL     1     478.056  40.203 461.313  1.00  0.00     0.293 HD
ENDBRANCH   7  10
BRANCH   4  12
ATOM     12  O   UNL     1     479.800  34.395 459.821  1.00  0.00    -0.508 OA
ATOM     13  H   UNL     1     480.631  34.068 460.301  1.00  0.00     0.293 HD
ENDBRANCH   4  12
TORSDOF 2
ENDMDL
MODEL 8
REMARK VINA RESULT:    -4.003      1.757      2.830
REMARK INTER + INTRA:          -4.237
REMARK INTER:                  -4.237
REMARK INTRA:                   0.000
REMARK UNBOUND:                 0.000
REMARK SMILES Cc1cc(O)c(C)c(C)c1O
REMARK SMILES IDX 1 1 2 2 3 3 4 4 6 5 8 6 10 7 9 8 7 9 11 10 5 12
REMARK H PARENT 11 11 5 13
REMARK Flexibility Score: inf
ROOT
ATOM      1  C   UNL     1     476.072  38.706 462.683  1.00  0.00     0.048 C 
ATOM      2  C   UNL     1     476.926  37.683 461.985  1.00  0.00    -0.005 A 
ATOM      3  C   UNL     1     476.789  36.329 462.301  1.00  0.00     0.053 A 
ATOM      4  C   UNL     1     477.594  35.367 461.687  1.00  0.00     0.119 A 
ATOM      5  C   UNL     1     478.556  35.749 460.730  1.00  0.00    -0.003 A 
ATOM      6  C   UNL     1     478.674  37.121 460.368  1.00  0.00    -0.002 A 
ATOM      7  C   UNL     1     477.877  38.086 461.033  1.00  0.00     0.121 A 
ATOM      8  C   UNL     1     479.651  37.577 459.305  1.00  0.00     0.049 C 
ATOM      9  C   UNL     1     479.432  34.694 460.094  1.00  0.00     0.049 C 
ENDROOT
BRANCH   7  10
ATOM     10  O   UNL     1     478.012  39.456 460.773  1.00  0.00    -0.507 OA
ATOM     11  H   UNL     1     477.787  39.885 459.884  1.00  0.00     0.293 HD
ENDBRANCH   7  10
BRANCH   4  12
ATOM     12  O   UNL     1     477.433  34.023 462.030  1.00  0.00    -0.508 OA
ATOM     13  H   UNL     1     478.218  33.444 462.306  1.00  0.00     0.293 HD
ENDBRANCH   4  12
TORSDOF 2
ENDMDL
MODEL 9
REMARK VINA RESULT:    -3.798      5.624      7.750
REMARK INTER + INTRA:          -4.020
REMARK INTER:                  -4.020
REMARK INTRA:                   0.000
REMARK UNBOUND:                 0.000
REMARK SMILES Cc1cc(O)c(C)c(C)c1O
REMARK SMILES IDX 1 1 2 2 3 3 4 4 6 5 8 6 10 7 9 8 7 9 11 10 5 12
REMARK H PARENT 11 11 5 13
REMARK Flexibility Score: inf
ROOT
ATOM      1  C   UNL     1     485.332  39.709 461.087  1.00  0.00     0.048 C 
ATOM      2  C   UNL     1     484.274  39.285 460.105  1.00  0.00    -0.005 A 
ATOM      3  C   UNL     1     482.949  39.146 460.527  1.00  0.00     0.053 A 
ATOM      4  C   UNL     1     481.957  38.723 459.638  1.00  0.00     0.119 A 
ATOM      5  C   UNL     1     482.279  38.438 458.296  1.00  0.00    -0.003 A 
ATOM      6  C   UNL     1     483.616  38.619 457.844  1.00  0.00    -0.002 A 
ATOM      7  C   UNL     1     484.616  39.008 458.771  1.00  0.00     0.121 A 
ATOM      8  C   UNL     1     484.003  38.381 456.400  1.00  0.00     0.049 C 
ATOM      9  C   UNL     1     481.194  37.961 457.357  1.00  0.00     0.049 C 
ENDROOT
BRANCH   7  10
ATOM     10  O   UNL     1     485.961  39.121 458.397  1.00  0.00    -0.507 OA
ATOM     11  H   UNL     1     486.621  39.739 458.852  1.00  0.00     0.293 HD
ENDBRANCH   7  10
BRANCH   4  12
ATOM     12  O   UNL     1     480.644  38.590 460.095  1.00  0.00    -0.508 OA
ATOM     13  H   UNL     1     480.106  39.387 460.414  1.00  0.00     0.293 HD
ENDBRANCH   4  12
TORSDOF 2
ENDMDL
