MODEL 1
REMARK VINA RESULT:    -3.594      0.000      0.000
REMARK INTER + INTRA:          -8.036
REMARK INTER:                  -6.326
REMARK INTRA:                  -1.710
REMARK UNBOUND:                -1.710
REMARK SMILES CCCCCCC=CCCCCCCCC(=O)[O-]
REMARK SMILES IDX 10 1 11 2 12 3 13 4 14 5 15 6 16 7 17 8 18 9 9 10 8 11 7 12
REMARK SMILES IDX 6 13 5 14 4 15 3 16 2 17 1 18
REMARK H PARENT
REMARK Flexibility Score: inf
ROOT
ATOM      1  C   UNL     1      59.535  29.316  50.625  1.00  0.00     0.004 C 
ENDROOT
BRANCH   1   2
ATOM      2  C   UNL     1      59.858  28.844  49.197  1.00  0.00     0.000 C 
BRANCH   2   3
ATOM      3  C   UNL     1      60.828  27.652  49.176  1.00  0.00     0.000 C 
BRANCH   3   4
ATOM      4  C   UNL     1      60.109  26.303  49.343  1.00  0.00     0.000 C 
BRANCH   4   5
ATOM      5  C   UNL     1      60.440  25.615  50.680  1.00  0.00     0.006 C 
BRANCH   5   6
ATOM      6  C   UNL     1      60.490  24.080  50.603  1.00  0.00     0.053 C 
BRANCH   6   7
ATOM      7  C   UNL     1      61.631  23.600  49.761  1.00  0.00     0.041 C 
ATOM      8  O   UNL     1      62.770  24.127  49.874  1.00  0.00    -0.550 OA
ATOM      9  O   UNL     1      61.431  22.592  48.826  1.00  0.00    -0.550 OA
ENDBRANCH   6   7
ENDBRANCH   5   6
ENDBRANCH   4   5
ENDBRANCH   3   4
ENDBRANCH   2   3
ENDBRANCH   1   2
BRANCH   1  10
ATOM     10  C   UNL     1      58.026  29.421  50.873  1.00  0.00     0.027 C 
BRANCH  10  11
ATOM     11  C   UNL     1      57.272  28.335  50.153  1.00  0.00    -0.031 C 
ATOM     12  C   UNL     1      56.775  27.272  50.803  1.00  0.00    -0.031 C 
BRANCH  12  13
ATOM     13  C   UNL     1      56.067  26.162  50.073  1.00  0.00     0.027 C 
BRANCH  13  14
ATOM     14  C   UNL     1      54.739  26.622  49.454  1.00  0.00     0.004 C 
BRANCH  14  15
ATOM     15  C   UNL     1      53.929  27.510  50.415  1.00  0.00     0.000 C 
BRANCH  15  16
ATOM     16  C   UNL     1      53.563  28.875  49.805  1.00  0.00    -0.000 C 
BRANCH  16  17
ATOM     17  C   UNL     1      53.578  30.051  50.797  1.00  0.00    -0.003 C 
ATOM     18  C   UNL     1      54.407  29.766  52.049  1.00  0.00     0.004 C 
ENDBRANCH  16  17
ENDBRANCH  15  16
ENDBRANCH  14  15
ENDBRANCH  13  14
ENDBRANCH  12  13
ENDBRANCH  10  11
ENDBRANCH   1  10
TORSDOF 13
ENDMDL
MODEL 2
REMARK VINA RESULT:    -3.518     11.133     13.362
REMARK INTER + INTRA:          -7.901
REMARK INTER:                  -5.431
REMARK INTRA:                  -2.470
REMARK UNBOUND:                -1.710
REMARK SMILES CCCCCCC=CCCCCCCCC(=O)[O-]
REMARK SMILES IDX 10 1 11 2 12 3 13 4 14 5 15 6 16 7 17 8 18 9 9 10 8 11 7 12
REMARK SMILES IDX 6 13 5 14 4 15 3 16 2 17 1 18
REMARK H PARENT
REMARK Flexibility Score: inf
ROOT
ATOM      1  C   UNL     1      60.918  31.132  61.223  1.00  0.00     0.004 C 
ENDROOT
BRANCH   1   2
ATOM      2  C   UNL     1      60.706  31.308  59.709  1.00  0.00     0.000 C 
BRANCH   2   3
ATOM      3  C   UNL     1      61.080  32.716  59.221  1.00  0.00     0.000 C 
BRANCH   3   4
ATOM      4  C   UNL     1      61.836  33.528  60.287  1.00  0.00     0.000 C 
BRANCH   4   5
ATOM      5  C   UNL     1      63.253  33.925  59.839  1.00  0.00     0.006 C 
BRANCH   5   6
ATOM      6  C   UNL     1      64.260  34.076  60.991  1.00  0.00     0.053 C 
BRANCH   6   7
ATOM      7  C   UNL     1      64.794  35.472  61.088  1.00  0.00     0.041 C 
ATOM      8  O   UNL     1      66.012  35.703  60.862  1.00  0.00    -0.550 OA
ATOM      9  O   UNL     1      63.955  36.513  61.463  1.00  0.00    -0.550 OA
ENDBRANCH   6   7
ENDBRANCH   5   6
ENDBRANCH   4   5
ENDBRANCH   3   4
ENDBRANCH   2   3
ENDBRANCH   1   2
BRANCH   1  10
ATOM     10  C   UNL     1      61.523  29.765  61.566  1.00  0.00     0.027 C 
BRANCH  10  11
ATOM     11  C   UNL     1      62.818  29.535  60.834  1.00  0.00    -0.031 C 
ATOM     12  C   UNL     1      63.887  30.321  61.030  1.00  0.00    -0.031 C 
BRANCH  12  13
ATOM     13  C   UNL     1      65.165  30.120  60.257  1.00  0.00     0.027 C 
BRANCH  13  14
ATOM     14  C   UNL     1      64.910  29.840  58.769  1.00  0.00     0.004 C 
BRANCH  14  15
ATOM     15  C   UNL     1      64.945  31.124  57.923  1.00  0.00     0.000 C 
BRANCH  15  16
ATOM     16  C   UNL     1      63.673  31.321  57.078  1.00  0.00    -0.000 C 
BRANCH  16  17
ATOM     17  C   UNL     1      62.771  30.079  56.969  1.00  0.00    -0.003 C 
ATOM     18  C   UNL     1      62.365  29.761  55.531  1.00  0.00     0.004 C 
ENDBRANCH  16  17
ENDBRANCH  15  16
ENDBRANCH  14  15
ENDBRANCH  13  14
ENDBRANCH  12  13
ENDBRANCH  10  11
ENDBRANCH   1  10
TORSDOF 13
ENDMDL
MODEL 3
REMARK VINA RESULT:    -3.514     10.623     12.486
REMARK INTER + INTRA:          -7.894
REMARK INTER:                  -5.586
REMARK INTRA:                  -2.308
REMARK UNBOUND:                -1.710
REMARK SMILES CCCCCCC=CCCCCCCCC(=O)[O-]
REMARK SMILES IDX 10 1 11 2 12 3 13 4 14 5 15 6 16 7 17 8 18 9 9 10 8 11 7 12
REMARK SMILES IDX 6 13 5 14 4 15 3 16 2 17 1 18
REMARK H PARENT
REMARK Flexibility Score: inf
ROOT
ATOM      1  C   UNL     1      63.769  31.296  58.128  1.00  0.00     0.004 C 
ENDROOT
BRANCH   1   2
ATOM      2  C   UNL     1      62.475  32.117  57.990  1.00  0.00     0.000 C 
BRANCH   2   3
ATOM      3  C   UNL     1      61.211  31.253  58.131  1.00  0.00     0.000 C 
BRANCH   3   4
ATOM      4  C   UNL     1      60.379  31.624  59.370  1.00  0.00     0.000 C 
BRANCH   4   5
ATOM      5  C   UNL     1      61.219  31.673  60.658  1.00  0.00     0.006 C 
BRANCH   5   6
ATOM      6  C   UNL     1      61.174  30.381  61.490  1.00  0.00     0.053 C 
BRANCH   6   7
ATOM      7  C   UNL     1      62.403  29.548  61.295  1.00  0.00     0.041 C 
ATOM      8  O   UNL     1      62.303  28.319  61.039  1.00  0.00    -0.550 OA
ATOM      9  O   UNL     1      63.662  30.121  61.431  1.00  0.00    -0.550 OA
ENDBRANCH   6   7
ENDBRANCH   5   6
ENDBRANCH   4   5
ENDBRANCH   3   4
ENDBRANCH   2   3
ENDBRANCH   1   2
BRANCH   1  10
ATOM     10  C   UNL     1      64.898  32.103  58.780  1.00  0.00     0.027 C 
BRANCH  10  11
ATOM     11  C   UNL     1      64.410  33.440  59.269  1.00  0.00    -0.031 C 
ATOM     12  C   UNL     1      64.296  33.713  60.577  1.00  0.00    -0.031 C 
BRANCH  12  13
ATOM     13  C   UNL     1      63.759  35.033  61.063  1.00  0.00     0.027 C 
BRANCH  13  14
ATOM     14  C   UNL     1      62.761  35.657  60.076  1.00  0.00     0.004 C 
BRANCH  14  15
ATOM     15  C   UNL     1      61.319  35.186  60.335  1.00  0.00     0.000 C 
BRANCH  15  16
ATOM     16  C   UNL     1      60.297  35.832  59.382  1.00  0.00    -0.000 C 
BRANCH  16  17
ATOM     17  C   UNL     1      60.287  35.252  57.956  1.00  0.00    -0.003 C 
ATOM     18  C   UNL     1      58.990  34.518  57.619  1.00  0.00     0.004 C 
ENDBRANCH  16  17
ENDBRANCH  15  16
ENDBRANCH  14  15
ENDBRANCH  13  14
ENDBRANCH  12  13
ENDBRANCH  10  11
ENDBRANCH   1  10
TORSDOF 13
ENDMDL
MODEL 4
REMARK VINA RESULT:    -3.461     11.231     12.961
REMARK INTER + INTRA:          -7.802
REMARK INTER:                  -6.062
REMARK INTRA:                  -1.740
REMARK UNBOUND:                -1.710
REMARK SMILES CCCCCCC=CCCCCCCCC(=O)[O-]
REMARK SMILES IDX 10 1 11 2 12 3 13 4 14 5 15 6 16 7 17 8 18 9 9 10 8 11 7 12
REMARK SMILES IDX 6 13 5 14 4 15 3 16 2 17 1 18
REMARK H PARENT
REMARK Flexibility Score: inf
ROOT
ATOM      1  C   UNL     1      60.624  30.858  59.430  1.00  0.00     0.004 C 
ENDROOT
BRANCH   1   2
ATOM      2  C   UNL     1      61.022  29.376  59.315  1.00  0.00     0.000 C 
BRANCH   2   3
ATOM      3  C   UNL     1      60.869  28.619  60.644  1.00  0.00     0.000 C 
BRANCH   3   4
ATOM      4  C   UNL     1      62.133  27.827  61.019  1.00  0.00     0.000 C 
BRANCH   4   5
ATOM      5  C   UNL     1      63.364  28.244  60.195  1.00  0.00     0.006 C 
BRANCH   5   6
ATOM      6  C   UNL     1      64.386  29.090  60.972  1.00  0.00     0.053 C 
BRANCH   6   7
ATOM      7  C   UNL     1      65.657  29.278  60.202  1.00  0.00     0.041 C 
ATOM      8  O   UNL     1      66.745  28.837  60.657  1.00  0.00    -0.550 OA
ATOM      9  O   UNL     1      65.646  29.971  58.998  1.00  0.00    -0.550 OA
ENDBRANCH   6   7
ENDBRANCH   5   6
ENDBRANCH   4   5
ENDBRANCH   3   4
ENDBRANCH   2   3
ENDBRANCH   1   2
BRANCH   1  10
ATOM     10  C   UNL     1      61.113  31.487  60.740  1.00  0.00     0.027 C 
BRANCH  10  11
ATOM     11  C   UNL     1      62.049  32.637  60.484  1.00  0.00    -0.031 C 
ATOM     12  C   UNL     1      63.364  32.447  60.294  1.00  0.00    -0.031 C 
BRANCH  12  13
ATOM     13  C   UNL     1      64.306  33.603  60.089  1.00  0.00     0.027 C 
BRANCH  13  14
ATOM     14  C   UNL     1      64.459  34.464  61.352  1.00  0.00     0.004 C 
BRANCH  14  15
ATOM     15  C   UNL     1      64.241  35.959  61.065  1.00  0.00     0.000 C 
BRANCH  15  16
ATOM     16  C   UNL     1      63.071  36.220  60.099  1.00  0.00    -0.000 C 
BRANCH  16  17
ATOM     17  C   UNL     1      61.684  36.269  60.762  1.00  0.00    -0.003 C 
ATOM     18  C   UNL     1      60.543  36.007  59.780  1.00  0.00     0.004 C 
ENDBRANCH  16  17
ENDBRANCH  15  16
ENDBRANCH  14  15
ENDBRANCH  13  14
ENDBRANCH  12  13
ENDBRANCH  10  11
ENDBRANCH   1  10
TORSDOF 13
ENDMDL
MODEL 5
REMARK VINA RESULT:    -3.422     10.861     12.959
REMARK INTER + INTRA:          -7.732
REMARK INTER:                  -5.819
REMARK INTRA:                  -1.913
REMARK UNBOUND:                -1.710
REMARK SMILES CCCCCCC=CCCCCCCCC(=O)[O-]
REMARK SMILES IDX 10 1 11 2 12 3 13 4 14 5 15 6 16 7 17 8 18 9 9 10 8 11 7 12
REMARK SMILES IDX 6 13 5 14 4 15 3 16 2 17 1 18
REMARK H PARENT
REMARK Flexibility Score: inf
ROOT
ATOM      1  C   UNL     1      59.869  33.201  57.757  1.00  0.00     0.004 C 
ENDROOT
BRANCH   1   2
ATOM      2  C   UNL     1      61.122  32.437  58.218  1.00  0.00     0.000 C 
BRANCH   2   3
ATOM      3  C   UNL     1      60.795  31.316  59.217  1.00  0.00     0.000 C 
BRANCH   3   4
ATOM      4  C   UNL     1      61.063  31.728  60.674  1.00  0.00     0.000 C 
BRANCH   4   5
ATOM      5  C   UNL     1      61.108  30.525  61.634  1.00  0.00     0.006 C 
BRANCH   5   6
ATOM      6  C   UNL     1      62.324  29.605  61.434  1.00  0.00     0.053 C 
BRANCH   6   7
ATOM      7  C   UNL     1      61.915  28.205  61.093  1.00  0.00     0.041 C 
ATOM      8  O   UNL     1      62.763  27.273  61.114  1.00  0.00    -0.550 OA
ATOM      9  O   UNL     1      60.604  27.934  60.719  1.00  0.00    -0.550 OA
ENDBRANCH   6   7
ENDBRANCH   5   6
ENDBRANCH   4   5
ENDBRANCH   3   4
ENDBRANCH   2   3
ENDBRANCH   1   2
BRANCH   1  10
ATOM     10  C   UNL     1      59.894  34.671  58.193  1.00  0.00     0.027 C 
BRANCH  10  11
ATOM     11  C   UNL     1      61.138  34.991  58.978  1.00  0.00    -0.031 C 
ATOM     12  C   UNL     1      61.081  35.616  60.164  1.00  0.00    -0.031 C 
BRANCH  12  13
ATOM     13  C   UNL     1      62.329  35.982  60.924  1.00  0.00     0.027 C 
BRANCH  13  14
ATOM     14  C   UNL     1      63.568  36.039  60.018  1.00  0.00     0.004 C 
BRANCH  14  15
ATOM     15  C   UNL     1      64.714  35.160  60.547  1.00  0.00     0.000 C 
BRANCH  15  16
ATOM     16  C   UNL     1      64.271  33.719  60.854  1.00  0.00    -0.000 C 
BRANCH  16  17
ATOM     17  C   UNL     1      64.361  32.747  59.664  1.00  0.00    -0.003 C 
ATOM     18  C   UNL     1      65.032  33.365  58.439  1.00  0.00     0.004 C 
ENDBRANCH  16  17
ENDBRANCH  15  16
ENDBRANCH  14  15
ENDBRANCH  13  14
ENDBRANCH  12  13
ENDBRANCH  10  11
ENDBRANCH   1  10
TORSDOF 13
ENDMDL
MODEL 6
REMARK VINA RESULT:    -3.415     11.429     13.560
REMARK INTER + INTRA:          -7.721
REMARK INTER:                  -6.185
REMARK INTRA:                  -1.536
REMARK UNBOUND:                -1.710
REMARK SMILES CCCCCCC=CCCCCCCCC(=O)[O-]
REMARK SMILES IDX 10 1 11 2 12 3 13 4 14 5 15 6 16 7 17 8 18 9 9 10 8 11 7 12
REMARK SMILES IDX 6 13 5 14 4 15 3 16 2 17 1 18
REMARK H PARENT
REMARK Flexibility Score: inf
ROOT
ATOM      1  C   UNL     1      61.087  32.917  59.192  1.00  0.00     0.004 C 
ENDROOT
BRANCH   1   2
ATOM      2  C   UNL     1      61.816  32.084  60.261  1.00  0.00     0.000 C 
BRANCH   2   3
ATOM      3  C   UNL     1      60.866  31.152  61.031  1.00  0.00     0.000 C 
BRANCH   3   4
ATOM      4  C   UNL     1      61.607  29.994  61.720  1.00  0.00     0.000 C 
BRANCH   4   5
ATOM      5  C   UNL     1      63.088  29.908  61.311  1.00  0.00     0.006 C 
BRANCH   5   6
ATOM      6  C   UNL     1      63.467  28.608  60.582  1.00  0.00     0.053 C 
BRANCH   6   7
ATOM      7  C   UNL     1      64.799  28.713  59.907  1.00  0.00     0.041 C 
ATOM      8  O   UNL     1      65.756  29.299  60.480  1.00  0.00    -0.550 OA
ATOM      9  O   UNL     1      64.976  28.195  58.630  1.00  0.00    -0.550 OA
ENDBRANCH   6   7
ENDBRANCH   5   6
ENDBRANCH   4   5
ENDBRANCH   3   4
ENDBRANCH   2   3
ENDBRANCH   1   2
BRANCH   1  10
ATOM     10  C   UNL     1      61.030  34.404  59.558  1.00  0.00     0.027 C 
BRANCH  10  11
ATOM     11  C   UNL     1      62.253  34.832  60.324  1.00  0.00    -0.031 C 
ATOM     12  C   UNL     1      62.462  36.114  60.659  1.00  0.00    -0.031 C 
BRANCH  12  13
ATOM     13  C   UNL     1      63.712  36.546  61.379  1.00  0.00     0.027 C 
BRANCH  13  14
ATOM     14  C   UNL     1      64.765  35.431  61.444  1.00  0.00     0.004 C 
BRANCH  14  15
ATOM     15  C   UNL     1      66.014  35.765  60.610  1.00  0.00     0.000 C 
BRANCH  15  16
ATOM     16  C   UNL     1      65.750  35.728  59.093  1.00  0.00    -0.000 C 
BRANCH  16  17
ATOM     17  C   UNL     1      65.232  34.381  58.559  1.00  0.00    -0.003 C 
ATOM     18  C   UNL     1      64.379  34.526  57.300  1.00  0.00     0.004 C 
ENDBRANCH  16  17
ENDBRANCH  15  16
ENDBRANCH  14  15
ENDBRANCH  13  14
ENDBRANCH  12  13
ENDBRANCH  10  11
ENDBRANCH   1  10
TORSDOF 13
ENDMDL
MODEL 7
REMARK VINA RESULT:    -3.379      2.521      4.635
REMARK INTER + INTRA:          -7.657
REMARK INTER:                  -5.624
REMARK INTRA:                  -2.033
REMARK UNBOUND:                -1.710
REMARK SMILES CCCCCCC=CCCCCCCCC(=O)[O-]
REMARK SMILES IDX 10 1 11 2 12 3 13 4 14 5 15 6 16 7 17 8 18 9 9 10 8 11 7 12
REMARK SMILES IDX 6 13 5 14 4 15 3 16 2 17 1 18
REMARK H PARENT
REMARK Flexibility Score: inf
ROOT
ATOM      1  C   UNL     1      55.315  26.014  49.337  1.00  0.00     0.004 C 
ENDROOT
BRANCH   1   2
ATOM      2  C   UNL     1      56.251  26.252  50.535  1.00  0.00     0.000 C 
BRANCH   2   3
ATOM      3  C   UNL     1      57.654  26.710  50.105  1.00  0.00     0.000 C 
BRANCH   3   4
ATOM      4  C   UNL     1      58.163  27.903  50.930  1.00  0.00     0.000 C 
BRANCH   4   5
ATOM      5  C   UNL     1      58.187  29.215  50.125  1.00  0.00     0.006 C 
BRANCH   5   6
ATOM      6  C   UNL     1      59.251  29.257  49.017  1.00  0.00     0.053 C 
BRANCH   6   7
ATOM      7  C   UNL     1      60.618  28.941  49.541  1.00  0.00     0.041 C 
ATOM      8  O   UNL     1      61.235  27.921  49.133  1.00  0.00    -0.550 OA
ATOM      9  O   UNL     1      61.197  29.753  50.508  1.00  0.00    -0.550 OA
ENDBRANCH   6   7
ENDBRANCH   5   6
ENDBRANCH   4   5
ENDBRANCH   3   4
ENDBRANCH   2   3
ENDBRANCH   1   2
BRANCH   1  10
ATOM     10  C   UNL     1      54.084  26.927  49.375  1.00  0.00     0.027 C 
BRANCH  10  11
ATOM     11  C   UNL     1      54.221  27.994  50.428  1.00  0.00    -0.031 C 
ATOM     12  C   UNL     1      54.394  29.285  50.105  1.00  0.00    -0.031 C 
BRANCH  12  13
ATOM     13  C   UNL     1      54.582  30.343  51.160  1.00  0.00     0.027 C 
BRANCH  13  14
ATOM     14  C   UNL     1      54.613  29.756  52.579  1.00  0.00     0.004 C 
BRANCH  14  15
ATOM     15  C   UNL     1      56.015  29.832  53.207  1.00  0.00     0.000 C 
BRANCH  15  16
ATOM     16  C   UNL     1      56.725  31.169  52.930  1.00  0.00    -0.000 C 
BRANCH  16  17
ATOM     17  C   UNL     1      56.228  32.353  53.779  1.00  0.00    -0.003 C 
ATOM     18  C   UNL     1      55.594  33.463  52.942  1.00  0.00     0.004 C 
ENDBRANCH  16  17
ENDBRANCH  15  16
ENDBRANCH  14  15
ENDBRANCH  13  14
ENDBRANCH  12  13
ENDBRANCH  10  11
ENDBRANCH   1  10
TORSDOF 13
ENDMDL
MODEL 8
REMARK VINA RESULT:    -3.377     11.567     13.623
REMARK INTER + INTRA:          -7.654
REMARK INTER:                  -5.706
REMARK INTRA:                  -1.948
REMARK UNBOUND:                -1.710
REMARK SMILES CCCCCCC=CCCCCCCCC(=O)[O-]
REMARK SMILES IDX 10 1 11 2 12 3 13 4 14 5 15 6 16 7 17 8 18 9 9 10 8 11 7 12
REMARK SMILES IDX 6 13 5 14 4 15 3 16 2 17 1 18
REMARK H PARENT
REMARK Flexibility Score: inf
ROOT
ATOM      1  C   UNL     1      64.130  34.154  61.048  1.00  0.00     0.004 C 
ENDROOT
BRANCH   1   2
ATOM      2  C   UNL     1      64.628  35.597  60.856  1.00  0.00     0.000 C 
BRANCH   2   3
ATOM      3  C   UNL     1      63.511  36.636  61.045  1.00  0.00     0.000 C 
BRANCH   3   4
ATOM      4  C   UNL     1      62.107  36.030  60.876  1.00  0.00     0.000 C 
BRANCH   4   5
ATOM      5  C   UNL     1      61.375  36.563  59.631  1.00  0.00     0.006 C 
BRANCH   5   6
ATOM      6  C   UNL     1      61.196  35.524  58.512  1.00  0.00     0.053 C 
BRANCH   6   7
ATOM      7  C   UNL     1      62.357  35.514  57.566  1.00  0.00     0.041 C 
ATOM      8  O   UNL     1      63.134  36.504  57.505  1.00  0.00    -0.550 OA
ATOM      9  O   UNL     1      62.562  34.426  56.727  1.00  0.00    -0.550 OA
ENDBRANCH   6   7
ENDBRANCH   5   6
ENDBRANCH   4   5
ENDBRANCH   3   4
ENDBRANCH   2   3
ENDBRANCH   1   2
BRANCH   1  10
ATOM     10  C   UNL     1      64.393  33.282  59.815  1.00  0.00     0.027 C 
BRANCH  10  11
ATOM     11  C   UNL     1      63.249  32.341  59.551  1.00  0.00    -0.031 C 
ATOM     12  C   UNL     1      62.101  32.415  60.241  1.00  0.00    -0.031 C 
BRANCH  12  13
ATOM     13  C   UNL     1      60.978  31.439  60.011  1.00  0.00     0.027 C 
BRANCH  13  14
ATOM     14  C   UNL     1      60.701  30.565  61.242  1.00  0.00     0.004 C 
BRANCH  14  15
ATOM     15  C   UNL     1      61.949  29.789  61.695  1.00  0.00     0.000 C 
BRANCH  15  16
ATOM     16  C   UNL     1      62.182  28.501  60.884  1.00  0.00    -0.000 C 
BRANCH  16  17
ATOM     17  C   UNL     1      63.398  28.541  59.941  1.00  0.00    -0.003 C 
ATOM     18  C   UNL     1      64.417  27.442  60.235  1.00  0.00     0.004 C 
ENDBRANCH  16  17
ENDBRANCH  15  16
ENDBRANCH  14  15
ENDBRANCH  13  14
ENDBRANCH  12  13
ENDBRANCH  10  11
ENDBRANCH   1  10
TORSDOF 13
ENDMDL
MODEL 9
REMARK VINA RESULT:    -3.349      3.522      5.445
REMARK INTER + INTRA:          -7.604
REMARK INTER:                  -6.109
REMARK INTRA:                  -1.495
REMARK UNBOUND:                -1.710
REMARK SMILES CCCCCCC=CCCCCCCCC(=O)[O-]
REMARK SMILES IDX 10 1 11 2 12 3 13 4 14 5 15 6 16 7 17 8 18 9 9 10 8 11 7 12
REMARK SMILES IDX 6 13 5 14 4 15 3 16 2 17 1 18
REMARK H PARENT
REMARK Flexibility Score: inf
ROOT
ATOM      1  C   UNL     1      62.224  26.078  51.212  1.00  0.00     0.004 C 
ENDROOT
BRANCH   1   2
ATOM      2  C   UNL     1      63.753  26.216  51.115  1.00  0.00     0.000 C 
BRANCH   2   3
ATOM      3  C   UNL     1      64.243  26.342  49.664  1.00  0.00     0.000 C 
BRANCH   3   4
ATOM      4  C   UNL     1      64.664  27.777  49.306  1.00  0.00     0.000 C 
BRANCH   4   5
ATOM      5  C   UNL     1      64.221  28.192  47.892  1.00  0.00     0.006 C 
BRANCH   5   6
ATOM      6  C   UNL     1      65.124  29.247  47.232  1.00  0.00     0.053 C 
BRANCH   6   7
ATOM      7  C   UNL     1      66.305  28.627  46.553  1.00  0.00     0.041 C 
ATOM      8  O   UNL     1      66.309  27.395  46.286  1.00  0.00    -0.550 OA
ATOM      9  O   UNL     1      67.417  29.400  46.244  1.00  0.00    -0.550 OA
ENDBRANCH   6   7
ENDBRANCH   5   6
ENDBRANCH   4   5
ENDBRANCH   3   4
ENDBRANCH   2   3
ENDBRANCH   1   2
BRANCH   1  10
ATOM     10  C   UNL     1      61.600  25.614  49.890  1.00  0.00     0.027 C 
BRANCH  10  11
ATOM     11  C   UNL     1      60.537  26.569  49.417  1.00  0.00    -0.031 C 
ATOM     12  C   UNL     1      60.743  27.894  49.386  1.00  0.00    -0.031 C 
BRANCH  12  13
ATOM     13  C   UNL     1      59.661  28.851  48.961  1.00  0.00     0.027 C 
BRANCH  13  14
ATOM     14  C   UNL     1      58.827  29.355  50.149  1.00  0.00     0.004 C 
BRANCH  14  15
ATOM     15  C   UNL     1      57.386  28.818  50.115  1.00  0.00     0.000 C 
BRANCH  15  16
ATOM     16  C   UNL     1      57.204  27.540  50.954  1.00  0.00    -0.000 C 
BRANCH  16  17
ATOM     17  C   UNL     1      56.914  26.267  50.138  1.00  0.00    -0.003 C 
ATOM     18  C   UNL     1      55.526  26.271  49.499  1.00  0.00     0.004 C 
ENDBRANCH  16  17
ENDBRANCH  15  16
ENDBRANCH  14  15
ENDBRANCH  13  14
ENDBRANCH  12  13
ENDBRANCH  10  11
ENDBRANCH   1  10
TORSDOF 13
ENDMDL
