MODEL 1
REMARK VINA RESULT:    -7.645      0.000      0.000
REMARK INTER + INTRA:          -8.482
REMARK INTER:                  -8.986
REMARK INTRA:                   0.504
REMARK UNBOUND:                 0.504
REMARK SMILES O=c1c(O)c(-c2ccc(O)cc2)oc2cc(O)cc(O)c12
REMARK SMILES IDX 5 1 3 2 2 3 1 4 21 5 19 6 18 7 16 8 15 9 14 10 13 11 6 12
REMARK SMILES IDX 7 13 8 14 9 15 12 16 11 17 10 18 4 20 20 22 17 24
REMARK H PARENT 10 19 4 21 20 23 17 25
REMARK Flexibility Score: inf
ROOT
ATOM      1  C   UNL     1      14.918  23.544  41.595  1.00  0.00     0.180 A 
ATOM      2  C   UNL     1      15.062  24.506  40.579  1.00  0.00     0.208 A 
ATOM      3  C   UNL     1      16.115  24.373  39.660  1.00  0.00     0.238 A 
ATOM      4  O   UNL     1      16.207  25.207  38.722  1.00  0.00    -0.285 OA
ATOM      5  C   UNL     1      17.021  23.291  39.777  1.00  0.00     0.111 A 
ATOM      6  C   UNL     1      18.146  23.081  38.926  1.00  0.00     0.134 A 
ATOM      7  C   UNL     1      18.898  21.906  39.052  1.00  0.00     0.093 A 
ATOM      8  C   UNL     1      18.605  20.966  40.038  1.00  0.00     0.123 A 
ATOM      9  C   UNL     1      17.542  21.190  40.914  1.00  0.00     0.094 A 
ATOM     10  C   UNL     1      16.752  22.335  40.791  1.00  0.00     0.146 A 
ATOM     11  O   UNL     1      15.743  22.505  41.638  1.00  0.00    -0.452 OA
ENDROOT
BRANCH   1  12
ATOM     12  C   UNL     1      13.848  23.629  42.615  1.00  0.00     0.021 A 
ATOM     13  C   UNL     1      12.863  24.633  42.562  1.00  0.00     0.016 A 
ATOM     14  C   UNL     1      11.877  24.708  43.551  1.00  0.00     0.047 A 
ATOM     15  C   UNL     1      11.871  23.792  44.610  1.00  0.00     0.115 A 
ATOM     16  C   UNL     1      13.846  22.728  43.692  1.00  0.00     0.016 A 
ATOM     17  C   UNL     1      12.859  22.804  44.678  1.00  0.00     0.047 A 
BRANCH  15  18
ATOM     18  O   UNL     1      10.892  23.856  45.600  1.00  0.00    -0.508 OA
ATOM     19  H   UNL     1      11.121  23.729  46.578  1.00  0.00     0.293 HD
ENDBRANCH  15  18
ENDBRANCH   1  12
BRANCH   2  20
ATOM     20  O   UNL     1      14.145  25.554  40.470  1.00  0.00    -0.502 OA
ATOM     21  H   UNL     1      13.300  25.482  39.916  1.00  0.00     0.293 HD
ENDBRANCH   2  20
BRANCH   6  22
ATOM     22  O   UNL     1      18.583  24.001  37.968  1.00  0.00    -0.507 OA
ATOM     23  H   UNL     1      19.016  24.888  38.177  1.00  0.00     0.293 HD
ENDBRANCH   6  22
BRANCH   8  24
ATOM     24  O   UNL     1      19.383  19.816  40.145  1.00  0.00    -0.508 OA
ATOM     25  H   UNL     1      20.271  19.820  40.634  1.00  0.00     0.293 HD
ENDBRANCH   8  24
TORSDOF 5
ENDMDL
MODEL 2
REMARK VINA RESULT:    -7.570      1.188      1.901
REMARK INTER + INTRA:          -8.394
REMARK INTER:                  -8.853
REMARK INTRA:                   0.459
REMARK UNBOUND:                 0.504
REMARK SMILES O=c1c(O)c(-c2ccc(O)cc2)oc2cc(O)cc(O)c12
REMARK SMILES IDX 5 1 3 2 2 3 1 4 21 5 19 6 18 7 16 8 15 9 14 10 13 11 6 12
REMARK SMILES IDX 7 13 8 14 9 15 12 16 11 17 10 18 4 20 20 22 17 24
REMARK H PARENT 10 19 4 21 20 23 17 25
REMARK Flexibility Score: inf
ROOT
ATOM      1  C   UNL     1      16.334  23.142  40.644  1.00  0.00     0.180 A 
ATOM      2  C   UNL     1      16.791  23.976  39.609  1.00  0.00     0.208 A 
ATOM      3  C   UNL     1      17.954  23.618  38.909  1.00  0.00     0.238 A 
ATOM      4  O   UNL     1      18.328  24.341  37.949  1.00  0.00    -0.285 OA
ATOM      5  C   UNL     1      18.656  22.440  39.264  1.00  0.00     0.111 A 
ATOM      6  C   UNL     1      19.866  22.002  38.649  1.00  0.00     0.134 A 
ATOM      7  C   UNL     1      20.402  20.754  38.991  1.00  0.00     0.093 A 
ATOM      8  C   UNL     1      19.809  19.959  39.969  1.00  0.00     0.123 A 
ATOM      9  C   UNL     1      18.657  20.404  40.618  1.00  0.00     0.094 A 
ATOM     10  C   UNL     1      18.078  21.628  40.274  1.00  0.00     0.146 A 
ATOM     11  O   UNL     1      16.976  22.010  40.909  1.00  0.00    -0.452 OA
ENDROOT
BRANCH   1  12
ATOM     12  C   UNL     1      15.129  23.464  41.444  1.00  0.00     0.021 A 
ATOM     13  C   UNL     1      14.214  24.447  41.024  1.00  0.00     0.016 A 
ATOM     14  C   UNL     1      13.096  24.752  41.807  1.00  0.00     0.047 A 
ATOM     15  C   UNL     1      12.887  24.090  43.024  1.00  0.00     0.115 A 
ATOM     16  C   UNL     1      14.923  22.821  42.674  1.00  0.00     0.016 A 
ATOM     17  C   UNL     1      13.805  23.127  43.455  1.00  0.00     0.047 A 
BRANCH  15  18
ATOM     18  O   UNL     1      11.777  24.384  43.812  1.00  0.00    -0.508 OA
ATOM     19  H   UNL     1      10.907  24.703  43.402  1.00  0.00     0.293 HD
ENDBRANCH  15  18
ENDBRANCH   1  12
BRANCH   2  20
ATOM     20  O   UNL     1      16.072  25.123  39.262  1.00  0.00    -0.502 OA
ATOM     21  H   UNL     1      16.384  26.055  39.505  1.00  0.00     0.293 HD
ENDBRANCH   2  20
BRANCH   6  22
ATOM     22  O   UNL     1      20.593  22.762  37.726  1.00  0.00    -0.507 OA
ATOM     23  H   UNL     1      21.551  22.588  37.465  1.00  0.00     0.293 HD
ENDBRANCH   6  22
BRANCH   8  24
ATOM     24  O   UNL     1      20.378  18.730  40.294  1.00  0.00    -0.508 OA
ATOM     25  H   UNL     1      20.029  18.172  41.066  1.00  0.00     0.293 HD
ENDBRANCH   8  24
TORSDOF 5
ENDMDL
MODEL 3
REMARK VINA RESULT:    -7.361      1.315      6.523
REMARK INTER + INTRA:          -8.148
REMARK INTER:                  -8.432
REMARK INTRA:                   0.284
REMARK UNBOUND:                 0.504
REMARK SMILES O=c1c(O)c(-c2ccc(O)cc2)oc2cc(O)cc(O)c12
REMARK SMILES IDX 5 1 3 2 2 3 1 4 21 5 19 6 18 7 16 8 15 9 14 10 13 11 6 12
REMARK SMILES IDX 7 13 8 14 9 15 12 16 11 17 10 18 4 20 20 22 17 24
REMARK H PARENT 10 19 4 21 20 23 17 25
REMARK Flexibility Score: inf
ROOT
ATOM      1  C   UNL     1      15.528  23.249  41.022  1.00  0.00     0.180 A 
ATOM      2  C   UNL     1      14.906  24.447  40.631  1.00  0.00     0.208 A 
ATOM      3  C   UNL     1      13.901  24.991  41.446  1.00  0.00     0.238 A 
ATOM      4  O   UNL     1      13.386  26.092  41.117  1.00  0.00    -0.285 OA
ATOM      5  C   UNL     1      13.517  24.322  42.634  1.00  0.00     0.111 A 
ATOM      6  C   UNL     1      12.483  24.761  43.513  1.00  0.00     0.134 A 
ATOM      7  C   UNL     1      12.278  24.092  44.726  1.00  0.00     0.093 A 
ATOM      8  C   UNL     1      13.024  22.964  45.061  1.00  0.00     0.123 A 
ATOM      9  C   UNL     1      13.998  22.490  44.181  1.00  0.00     0.094 A 
ATOM     10  C   UNL     1      14.250  23.157  42.980  1.00  0.00     0.146 A 
ATOM     11  O   UNL     1      15.193  22.681  42.175  1.00  0.00    -0.452 OA
ENDROOT
BRANCH   1  12
ATOM     12  C   UNL     1      16.579  22.602  40.204  1.00  0.00     0.021 A 
ATOM     13  C   UNL     1      16.706  21.201  40.150  1.00  0.00     0.016 A 
ATOM     14  C   UNL     1      17.721  20.613  39.390  1.00  0.00     0.047 A 
ATOM     15  C   UNL     1      18.629  21.414  38.686  1.00  0.00     0.115 A 
ATOM     16  C   UNL     1      17.506  23.398  39.512  1.00  0.00     0.016 A 
ATOM     17  C   UNL     1      18.520  22.807  38.752  1.00  0.00     0.047 A 
BRANCH  15  18
ATOM     18  O   UNL     1      19.644  20.839  37.924  1.00  0.00    -0.508 OA
ATOM     19  H   UNL     1      20.534  21.305  37.792  1.00  0.00     0.293 HD
ENDBRANCH  15  18
ENDBRANCH   1  12
BRANCH   2  20
ATOM     20  O   UNL     1      15.315  25.102  39.466  1.00  0.00    -0.502 OA
ATOM     21  H   UNL     1      16.268  25.064  39.125  1.00  0.00     0.293 HD
ENDBRANCH   2  20
BRANCH   6  22
ATOM     22  O   UNL     1      11.617  25.823  43.231  1.00  0.00    -0.507 OA
ATOM     23  H   UNL     1      10.632  25.726  43.041  1.00  0.00     0.293 HD
ENDBRANCH   6  22
BRANCH   8  24
ATOM     24  O   UNL     1      12.783  22.314  46.269  1.00  0.00    -0.508 OA
ATOM     25  H   UNL     1      11.843  22.076  46.565  1.00  0.00     0.293 HD
ENDBRANCH   8  24
TORSDOF 5
ENDMDL
MODEL 4
REMARK VINA RESULT:    -7.229      1.778      6.823
REMARK INTER + INTRA:          -7.993
REMARK INTER:                  -8.509
REMARK INTRA:                   0.516
REMARK UNBOUND:                 0.504
REMARK SMILES O=c1c(O)c(-c2ccc(O)cc2)oc2cc(O)cc(O)c12
REMARK SMILES IDX 5 1 3 2 2 3 1 4 21 5 19 6 18 7 16 8 15 9 14 10 13 11 6 12
REMARK SMILES IDX 7 13 8 14 9 15 12 16 11 17 10 18 4 20 20 22 17 24
REMARK H PARENT 10 19 4 21 20 23 17 25
REMARK Flexibility Score: inf
ROOT
ATOM      1  C   UNL     1      18.115  22.487  39.809  1.00  0.00     0.180 A 
ATOM      2  C   UNL     1      17.931  23.618  38.996  1.00  0.00     0.208 A 
ATOM      3  C   UNL     1      16.803  24.428  39.200  1.00  0.00     0.238 A 
ATOM      4  O   UNL     1      16.671  25.468  38.503  1.00  0.00    -0.285 OA
ATOM      5  C   UNL     1      15.863  24.088  40.204  1.00  0.00     0.111 A 
ATOM      6  C   UNL     1      14.665  24.814  40.471  1.00  0.00     0.134 A 
ATOM      7  C   UNL     1      13.876  24.462  41.574  1.00  0.00     0.093 A 
ATOM      8  C   UNL     1      14.207  23.374  42.378  1.00  0.00     0.123 A 
ATOM      9  C   UNL     1      15.346  22.621  42.091  1.00  0.00     0.094 A 
ATOM     10  C   UNL     1      16.172  22.968  41.019  1.00  0.00     0.146 A 
ATOM     11  O   UNL     1      17.252  22.232  40.786  1.00  0.00    -0.452 OA
ENDROOT
BRANCH   1  12
ATOM     12  C   UNL     1      19.267  21.572  39.639  1.00  0.00     0.021 A 
ATOM     13  C   UNL     1      19.296  20.308  40.257  1.00  0.00     0.016 A 
ATOM     14  C   UNL     1      20.405  19.471  40.102  1.00  0.00     0.047 A 
ATOM     15  C   UNL     1      21.503  19.890  39.339  1.00  0.00     0.115 A 
ATOM     16  C   UNL     1      20.381  21.992  38.894  1.00  0.00     0.016 A 
ATOM     17  C   UNL     1      21.488  21.153  38.739  1.00  0.00     0.047 A 
BRANCH  15  18
ATOM     18  O   UNL     1      22.612  19.063  39.176  1.00  0.00    -0.508 OA
ATOM     19  H   UNL     1      23.273  19.209  38.422  1.00  0.00     0.293 HD
ENDBRANCH  15  18
ENDBRANCH   1  12
BRANCH   2  20
ATOM     20  O   UNL     1      18.881  23.947  38.025  1.00  0.00    -0.502 OA
ATOM     21  H   UNL     1      19.845  23.641  38.081  1.00  0.00     0.293 HD
ENDBRANCH   2  20
BRANCH   6  22
ATOM     22  O   UNL     1      14.192  25.861  39.673  1.00  0.00    -0.507 OA
ATOM     23  H   UNL     1      14.371  25.957  38.686  1.00  0.00     0.293 HD
ENDBRANCH   6  22
BRANCH   8  24
ATOM     24  O   UNL     1      13.391  23.044  43.458  1.00  0.00    -0.508 OA
ATOM     25  H   UNL     1      13.208  23.704  44.205  1.00  0.00     0.293 HD
ENDBRANCH   8  24
TORSDOF 5
ENDMDL
MODEL 5
REMARK VINA RESULT:    -6.374      1.964      3.810
REMARK INTER + INTRA:          -6.988
REMARK INTER:                  -6.888
REMARK INTRA:                  -0.100
REMARK UNBOUND:                 0.504
REMARK SMILES O=c1c(O)c(-c2ccc(O)cc2)oc2cc(O)cc(O)c12
REMARK SMILES IDX 5 1 3 2 2 3 1 4 21 5 19 6 18 7 16 8 15 9 14 10 13 11 6 12
REMARK SMILES IDX 7 13 8 14 9 15 12 16 11 17 10 18 4 20 20 22 17 24
REMARK H PARENT 10 19 4 21 20 23 17 25
REMARK Flexibility Score: inf
ROOT
ATOM      1  C   UNL     1      17.053  22.192  40.866  1.00  0.00     0.180 A 
ATOM      2  C   UNL     1      17.213  20.803  40.717  1.00  0.00     0.208 A 
ATOM      3  C   UNL     1      18.421  20.308  40.200  1.00  0.00     0.238 A 
ATOM      4  O   UNL     1      18.578  19.062  40.120  1.00  0.00    -0.285 OA
ATOM      5  C   UNL     1      19.448  21.208  39.822  1.00  0.00     0.111 A 
ATOM      6  C   UNL     1      20.695  20.818  39.251  1.00  0.00     0.134 A 
ATOM      7  C   UNL     1      21.688  21.783  39.038  1.00  0.00     0.093 A 
ATOM      8  C   UNL     1      21.455  23.129  39.314  1.00  0.00     0.123 A 
ATOM      9  C   UNL     1      20.217  23.529  39.818  1.00  0.00     0.094 A 
ATOM     10  C   UNL     1      19.219  22.585  40.075  1.00  0.00     0.146 A 
ATOM     11  O   UNL     1      18.059  23.006  40.565  1.00  0.00    -0.452 OA
ENDROOT
BRANCH   1  12
ATOM     12  C   UNL     1      15.800  22.791  41.380  1.00  0.00     0.021 A 
ATOM     13  C   UNL     1      15.033  23.671  40.595  1.00  0.00     0.016 A 
ATOM     14  C   UNL     1      13.867  24.244  41.111  1.00  0.00     0.047 A 
ATOM     15  C   UNL     1      13.460  23.956  42.420  1.00  0.00     0.115 A 
ATOM     16  C   UNL     1      15.396  22.525  42.699  1.00  0.00     0.016 A 
ATOM     17  C   UNL     1      14.229  23.098  43.211  1.00  0.00     0.047 A 
BRANCH  15  18
ATOM     18  O   UNL     1      12.298  24.520  42.944  1.00  0.00    -0.508 OA
ATOM     19  H   UNL     1      11.965  24.278  43.869  1.00  0.00     0.293 HD
ENDBRANCH  15  18
ENDBRANCH   1  12
BRANCH   2  20
ATOM     20  O   UNL     1      16.195  19.932  41.116  1.00  0.00    -0.502 OA
ATOM     21  H   UNL     1      15.923  19.126  40.567  1.00  0.00     0.293 HD
ENDBRANCH   2  20
BRANCH   6  22
ATOM     22  O   UNL     1      20.998  19.513  38.851  1.00  0.00    -0.507 OA
ATOM     23  H   UNL     1      21.811  19.249  38.316  1.00  0.00     0.293 HD
ENDBRANCH   6  22
BRANCH   8  24
ATOM     24  O   UNL     1      22.460  24.064  39.076  1.00  0.00    -0.508 OA
ATOM     25  H   UNL     1      22.395  24.729  38.313  1.00  0.00     0.293 HD
ENDBRANCH   8  24
TORSDOF 5
ENDMDL
MODEL 6
REMARK VINA RESULT:    -6.073     15.073     19.092
REMARK INTER + INTRA:          -6.634
REMARK INTER:                  -6.535
REMARK INTRA:                  -0.100
REMARK UNBOUND:                 0.504
REMARK SMILES O=c1c(O)c(-c2ccc(O)cc2)oc2cc(O)cc(O)c12
REMARK SMILES IDX 5 1 3 2 2 3 1 4 21 5 19 6 18 7 16 8 15 9 14 10 13 11 6 12
REMARK SMILES IDX 7 13 8 14 9 15 12 16 11 17 10 18 4 20 20 22 17 24
REMARK H PARENT 10 19 4 21 20 23 17 25
REMARK Flexibility Score: inf
ROOT
ATOM      1  C   UNL     1      28.935  10.563  37.459  1.00  0.00     0.180 A 
ATOM      2  C   UNL     1      29.735  11.408  36.669  1.00  0.00     0.208 A 
ATOM      3  C   UNL     1      29.121  12.423  35.919  1.00  0.00     0.238 A 
ATOM      4  O   UNL     1      29.848  13.209  35.257  1.00  0.00    -0.285 OA
ATOM      5  C   UNL     1      27.713  12.571  35.954  1.00  0.00     0.111 A 
ATOM      6  C   UNL     1      26.982  13.539  35.203  1.00  0.00     0.134 A 
ATOM      7  C   UNL     1      25.605  13.682  35.416  1.00  0.00     0.093 A 
ATOM      8  C   UNL     1      24.923  12.849  36.302  1.00  0.00     0.123 A 
ATOM      9  C   UNL     1      25.619  11.860  36.997  1.00  0.00     0.094 A 
ATOM     10  C   UNL     1      26.999  11.717  36.834  1.00  0.00     0.146 A 
ATOM     11  O   UNL     1      27.625  10.770  37.522  1.00  0.00    -0.452 OA
ENDROOT
BRANCH   1  12
ATOM     12  C   UNL     1      29.507   9.455  38.258  1.00  0.00     0.021 A 
ATOM     13  C   UNL     1      29.148   8.116  38.015  1.00  0.00     0.016 A 
ATOM     14  C   UNL     1      29.682   7.089  38.798  1.00  0.00     0.047 A 
ATOM     15  C   UNL     1      30.569   7.386  39.841  1.00  0.00     0.115 A 
ATOM     16  C   UNL     1      30.381   9.746  39.318  1.00  0.00     0.016 A 
ATOM     17  C   UNL     1      30.914   8.717  40.099  1.00  0.00     0.047 A 
BRANCH  15  18
ATOM     18  O   UNL     1      31.109   6.370  40.627  1.00  0.00    -0.508 OA
ATOM     19  H   UNL     1      31.563   6.570  41.510  1.00  0.00     0.293 HD
ENDBRANCH  15  18
ENDBRANCH   1  12
BRANCH   2  20
ATOM     20  O   UNL     1      31.125  11.257  36.666  1.00  0.00    -0.502 OA
ATOM     21  H   UNL     1      31.625  10.834  35.892  1.00  0.00     0.293 HD
ENDBRANCH   2  20
BRANCH   6  22
ATOM     22  O   UNL     1      27.550  14.360  34.224  1.00  0.00    -0.507 OA
ATOM     23  H   UNL     1      28.288  15.027  34.390  1.00  0.00     0.293 HD
ENDBRANCH   6  22
BRANCH   8  24
ATOM     24  O   UNL     1      23.551  13.009  36.477  1.00  0.00    -0.508 OA
ATOM     25  H   UNL     1      23.156  13.882  36.806  1.00  0.00     0.293 HD
ENDBRANCH   8  24
TORSDOF 5
ENDMDL
MODEL 7
REMARK VINA RESULT:    -5.866     16.918     19.852
REMARK INTER + INTRA:          -6.391
REMARK INTER:                  -6.095
REMARK INTRA:                  -0.295
REMARK UNBOUND:                 0.504
REMARK SMILES O=c1c(O)c(-c2ccc(O)cc2)oc2cc(O)cc(O)c12
REMARK SMILES IDX 5 1 3 2 2 3 1 4 21 5 19 6 18 7 16 8 15 9 14 10 13 11 6 12
REMARK SMILES IDX 7 13 8 14 9 15 12 16 11 17 10 18 4 20 20 22 17 24
REMARK H PARENT 10 19 4 21 20 23 17 25
REMARK Flexibility Score: inf
ROOT
ATOM      1  C   UNL     1      29.868  11.808  37.554  1.00  0.00     0.180 A 
ATOM      2  C   UNL     1      30.308  12.234  38.820  1.00  0.00     0.208 A 
ATOM      3  C   UNL     1      30.660  11.271  39.778  1.00  0.00     0.238 A 
ATOM      4  O   UNL     1      31.104  11.659  40.890  1.00  0.00    -0.285 OA
ATOM      5  C   UNL     1      30.553   9.893  39.466  1.00  0.00     0.111 A 
ATOM      6  C   UNL     1      30.845   8.832  40.374  1.00  0.00     0.134 A 
ATOM      7  C   UNL     1      30.829   7.508  39.916  1.00  0.00     0.093 A 
ATOM      8  C   UNL     1      30.470   7.204  38.605  1.00  0.00     0.123 A 
ATOM      9  C   UNL     1      30.125   8.231  37.725  1.00  0.00     0.094 A 
ATOM     10  C   UNL     1      30.166   9.564  38.141  1.00  0.00     0.146 A 
ATOM     11  O   UNL     1      29.841  10.511  37.270  1.00  0.00    -0.452 OA
ENDROOT
BRANCH   1  12
ATOM     12  C   UNL     1      29.456  12.763  36.500  1.00  0.00     0.021 A 
ATOM     13  C   UNL     1      28.145  13.271  36.445  1.00  0.00     0.016 A 
ATOM     14  C   UNL     1      27.771  14.153  35.425  1.00  0.00     0.047 A 
ATOM     15  C   UNL     1      28.697  14.526  34.443  1.00  0.00     0.115 A 
ATOM     16  C   UNL     1      30.371  13.126  35.499  1.00  0.00     0.016 A 
ATOM     17  C   UNL     1      29.996  14.008  34.482  1.00  0.00     0.047 A 
BRANCH  15  18
ATOM     18  O   UNL     1      28.337  15.405  33.423  1.00  0.00    -0.508 OA
ATOM     19  H   UNL     1      28.874  16.243  33.234  1.00  0.00     0.293 HD
ENDBRANCH  15  18
ENDBRANCH   1  12
BRANCH   2  20
ATOM     20  O   UNL     1      30.427  13.598  39.099  1.00  0.00    -0.502 OA
ATOM     21  H   UNL     1      29.836  14.069  39.774  1.00  0.00     0.293 HD
ENDBRANCH   2  20
BRANCH   6  22
ATOM     22  O   UNL     1      31.125   9.020  41.731  1.00  0.00    -0.507 OA
ATOM     23  H   UNL     1      31.851   9.621  42.090  1.00  0.00     0.293 HD
ENDBRANCH   6  22
BRANCH   8  24
ATOM     24  O   UNL     1      30.450   5.875  38.188  1.00  0.00    -0.508 OA
ATOM     25  H   UNL     1      30.765   5.125  38.793  1.00  0.00     0.293 HD
ENDBRANCH   8  24
TORSDOF 5
ENDMDL
MODEL 8
REMARK VINA RESULT:    -5.726     18.173     19.738
REMARK INTER + INTRA:          -6.226
REMARK INTER:                  -6.742
REMARK INTRA:                   0.516
REMARK UNBOUND:                 0.504
REMARK SMILES O=c1c(O)c(-c2ccc(O)cc2)oc2cc(O)cc(O)c12
REMARK SMILES IDX 5 1 3 2 2 3 1 4 21 5 19 6 18 7 16 8 15 9 14 10 13 11 6 12
REMARK SMILES IDX 7 13 8 14 9 15 12 16 11 17 10 18 4 20 20 22 17 24
REMARK H PARENT 10 19 4 21 20 23 17 25
REMARK Flexibility Score: inf
ROOT
ATOM      1  C   UNL     1      30.564  11.071  39.729  1.00  0.00     0.180 A 
ATOM      2  C   UNL     1      30.820   9.889  39.012  1.00  0.00     0.208 A 
ATOM      3  C   UNL     1      30.800   9.927  37.609  1.00  0.00     0.238 A 
ATOM      4  O   UNL     1      31.082   8.878  36.972  1.00  0.00    -0.285 OA
ATOM      5  C   UNL     1      30.510  11.141  36.940  1.00  0.00     0.111 A 
ATOM      6  C   UNL     1      30.424  11.284  35.523  1.00  0.00     0.134 A 
ATOM      7  C   UNL     1      30.261  12.559  34.967  1.00  0.00     0.093 A 
ATOM      8  C   UNL     1      30.114  13.684  35.776  1.00  0.00     0.123 A 
ATOM      9  C   UNL     1      30.137  13.547  37.164  1.00  0.00     0.094 A 
ATOM     10  C   UNL     1      30.335  12.293  37.749  1.00  0.00     0.146 A 
ATOM     11  O   UNL     1      30.361  12.207  39.073  1.00  0.00    -0.452 OA
ENDROOT
BRANCH   1  12
ATOM     12  C   UNL     1      30.543  11.106  41.210  1.00  0.00     0.021 A 
ATOM     13  C   UNL     1      30.015  12.207  41.908  1.00  0.00     0.016 A 
ATOM     14  C   UNL     1      30.028  12.229  43.306  1.00  0.00     0.047 A 
ATOM     15  C   UNL     1      30.579  11.158  44.022  1.00  0.00     0.115 A 
ATOM     16  C   UNL     1      31.112  10.046  41.935  1.00  0.00     0.016 A 
ATOM     17  C   UNL     1      31.123  10.070  43.333  1.00  0.00     0.047 A 
BRANCH  15  18
ATOM     18  O   UNL     1      30.596  11.168  45.416  1.00  0.00    -0.508 OA
ATOM     19  H   UNL     1      29.876  10.703  45.956  1.00  0.00     0.293 HD
ENDBRANCH  15  18
ENDBRANCH   1  12
BRANCH   2  20
ATOM     20  O   UNL     1      31.125   8.707  39.692  1.00  0.00    -0.502 OA
ATOM     21  H   UNL     1      31.700   7.978  39.285  1.00  0.00     0.293 HD
ENDBRANCH   2  20
BRANCH   6  22
ATOM     22  O   UNL     1      30.465  10.212  34.625  1.00  0.00    -0.507 OA
ATOM     23  H   UNL     1      30.395   9.241  34.887  1.00  0.00     0.293 HD
ENDBRANCH   6  22
BRANCH   8  24
ATOM     24  O   UNL     1      29.937  14.935  35.189  1.00  0.00    -0.508 OA
ATOM     25  H   UNL     1      29.707  15.753  35.743  1.00  0.00     0.293 HD
ENDBRANCH   8  24
TORSDOF 5
ENDMDL
