MODEL 1
REMARK VINA RESULT:    -3.398      0.000      0.000
REMARK INTER + INTRA:          -4.978
REMARK INTER:                  -4.789
REMARK INTRA:                  -0.189
REMARK UNBOUND:                -0.189
REMARK SMILES CCCCCCCCC(=O)[O-]
REMARK SMILES IDX 6 1 7 2 8 3 9 4 10 5 11 6 5 7 4 8 3 9 2 10 1 11
REMARK H PARENT
REMARK Flexibility Score: inf
ROOT
ATOM      1  C   UNL     1      26.225  -2.939  -3.466  1.00  0.00     0.000 C 
ENDROOT
BRANCH   1   2
ATOM      2  C   UNL     1      25.054  -2.395  -2.624  1.00  0.00     0.006 C 
BRANCH   2   3
ATOM      3  C   UNL     1      24.223  -1.306  -3.320  1.00  0.00     0.053 C 
BRANCH   3   4
ATOM      4  C   UNL     1      23.086  -0.837  -2.465  1.00  0.00     0.041 C 
ATOM      5  O   UNL     1      22.843  -1.406  -1.367  1.00  0.00    -0.550 OA
ATOM      6  O   UNL     1      22.274   0.205  -2.894  1.00  0.00    -0.550 OA
ENDBRANCH   3   4
ENDBRANCH   2   3
ENDBRANCH   1   2
BRANCH   1   7
ATOM      7  C   UNL     1      26.086  -4.411  -3.908  1.00  0.00     0.000 C 
BRANCH   7   8
ATOM      8  C   UNL     1      27.416  -5.155  -4.125  1.00  0.00    -0.000 C 
BRANCH   8   9
ATOM      9  C   UNL     1      28.048  -5.641  -2.813  1.00  0.00    -0.000 C 
BRANCH   9  10
ATOM     10  C   UNL     1      27.069  -5.488  -1.644  1.00  0.00    -0.003 C 
ATOM     11  C   UNL     1      27.706  -4.718  -0.489  1.00  0.00     0.004 C 
ENDBRANCH   9  10
ENDBRANCH   8   9
ENDBRANCH   7   8
ENDBRANCH   1   7
TORSDOF 7
ENDMDL
MODEL 2
REMARK VINA RESULT:    -3.004     10.618     12.382
REMARK INTER + INTRA:          -4.423
REMARK INTER:                  -4.194
REMARK INTRA:                  -0.228
REMARK UNBOUND:                -0.189
REMARK SMILES CCCCCCCCC(=O)[O-]
REMARK SMILES IDX 6 1 7 2 8 3 9 4 10 5 11 6 5 7 4 8 3 9 2 10 1 11
REMARK H PARENT
REMARK Flexibility Score: inf
ROOT
ATOM      1  C   UNL     1      27.669   9.147  -0.428  1.00  0.00     0.000 C 
ENDROOT
BRANCH   1   2
ATOM      2  C   UNL     1      28.788  10.094  -0.905  1.00  0.00     0.006 C 
BRANCH   2   3
ATOM      3  C   UNL     1      29.060  10.046  -2.417  1.00  0.00     0.053 C 
BRANCH   3   4
ATOM      4  C   UNL     1      28.494  11.239  -3.125  1.00  0.00     0.041 C 
ATOM      5  O   UNL     1      27.578  11.093  -3.977  1.00  0.00    -0.550 OA
ATOM      6  O   UNL     1      28.999  12.507  -2.870  1.00  0.00    -0.550 OA
ENDBRANCH   3   4
ENDBRANCH   2   3
ENDBRANCH   1   2
BRANCH   1   7
ATOM      7  C   UNL     1      27.143   8.165  -1.495  1.00  0.00     0.000 C 
BRANCH   7   8
ATOM      8  C   UNL     1      26.879   6.735  -0.990  1.00  0.00    -0.000 C 
BRANCH   8   9
ATOM      9  C   UNL     1      25.802   6.005  -1.805  1.00  0.00    -0.000 C 
BRANCH   9  10
ATOM     10  C   UNL     1      25.651   4.553  -1.336  1.00  0.00    -0.003 C 
ATOM     11  C   UNL     1      24.688   3.781  -2.235  1.00  0.00     0.004 C 
ENDBRANCH   9  10
ENDBRANCH   8   9
ENDBRANCH   7   8
ENDBRANCH   1   7
TORSDOF 7
ENDMDL
MODEL 3
REMARK VINA RESULT:    -2.848      3.072      5.350
REMARK INTER + INTRA:          -4.203
REMARK INTER:                  -3.929
REMARK INTRA:                  -0.273
REMARK UNBOUND:                -0.189
REMARK SMILES CCCCCCCCC(=O)[O-]
REMARK SMILES IDX 6 1 7 2 8 3 9 4 10 5 11 6 5 7 4 8 3 9 2 10 1 11
REMARK H PARENT
REMARK Flexibility Score: inf
ROOT
ATOM      1  C   UNL     1      26.140  -4.479  -3.722  1.00  0.00     0.000 C 
ENDROOT
BRANCH   1   2
ATOM      2  C   UNL     1      26.624  -5.604  -2.785  1.00  0.00     0.006 C 
BRANCH   2   3
ATOM      3  C   UNL     1      27.916  -5.281  -2.018  1.00  0.00     0.053 C 
BRANCH   3   4
ATOM      4  C   UNL     1      27.658  -5.036  -0.563  1.00  0.00     0.041 C 
ATOM      5  O   UNL     1      26.766  -5.690   0.040  1.00  0.00    -0.550 OA
ATOM      6  O   UNL     1      28.378  -4.064   0.119  1.00  0.00    -0.550 OA
ENDBRANCH   3   4
ENDBRANCH   2   3
ENDBRANCH   1   2
BRANCH   1   7
ATOM      7  C   UNL     1      26.375  -3.047  -3.201  1.00  0.00     0.000 C 
BRANCH   7   8
ATOM      8  C   UNL     1      25.163  -2.398  -2.507  1.00  0.00    -0.000 C 
BRANCH   8   9
ATOM      9  C   UNL     1      24.319  -1.540  -3.459  1.00  0.00    -0.000 C 
BRANCH   9  10
ATOM     10  C   UNL     1      23.465  -0.534  -2.679  1.00  0.00    -0.003 C 
ATOM     11  C   UNL     1      22.685  -1.223  -1.561  1.00  0.00     0.004 C 
ENDBRANCH   9  10
ENDBRANCH   8   9
ENDBRANCH   7   8
ENDBRANCH   1   7
TORSDOF 7
ENDMDL
MODEL 4
REMARK VINA RESULT:    -2.796     10.283     12.370
REMARK INTER + INTRA:          -4.130
REMARK INTER:                  -3.874
REMARK INTRA:                  -0.257
REMARK UNBOUND:                -0.189
REMARK SMILES CCCCCCCCC(=O)[O-]
REMARK SMILES IDX 6 1 7 2 8 3 9 4 10 5 11 6 5 7 4 8 3 9 2 10 1 11
REMARK H PARENT
REMARK Flexibility Score: inf
ROOT
ATOM      1  C   UNL     1      27.466   8.100  -1.705  1.00  0.00     0.000 C 
ENDROOT
BRANCH   1   2
ATOM      2  C   UNL     1      27.085   6.773  -1.019  1.00  0.00     0.006 C 
BRANCH   2   3
ATOM      3  C   UNL     1      25.851   6.080  -1.617  1.00  0.00     0.053 C 
BRANCH   3   4
ATOM      4  C   UNL     1      25.879   4.598  -1.397  1.00  0.00     0.041 C 
ATOM      5  O   UNL     1      26.829   4.071  -0.759  1.00  0.00    -0.550 OA
ATOM      6  O   UNL     1      24.876   3.797  -1.925  1.00  0.00    -0.550 OA
ENDBRANCH   3   4
ENDBRANCH   2   3
ENDBRANCH   1   2
BRANCH   1   7
ATOM      7  C   UNL     1      27.936   9.219  -0.752  1.00  0.00     0.000 C 
BRANCH   7   8
ATOM      8  C   UNL     1      28.726  10.358  -1.422  1.00  0.00    -0.000 C 
BRANCH   8   9
ATOM      9  C   UNL     1      28.849  10.183  -2.943  1.00  0.00    -0.000 C 
BRANCH   9  10
ATOM     10  C   UNL     1      28.173  11.342  -3.683  1.00  0.00    -0.003 C 
ATOM     11  C   UNL     1      28.905  12.659  -3.432  1.00  0.00     0.004 C 
ENDBRANCH   9  10
ENDBRANCH   8   9
ENDBRANCH   7   8
ENDBRANCH   1   7
TORSDOF 7
ENDMDL
MODEL 5
REMARK VINA RESULT:    -2.749      9.877     11.981
REMARK INTER + INTRA:          -4.063
REMARK INTER:                  -3.578
REMARK INTRA:                  -0.485
REMARK UNBOUND:                -0.189
REMARK SMILES CCCCCCCCC(=O)[O-]
REMARK SMILES IDX 6 1 7 2 8 3 9 4 10 5 11 6 5 7 4 8 3 9 2 10 1 11
REMARK H PARENT
REMARK Flexibility Score: inf
ROOT
ATOM      1  C   UNL     1      26.994   8.374  -0.631  1.00  0.00     0.000 C 
ENDROOT
BRANCH   1   2
ATOM      2  C   UNL     1      27.177   6.881  -0.970  1.00  0.00     0.006 C 
BRANCH   2   3
ATOM      3  C   UNL     1      25.969   6.234  -1.665  1.00  0.00     0.053 C 
BRANCH   3   4
ATOM      4  C   UNL     1      25.896   4.760  -1.406  1.00  0.00     0.041 C 
ATOM      5  O   UNL     1      24.933   4.085  -1.854  1.00  0.00    -0.550 OA
ATOM      6  O   UNL     1      26.875   4.139  -0.642  1.00  0.00    -0.550 OA
ENDBRANCH   3   4
ENDBRANCH   2   3
ENDBRANCH   1   2
BRANCH   1   7
ATOM      7  C   UNL     1      28.302   9.163  -0.419  1.00  0.00     0.000 C 
BRANCH   7   8
ATOM      8  C   UNL     1      29.101   9.458  -1.702  1.00  0.00    -0.000 C 
BRANCH   8   9
ATOM      9  C   UNL     1      28.772  10.830  -2.307  1.00  0.00    -0.000 C 
BRANCH   9  10
ATOM     10  C   UNL     1      28.042  10.677  -3.646  1.00  0.00    -0.003 C 
ATOM     11  C   UNL     1      28.064   9.227  -4.124  1.00  0.00     0.004 C 
ENDBRANCH   9  10
ENDBRANCH   8   9
ENDBRANCH   7   8
ENDBRANCH   1   7
TORSDOF 7
ENDMDL
MODEL 6
REMARK VINA RESULT:    -2.434      3.278      5.908
REMARK INTER + INTRA:          -3.619
REMARK INTER:                  -3.406
REMARK INTRA:                  -0.212
REMARK UNBOUND:                -0.189
REMARK SMILES CCCCCCCCC(=O)[O-]
REMARK SMILES IDX 6 1 7 2 8 3 9 4 10 5 11 6 5 7 4 8 3 9 2 10 1 11
REMARK H PARENT
REMARK Flexibility Score: inf
ROOT
ATOM      1  C   UNL     1      26.034  -2.956  -3.064  1.00  0.00     0.000 C 
ENDROOT
BRANCH   1   2
ATOM      2  C   UNL     1      25.969  -4.303  -3.810  1.00  0.00     0.006 C 
BRANCH   2   3
ATOM      3  C   UNL     1      26.283  -5.529  -2.939  1.00  0.00     0.053 C 
BRANCH   3   4
ATOM      4  C   UNL     1      27.728  -5.583  -2.548  1.00  0.00     0.041 C 
ATOM      5  O   UNL     1      28.096  -5.155  -1.422  1.00  0.00    -0.550 OA
ATOM      6  O   UNL     1      28.672  -6.076  -3.439  1.00  0.00    -0.550 OA
ENDBRANCH   3   4
ENDBRANCH   2   3
ENDBRANCH   1   2
BRANCH   1   7
ATOM      7  C   UNL     1      25.006  -1.902  -3.523  1.00  0.00     0.000 C 
BRANCH   7   8
ATOM      8  C   UNL     1      23.995  -1.465  -2.448  1.00  0.00    -0.000 C 
BRANCH   8   9
ATOM      9  C   UNL     1      22.992  -0.422  -2.961  1.00  0.00    -0.000 C 
BRANCH   9  10
ATOM     10  C   UNL     1      21.862  -0.204  -1.949  1.00  0.00    -0.003 C 
ATOM     11  C   UNL     1      21.941  -1.216  -0.808  1.00  0.00     0.004 C 
ENDBRANCH   9  10
ENDBRANCH   8   9
ENDBRANCH   7   8
ENDBRANCH   1   7
TORSDOF 7
ENDMDL
MODEL 7
REMARK VINA RESULT:    -2.433      8.781     11.051
REMARK INTER + INTRA:          -3.618
REMARK INTER:                  -3.396
REMARK INTRA:                  -0.222
REMARK UNBOUND:                -0.189
REMARK SMILES CCCCCCCCC(=O)[O-]
REMARK SMILES IDX 6 1 7 2 8 3 9 4 10 5 11 6 5 7 4 8 3 9 2 10 1 11
REMARK H PARENT
REMARK Flexibility Score: inf
ROOT
ATOM      1  C   UNL     1      26.760   6.282  -0.680  1.00  0.00     0.000 C 
ENDROOT
BRANCH   1   2
ATOM      2  C   UNL     1      25.840   5.746  -1.795  1.00  0.00     0.006 C 
BRANCH   2   3
ATOM      3  C   UNL     1      25.543   4.241  -1.705  1.00  0.00     0.053 C 
BRANCH   3   4
ATOM      4  C   UNL     1      24.318   3.865  -2.481  1.00  0.00     0.041 C 
ATOM      5  O   UNL     1      23.571   4.760  -2.958  1.00  0.00    -0.550 OA
ATOM      6  O   UNL     1      23.983   2.527  -2.650  1.00  0.00    -0.550 OA
ENDBRANCH   3   4
ENDBRANCH   2   3
ENDBRANCH   1   2
BRANCH   1   7
ATOM      7  C   UNL     1      27.610   7.509  -1.065  1.00  0.00     0.000 C 
BRANCH   7   8
ATOM      8  C   UNL     1      27.059   8.342  -2.237  1.00  0.00    -0.000 C 
BRANCH   8   9
ATOM      9  C   UNL     1      28.167   8.928  -3.124  1.00  0.00    -0.000 C 
BRANCH   9  10
ATOM     10  C   UNL     1      28.523  10.353  -2.685  1.00  0.00    -0.003 C 
ATOM     11  C   UNL     1      28.011  11.384  -3.689  1.00  0.00     0.004 C 
ENDBRANCH   9  10
ENDBRANCH   8   9
ENDBRANCH   7   8
ENDBRANCH   1   7
TORSDOF 7
ENDMDL
MODEL 8
REMARK VINA RESULT:    -2.223      2.939      5.606
REMARK INTER + INTRA:          -3.322
REMARK INTER:                  -3.468
REMARK INTRA:                   0.146
REMARK UNBOUND:                -0.189
REMARK SMILES CCCCCCCCC(=O)[O-]
REMARK SMILES IDX 6 1 7 2 8 3 9 4 10 5 11 6 5 7 4 8 3 9 2 10 1 11
REMARK H PARENT
REMARK Flexibility Score: inf
ROOT
ATOM      1  C   UNL     1      25.772  -3.691  -3.602  1.00  0.00     0.000 C 
ENDROOT
BRANCH   1   2
ATOM      2  C   UNL     1      27.214  -3.943  -4.084  1.00  0.00     0.006 C 
BRANCH   2   3
ATOM      3  C   UNL     1      28.113  -4.648  -3.056  1.00  0.00     0.053 C 
BRANCH   3   4
ATOM      4  C   UNL     1      27.328  -5.182  -1.898  1.00  0.00     0.041 C 
ATOM      5  O   UNL     1      26.511  -6.125  -2.069  1.00  0.00    -0.550 OA
ATOM      6  O   UNL     1      27.474  -4.618  -0.638  1.00  0.00    -0.550 OA
ENDBRANCH   3   4
ENDBRANCH   2   3
ENDBRANCH   1   2
BRANCH   1   7
ATOM      7  C   UNL     1      25.562  -2.377  -2.822  1.00  0.00     0.000 C 
BRANCH   7   8
ATOM      8  C   UNL     1      24.396  -1.503  -3.318  1.00  0.00    -0.000 C 
BRANCH   8   9
ATOM      9  C   UNL     1      23.333  -1.257  -2.238  1.00  0.00    -0.000 C 
BRANCH   9  10
ATOM     10  C   UNL     1      22.557   0.035  -2.518  1.00  0.00    -0.003 C 
ATOM     11  C   UNL     1      23.491   1.151  -2.980  1.00  0.00     0.004 C 
ENDBRANCH   9  10
ENDBRANCH   8   9
ENDBRANCH   7   8
ENDBRANCH   1   7
TORSDOF 7
ENDMDL
