MODEL 1
REMARK VINA RESULT:    -4.581      0.000      0.000
REMARK INTER + INTRA:          -5.510
REMARK INTER:                  -5.384
REMARK INTRA:                  -0.127
REMARK UNBOUND:                -0.127
REMARK SMILES O=C([O-])C=Cc1ccc(O)c(O)c1
REMARK SMILES IDX 6 1 13 2 7 3 11 4 8 5 9 6 5 7 4 8 2 9 1 10 3 11 12 12 10 14
REMARK H PARENT 12 13 10 15
REMARK Flexibility Score: inf
ROOT
ATOM      1  C   UNL     1     -11.803   4.213  -2.786  1.00  0.00    -0.022 A 
ATOM      2  C   UNL     1     -12.079   3.596  -1.553  1.00  0.00     0.058 A 
ATOM      3  C   UNL     1     -11.273   3.434  -3.833  1.00  0.00     0.012 A 
ATOM      4  C   UNL     1     -11.810   2.237  -1.356  1.00  0.00     0.157 A 
ATOM      5  C   UNL     1     -11.006   2.076  -3.638  1.00  0.00     0.051 A 
ATOM      6  C   UNL     1     -11.268   1.473  -2.401  1.00  0.00     0.157 A 
ENDROOT
BRANCH   1   7
ATOM      7  C   UNL     1     -12.116   5.655  -2.944  1.00  0.00     0.010 C 
ATOM      8  C   UNL     1     -11.194   6.595  -3.193  1.00  0.00     0.025 C 
BRANCH   8   9
ATOM      9  C   UNL     1     -11.541   8.020  -3.333  1.00  0.00     0.064 C 
ATOM     10  O   UNL     1     -12.125   8.451  -4.363  1.00  0.00    -0.545 OA
ATOM     11  O   UNL     1     -11.219   8.904  -2.313  1.00  0.00    -0.545 OA
ENDBRANCH   8   9
ENDBRANCH   1   7
BRANCH   4  12
ATOM     12  O   UNL     1     -12.089   1.666  -0.114  1.00  0.00    -0.504 OA
ATOM     13  H   UNL     1     -11.559   1.900   0.716  1.00  0.00     0.293 HD
ENDBRANCH   4  12
BRANCH   6  14
ATOM     14  O   UNL     1     -10.998   0.119  -2.211  1.00  0.00    -0.504 OA
ATOM     15  H   UNL     1     -10.267  -0.195  -1.584  1.00  0.00     0.293 HD
ENDBRANCH   6  14
TORSDOF 4
ENDMDL
MODEL 2
REMARK VINA RESULT:    -3.956     16.764     17.340
REMARK INTER + INTRA:          -4.776
REMARK INTER:                  -4.639
REMARK INTRA:                  -0.137
REMARK UNBOUND:                -0.127
REMARK SMILES O=C([O-])C=Cc1ccc(O)c(O)c1
REMARK SMILES IDX 6 1 13 2 7 3 11 4 8 5 9 6 5 7 4 8 2 9 1 10 3 11 12 12 10 14
REMARK H PARENT 12 13 10 15
REMARK Flexibility Score: inf
ROOT
ATOM      1  C   UNL     1       4.782   4.817  -8.083  1.00  0.00    -0.022 A 
ATOM      2  C   UNL     1       5.466   5.489  -7.055  1.00  0.00     0.058 A 
ATOM      3  C   UNL     1       5.133   3.485  -8.375  1.00  0.00     0.012 A 
ATOM      4  C   UNL     1       6.495   4.859  -6.348  1.00  0.00     0.157 A 
ATOM      5  C   UNL     1       6.160   2.853  -7.669  1.00  0.00     0.051 A 
ATOM      6  C   UNL     1       6.848   3.536  -6.656  1.00  0.00     0.157 A 
ENDROOT
BRANCH   1   7
ATOM      7  C   UNL     1       3.691   5.530  -8.793  1.00  0.00     0.010 C 
ATOM      8  C   UNL     1       2.501   4.981  -9.072  1.00  0.00     0.025 C 
BRANCH   8   9
ATOM      9  C   UNL     1       1.445   5.715  -9.790  1.00  0.00     0.064 C 
ATOM     10  O   UNL     1       0.361   5.155 -10.107  1.00  0.00    -0.545 OA
ATOM     11  O   UNL     1       1.647   7.047 -10.124  1.00  0.00    -0.545 OA
ENDBRANCH   8   9
ENDBRANCH   1   7
BRANCH   4  12
ATOM     12  O   UNL     1       7.155   5.565  -5.341  1.00  0.00    -0.504 OA
ATOM     13  H   UNL     1       8.134   5.411  -5.130  1.00  0.00     0.293 HD
ENDBRANCH   4  12
BRANCH   6  14
ATOM     14  O   UNL     1       7.873   2.902  -5.956  1.00  0.00    -0.504 OA
ATOM     15  H   UNL     1       8.598   3.428  -5.483  1.00  0.00     0.293 HD
ENDBRANCH   6  14
TORSDOF 4
ENDMDL
MODEL 3
REMARK VINA RESULT:    -3.950      0.990      5.902
REMARK INTER + INTRA:          -4.770
REMARK INTER:                  -4.630
REMARK INTRA:                  -0.140
REMARK UNBOUND:                -0.127
REMARK SMILES O=C([O-])C=Cc1ccc(O)c(O)c1
REMARK SMILES IDX 6 1 13 2 7 3 11 4 8 5 9 6 5 7 4 8 2 9 1 10 3 11 12 12 10 14
REMARK H PARENT 12 13 10 15
REMARK Flexibility Score: inf
ROOT
ATOM      1  C   UNL     1     -11.809   5.290  -3.008  1.00  0.00    -0.022 A 
ATOM      2  C   UNL     1     -11.513   6.491  -2.340  1.00  0.00     0.058 A 
ATOM      3  C   UNL     1     -12.105   5.332  -4.384  1.00  0.00     0.012 A 
ATOM      4  C   UNL     1     -11.534   7.713  -3.021  1.00  0.00     0.157 A 
ATOM      5  C   UNL     1     -12.125   6.552  -5.066  1.00  0.00     0.051 A 
ATOM      6  C   UNL     1     -11.844   7.746  -4.389  1.00  0.00     0.157 A 
ENDROOT
BRANCH   1   7
ATOM      7  C   UNL     1     -11.763   4.021  -2.240  1.00  0.00     0.010 C 
ATOM      8  C   UNL     1     -11.425   2.839  -2.774  1.00  0.00     0.025 C 
BRANCH   8   9
ATOM      9  C   UNL     1     -11.401   1.596  -1.984  1.00  0.00     0.064 C 
ATOM     10  O   UNL     1     -11.748   1.587  -0.772  1.00  0.00    -0.545 OA
ATOM     11  O   UNL     1     -10.986   0.415  -2.582  1.00  0.00    -0.545 OA
ENDBRANCH   8   9
ENDBRANCH   1   7
BRANCH   4  12
ATOM     12  O   UNL     1     -11.244   8.883  -2.319  1.00  0.00    -0.504 OA
ATOM     13  H   UNL     1     -11.545   9.794  -2.644  1.00  0.00     0.293 HD
ENDBRANCH   4  12
BRANCH   6  14
ATOM     14  O   UNL     1     -11.868   8.961  -5.073  1.00  0.00    -0.504 OA
ATOM     15  H   UNL     1     -12.313   9.053  -5.978  1.00  0.00     0.293 HD
ENDBRANCH   6  14
TORSDOF 4
ENDMDL
MODEL 4
REMARK VINA RESULT:    -3.930     14.717     17.142
REMARK INTER + INTRA:          -4.746
REMARK INTER:                  -4.608
REMARK INTRA:                  -0.137
REMARK UNBOUND:                -0.127
REMARK SMILES O=C([O-])C=Cc1ccc(O)c(O)c1
REMARK SMILES IDX 6 1 13 2 7 3 11 4 8 5 9 6 5 7 4 8 2 9 1 10 3 11 12 12 10 14
REMARK H PARENT 12 13 10 15
REMARK Flexibility Score: inf
ROOT
ATOM      1  C   UNL     1       0.915  -4.946  -8.306  1.00  0.00    -0.022 A 
ATOM      2  C   UNL     1      -0.225  -5.768  -8.315  1.00  0.00     0.058 A 
ATOM      3  C   UNL     1       0.779  -3.592  -8.671  1.00  0.00     0.012 A 
ATOM      4  C   UNL     1      -1.471  -5.263  -8.704  1.00  0.00     0.157 A 
ATOM      5  C   UNL     1      -0.464  -3.085  -9.059  1.00  0.00     0.051 A 
ATOM      6  C   UNL     1      -1.592  -3.916  -9.081  1.00  0.00     0.157 A 
ENDROOT
BRANCH   1   7
ATOM      7  C   UNL     1       2.208  -5.531  -7.874  1.00  0.00     0.010 C 
ATOM      8  C   UNL     1       3.108  -4.879  -7.123  1.00  0.00     0.025 C 
BRANCH   8   9
ATOM      9  C   UNL     1       4.388  -5.488  -6.724  1.00  0.00     0.064 C 
ATOM     10  O   UNL     1       5.093  -6.124  -7.551  1.00  0.00    -0.545 OA
ATOM     11  O   UNL     1       4.824  -5.359  -5.412  1.00  0.00    -0.545 OA
ENDBRANCH   8   9
ENDBRANCH   1   7
BRANCH   4  12
ATOM     12  O   UNL     1      -2.575  -6.115  -8.709  1.00  0.00    -0.504 OA
ATOM     13  H   UNL     1      -3.510  -5.785  -8.501  1.00  0.00     0.293 HD
ENDBRANCH   4  12
BRANCH   6  14
ATOM     14  O   UNL     1      -2.829  -3.406  -9.470  1.00  0.00    -0.504 OA
ATOM     15  H   UNL     1      -3.090  -2.445  -9.287  1.00  0.00     0.293 HD
ENDBRANCH   6  14
TORSDOF 4
ENDMDL
MODEL 5
REMARK VINA RESULT:    -3.923     14.560     15.980
REMARK INTER + INTRA:          -4.738
REMARK INTER:                  -4.610
REMARK INTRA:                  -0.127
REMARK UNBOUND:                -0.127
REMARK SMILES O=C([O-])C=Cc1ccc(O)c(O)c1
REMARK SMILES IDX 6 1 13 2 7 3 11 4 8 5 9 6 5 7 4 8 2 9 1 10 3 11 12 12 10 14
REMARK H PARENT 12 13 10 15
REMARK Flexibility Score: inf
ROOT
ATOM      1  C   UNL     1       0.842  -3.941  -8.637  1.00  0.00    -0.022 A 
ATOM      2  C   UNL     1      -0.363  -3.310  -8.988  1.00  0.00     0.058 A 
ATOM      3  C   UNL     1       0.830  -5.321  -8.356  1.00  0.00     0.012 A 
ATOM      4  C   UNL     1      -1.562  -4.030  -9.035  1.00  0.00     0.157 A 
ATOM      5  C   UNL     1      -0.366  -6.042  -8.404  1.00  0.00     0.051 A 
ATOM      6  C   UNL     1      -1.566  -5.402  -8.739  1.00  0.00     0.157 A 
ENDROOT
BRANCH   1   7
ATOM      7  C   UNL     1       2.086  -3.132  -8.613  1.00  0.00     0.010 C 
ATOM      8  C   UNL     1       2.252  -2.043  -7.849  1.00  0.00     0.025 C 
BRANCH   8   9
ATOM      9  C   UNL     1       3.498  -1.257  -7.859  1.00  0.00     0.064 C 
ATOM     10  O   UNL     1       4.006  -0.854  -8.939  1.00  0.00    -0.545 OA
ATOM     11  O   UNL     1       4.125  -0.956  -6.657  1.00  0.00    -0.545 OA
ENDBRANCH   8   9
ENDBRANCH   1   7
BRANCH   4  12
ATOM     12  O   UNL     1      -2.739  -3.363  -9.378  1.00  0.00    -0.504 OA
ATOM     13  H   UNL     1      -2.790  -2.740 -10.175  1.00  0.00     0.293 HD
ENDBRANCH   4  12
BRANCH   6  14
ATOM     14  O   UNL     1      -2.757  -6.125  -8.783  1.00  0.00    -0.504 OA
ATOM     15  H   UNL     1      -3.048  -6.618  -9.618  1.00  0.00     0.293 HD
ENDBRANCH   6  14
TORSDOF 4
ENDMDL
MODEL 6
REMARK VINA RESULT:    -3.779      3.348      6.234
REMARK INTER + INTRA:          -4.568
REMARK INTER:                  -4.441
REMARK INTRA:                  -0.127
REMARK UNBOUND:                -0.127
REMARK SMILES O=C([O-])C=Cc1ccc(O)c(O)c1
REMARK SMILES IDX 6 1 13 2 7 3 11 4 8 5 9 6 5 7 4 8 2 9 1 10 3 11 12 12 10 14
REMARK H PARENT 12 13 10 15
REMARK Flexibility Score: inf
ROOT
ATOM      1  C   UNL     1     -12.028   3.147  -5.903  1.00  0.00    -0.022 A 
ATOM      2  C   UNL     1     -12.104   4.534  -6.120  1.00  0.00     0.058 A 
ATOM      3  C   UNL     1     -11.826   2.297  -7.008  1.00  0.00     0.012 A 
ATOM      4  C   UNL     1     -12.009   5.064  -7.412  1.00  0.00     0.157 A 
ATOM      5  C   UNL     1     -11.729   2.824  -8.298  1.00  0.00     0.051 A 
ATOM      6  C   UNL     1     -11.823   4.206  -8.507  1.00  0.00     0.157 A 
ENDROOT
BRANCH   1   7
ATOM      7  C   UNL     1     -12.125   2.640  -4.512  1.00  0.00     0.010 C 
ATOM      8  C   UNL     1     -11.076   2.196  -3.806  1.00  0.00     0.025 C 
BRANCH   8   9
ATOM      9  C   UNL     1     -11.212   1.688  -2.430  1.00  0.00     0.064 C 
ATOM     10  O   UNL     1     -11.520   2.456  -1.480  1.00  0.00    -0.545 OA
ATOM     11  O   UNL     1     -10.996   0.341  -2.175  1.00  0.00    -0.545 OA
ENDBRANCH   8   9
ENDBRANCH   1   7
BRANCH   4  12
ATOM     12  O   UNL     1     -12.100   6.445  -7.584  1.00  0.00    -0.504 OA
ATOM     13  H   UNL     1     -12.173   7.081  -6.800  1.00  0.00     0.293 HD
ENDBRANCH   4  12
BRANCH   6  14
ATOM     14  O   UNL     1     -11.728   4.727  -9.797  1.00  0.00    -0.504 OA
ATOM     15  H   UNL     1     -12.345   4.424 -10.540  1.00  0.00     0.293 HD
ENDBRANCH   6  14
TORSDOF 4
ENDMDL
MODEL 7
REMARK VINA RESULT:    -3.690     16.910     18.029
REMARK INTER + INTRA:          -4.463
REMARK INTER:                  -4.336
REMARK INTRA:                  -0.127
REMARK UNBOUND:                -0.127
REMARK SMILES O=C([O-])C=Cc1ccc(O)c(O)c1
REMARK SMILES IDX 6 1 13 2 7 3 11 4 8 5 9 6 5 7 4 8 2 9 1 10 3 11 12 12 10 14
REMARK H PARENT 12 13 10 15
REMARK Flexibility Score: inf
ROOT
ATOM      1  C   UNL     1       4.965   4.826  -8.604  1.00  0.00    -0.022 A 
ATOM      2  C   UNL     1       3.707   4.199  -8.624  1.00  0.00     0.058 A 
ATOM      3  C   UNL     1       5.058   6.176  -8.995  1.00  0.00     0.012 A 
ATOM      4  C   UNL     1       2.568   4.891  -9.050  1.00  0.00     0.157 A 
ATOM      5  C   UNL     1       3.921   6.869  -9.418  1.00  0.00     0.051 A 
ATOM      6  C   UNL     1       2.674   6.232  -9.451  1.00  0.00     0.157 A 
ENDROOT
BRANCH   1   7
ATOM      7  C   UNL     1       6.138   4.048  -8.134  1.00  0.00     0.010 C 
ATOM      8  C   UNL     1       6.170   3.372  -6.977  1.00  0.00     0.025 C 
BRANCH   8   9
ATOM      9  C   UNL     1       7.357   2.619  -6.538  1.00  0.00     0.064 C 
ATOM     10  O   UNL     1       8.125   3.073  -5.647  1.00  0.00    -0.545 OA
ATOM     11  O   UNL     1       7.636   1.388  -7.115  1.00  0.00    -0.545 OA
ENDBRANCH   8   9
ENDBRANCH   1   7
BRANCH   4  12
ATOM     12  O   UNL     1       1.340   4.229  -9.065  1.00  0.00    -0.504 OA
ATOM     13  H   UNL     1       0.773   4.167  -9.901  1.00  0.00     0.293 HD
ENDBRANCH   4  12
BRANCH   6  14
ATOM     14  O   UNL     1       1.543   6.927  -9.876  1.00  0.00    -0.504 OA
ATOM     15  H   UNL     1       1.470   7.299 -10.816  1.00  0.00     0.293 HD
ENDBRANCH   6  14
TORSDOF 4
ENDMDL
