MODEL 1
REMARK VINA RESULT:    -4.273      0.000      0.000
REMARK INTER + INTRA:          -8.872
REMARK INTER:                  -7.271
REMARK INTRA:                  -1.601
REMARK UNBOUND:                -1.601
REMARK SMILES CCCCCCCCCCCCCC(=O)[O-]
REMARK SMILES IDX 8 1 9 2 10 3 11 4 12 5 13 6 14 7 15 8 16 9 7 10 6 11 5 12
REMARK SMILES IDX 4 13 3 14 2 15 1 16
REMARK H PARENT
REMARK Flexibility Score: inf
ROOT
ATOM      1  C   UNL     1       7.648   5.686  19.247  1.00  0.00     0.000 C 
ENDROOT
BRANCH   1   2
ATOM      2  C   UNL     1       6.422   6.482  18.767  1.00  0.00     0.000 C 
BRANCH   2   3
ATOM      3  C   UNL     1       6.490   6.970  17.305  1.00  0.00     0.000 C 
BRANCH   3   4
ATOM      4  C   UNL     1       5.701   6.119  16.296  1.00  0.00     0.000 C 
BRANCH   4   5
ATOM      5  C   UNL     1       6.568   5.052  15.607  1.00  0.00     0.006 C 
BRANCH   5   6
ATOM      6  C   UNL     1       8.025   5.506  15.445  1.00  0.00     0.053 C 
BRANCH   6   7
ATOM      7  C   UNL     1       8.663   4.900  14.233  1.00  0.00     0.041 C 
ATOM      8  O   UNL     1       9.397   5.599  13.486  1.00  0.00    -0.550 OA
ATOM      9  O   UNL     1       8.418   3.572  13.908  1.00  0.00    -0.550 OA
ENDBRANCH   6   7
ENDBRANCH   5   6
ENDBRANCH   4   5
ENDBRANCH   3   4
ENDBRANCH   2   3
ENDBRANCH   1   2
BRANCH   1  10
ATOM     10  C   UNL     1       7.468   4.167  19.103  1.00  0.00     0.000 C 
BRANCH  10  11
ATOM     11  C   UNL     1       5.996   3.771  19.262  1.00  0.00    -0.000 C 
BRANCH  11  12
ATOM     12  C   UNL     1       5.861   2.445  20.018  1.00  0.00    -0.000 C 
BRANCH  12  13
ATOM     13  C   UNL     1       5.208   2.656  21.392  1.00  0.00    -0.000 C 
BRANCH  13  14
ATOM     14  C   UNL     1       4.547   4.045  21.517  1.00  0.00    -0.000 C 
BRANCH  14  15
ATOM     15  C   UNL     1       4.996   4.830  22.762  1.00  0.00    -0.003 C 
ATOM     16  C   UNL     1       5.750   6.113  22.421  1.00  0.00     0.004 C 
ENDBRANCH  14  15
ENDBRANCH  13  14
ENDBRANCH  12  13
ENDBRANCH  11  12
ENDBRANCH  10  11
ENDBRANCH   1  10
TORSDOF 12
ENDMDL
MODEL 2
REMARK VINA RESULT:    -4.193      3.069      7.198
REMARK INTER + INTRA:          -8.736
REMARK INTER:                  -7.245
REMARK INTRA:                  -1.491
REMARK UNBOUND:                -1.601
REMARK SMILES CCCCCCCCCCCCCC(=O)[O-]
REMARK SMILES IDX 8 1 9 2 10 3 11 4 12 5 13 6 14 7 15 8 16 9 7 10 6 11 5 12
REMARK SMILES IDX 4 13 3 14 2 15 1 16
REMARK H PARENT
REMARK Flexibility Score: inf
ROOT
ATOM      1  C   UNL     1       8.666   4.879  16.123  1.00  0.00     0.000 C 
ENDROOT
BRANCH   1   2
ATOM      2  C   UNL     1       7.467   5.595  15.476  1.00  0.00     0.000 C 
BRANCH   2   3
ATOM      3  C   UNL     1       6.229   5.750  16.383  1.00  0.00     0.000 C 
BRANCH   3   4
ATOM      4  C   UNL     1       6.445   6.608  17.641  1.00  0.00     0.000 C 
BRANCH   4   5
ATOM      5  C   UNL     1       6.395   5.786  18.941  1.00  0.00     0.006 C 
BRANCH   5   6
ATOM      6  C   UNL     1       5.994   4.327  18.687  1.00  0.00     0.053 C 
BRANCH   6   7
ATOM      7  C   UNL     1       5.830   3.567  19.968  1.00  0.00     0.041 C 
ATOM      8  O   UNL     1       6.673   2.692  20.298  1.00  0.00    -0.550 OA
ATOM      9  O   UNL     1       4.725   3.799  20.777  1.00  0.00    -0.550 OA
ENDBRANCH   6   7
ENDBRANCH   5   6
ENDBRANCH   4   5
ENDBRANCH   3   4
ENDBRANCH   2   3
ENDBRANCH   1   2
BRANCH   1  10
ATOM     10  C   UNL     1       9.863   5.812  16.358  1.00  0.00     0.000 C 
BRANCH  10  11
ATOM     11  C   UNL     1       9.989   6.840  15.228  1.00  0.00    -0.000 C 
BRANCH  11  12
ATOM     12  C   UNL     1      10.925   6.335  14.125  1.00  0.00    -0.000 C 
BRANCH  12  13
ATOM     13  C   UNL     1      10.449   6.800  12.740  1.00  0.00    -0.000 C 
BRANCH  13  14
ATOM     14  C   UNL     1       9.418   5.832  12.122  1.00  0.00    -0.000 C 
BRANCH  14  15
ATOM     15  C   UNL     1       9.623   4.366  12.539  1.00  0.00    -0.003 C 
ATOM     16  C   UNL     1       8.341   3.540  12.475  1.00  0.00     0.004 C 
ENDBRANCH  14  15
ENDBRANCH  13  14
ENDBRANCH  12  13
ENDBRANCH  11  12
ENDBRANCH  10  11
ENDBRANCH   1  10
TORSDOF 12
ENDMDL
MODEL 3
REMARK VINA RESULT:    -4.191      3.697      6.713
REMARK INTER + INTRA:          -8.733
REMARK INTER:                  -7.121
REMARK INTRA:                  -1.612
REMARK UNBOUND:                -1.601
REMARK SMILES CCCCCCCCCCCCCC(=O)[O-]
REMARK SMILES IDX 8 1 9 2 10 3 11 4 12 5 13 6 14 7 15 8 16 9 7 10 6 11 5 12
REMARK SMILES IDX 4 13 3 14 2 15 1 16
REMARK H PARENT
REMARK Flexibility Score: inf
ROOT
ATOM      1  C   UNL     1       6.271   6.578  18.813  1.00  0.00     0.000 C 
ENDROOT
BRANCH   1   2
ATOM      2  C   UNL     1       7.487   5.815  19.370  1.00  0.00     0.000 C 
BRANCH   2   3
ATOM      3  C   UNL     1       7.353   4.278  19.363  1.00  0.00     0.000 C 
BRANCH   3   4
ATOM      4  C   UNL     1       5.910   3.748  19.316  1.00  0.00     0.000 C 
BRANCH   4   5
ATOM      5  C   UNL     1       5.400   3.281  20.690  1.00  0.00     0.006 C 
BRANCH   5   6
ATOM      6  C   UNL     1       4.461   4.306  21.338  1.00  0.00     0.053 C 
BRANCH   6   7
ATOM      7  C   UNL     1       5.059   4.899  22.578  1.00  0.00     0.041 C 
ATOM      8  O   UNL     1       4.909   4.327  23.690  1.00  0.00    -0.550 OA
ATOM      9  O   UNL     1       5.751   6.101  22.511  1.00  0.00    -0.550 OA
ENDBRANCH   6   7
ENDBRANCH   5   6
ENDBRANCH   4   5
ENDBRANCH   3   4
ENDBRANCH   2   3
ENDBRANCH   1   2
BRANCH   1  10
ATOM     10  C   UNL     1       6.468   7.036  17.360  1.00  0.00     0.000 C 
BRANCH  10  11
ATOM     11  C   UNL     1       5.835   6.042  16.380  1.00  0.00    -0.000 C 
BRANCH  11  12
ATOM     12  C   UNL     1       6.900   5.146  15.738  1.00  0.00    -0.000 C 
BRANCH  12  13
ATOM     13  C   UNL     1       8.203   5.923  15.497  1.00  0.00    -0.000 C 
BRANCH  13  14
ATOM     14  C   UNL     1       9.432   5.196  16.082  1.00  0.00    -0.000 C 
BRANCH  14  15
ATOM     15  C   UNL     1      10.639   6.119  16.319  1.00  0.00    -0.003 C 
ATOM     16  C   UNL     1      10.755   7.232  15.280  1.00  0.00     0.004 C 
ENDBRANCH  14  15
ENDBRANCH  13  14
ENDBRANCH  12  13
ENDBRANCH  11  12
ENDBRANCH  10  11
ENDBRANCH   1  10
TORSDOF 12
ENDMDL
MODEL 4
REMARK VINA RESULT:    -4.169      3.406      6.908
REMARK INTER + INTRA:          -8.695
REMARK INTER:                  -7.522
REMARK INTRA:                  -1.173
REMARK UNBOUND:                -1.601
REMARK SMILES CCCCCCCCCCCCCC(=O)[O-]
REMARK SMILES IDX 8 1 9 2 10 3 11 4 12 5 13 6 14 7 15 8 16 9 7 10 6 11 5 12
REMARK SMILES IDX 4 13 3 14 2 15 1 16
REMARK H PARENT
REMARK Flexibility Score: inf
ROOT
ATOM      1  C   UNL     1       6.547   6.933  17.340  1.00  0.00     0.000 C 
ENDROOT
BRANCH   1   2
ATOM      2  C   UNL     1       6.335   6.467  18.792  1.00  0.00     0.000 C 
BRANCH   2   3
ATOM      3  C   UNL     1       7.579   5.858  19.471  1.00  0.00     0.000 C 
BRANCH   3   4
ATOM      4  C   UNL     1       7.485   4.352  19.772  1.00  0.00     0.000 C 
BRANCH   4   5
ATOM      5  C   UNL     1       6.164   3.728  19.293  1.00  0.00     0.006 C 
BRANCH   5   6
ATOM      6  C   UNL     1       5.755   2.517  20.142  1.00  0.00     0.053 C 
BRANCH   6   7
ATOM      7  C   UNL     1       5.047   2.932  21.396  1.00  0.00     0.041 C 
ATOM      8  O   UNL     1       4.406   4.015  21.432  1.00  0.00    -0.550 OA
ATOM      9  O   UNL     1       5.128   2.141  22.534  1.00  0.00    -0.550 OA
ENDBRANCH   6   7
ENDBRANCH   5   6
ENDBRANCH   4   5
ENDBRANCH   3   4
ENDBRANCH   2   3
ENDBRANCH   1   2
BRANCH   1  10
ATOM     10  C   UNL     1       5.932   5.974  16.309  1.00  0.00     0.000 C 
BRANCH  10  11
ATOM     11  C   UNL     1       7.019   5.157  15.602  1.00  0.00    -0.000 C 
BRANCH  11  12
ATOM     12  C   UNL     1       8.409   5.750  15.858  1.00  0.00    -0.000 C 
BRANCH  12  13
ATOM     13  C   UNL     1       9.514   4.781  15.409  1.00  0.00    -0.000 C 
BRANCH  13  14
ATOM     14  C   UNL     1      10.791   5.520  14.958  1.00  0.00    -0.000 C 
BRANCH  14  15
ATOM     15  C   UNL     1      10.509   6.814  14.176  1.00  0.00    -0.003 C 
ATOM     16  C   UNL     1      10.520   6.615  12.662  1.00  0.00     0.004 C 
ENDBRANCH  14  15
ENDBRANCH  13  14
ENDBRANCH  12  13
ENDBRANCH  11  12
ENDBRANCH  10  11
ENDBRANCH   1  10
TORSDOF 12
ENDMDL
MODEL 5
REMARK VINA RESULT:    -4.167      2.249      4.140
REMARK INTER + INTRA:          -8.692
REMARK INTER:                  -6.825
REMARK INTRA:                  -1.867
REMARK UNBOUND:                -1.601
REMARK SMILES CCCCCCCCCCCCCC(=O)[O-]
REMARK SMILES IDX 8 1 9 2 10 3 11 4 12 5 13 6 14 7 15 8 16 9 7 10 6 11 5 12
REMARK SMILES IDX 4 13 3 14 2 15 1 16
REMARK H PARENT
REMARK Flexibility Score: inf
ROOT
ATOM      1  C   UNL     1       8.603   4.521  15.904  1.00  0.00     0.000 C 
ENDROOT
BRANCH   1   2
ATOM      2  C   UNL     1       9.697   5.541  16.265  1.00  0.00     0.000 C 
BRANCH   2   3
ATOM      3  C   UNL     1       9.726   6.809  15.386  1.00  0.00     0.000 C 
BRANCH   3   4
ATOM      4  C   UNL     1      10.788   6.807  14.274  1.00  0.00     0.000 C 
BRANCH   4   5
ATOM      5  C   UNL     1      10.176   6.821  12.863  1.00  0.00     0.006 C 
BRANCH   5   6
ATOM      6  C   UNL     1      10.611   5.607  12.032  1.00  0.00     0.053 C 
BRANCH   6   7
ATOM      7  C   UNL     1       9.741   4.416  12.293  1.00  0.00     0.041 C 
ATOM      8  O   UNL     1      10.183   3.442  12.957  1.00  0.00    -0.550 OA
ATOM      9  O   UNL     1       8.455   4.366  11.771  1.00  0.00    -0.550 OA
ENDBRANCH   6   7
ENDBRANCH   5   6
ENDBRANCH   4   5
ENDBRANCH   3   4
ENDBRANCH   2   3
ENDBRANCH   1   2
BRANCH   1  10
ATOM     10  C   UNL     1       7.432   5.148  15.133  1.00  0.00     0.000 C 
BRANCH  10  11
ATOM     11  C   UNL     1       6.234   5.394  16.057  1.00  0.00    -0.000 C 
BRANCH  11  12
ATOM     12  C   UNL     1       6.188   6.854  16.522  1.00  0.00    -0.000 C 
BRANCH  12  13
ATOM     13  C   UNL     1       6.401   6.956  18.041  1.00  0.00    -0.000 C 
BRANCH  13  14
ATOM     14  C   UNL     1       6.331   5.579  18.734  1.00  0.00    -0.000 C 
BRANCH  14  15
ATOM     15  C   UNL     1       7.490   5.323  19.712  1.00  0.00    -0.003 C 
ATOM     16  C   UNL     1       8.129   3.947  19.537  1.00  0.00     0.004 C 
ENDBRANCH  14  15
ENDBRANCH  13  14
ENDBRANCH  12  13
ENDBRANCH  11  12
ENDBRANCH  10  11
ENDBRANCH   1  10
TORSDOF 12
ENDMDL
MODEL 6
REMARK VINA RESULT:    -4.166      3.569      6.644
REMARK INTER + INTRA:          -8.690
REMARK INTER:                  -6.950
REMARK INTRA:                  -1.739
REMARK UNBOUND:                -1.601
REMARK SMILES CCCCCCCCCCCCCC(=O)[O-]
REMARK SMILES IDX 8 1 9 2 10 3 11 4 12 5 13 6 14 7 15 8 16 9 7 10 6 11 5 12
REMARK SMILES IDX 4 13 3 14 2 15 1 16
REMARK H PARENT
REMARK Flexibility Score: inf
ROOT
ATOM      1  C   UNL     1       7.599   5.285  19.164  1.00  0.00     0.000 C 
ENDROOT
BRANCH   1   2
ATOM      2  C   UNL     1       7.299   3.779  19.269  1.00  0.00     0.000 C 
BRANCH   2   3
ATOM      3  C   UNL     1       5.828   3.424  19.566  1.00  0.00     0.000 C 
BRANCH   3   4
ATOM      4  C   UNL     1       5.604   2.574  20.828  1.00  0.00     0.000 C 
BRANCH   4   5
ATOM      5  C   UNL     1       4.593   3.203  21.802  1.00  0.00     0.006 C 
BRANCH   5   6
ATOM      6  C   UNL     1       4.471   4.720  21.608  1.00  0.00     0.053 C 
BRANCH   6   7
ATOM      7  C   UNL     1       5.357   5.473  22.551  1.00  0.00     0.041 C 
ATOM      8  O   UNL     1       5.725   4.945  23.633  1.00  0.00    -0.550 OA
ATOM      9  O   UNL     1       5.747   6.773  22.253  1.00  0.00    -0.550 OA
ENDBRANCH   6   7
ENDBRANCH   5   6
ENDBRANCH   4   5
ENDBRANCH   3   4
ENDBRANCH   2   3
ENDBRANCH   1   2
BRANCH   1  10
ATOM     10  C   UNL     1       6.363   6.116  18.792  1.00  0.00     0.000 C 
BRANCH  10  11
ATOM     11  C   UNL     1       6.492   6.690  17.376  1.00  0.00    -0.000 C 
BRANCH  11  12
ATOM     12  C   UNL     1       5.999   5.687  16.327  1.00  0.00    -0.000 C 
BRANCH  12  13
ATOM     13  C   UNL     1       7.163   5.168  15.469  1.00  0.00    -0.000 C 
BRANCH  13  14
ATOM     14  C   UNL     1       8.435   6.026  15.630  1.00  0.00    -0.000 C 
BRANCH  14  15
ATOM     15  C   UNL     1       9.669   5.219  16.070  1.00  0.00    -0.003 C 
ATOM     16  C   UNL     1       9.396   3.721  16.185  1.00  0.00     0.004 C 
ENDBRANCH  14  15
ENDBRANCH  13  14
ENDBRANCH  12  13
ENDBRANCH  11  12
ENDBRANCH  10  11
ENDBRANCH   1  10
TORSDOF 12
ENDMDL
MODEL 7
REMARK VINA RESULT:    -4.139      1.208      2.254
REMARK INTER + INTRA:          -8.645
REMARK INTER:                  -6.778
REMARK INTRA:                  -1.866
REMARK UNBOUND:                -1.601
REMARK SMILES CCCCCCCCCCCCCC(=O)[O-]
REMARK SMILES IDX 8 1 9 2 10 3 11 4 12 5 13 6 14 7 15 8 16 9 7 10 6 11 5 12
REMARK SMILES IDX 4 13 3 14 2 15 1 16
REMARK H PARENT
REMARK Flexibility Score: inf
ROOT
ATOM      1  C   UNL     1       7.216   3.114  20.055  1.00  0.00     0.000 C 
ENDROOT
BRANCH   1   2
ATOM      2  C   UNL     1       7.524   4.313  19.140  1.00  0.00     0.000 C 
BRANCH   2   3
ATOM      3  C   UNL     1       6.333   4.815  18.297  1.00  0.00     0.000 C 
BRANCH   3   4
ATOM      4  C   UNL     1       6.369   6.312  17.945  1.00  0.00     0.000 C 
BRANCH   4   5
ATOM      5  C   UNL     1       6.449   6.567  16.430  1.00  0.00     0.006 C 
BRANCH   5   6
ATOM      6  C   UNL     1       6.901   5.322  15.656  1.00  0.00     0.053 C 
BRANCH   6   7
ATOM      7  C   UNL     1       8.337   5.420  15.239  1.00  0.00     0.041 C 
ATOM      8  O   UNL     1       8.660   5.244  14.035  1.00  0.00    -0.550 OA
ATOM      9  O   UNL     1       9.321   5.668  16.187  1.00  0.00    -0.550 OA
ENDBRANCH   6   7
ENDBRANCH   5   6
ENDBRANCH   4   5
ENDBRANCH   3   4
ENDBRANCH   2   3
ENDBRANCH   1   2
BRANCH   1  10
ATOM     10  C   UNL     1       5.719   2.779  20.118  1.00  0.00     0.000 C 
BRANCH  10  11
ATOM     11  C   UNL     1       5.255   2.604  21.568  1.00  0.00    -0.000 C 
BRANCH  11  12
ATOM     12  C   UNL     1       5.173   3.955  22.287  1.00  0.00    -0.000 C 
BRANCH  12  13
ATOM     13  C   UNL     1       4.270   4.935  21.522  1.00  0.00    -0.000 C 
BRANCH  13  14
ATOM     14  C   UNL     1       4.936   6.314  21.329  1.00  0.00    -0.000 C 
BRANCH  14  15
ATOM     15  C   UNL     1       6.196   6.514  22.187  1.00  0.00    -0.003 C 
ATOM     16  C   UNL     1       7.336   7.192  21.430  1.00  0.00     0.004 C 
ENDBRANCH  14  15
ENDBRANCH  13  14
ENDBRANCH  12  13
ENDBRANCH  11  12
ENDBRANCH  10  11
ENDBRANCH   1  10
TORSDOF 12
ENDMDL
MODEL 8
REMARK VINA RESULT:    -4.087      3.396      7.206
REMARK INTER + INTRA:          -8.556
REMARK INTER:                  -7.091
REMARK INTRA:                  -1.465
REMARK UNBOUND:                -1.601
REMARK SMILES CCCCCCCCCCCCCC(=O)[O-]
REMARK SMILES IDX 8 1 9 2 10 3 11 4 12 5 13 6 14 7 15 8 16 9 7 10 6 11 5 12
REMARK SMILES IDX 4 13 3 14 2 15 1 16
REMARK H PARENT
REMARK Flexibility Score: inf
ROOT
ATOM      1  C   UNL     1       8.869   5.314  16.240  1.00  0.00     0.000 C 
ENDROOT
BRANCH   1   2
ATOM      2  C   UNL     1       7.779   6.342  15.886  1.00  0.00     0.000 C 
BRANCH   2   3
ATOM      3  C   UNL     1       6.720   6.576  16.983  1.00  0.00     0.000 C 
BRANCH   3   4
ATOM      4  C   UNL     1       6.010   5.307  17.485  1.00  0.00     0.000 C 
BRANCH   4   5
ATOM      5  C   UNL     1       6.299   5.006  18.965  1.00  0.00     0.006 C 
BRANCH   5   6
ATOM      6  C   UNL     1       5.995   3.547  19.329  1.00  0.00     0.053 C 
BRANCH   6   7
ATOM      7  C   UNL     1       5.275   3.441  20.639  1.00  0.00     0.041 C 
ATOM      8  O   UNL     1       5.320   2.371  21.302  1.00  0.00    -0.550 OA
ATOM      9  O   UNL     1       4.524   4.510  21.109  1.00  0.00    -0.550 OA
ENDBRANCH   6   7
ENDBRANCH   5   6
ENDBRANCH   4   5
ENDBRANCH   3   4
ENDBRANCH   2   3
ENDBRANCH   1   2
BRANCH   1  10
ATOM     10  C   UNL     1       8.882   4.107  15.290  1.00  0.00     0.000 C 
BRANCH  10  11
ATOM     11  C   UNL     1       7.764   4.215  14.248  1.00  0.00    -0.000 C 
BRANCH  11  12
ATOM     12  C   UNL     1       8.254   3.773  12.865  1.00  0.00    -0.000 C 
BRANCH  12  13
ATOM     13  C   UNL     1       9.626   4.386  12.543  1.00  0.00    -0.000 C 
BRANCH  13  14
ATOM     14  C   UNL     1       9.519   5.866  12.121  1.00  0.00    -0.000 C 
BRANCH  14  15
ATOM     15  C   UNL     1      10.453   6.799  12.909  1.00  0.00    -0.003 C 
ATOM     16  C   UNL     1      11.568   6.054  13.639  1.00  0.00     0.004 C 
ENDBRANCH  14  15
ENDBRANCH  13  14
ENDBRANCH  12  13
ENDBRANCH  11  12
ENDBRANCH  10  11
ENDBRANCH   1  10
TORSDOF 12
ENDMDL
MODEL 9
REMARK VINA RESULT:    -4.049      3.405      7.099
REMARK INTER + INTRA:          -8.490
REMARK INTER:                  -6.861
REMARK INTRA:                  -1.629
REMARK UNBOUND:                -1.601
REMARK SMILES CCCCCCCCCCCCCC(=O)[O-]
REMARK SMILES IDX 8 1 9 2 10 3 11 4 12 5 13 6 14 7 15 8 16 9 7 10 6 11 5 12
REMARK SMILES IDX 4 13 3 14 2 15 1 16
REMARK H PARENT
REMARK Flexibility Score: inf
ROOT
ATOM      1  C   UNL     1      10.914   5.876  16.225  1.00  0.00     0.000 C 
ENDROOT
BRANCH   1   2
ATOM      2  C   UNL     1       9.548   5.166  16.255  1.00  0.00     0.000 C 
BRANCH   2   3
ATOM      3  C   UNL     1       8.369   5.992  15.702  1.00  0.00     0.000 C 
BRANCH   3   4
ATOM      4  C   UNL     1       7.049   5.219  15.543  1.00  0.00     0.000 C 
BRANCH   4   5
ATOM      5  C   UNL     1       5.888   5.852  16.328  1.00  0.00     0.006 C 
BRANCH   5   6
ATOM      6  C   UNL     1       6.371   6.930  17.307  1.00  0.00     0.053 C 
BRANCH   6   7
ATOM      7  C   UNL     1       6.397   6.427  18.718  1.00  0.00     0.041 C 
ATOM      8  O   UNL     1       6.537   7.233  19.675  1.00  0.00    -0.550 OA
ATOM      9  O   UNL     1       6.302   5.065  18.972  1.00  0.00    -0.550 OA
ENDBRANCH   6   7
ENDBRANCH   5   6
ENDBRANCH   4   5
ENDBRANCH   3   4
ENDBRANCH   2   3
ENDBRANCH   1   2
BRANCH   1  10
ATOM     10  C   UNL     1      11.063   6.833  15.034  1.00  0.00     0.000 C 
BRANCH  10  11
ATOM     11  C   UNL     1      11.278   6.057  13.729  1.00  0.00    -0.000 C 
BRANCH  11  12
ATOM     12  C   UNL     1      10.512   6.705  12.570  1.00  0.00    -0.000 C 
BRANCH  12  13
ATOM     13  C   UNL     1       9.370   5.797  12.087  1.00  0.00    -0.000 C 
BRANCH  13  14
ATOM     14  C   UNL     1       9.743   4.302  12.157  1.00  0.00    -0.000 C 
BRANCH  14  15
ATOM     15  C   UNL     1       8.581   3.398  12.602  1.00  0.00    -0.003 C 
ATOM     16  C   UNL     1       8.932   2.516  13.798  1.00  0.00     0.004 C 
ENDBRANCH  14  15
ENDBRANCH  13  14
ENDBRANCH  12  13
ENDBRANCH  11  12
ENDBRANCH  10  11
ENDBRANCH   1  10
TORSDOF 12
ENDMDL
