MODEL 1
REMARK VINA RESULT:    -6.983      0.000      0.000
REMARK INTER + INTRA:         -10.450
REMARK INTER:                  -9.841
REMARK INTRA:                  -0.609
REMARK UNBOUND:                -0.609
REMARK SMILES COc1ccc(-c2cc(=O)c3c(OC)c(OC)c(OC)c(OC)c3o2)cc1OC
REMARK SMILES IDX 7 1 8 2 9 3 10 4 11 5 24 6 25 7 21 8 18 9 15 10 12 11 6 12
REMARK SMILES IDX 3 13 27 14 4 15 26 16 5 17 2 18 1 19 28 20 29 21 22 22 23 23
REMARK SMILES IDX 13 24 14 25 19 26 20 27 16 28 17 29
REMARK H PARENT
REMARK Flexibility Score: inf
ROOT
ATOM      1  C   UNL     1       7.796  -4.446  10.991  1.00  0.00     0.138 A 
ATOM      2  C   UNL     1       7.225  -3.198  10.732  1.00  0.00     0.100 A 
ATOM      3  C   UNL     1       6.229  -3.092   9.765  1.00  0.00     0.197 A 
ATOM      4  O   UNL     1       5.724  -1.958   9.544  1.00  0.00    -0.289 OA
ATOM      5  C   UNL     1       5.810  -4.244   9.059  1.00  0.00     0.115 A 
ATOM      6  C   UNL     1       6.421  -5.477   9.386  1.00  0.00     0.188 A 
ATOM      7  O   UNL     1       7.364  -5.513  10.325  1.00  0.00    -0.452 OA
ATOM      8  C   UNL     1       6.051  -6.664   8.709  1.00  0.00     0.209 A 
ATOM      9  C   UNL     1       5.055  -6.611   7.697  1.00  0.00     0.211 A 
ATOM     10  C   UNL     1       4.436  -5.374   7.379  1.00  0.00     0.208 A 
ATOM     11  C   UNL     1       4.837  -4.191   8.037  1.00  0.00     0.179 A 
ENDROOT
BRANCH   1  12
ATOM     12  C   UNL     1       8.877  -4.608  11.991  1.00  0.00     0.021 A 
ATOM     13  C   UNL     1      10.885  -4.963  13.940  1.00  0.00     0.160 A 
ATOM     14  C   UNL     1       9.695  -4.299  14.275  1.00  0.00     0.161 A 
ATOM     15  C   UNL     1      11.065  -5.448  12.632  1.00  0.00     0.051 A 
ATOM     16  C   UNL     1       8.695  -4.129  13.297  1.00  0.00     0.062 A 
ATOM     17  C   UNL     1      10.071  -5.274  11.668  1.00  0.00     0.016 A 
BRANCH  13  18
ATOM     18  O   UNL     1      11.863  -5.124  14.936  1.00  0.00    -0.493 OA
ATOM     19  C   UNL     1      13.268  -5.070  14.700  1.00  0.00     0.278 C 
ENDBRANCH  13  18
BRANCH  14  20
ATOM     20  O   UNL     1       9.543  -3.824  15.587  1.00  0.00    -0.493 OA
ATOM     21  C   UNL     1       8.858  -4.523  16.623  1.00  0.00     0.278 C 
ENDBRANCH  14  20
ENDBRANCH   1  12
BRANCH   8  22
ATOM     22  O   UNL     1       6.637  -7.910   9.003  1.00  0.00    -0.490 OA
ATOM     23  C   UNL     1       7.672  -8.578   8.284  1.00  0.00     0.278 C 
ENDBRANCH   8  22
BRANCH  11  24
ATOM     24  O   UNL     1       4.277  -2.945   7.699  1.00  0.00    -0.492 OA
ATOM     25  C   UNL     1       4.683  -2.138   6.596  1.00  0.00     0.278 C 
ENDBRANCH  11  24
BRANCH   9  26
ATOM     26  O   UNL     1       4.642  -7.755   6.987  1.00  0.00    -0.490 OA
ATOM     27  C   UNL     1       3.622  -8.686   7.339  1.00  0.00     0.279 C 
ENDBRANCH   9  26
BRANCH  10  28
ATOM     28  O   UNL     1       3.396  -5.258   6.434  1.00  0.00    -0.490 OA
ATOM     29  C   UNL     1       3.504  -5.230   5.013  1.00  0.00     0.278 C 
ENDBRANCH  10  28
TORSDOF 7
ENDMDL
MODEL 2
REMARK VINA RESULT:    -6.924      4.461      7.595
REMARK INTER + INTRA:         -10.366
REMARK INTER:                  -9.576
REMARK INTRA:                  -0.790
REMARK UNBOUND:                -0.609
REMARK SMILES COc1ccc(-c2cc(=O)c3c(OC)c(OC)c(OC)c(OC)c3o2)cc1OC
REMARK SMILES IDX 7 1 8 2 9 3 10 4 11 5 24 6 25 7 21 8 18 9 15 10 12 11 6 12
REMARK SMILES IDX 3 13 27 14 4 15 26 16 5 17 2 18 1 19 28 20 29 21 22 22 23 23
REMARK SMILES IDX 13 24 14 25 19 26 20 27 16 28 17 29
REMARK H PARENT
REMARK Flexibility Score: inf
ROOT
ATOM      1  C   UNL     1      12.741  -3.611  14.189  1.00  0.00     0.138 A 
ATOM      2  C   UNL     1      12.109  -4.832  13.942  1.00  0.00     0.100 A 
ATOM      3  C   UNL     1      11.595  -5.087  12.674  1.00  0.00     0.197 A 
ATOM      4  O   UNL     1      11.028  -6.195  12.467  1.00  0.00    -0.289 OA
ATOM      5  C   UNL     1      11.716  -4.112  11.657  1.00  0.00     0.115 A 
ATOM      6  C   UNL     1      12.383  -2.906  11.975  1.00  0.00     0.188 A 
ATOM      7  O   UNL     1      12.858  -2.724  13.207  1.00  0.00    -0.452 OA
ATOM      8  C   UNL     1      12.530  -1.887  11.004  1.00  0.00     0.209 A 
ATOM      9  C   UNL     1      12.005  -2.085   9.698  1.00  0.00     0.211 A 
ATOM     10  C   UNL     1      11.346  -3.301   9.378  1.00  0.00     0.208 A 
ATOM     11  C   UNL     1      11.176  -4.295  10.365  1.00  0.00     0.179 A 
ENDROOT
BRANCH   1  12
ATOM     12  C   UNL     1      13.281  -3.279  15.529  1.00  0.00     0.021 A 
ATOM     13  C   UNL     1      14.358  -2.590  18.044  1.00  0.00     0.160 A 
ATOM     14  C   UNL     1      15.192  -3.119  17.047  1.00  0.00     0.161 A 
ATOM     15  C   UNL     1      12.989  -2.407  17.778  1.00  0.00     0.051 A 
ATOM     16  C   UNL     1      14.648  -3.457  15.792  1.00  0.00     0.062 A 
ATOM     17  C   UNL     1      12.457  -2.747  16.533  1.00  0.00     0.016 A 
BRANCH  13  18
ATOM     18  O   UNL     1      14.928  -2.257  19.283  1.00  0.00    -0.493 OA
ATOM     19  C   UNL     1      14.633  -2.922  20.510  1.00  0.00     0.278 C 
ENDBRANCH  13  18
BRANCH  14  20
ATOM     20  O   UNL     1      16.554  -3.292  17.339  1.00  0.00    -0.493 OA
ATOM     21  C   UNL     1      17.146  -4.528  17.727  1.00  0.00     0.278 C 
ENDBRANCH  14  20
ENDBRANCH   1  12
BRANCH   8  22
ATOM     22  O   UNL     1      13.184  -0.671  11.282  1.00  0.00    -0.490 OA
ATOM     23  C   UNL     1      12.611   0.529  11.797  1.00  0.00     0.278 C 
ENDBRANCH   8  22
BRANCH  11  24
ATOM     24  O   UNL     1      10.478  -5.486  10.087  1.00  0.00    -0.492 OA
ATOM     25  C   UNL     1       9.066  -5.585   9.918  1.00  0.00     0.278 C 
ENDBRANCH  11  24
BRANCH   9  26
ATOM     26  O   UNL     1      12.117  -1.112   8.686  1.00  0.00    -0.490 OA
ATOM     27  C   UNL     1      13.210  -0.892   7.798  1.00  0.00     0.279 C 
ENDBRANCH   9  26
BRANCH  10  28
ATOM     28  O   UNL     1      10.859  -3.592   8.087  1.00  0.00    -0.490 OA
ATOM     29  C   UNL     1      11.549  -4.225   7.014  1.00  0.00     0.278 C 
ENDBRANCH  10  28
TORSDOF 7
ENDMDL
MODEL 3
REMARK VINA RESULT:    -6.920      2.728      8.814
REMARK INTER + INTRA:         -10.361
REMARK INTER:                  -9.783
REMARK INTRA:                  -0.578
REMARK UNBOUND:                -0.609
REMARK SMILES COc1ccc(-c2cc(=O)c3c(OC)c(OC)c(OC)c(OC)c3o2)cc1OC
REMARK SMILES IDX 7 1 8 2 9 3 10 4 11 5 24 6 25 7 21 8 18 9 15 10 12 11 6 12
REMARK SMILES IDX 3 13 27 14 4 15 26 16 5 17 2 18 1 19 28 20 29 21 22 22 23 23
REMARK SMILES IDX 13 24 14 25 19 26 20 27 16 28 17 29
REMARK H PARENT
REMARK Flexibility Score: inf
ROOT
ATOM      1  C   UNL     1       8.321  -4.558  10.541  1.00  0.00     0.138 A 
ATOM      2  C   UNL     1       9.092  -5.602  11.056  1.00  0.00     0.100 A 
ATOM      3  C   UNL     1      10.257  -5.306  11.758  1.00  0.00     0.197 A 
ATOM      4  O   UNL     1      10.941  -6.261  12.218  1.00  0.00    -0.289 OA
ATOM      5  C   UNL     1      10.645  -3.958  11.939  1.00  0.00     0.115 A 
ATOM      6  C   UNL     1       9.806  -2.953  11.404  1.00  0.00     0.188 A 
ATOM      7  O   UNL     1       8.701  -3.301  10.747  1.00  0.00    -0.452 OA
ATOM      8  C   UNL     1      10.144  -1.585  11.544  1.00  0.00     0.209 A 
ATOM      9  C   UNL     1      11.333  -1.225  12.233  1.00  0.00     0.211 A 
ATOM     10  C   UNL     1      12.168  -2.236  12.779  1.00  0.00     0.208 A 
ATOM     11  C   UNL     1      11.838  -3.597  12.603  1.00  0.00     0.179 A 
ENDROOT
BRANCH   1  12
ATOM     12  C   UNL     1       7.087  -4.821   9.763  1.00  0.00     0.021 A 
ATOM     13  C   UNL     1       4.703  -5.352   8.352  1.00  0.00     0.160 A 
ATOM     14  C   UNL     1       5.450  -6.412   8.888  1.00  0.00     0.161 A 
ATOM     15  C   UNL     1       5.151  -4.030   8.525  1.00  0.00     0.051 A 
ATOM     16  C   UNL     1       6.637  -6.139   9.596  1.00  0.00     0.062 A 
ATOM     17  C   UNL     1       6.330  -3.768   9.225  1.00  0.00     0.016 A 
BRANCH  13  18
ATOM     18  O   UNL     1       3.520  -5.653   7.657  1.00  0.00    -0.493 OA
ATOM     19  C   UNL     1       3.445  -5.857   6.247  1.00  0.00     0.278 C 
ENDBRANCH  13  18
BRANCH  14  20
ATOM     20  O   UNL     1       4.979  -7.722   8.700  1.00  0.00    -0.493 OA
ATOM     21  C   UNL     1       5.533  -8.653   7.776  1.00  0.00     0.278 C 
ENDBRANCH  14  20
ENDBRANCH   1  12
BRANCH   8  22
ATOM     22  O   UNL     1       9.337  -0.555  11.023  1.00  0.00    -0.490 OA
ATOM     23  C   UNL     1       8.236   0.095  11.655  1.00  0.00     0.278 C 
ENDBRANCH   8  22
BRANCH  11  24
ATOM     24  O   UNL     1      12.677  -4.618  13.087  1.00  0.00    -0.492 OA
ATOM     25  C   UNL     1      12.809  -4.986  14.459  1.00  0.00     0.278 C 
ENDBRANCH  11  24
BRANCH   9  26
ATOM     26  O   UNL     1      11.726   0.116  12.407  1.00  0.00    -0.490 OA
ATOM     27  C   UNL     1      12.307   0.993  11.445  1.00  0.00     0.279 C 
ENDBRANCH   9  26
BRANCH  10  28
ATOM     28  O   UNL     1      13.326  -1.952  13.529  1.00  0.00    -0.490 OA
ATOM     29  C   UNL     1      13.406  -1.394  14.838  1.00  0.00     0.278 C 
ENDBRANCH  10  28
TORSDOF 7
ENDMDL
MODEL 4
REMARK VINA RESULT:    -6.878      2.387      4.501
REMARK INTER + INTRA:         -10.301
REMARK INTER:                  -9.706
REMARK INTRA:                  -0.595
REMARK UNBOUND:                -0.609
REMARK SMILES COc1ccc(-c2cc(=O)c3c(OC)c(OC)c(OC)c(OC)c3o2)cc1OC
REMARK SMILES IDX 7 1 8 2 9 3 10 4 11 5 24 6 25 7 21 8 18 9 15 10 12 11 6 12
REMARK SMILES IDX 3 13 27 14 4 15 26 16 5 17 2 18 1 19 28 20 29 21 22 22 23 23
REMARK SMILES IDX 13 24 14 25 19 26 20 27 16 28 17 29
REMARK H PARENT
REMARK Flexibility Score: inf
ROOT
ATOM      1  C   UNL     1       6.983  -6.308   8.358  1.00  0.00     0.138 A 
ATOM      2  C   UNL     1       6.358  -7.445   8.876  1.00  0.00     0.100 A 
ATOM      3  C   UNL     1       5.116  -7.827   8.375  1.00  0.00     0.197 A 
ATOM      4  O   UNL     1       4.565  -8.856   8.853  1.00  0.00    -0.289 OA
ATOM      5  C   UNL     1       4.504  -7.061   7.355  1.00  0.00     0.115 A 
ATOM      6  C   UNL     1       5.204  -5.933   6.867  1.00  0.00     0.188 A 
ATOM      7  O   UNL     1       6.392  -5.624   7.384  1.00  0.00    -0.452 OA
ATOM      8  C   UNL     1       4.642  -5.122   5.852  1.00  0.00     0.209 A 
ATOM      9  C   UNL     1       3.367  -5.451   5.320  1.00  0.00     0.211 A 
ATOM     10  C   UNL     1       2.672  -6.592   5.803  1.00  0.00     0.208 A 
ATOM     11  C   UNL     1       3.227  -7.373   6.839  1.00  0.00     0.179 A 
ENDROOT
BRANCH   1  12
ATOM     12  C   UNL     1       8.292  -5.845   8.875  1.00  0.00     0.021 A 
ATOM     13  C   UNL     1      10.798  -5.039   9.890  1.00  0.00     0.160 A 
ATOM     14  C   UNL     1       9.778  -5.429  10.772  1.00  0.00     0.161 A 
ATOM     15  C   UNL     1      10.560  -5.055   8.504  1.00  0.00     0.051 A 
ATOM     16  C   UNL     1       8.531  -5.835  10.258  1.00  0.00     0.062 A 
ATOM     17  C   UNL     1       9.320  -5.455   8.002  1.00  0.00     0.016 A 
BRANCH  13  18
ATOM     18  O   UNL     1      12.033  -4.645  10.430  1.00  0.00    -0.493 OA
ATOM     19  C   UNL     1      12.405  -3.292  10.686  1.00  0.00     0.278 C 
ENDBRANCH  13  18
BRANCH  14  20
ATOM     20  O   UNL     1      10.043  -5.402  12.150  1.00  0.00    -0.493 OA
ATOM     21  C   UNL     1       9.468  -4.474  13.065  1.00  0.00     0.278 C 
ENDBRANCH  14  20
ENDBRANCH   1  12
BRANCH   8  22
ATOM     22  O   UNL     1       5.304  -3.988   5.343  1.00  0.00    -0.490 OA
ATOM     23  C   UNL     1       5.158  -2.632   5.759  1.00  0.00     0.278 C 
ENDBRANCH   8  22
BRANCH  11  24
ATOM     24  O   UNL     1       2.533  -8.475   7.372  1.00  0.00    -0.492 OA
ATOM     25  C   UNL     1       2.444  -9.759   6.758  1.00  0.00     0.278 C 
ENDBRANCH  11  24
BRANCH   9  26
ATOM     26  O   UNL     1       2.752  -4.687   4.309  1.00  0.00    -0.490 OA
ATOM     27  C   UNL     1       2.981  -4.743   2.904  1.00  0.00     0.279 C 
ENDBRANCH   9  26
BRANCH  10  28
ATOM     28  O   UNL     1       1.435  -7.016   5.277  1.00  0.00    -0.490 OA
ATOM     29  C   UNL     1       1.199  -7.747   4.077  1.00  0.00     0.278 C 
ENDBRANCH  10  28
TORSDOF 7
ENDMDL
MODEL 5
REMARK VINA RESULT:    -6.875      4.881      7.362
REMARK INTER + INTRA:         -10.297
REMARK INTER:                  -9.631
REMARK INTRA:                  -0.666
REMARK UNBOUND:                -0.609
REMARK SMILES COc1ccc(-c2cc(=O)c3c(OC)c(OC)c(OC)c(OC)c3o2)cc1OC
REMARK SMILES IDX 7 1 8 2 9 3 10 4 11 5 24 6 25 7 21 8 18 9 15 10 12 11 6 12
REMARK SMILES IDX 3 13 27 14 4 15 26 16 5 17 2 18 1 19 28 20 29 21 22 22 23 23
REMARK SMILES IDX 13 24 14 25 19 26 20 27 16 28 17 29
REMARK H PARENT
REMARK Flexibility Score: inf
ROOT
ATOM      1  C   UNL     1      13.372  -2.045  14.110  1.00  0.00     0.138 A 
ATOM      2  C   UNL     1      13.494  -0.773  13.547  1.00  0.00     0.100 A 
ATOM      3  C   UNL     1      13.140  -0.583  12.214  1.00  0.00     0.197 A 
ATOM      4  O   UNL     1      13.256   0.573  11.720  1.00  0.00    -0.289 OA
ATOM      5  C   UNL     1      12.667  -1.675  11.449  1.00  0.00     0.115 A 
ATOM      6  C   UNL     1      12.555  -2.930  12.092  1.00  0.00     0.188 A 
ATOM      7  O   UNL     1      12.904  -3.045  13.372  1.00  0.00    -0.452 OA
ATOM      8  C   UNL     1      12.096  -4.063  11.379  1.00  0.00     0.209 A 
ATOM      9  C   UNL     1      11.742  -3.932  10.009  1.00  0.00     0.211 A 
ATOM     10  C   UNL     1      11.845  -2.669   9.370  1.00  0.00     0.208 A 
ATOM     11  C   UNL     1      12.337  -1.554  10.082  1.00  0.00     0.179 A 
ENDROOT
BRANCH   1  12
ATOM     12  C   UNL     1      13.759  -2.305  15.517  1.00  0.00     0.021 A 
ATOM     13  C   UNL     1      14.553  -2.742  18.189  1.00  0.00     0.160 A 
ATOM     14  C   UNL     1      15.459  -2.975  17.143  1.00  0.00     0.161 A 
ATOM     15  C   UNL     1      13.254  -2.290  17.894  1.00  0.00     0.051 A 
ATOM     16  C   UNL     1      15.058  -2.751  15.811  1.00  0.00     0.062 A 
ATOM     17  C   UNL     1      12.862  -2.073  16.572  1.00  0.00     0.016 A 
BRANCH  13  18
ATOM     18  O   UNL     1      14.983  -2.968  19.507  1.00  0.00    -0.493 OA
ATOM     19  C   UNL     1      14.208  -2.674  20.668  1.00  0.00     0.278 C 
ENDBRANCH  13  18
BRANCH  14  20
ATOM     20  O   UNL     1      16.749  -3.426  17.466  1.00  0.00    -0.493 OA
ATOM     21  C   UNL     1      17.149  -4.793  17.468  1.00  0.00     0.278 C 
ENDBRANCH  14  20
ENDBRANCH   1  12
BRANCH   8  22
ATOM     22  O   UNL     1      11.972  -5.331  11.981  1.00  0.00    -0.490 OA
ATOM     23  C   UNL     1      10.871  -5.835  12.734  1.00  0.00     0.278 C 
ENDBRANCH   8  22
BRANCH  11  24
ATOM     24  O   UNL     1      12.500  -0.304   9.455  1.00  0.00    -0.492 OA
ATOM     25  C   UNL     1      11.434   0.545   9.035  1.00  0.00     0.278 C 
ENDBRANCH  11  24
BRANCH   9  26
ATOM     26  O   UNL     1      11.278  -5.020   9.243  1.00  0.00    -0.490 OA
ATOM     27  C   UNL     1       9.933  -5.455   9.062  1.00  0.00     0.279 C 
ENDBRANCH   9  26
BRANCH  10  28
ATOM     28  O   UNL     1      11.451  -2.451   8.034  1.00  0.00    -0.490 OA
ATOM     29  C   UNL     1      12.218  -2.655   6.851  1.00  0.00     0.278 C 
ENDBRANCH  10  28
TORSDOF 7
ENDMDL
MODEL 6
REMARK VINA RESULT:    -6.803      2.907      8.366
REMARK INTER + INTRA:         -10.196
REMARK INTER:                  -9.462
REMARK INTRA:                  -0.734
REMARK UNBOUND:                -0.609
REMARK SMILES COc1ccc(-c2cc(=O)c3c(OC)c(OC)c(OC)c(OC)c3o2)cc1OC
REMARK SMILES IDX 7 1 8 2 9 3 10 4 11 5 24 6 25 7 21 8 18 9 15 10 12 11 6 12
REMARK SMILES IDX 3 13 27 14 4 15 26 16 5 17 2 18 1 19 28 20 29 21 22 22 23 23
REMARK SMILES IDX 13 24 14 25 19 26 20 27 16 28 17 29
REMARK H PARENT
REMARK Flexibility Score: inf
ROOT
ATOM      1  C   UNL     1       6.088  -7.276   8.235  1.00  0.00     0.138 A 
ATOM      2  C   UNL     1       7.374  -7.812   8.333  1.00  0.00     0.100 A 
ATOM      3  C   UNL     1       8.425  -6.988   8.728  1.00  0.00     0.197 A 
ATOM      4  O   UNL     1       9.581  -7.487   8.812  1.00  0.00    -0.289 OA
ATOM      5  C   UNL     1       8.179  -5.626   9.020  1.00  0.00     0.115 A 
ATOM      6  C   UNL     1       6.849  -5.159   8.914  1.00  0.00     0.188 A 
ATOM      7  O   UNL     1       5.886  -5.998   8.537  1.00  0.00    -0.452 OA
ATOM      8  C   UNL     1       6.539  -3.804   9.185  1.00  0.00     0.209 A 
ATOM      9  C   UNL     1       7.577  -2.913   9.570  1.00  0.00     0.211 A 
ATOM     10  C   UNL     1       8.910  -3.388   9.687  1.00  0.00     0.208 A 
ATOM     11  C   UNL     1       9.211  -4.732   9.380  1.00  0.00     0.179 A 
ENDROOT
BRANCH   1  12
ATOM     12  C   UNL     1       4.940  -8.104   7.794  1.00  0.00     0.021 A 
ATOM     13  C   UNL     1       2.760  -9.645   6.880  1.00  0.00     0.160 A 
ATOM     14  C   UNL     1       2.660  -8.246   6.922  1.00  0.00     0.161 A 
ATOM     15  C   UNL     1       3.952 -10.267   7.296  1.00  0.00     0.051 A 
ATOM     16  C   UNL     1       3.753  -7.482   7.375  1.00  0.00     0.062 A 
ATOM     17  C   UNL     1       5.030  -9.504   7.746  1.00  0.00     0.016 A 
BRANCH  13  18
ATOM     18  O   UNL     1       1.657 -10.381   6.419  1.00  0.00    -0.493 OA
ATOM     19  C   UNL     1       0.668 -10.965   7.264  1.00  0.00     0.278 C 
ENDBRANCH  13  18
BRANCH  14  20
ATOM     20  O   UNL     1       1.459  -7.651   6.502  1.00  0.00    -0.493 OA
ATOM     21  C   UNL     1       1.157  -7.307   5.153  1.00  0.00     0.278 C 
ENDBRANCH  14  20
ENDBRANCH   1  12
BRANCH   8  22
ATOM     22  O   UNL     1       5.228  -3.299   9.089  1.00  0.00    -0.490 OA
ATOM     23  C   UNL     1       4.558  -2.832   7.919  1.00  0.00     0.278 C 
ENDBRANCH   8  22
BRANCH  11  24
ATOM     24  O   UNL     1      10.533  -5.212   9.435  1.00  0.00    -0.492 OA
ATOM     25  C   UNL     1      11.594  -4.785   8.582  1.00  0.00     0.278 C 
ENDBRANCH  11  24
BRANCH   9  26
ATOM     26  O   UNL     1       7.336  -1.554   9.854  1.00  0.00    -0.490 OA
ATOM     27  C   UNL     1       6.954  -0.972  11.098  1.00  0.00     0.279 C 
ENDBRANCH   9  26
BRANCH  10  28
ATOM     28  O   UNL     1       9.977  -2.578  10.126  1.00  0.00    -0.490 OA
ATOM     29  C   UNL     1      10.428  -2.375  11.462  1.00  0.00     0.278 C 
ENDBRANCH  10  28
TORSDOF 7
ENDMDL
MODEL 7
REMARK VINA RESULT:    -6.789      4.670      8.539
REMARK INTER + INTRA:         -10.175
REMARK INTER:                  -9.601
REMARK INTRA:                  -0.574
REMARK UNBOUND:                -0.609
REMARK SMILES COc1ccc(-c2cc(=O)c3c(OC)c(OC)c(OC)c(OC)c3o2)cc1OC
REMARK SMILES IDX 7 1 8 2 9 3 10 4 11 5 24 6 25 7 21 8 18 9 15 10 12 11 6 12
REMARK SMILES IDX 3 13 27 14 4 15 26 16 5 17 2 18 1 19 28 20 29 21 22 22 23 23
REMARK SMILES IDX 13 24 14 25 19 26 20 27 16 28 17 29
REMARK H PARENT
REMARK Flexibility Score: inf
ROOT
ATOM      1  C   UNL     1      13.527  -4.468  15.469  1.00  0.00     0.138 A 
ATOM      2  C   UNL     1      13.337  -5.251  14.328  1.00  0.00     0.100 A 
ATOM      3  C   UNL     1      12.125  -5.178  13.647  1.00  0.00     0.197 A 
ATOM      4  O   UNL     1      11.970  -5.891  12.618  1.00  0.00    -0.289 OA
ATOM      5  C   UNL     1      11.104  -4.320  14.119  1.00  0.00     0.115 A 
ATOM      6  C   UNL     1      11.374  -3.545  15.271  1.00  0.00     0.188 A 
ATOM      7  O   UNL     1      12.557  -3.655  15.873  1.00  0.00    -0.452 OA
ATOM      8  C   UNL     1      10.391  -2.673  15.797  1.00  0.00     0.209 A 
ATOM      9  C   UNL     1       9.127  -2.576  15.156  1.00  0.00     0.211 A 
ATOM     10  C   UNL     1       8.863  -3.347  13.993  1.00  0.00     0.208 A 
ATOM     11  C   UNL     1       9.839  -4.238  13.498  1.00  0.00     0.179 A 
ENDROOT
BRANCH   1  12
ATOM     12  C   UNL     1      14.790  -4.528  16.244  1.00  0.00     0.021 A 
ATOM     13  C   UNL     1      17.234  -4.624  17.648  1.00  0.00     0.160 A 
ATOM     14  C   UNL     1      16.972  -5.559  16.634  1.00  0.00     0.161 A 
ATOM     15  C   UNL     1      16.272  -3.645  17.955  1.00  0.00     0.051 A 
ATOM     16  C   UNL     1      15.752  -5.502  15.934  1.00  0.00     0.062 A 
ATOM     17  C   UNL     1      15.063  -3.596  17.258  1.00  0.00     0.016 A 
BRANCH  13  18
ATOM     18  O   UNL     1      18.461  -4.701  18.327  1.00  0.00    -0.493 OA
ATOM     19  C   UNL     1      18.629  -5.256  19.630  1.00  0.00     0.278 C 
ENDBRANCH  13  18
BRANCH  14  20
ATOM     20  O   UNL     1      17.950  -6.525  16.351  1.00  0.00    -0.493 OA
ATOM     21  C   UNL     1      17.718  -7.931  16.345  1.00  0.00     0.278 C 
ENDBRANCH  14  20
ENDBRANCH   1  12
BRANCH   8  22
ATOM     22  O   UNL     1      10.619  -1.887  16.943  1.00  0.00    -0.490 OA
ATOM     23  C   UNL     1      10.340  -2.224  18.301  1.00  0.00     0.278 C 
ENDBRANCH   8  22
BRANCH  11  24
ATOM     24  O   UNL     1       9.580  -5.052  12.380  1.00  0.00    -0.492 OA
ATOM     25  C   UNL     1       9.578  -4.605  11.026  1.00  0.00     0.278 C 
ENDBRANCH  11  24
BRANCH   9  26
ATOM     26  O   UNL     1       8.106  -1.728  15.628  1.00  0.00    -0.490 OA
ATOM     27  C   UNL     1       8.057  -0.304  15.582  1.00  0.00     0.279 C 
ENDBRANCH   9  26
BRANCH  10  28
ATOM     28  O   UNL     1       7.657  -3.253  13.269  1.00  0.00    -0.490 OA
ATOM     29  C   UNL     1       7.228  -2.194  12.418  1.00  0.00     0.278 C 
ENDBRANCH  10  28
TORSDOF 7
ENDMDL
MODEL 8
REMARK VINA RESULT:    -6.758      2.135      8.979
REMARK INTER + INTRA:         -10.132
REMARK INTER:                  -9.459
REMARK INTRA:                  -0.673
REMARK UNBOUND:                -0.609
REMARK SMILES COc1ccc(-c2cc(=O)c3c(OC)c(OC)c(OC)c(OC)c3o2)cc1OC
REMARK SMILES IDX 7 1 8 2 9 3 10 4 11 5 24 6 25 7 21 8 18 9 15 10 12 11 6 12
REMARK SMILES IDX 3 13 27 14 4 15 26 16 5 17 2 18 1 19 28 20 29 21 22 22 23 23
REMARK SMILES IDX 13 24 14 25 19 26 20 27 16 28 17 29
REMARK H PARENT
REMARK Flexibility Score: inf
ROOT
ATOM      1  C   UNL     1       8.476  -4.477  11.311  1.00  0.00     0.138 A 
ATOM      2  C   UNL     1       9.675  -5.179  11.164  1.00  0.00     0.100 A 
ATOM      3  C   UNL     1      10.725  -4.922  12.040  1.00  0.00     0.197 A 
ATOM      4  O   UNL     1      11.801  -5.565  11.894  1.00  0.00    -0.289 OA
ATOM      5  C   UNL     1      10.569  -3.956  13.062  1.00  0.00     0.115 A 
ATOM      6  C   UNL     1       9.321  -3.297  13.160  1.00  0.00     0.188 A 
ATOM      7  O   UNL     1       8.353  -3.592  12.295  1.00  0.00    -0.452 OA
ATOM      8  C   UNL     1       9.104  -2.315  14.157  1.00  0.00     0.209 A 
ATOM      9  C   UNL     1      10.149  -1.996  15.064  1.00  0.00     0.211 A 
ATOM     10  C   UNL     1      11.397  -2.668  14.970  1.00  0.00     0.208 A 
ATOM     11  C   UNL     1      11.612  -3.621  13.951  1.00  0.00     0.179 A 
ENDROOT
BRANCH   1  12
ATOM     12  C   UNL     1       7.337  -4.694  10.388  1.00  0.00     0.021 A 
ATOM     13  C   UNL     1       5.126  -5.145   8.695  1.00  0.00     0.160 A 
ATOM     14  C   UNL     1       5.826  -6.234   9.236  1.00  0.00     0.161 A 
ATOM     15  C   UNL     1       5.535  -3.834   9.003  1.00  0.00     0.051 A 
ATOM     16  C   UNL     1       6.926  -6.002  10.085  1.00  0.00     0.062 A 
ATOM     17  C   UNL     1       6.628  -3.612   9.843  1.00  0.00     0.016 A 
BRANCH  13  18
ATOM     18  O   UNL     1       4.030  -5.405   7.856  1.00  0.00    -0.493 OA
ATOM     19  C   UNL     1       4.057  -5.288   6.435  1.00  0.00     0.278 C 
ENDBRANCH  13  18
BRANCH  14  20
ATOM     20  O   UNL     1       5.396  -7.530   8.911  1.00  0.00    -0.493 OA
ATOM     21  C   UNL     1       6.075  -8.404   8.014  1.00  0.00     0.278 C 
ENDBRANCH  14  20
ENDBRANCH   1  12
BRANCH   8  22
ATOM     22  O   UNL     1       7.878  -1.634  14.286  1.00  0.00    -0.490 OA
ATOM     23  C   UNL     1       6.673  -2.113  14.880  1.00  0.00     0.278 C 
ENDBRANCH   8  22
BRANCH  11  24
ATOM     24  O   UNL     1      12.858  -4.259  13.804  1.00  0.00    -0.492 OA
ATOM     25  C   UNL     1      13.410  -5.198  14.726  1.00  0.00     0.278 C 
ENDBRANCH  11  24
BRANCH   9  26
ATOM     26  O   UNL     1       9.998  -1.030  16.078  1.00  0.00    -0.490 OA
ATOM     27  C   UNL     1      10.257   0.370  16.002  1.00  0.00     0.279 C 
ENDBRANCH   9  26
BRANCH  10  28
ATOM     28  O   UNL     1      12.455  -2.450  15.876  1.00  0.00    -0.490 OA
ATOM     29  C   UNL     1      13.498  -1.485  15.787  1.00  0.00     0.278 C 
ENDBRANCH  10  28
TORSDOF 7
ENDMDL
MODEL 9
REMARK VINA RESULT:    -6.643      2.717      8.377
REMARK INTER + INTRA:          -9.970
REMARK INTER:                  -9.343
REMARK INTRA:                  -0.628
REMARK UNBOUND:                -0.609
REMARK SMILES COc1ccc(-c2cc(=O)c3c(OC)c(OC)c(OC)c(OC)c3o2)cc1OC
REMARK SMILES IDX 7 1 8 2 9 3 10 4 11 5 24 6 25 7 21 8 18 9 15 10 12 11 6 12
REMARK SMILES IDX 3 13 27 14 4 15 26 16 5 17 2 18 1 19 28 20 29 21 22 22 23 23
REMARK SMILES IDX 13 24 14 25 19 26 20 27 16 28 17 29
REMARK H PARENT
REMARK Flexibility Score: inf
ROOT
ATOM      1  C   UNL     1       8.775  -5.676   9.398  1.00  0.00     0.138 A 
ATOM      2  C   UNL     1       9.891  -5.469   8.584  1.00  0.00     0.100 A 
ATOM      3  C   UNL     1      10.950  -4.701   9.063  1.00  0.00     0.197 A 
ATOM      4  O   UNL     1      11.950  -4.525   8.315  1.00  0.00    -0.289 OA
ATOM      5  C   UNL     1      10.882  -4.142  10.360  1.00  0.00     0.115 A 
ATOM      6  C   UNL     1       9.728  -4.408  11.134  1.00  0.00     0.188 A 
ATOM      7  O   UNL     1       8.752  -5.155  10.620  1.00  0.00    -0.452 OA
ATOM      8  C   UNL     1       9.596  -3.870  12.436  1.00  0.00     0.209 A 
ATOM      9  C   UNL     1      10.636  -3.061  12.967  1.00  0.00     0.211 A 
ATOM     10  C   UNL     1      11.799  -2.805  12.193  1.00  0.00     0.208 A 
ATOM     11  C   UNL     1      11.903  -3.318  10.882  1.00  0.00     0.179 A 
ENDROOT
BRANCH   1  12
ATOM     12  C   UNL     1       7.611  -6.463   8.926  1.00  0.00     0.021 A 
ATOM     13  C   UNL     1       5.414  -8.019   8.084  1.00  0.00     0.160 A 
ATOM     14  C   UNL     1       6.720  -8.510   7.930  1.00  0.00     0.161 A 
ATOM     15  C   UNL     1       5.213  -6.751   8.659  1.00  0.00     0.051 A 
ATOM     16  C   UNL     1       7.812  -7.730   8.357  1.00  0.00     0.062 A 
ATOM     17  C   UNL     1       6.301  -5.982   9.078  1.00  0.00     0.016 A 
BRANCH  13  18
ATOM     18  O   UNL     1       4.344  -8.821   7.655  1.00  0.00    -0.493 OA
ATOM     19  C   UNL     1       3.058  -8.321   7.295  1.00  0.00     0.278 C 
ENDBRANCH  13  18
BRANCH  14  20
ATOM     20  O   UNL     1       6.891  -9.778   7.352  1.00  0.00    -0.493 OA
ATOM     21  C   UNL     1       7.119 -10.009   5.965  1.00  0.00     0.278 C 
ENDBRANCH  14  20
ENDBRANCH   1  12
BRANCH   8  22
ATOM     22  O   UNL     1       8.462  -4.108  13.237  1.00  0.00    -0.490 OA
ATOM     23  C   UNL     1       7.313  -3.278  13.389  1.00  0.00     0.278 C 
ENDBRANCH   8  22
BRANCH  11  24
ATOM     24  O   UNL     1      13.020  -3.033  10.076  1.00  0.00    -0.492 OA
ATOM     25  C   UNL     1      13.215  -1.821   9.349  1.00  0.00     0.278 C 
ENDBRANCH  11  24
BRANCH   9  26
ATOM     26  O   UNL     1      10.568  -2.496  14.256  1.00  0.00    -0.490 OA
ATOM     27  C   UNL     1      10.980  -3.075  15.491  1.00  0.00     0.279 C 
ENDBRANCH   9  26
BRANCH  10  28
ATOM     28  O   UNL     1      12.897  -2.066  12.679  1.00  0.00    -0.490 OA
ATOM     29  C   UNL     1      13.018  -0.652  12.795  1.00  0.00     0.278 C 
ENDBRANCH  10  28
TORSDOF 7
ENDMDL
