MODEL 1
REMARK VINA RESULT:    -4.633      0.000      0.000
REMARK INTER + INTRA:          -5.222
REMARK INTER:                  -5.039
REMARK INTRA:                  -0.184
REMARK UNBOUND:                -0.184
REMARK SMILES O=C([O-])c1ccccc1O
REMARK SMILES IDX 4 1 9 2 5 3 8 4 6 5 7 6 2 7 1 8 3 9 10 10
REMARK H PARENT 10 11
REMARK Flexibility Score: inf
ROOT
ATOM      1  C   UNL     1     111.537   7.700 -25.429  1.00  0.00     0.039 A 
ATOM      2  C   UNL     1     111.588   8.053 -24.059  1.00  0.00     0.124 A 
ATOM      3  C   UNL     1     112.518   8.213 -26.300  1.00  0.00     0.014 A 
ATOM      4  C   UNL     1     112.605   8.902 -23.593  1.00  0.00     0.047 A 
ATOM      5  C   UNL     1     113.524   9.056 -25.823  1.00  0.00     0.001 A 
ATOM      6  C   UNL     1     113.568   9.401 -24.472  1.00  0.00     0.004 A 
ENDROOT
BRANCH   1   7
ATOM      7  C   UNL     1     110.482   6.806 -25.971  1.00  0.00     0.075 C 
ATOM      8  O   UNL     1     110.208   6.793 -27.201  1.00  0.00    -0.545 OA
ATOM      9  O   UNL     1     109.774   5.963 -25.123  1.00  0.00    -0.545 OA
ENDBRANCH   1   7
BRANCH   2  10
ATOM     10  O   UNL     1     110.638   7.569 -23.160  1.00  0.00    -0.507 OA
ATOM     11  H   UNL     1     110.180   8.175 -22.490  1.00  0.00     0.293 HD
ENDBRANCH   2  10
TORSDOF 2
ENDMDL
MODEL 2
REMARK VINA RESULT:    -4.472     14.949     16.491
REMARK INTER + INTRA:          -5.048
REMARK INTER:                  -4.814
REMARK INTRA:                  -0.233
REMARK UNBOUND:                -0.184
REMARK SMILES O=C([O-])c1ccccc1O
REMARK SMILES IDX 4 1 9 2 5 3 8 4 6 5 7 6 2 7 1 8 3 9 10 10
REMARK H PARENT 10 11
REMARK Flexibility Score: inf
ROOT
ATOM      1  C   UNL     1     111.208   8.854 -40.821  1.00  0.00     0.039 A 
ATOM      2  C   UNL     1     111.564   8.327 -42.086  1.00  0.00     0.124 A 
ATOM      3  C   UNL     1     110.204   8.207 -40.075  1.00  0.00     0.014 A 
ATOM      4  C   UNL     1     110.918   7.179 -42.573  1.00  0.00     0.047 A 
ATOM      5  C   UNL     1     109.570   7.065 -40.571  1.00  0.00     0.001 A 
ATOM      6  C   UNL     1     109.926   6.552 -41.818  1.00  0.00     0.004 A 
ENDROOT
BRANCH   1   7
ATOM      7  C   UNL     1     111.860  10.065 -40.263  1.00  0.00     0.075 C 
ATOM      8  O   UNL     1     112.246  11.001 -41.013  1.00  0.00    -0.545 OA
ATOM      9  O   UNL     1     112.058  10.186 -38.893  1.00  0.00    -0.545 OA
ENDBRANCH   1   7
BRANCH   2  10
ATOM     10  O   UNL     1     112.553   8.934 -42.860  1.00  0.00    -0.507 OA
ATOM     11  H   UNL     1     113.502   9.042 -42.523  1.00  0.00     0.293 HD
ENDBRANCH   2  10
TORSDOF 2
ENDMDL
MODEL 3
REMARK VINA RESULT:    -4.420      1.865      3.409
REMARK INTER + INTRA:          -4.991
REMARK INTER:                  -4.765
REMARK INTRA:                  -0.226
REMARK UNBOUND:                -0.184
REMARK SMILES O=C([O-])c1ccccc1O
REMARK SMILES IDX 4 1 9 2 5 3 8 4 6 5 7 6 2 7 1 8 3 9 10 10
REMARK H PARENT 10 11
REMARK Flexibility Score: inf
ROOT
ATOM      1  C   UNL     1     111.459   8.252 -25.282  1.00  0.00     0.039 A 
ATOM      2  C   UNL     1     110.707   7.343 -24.498  1.00  0.00     0.124 A 
ATOM      3  C   UNL     1     111.435   8.120 -26.684  1.00  0.00     0.014 A 
ATOM      4  C   UNL     1     109.957   6.334 -25.123  1.00  0.00     0.047 A 
ATOM      5  C   UNL     1     110.684   7.112 -27.293  1.00  0.00     0.001 A 
ATOM      6  C   UNL     1     109.947   6.220 -26.515  1.00  0.00     0.004 A 
ENDROOT
BRANCH   1   7
ATOM      7  C   UNL     1     112.268   9.336 -24.669  1.00  0.00     0.075 C 
ATOM      8  O   UNL     1     112.480  10.415 -25.282  1.00  0.00    -0.545 OA
ATOM      9  O   UNL     1     112.809   9.173 -23.399  1.00  0.00    -0.545 OA
ENDBRANCH   1   7
BRANCH   2  10
ATOM     10  O   UNL     1     110.700   7.436 -23.107  1.00  0.00    -0.507 OA
ATOM     11  H   UNL     1     109.864   7.690 -22.594  1.00  0.00     0.293 HD
ENDBRANCH   2  10
TORSDOF 2
ENDMDL
MODEL 4
REMARK VINA RESULT:    -4.286     14.502     16.015
REMARK INTER + INTRA:          -4.845
REMARK INTER:                  -4.613
REMARK INTRA:                  -0.232
REMARK UNBOUND:                -0.184
REMARK SMILES O=C([O-])c1ccccc1O
REMARK SMILES IDX 4 1 9 2 5 3 8 4 6 5 7 6 2 7 1 8 3 9 10 10
REMARK H PARENT 10 11
REMARK Flexibility Score: inf
ROOT
ATOM      1  C   UNL     1     111.760   8.466 -40.770  1.00  0.00     0.039 A 
ATOM      2  C   UNL     1     112.293   9.442 -41.647  1.00  0.00     0.124 A 
ATOM      3  C   UNL     1     111.585   8.798 -39.412  1.00  0.00     0.014 A 
ATOM      4  C   UNL     1     112.636  10.712 -41.156  1.00  0.00     0.047 A 
ATOM      5  C   UNL     1     111.929  10.065 -38.937  1.00  0.00     0.001 A 
ATOM      6  C   UNL     1     112.454  11.021 -39.806  1.00  0.00     0.004 A 
ENDROOT
BRANCH   1   7
ATOM      7  C   UNL     1     111.382   7.109 -41.240  1.00  0.00     0.075 C 
ATOM      8  O   UNL     1     111.473   6.109 -40.481  1.00  0.00    -0.545 OA
ATOM      9  O   UNL     1     110.919   6.921 -42.537  1.00  0.00    -0.545 OA
ENDBRANCH   1   7
BRANCH   2  10
ATOM     10  O   UNL     1     112.484   9.159 -42.999  1.00  0.00    -0.507 OA
ATOM     11  H   UNL     1     113.408   9.138 -43.414  1.00  0.00     0.293 HD
ENDBRANCH   2  10
TORSDOF 2
ENDMDL
MODEL 5
REMARK VINA RESULT:    -4.178      1.615      2.347
REMARK INTER + INTRA:          -4.728
REMARK INTER:                  -4.521
REMARK INTRA:                  -0.208
REMARK UNBOUND:                -0.184
REMARK SMILES O=C([O-])c1ccccc1O
REMARK SMILES IDX 4 1 9 2 5 3 8 4 6 5 7 6 2 7 1 8 3 9 10 10
REMARK H PARENT 10 11
REMARK Flexibility Score: inf
ROOT
ATOM      1  C   UNL     1     113.014   9.160 -25.144  1.00  0.00     0.039 A 
ATOM      2  C   UNL     1     112.637   9.173 -23.779  1.00  0.00     0.124 A 
ATOM      3  C   UNL     1     114.061  10.002 -25.567  1.00  0.00     0.014 A 
ATOM      4  C   UNL     1     113.304  10.016 -22.877  1.00  0.00     0.047 A 
ATOM      5  C   UNL     1     114.717  10.836 -24.659  1.00  0.00     0.001 A 
ATOM      6  C   UNL     1     114.340  10.843 -23.316  1.00  0.00     0.004 A 
ENDROOT
BRANCH   1   7
ATOM      7  C   UNL     1     112.338   8.287 -26.138  1.00  0.00     0.075 C 
ATOM      8  O   UNL     1     111.176   7.847 -25.933  1.00  0.00    -0.545 OA
ATOM      9  O   UNL     1     112.984   7.939 -27.318  1.00  0.00    -0.545 OA
ENDBRANCH   1   7
BRANCH   2  10
ATOM     10  O   UNL     1     111.606   8.356 -23.315  1.00  0.00    -0.507 OA
ATOM     11  H   UNL     1     110.791   8.739 -22.851  1.00  0.00     0.293 HD
ENDBRANCH   2  10
TORSDOF 2
ENDMDL
MODEL 6
REMARK VINA RESULT:    -4.107     14.963     16.641
REMARK INTER + INTRA:          -4.651
REMARK INTER:                  -4.420
REMARK INTRA:                  -0.231
REMARK UNBOUND:                -0.184
REMARK SMILES O=C([O-])c1ccccc1O
REMARK SMILES IDX 4 1 9 2 5 3 8 4 6 5 7 6 2 7 1 8 3 9 10 10
REMARK H PARENT 10 11
REMARK Flexibility Score: inf
ROOT
ATOM      1  C   UNL     1     110.700   7.006 -40.846  1.00  0.00     0.039 A 
ATOM      2  C   UNL     1     110.752   7.258 -42.238  1.00  0.00     0.124 A 
ATOM      3  C   UNL     1     109.925   5.926 -40.380  1.00  0.00     0.014 A 
ATOM      4  C   UNL     1     110.037   6.437 -43.125  1.00  0.00     0.047 A 
ATOM      5  C   UNL     1     109.219   5.117 -41.273  1.00  0.00     0.001 A 
ATOM      6  C   UNL     1     109.274   5.371 -42.643  1.00  0.00     0.004 A 
ENDROOT
BRANCH   1   7
ATOM      7  C   UNL     1     111.437   7.845 -39.867  1.00  0.00     0.075 C 
ATOM      8  O   UNL     1     111.873   7.358 -38.791  1.00  0.00    -0.545 OA
ATOM      9  O   UNL     1     111.658   9.193 -40.127  1.00  0.00    -0.545 OA
ENDBRANCH   1   7
BRANCH   2  10
ATOM     10  O   UNL     1     111.506   8.316 -42.745  1.00  0.00    -0.507 OA
ATOM     11  H   UNL     1     111.881   8.301 -43.686  1.00  0.00     0.293 HD
ENDBRANCH   2  10
TORSDOF 2
ENDMDL
MODEL 7
REMARK VINA RESULT:    -4.059      1.830      3.107
REMARK INTER + INTRA:          -4.599
REMARK INTER:                  -4.347
REMARK INTRA:                  -0.252
REMARK UNBOUND:                -0.184
REMARK SMILES O=C([O-])c1ccccc1O
REMARK SMILES IDX 4 1 9 2 5 3 8 4 6 5 7 6 2 7 1 8 3 9 10 10
REMARK H PARENT 10 11
REMARK Flexibility Score: inf
ROOT
ATOM      1  C   UNL     1     112.726   9.166 -24.485  1.00  0.00     0.039 A 
ATOM      2  C   UNL     1     113.596   9.389 -25.580  1.00  0.00     0.124 A 
ATOM      3  C   UNL     1     113.014   9.783 -23.252  1.00  0.00     0.014 A 
ATOM      4  C   UNL     1     114.722  10.213 -25.422  1.00  0.00     0.047 A 
ATOM      5  C   UNL     1     114.137  10.601 -23.109  1.00  0.00     0.001 A 
ATOM      6  C   UNL     1     114.990  10.816 -24.191  1.00  0.00     0.004 A 
ENDROOT
BRANCH   1   7
ATOM      7  C   UNL     1     111.523   8.303 -24.601  1.00  0.00     0.075 C 
ATOM      8  O   UNL     1     111.308   7.373 -23.779  1.00  0.00    -0.545 OA
ATOM      9  O   UNL     1     110.609   8.510 -25.627  1.00  0.00    -0.545 OA
ENDBRANCH   1   7
BRANCH   2  10
ATOM     10  O   UNL     1     113.350   8.800 -26.819  1.00  0.00    -0.507 OA
ATOM     11  H   UNL     1     113.889   8.008 -27.149  1.00  0.00     0.293 HD
ENDBRANCH   2  10
TORSDOF 2
ENDMDL
MODEL 8
REMARK VINA RESULT:    -4.003      2.990      4.412
REMARK INTER + INTRA:          -4.538
REMARK INTER:                  -4.287
REMARK INTRA:                  -0.251
REMARK UNBOUND:                -0.184
REMARK SMILES O=C([O-])c1ccccc1O
REMARK SMILES IDX 4 1 9 2 5 3 8 4 6 5 7 6 2 7 1 8 3 9 10 10
REMARK H PARENT 10 11
REMARK Flexibility Score: inf
ROOT
ATOM      1  C   UNL     1     112.957   9.558 -24.529  1.00  0.00     0.039 A 
ATOM      2  C   UNL     1     112.171   9.837 -25.674  1.00  0.00     0.124 A 
ATOM      3  C   UNL     1     112.594   8.477 -23.703  1.00  0.00     0.014 A 
ATOM      4  C   UNL     1     111.053   9.040 -25.966  1.00  0.00     0.047 A 
ATOM      5  C   UNL     1     111.479   7.691 -24.006  1.00  0.00     0.001 A 
ATOM      6  C   UNL     1     110.709   7.972 -25.134  1.00  0.00     0.004 A 
ENDROOT
BRANCH   1   7
ATOM      7  C   UNL     1     114.149  10.372 -24.178  1.00  0.00     0.075 C 
ATOM      8  O   UNL     1     115.013  10.667 -25.045  1.00  0.00    -0.545 OA
ATOM      9  O   UNL     1     114.330  10.823 -22.876  1.00  0.00    -0.545 OA
ENDBRANCH   1   7
BRANCH   2  10
ATOM     10  O   UNL     1     112.493  10.897 -26.521  1.00  0.00    -0.507 OA
ATOM     11  H   UNL     1     112.177  10.926 -27.483  1.00  0.00     0.293 HD
ENDBRANCH   2  10
TORSDOF 2
ENDMDL
MODEL 9
REMARK VINA RESULT:    -3.945     15.210     16.572
REMARK INTER + INTRA:          -4.475
REMARK INTER:                  -4.258
REMARK INTRA:                  -0.217
REMARK UNBOUND:                -0.184
REMARK SMILES O=C([O-])c1ccccc1O
REMARK SMILES IDX 4 1 9 2 5 3 8 4 6 5 7 6 2 7 1 8 3 9 10 10
REMARK H PARENT 10 11
REMARK Flexibility Score: inf
ROOT
ATOM      1  C   UNL     1     111.113   7.217 -41.471  1.00  0.00     0.039 A 
ATOM      2  C   UNL     1     110.791   6.306 -40.436  1.00  0.00     0.124 A 
ATOM      3  C   UNL     1     110.497   7.062 -42.728  1.00  0.00     0.014 A 
ATOM      4  C   UNL     1     109.873   5.271 -40.675  1.00  0.00     0.047 A 
ATOM      5  C   UNL     1     109.584   6.029 -42.952  1.00  0.00     0.001 A 
ATOM      6  C   UNL     1     109.272   5.134 -41.928  1.00  0.00     0.004 A 
ENDROOT
BRANCH   1   7
ATOM      7  C   UNL     1     112.079   8.327 -41.268  1.00  0.00     0.075 C 
ATOM      8  O   UNL     1     112.719   8.817 -42.235  1.00  0.00    -0.545 OA
ATOM      9  O   UNL     1     112.291   8.847 -39.997  1.00  0.00    -0.545 OA
ENDBRANCH   1   7
BRANCH   2  10
ATOM     10  O   UNL     1     111.376   6.421 -39.175  1.00  0.00    -0.507 OA
ATOM     11  H   UNL     1     110.819   6.552 -38.339  1.00  0.00     0.293 HD
ENDBRANCH   2  10
TORSDOF 2
ENDMDL
