MODEL 1
REMARK VINA RESULT:    -6.540      0.000      0.000
REMARK INTER + INTRA:          -6.731
REMARK INTER:                  -6.731
REMARK INTRA:                   0.000
REMARK UNBOUND:                 0.000
REMARK SMILES O=c1ccc2ccc(O)cc2o1
REMARK SMILES IDX 6 1 7 2 8 3 10 4 11 5 5 6 4 7 3 8 2 9 1 10 12 11 9 12
REMARK H PARENT 9 13
REMARK Flexibility Score: inf
ROOT
ATOM      1  C   UNL     1     -14.395  -0.316 -10.062  1.00  0.00     0.016 A 
ATOM      2  C   UNL     1     -13.675  -1.467 -10.395  1.00  0.00     0.047 A 
ATOM      3  C   UNL     1     -12.274  -1.460 -10.362  1.00  0.00     0.119 A 
ATOM      4  C   UNL     1     -11.589  -0.293  -9.993  1.00  0.00     0.094 A 
ATOM      5  C   UNL     1     -12.302   0.863  -9.657  1.00  0.00     0.142 A 
ATOM      6  C   UNL     1     -13.715   0.852  -9.693  1.00  0.00     0.018 A 
ATOM      7  C   UNL     1     -14.399   2.024  -9.353  1.00  0.00     0.019 A 
ATOM      8  C   UNL     1     -13.675   3.159  -8.992  1.00  0.00     0.094 A 
ATOM      9  C   UNL     1     -12.277   3.096  -8.979  1.00  0.00     0.336 A 
ATOM     10  O   UNL     1     -11.605   4.111  -8.657  1.00  0.00    -0.246 OA
ATOM     11  O   UNL     1     -11.650   1.969  -9.308  1.00  0.00    -0.423 OA
ENDROOT
BRANCH   3  12
ATOM     12  O   UNL     1     -11.575  -2.617 -10.697  1.00  0.00    -0.508 OA
ATOM     13  H   UNL     1     -11.995  -3.344 -11.266  1.00  0.00     0.293 HD
ENDBRANCH   3  12
TORSDOF 1
ENDMDL
MODEL 2
REMARK VINA RESULT:    -6.153      1.655      4.773
REMARK INTER + INTRA:          -6.333
REMARK INTER:                  -6.333
REMARK INTRA:                   0.000
REMARK UNBOUND:                 0.000
REMARK SMILES O=c1ccc2ccc(O)cc2o1
REMARK SMILES IDX 6 1 7 2 8 3 10 4 11 5 5 6 4 7 3 8 2 9 1 10 12 11 9 12
REMARK H PARENT 9 13
REMARK Flexibility Score: inf
ROOT
ATOM      1  C   UNL     1     -11.366   2.227  -9.191  1.00  0.00     0.016 A 
ATOM      2  C   UNL     1     -11.879   3.417  -8.663  1.00  0.00     0.047 A 
ATOM      3  C   UNL     1     -13.263   3.614  -8.574  1.00  0.00     0.119 A 
ATOM      4  C   UNL     1     -14.141   2.614  -9.016  1.00  0.00     0.094 A 
ATOM      5  C   UNL     1     -13.638   1.420  -9.545  1.00  0.00     0.142 A 
ATOM      6  C   UNL     1     -12.241   1.225  -9.633  1.00  0.00     0.018 A 
ATOM      7  C   UNL     1     -11.767   0.022 -10.167  1.00  0.00     0.019 A 
ATOM      8  C   UNL     1     -12.679  -0.943 -10.594  1.00  0.00     0.094 A 
ATOM      9  C   UNL     1     -14.049  -0.680 -10.475  1.00  0.00     0.336 A 
ATOM     10  O   UNL     1     -14.888  -1.539 -10.855  1.00  0.00    -0.246 OA
ATOM     11  O   UNL     1     -14.473   0.473  -9.964  1.00  0.00    -0.423 OA
ENDROOT
BRANCH   3  12
ATOM     12  O   UNL     1     -13.752   4.805  -8.046  1.00  0.00    -0.508 OA
ATOM     13  H   UNL     1     -13.197   5.373  -7.416  1.00  0.00     0.293 HD
ENDBRANCH   3  12
TORSDOF 1
ENDMDL
MODEL 3
REMARK VINA RESULT:    -5.849      1.169      4.191
REMARK INTER + INTRA:          -6.020
REMARK INTER:                  -6.020
REMARK INTRA:                   0.000
REMARK UNBOUND:                 0.000
REMARK SMILES O=c1ccc2ccc(O)cc2o1
REMARK SMILES IDX 6 1 7 2 8 3 10 4 11 5 5 6 4 7 3 8 2 9 1 10 12 11 9 12
REMARK H PARENT 9 13
REMARK Flexibility Score: inf
ROOT
ATOM      1  C   UNL     1     -14.264   1.029  -9.982  1.00  0.00     0.016 A 
ATOM      2  C   UNL     1     -14.118   2.369  -9.610  1.00  0.00     0.047 A 
ATOM      3  C   UNL     1     -12.868   2.862  -9.213  1.00  0.00     0.119 A 
ATOM      4  C   UNL     1     -11.756   2.007  -9.189  1.00  0.00     0.094 A 
ATOM      5  C   UNL     1     -11.892   0.665  -9.561  1.00  0.00     0.142 A 
ATOM      6  C   UNL     1     -13.155   0.172  -9.960  1.00  0.00     0.018 A 
ATOM      7  C   UNL     1     -13.261  -1.173 -10.326  1.00  0.00     0.019 A 
ATOM      8  C   UNL     1     -12.127  -1.984 -10.286  1.00  0.00     0.094 A 
ATOM      9  C   UNL     1     -10.908  -1.427  -9.881  1.00  0.00     0.336 A 
ATOM     10  O   UNL     1      -9.874  -2.142  -9.838  1.00  0.00    -0.246 OA
ATOM     11  O   UNL     1     -10.835  -0.143  -9.537  1.00  0.00    -0.423 OA
ENDROOT
BRANCH   3  12
ATOM     12  O   UNL     1     -12.744   4.199  -8.846  1.00  0.00    -0.508 OA
ATOM     13  H   UNL     1     -13.110   4.542  -7.965  1.00  0.00     0.293 HD
ENDBRANCH   3  12
TORSDOF 1
ENDMDL
MODEL 4
REMARK VINA RESULT:    -5.824      5.920      7.883
REMARK INTER + INTRA:          -5.994
REMARK INTER:                  -5.994
REMARK INTRA:                   0.000
REMARK UNBOUND:                 0.000
REMARK SMILES O=c1ccc2ccc(O)cc2o1
REMARK SMILES IDX 6 1 7 2 8 3 10 4 11 5 5 6 4 7 3 8 2 9 1 10 12 11 9 12
REMARK H PARENT 9 13
REMARK Flexibility Score: inf
ROOT
ATOM      1  C   UNL     1      -9.777  -3.895  -7.067  1.00  0.00     0.016 A 
ATOM      2  C   UNL     1      -9.538  -3.447  -8.370  1.00  0.00     0.047 A 
ATOM      3  C   UNL     1     -10.146  -4.084  -9.460  1.00  0.00     0.119 A 
ATOM      4  C   UNL     1     -10.999  -5.177  -9.244  1.00  0.00     0.094 A 
ATOM      5  C   UNL     1     -11.244  -5.631  -7.943  1.00  0.00     0.142 A 
ATOM      6  C   UNL     1     -10.629  -4.986  -6.847  1.00  0.00     0.018 A 
ATOM      7  C   UNL     1     -10.892  -5.463  -5.559  1.00  0.00     0.019 A 
ATOM      8  C   UNL     1     -11.747  -6.552  -5.394  1.00  0.00     0.094 A 
ATOM      9  C   UNL     1     -12.321  -7.140  -6.526  1.00  0.00     0.336 A 
ATOM     10  O   UNL     1     -13.095  -8.125  -6.398  1.00  0.00    -0.246 OA
ATOM     11  O   UNL     1     -12.054  -6.668  -7.741  1.00  0.00    -0.423 OA
ENDROOT
BRANCH   3  12
ATOM     12  O   UNL     1      -9.896  -3.624 -10.750  1.00  0.00    -0.508 OA
ATOM     13  H   UNL     1     -10.328  -4.055 -11.559  1.00  0.00     0.293 HD
ENDBRANCH   3  12
TORSDOF 1
ENDMDL
MODEL 5
REMARK VINA RESULT:    -5.609      5.310      7.991
REMARK INTER + INTRA:          -5.773
REMARK INTER:                  -5.773
REMARK INTRA:                   0.000
REMARK UNBOUND:                 0.000
REMARK SMILES O=c1ccc2ccc(O)cc2o1
REMARK SMILES IDX 6 1 7 2 8 3 10 4 11 5 5 6 4 7 3 8 2 9 1 10 12 11 9 12
REMARK H PARENT 9 13
REMARK Flexibility Score: inf
ROOT
ATOM      1  C   UNL     1     -10.723  -4.555  -9.721  1.00  0.00     0.016 A 
ATOM      2  C   UNL     1     -10.426  -3.213  -9.465  1.00  0.00     0.047 A 
ATOM      3  C   UNL     1      -9.963  -2.819  -8.203  1.00  0.00     0.119 A 
ATOM      4  C   UNL     1      -9.797  -3.775  -7.189  1.00  0.00     0.094 A 
ATOM      5  C   UNL     1     -10.091  -5.120  -7.437  1.00  0.00     0.142 A 
ATOM      6  C   UNL     1     -10.557  -5.513  -8.712  1.00  0.00     0.018 A 
ATOM      7  C   UNL     1     -10.844  -6.865  -8.929  1.00  0.00     0.019 A 
ATOM      8  C   UNL     1     -10.662  -7.778  -7.891  1.00  0.00     0.094 A 
ATOM      9  C   UNL     1     -10.197  -7.316  -6.655  1.00  0.00     0.336 A 
ATOM     10  O   UNL     1     -10.027  -8.125  -5.705  1.00  0.00    -0.246 OA
ATOM     11  O   UNL     1      -9.933  -6.025  -6.474  1.00  0.00    -0.423 OA
ENDROOT
BRANCH   3  12
ATOM     12  O   UNL     1      -9.673  -1.478  -7.967  1.00  0.00    -0.508 OA
ATOM     13  H   UNL     1      -9.159  -0.921  -8.641  1.00  0.00     0.293 HD
ENDBRANCH   3  12
TORSDOF 1
ENDMDL
MODEL 6
REMARK VINA RESULT:    -5.375      2.552      5.302
REMARK INTER + INTRA:          -5.532
REMARK INTER:                  -5.532
REMARK INTRA:                   0.000
REMARK UNBOUND:                 0.000
REMARK SMILES O=c1ccc2ccc(O)cc2o1
REMARK SMILES IDX 6 1 7 2 8 3 10 4 11 5 5 6 4 7 3 8 2 9 1 10 12 11 9 12
REMARK H PARENT 9 13
REMARK Flexibility Score: inf
ROOT
ATOM      1  C   UNL     1     -12.684  -1.974 -10.358  1.00  0.00     0.016 A 
ATOM      2  C   UNL     1     -12.742  -0.576 -10.368  1.00  0.00     0.047 A 
ATOM      3  C   UNL     1     -11.709   0.180  -9.799  1.00  0.00     0.119 A 
ATOM      4  C   UNL     1     -10.609  -0.467  -9.217  1.00  0.00     0.094 A 
ATOM      5  C   UNL     1     -10.542  -1.865  -9.202  1.00  0.00     0.142 A 
ATOM      6  C   UNL     1     -11.587  -2.623  -9.777  1.00  0.00     0.018 A 
ATOM      7  C   UNL     1     -11.492  -4.018  -9.747  1.00  0.00     0.019 A 
ATOM      8  C   UNL     1     -10.379  -4.616  -9.157  1.00  0.00     0.094 A 
ATOM      9  C   UNL     1      -9.383  -3.800  -8.608  1.00  0.00     0.336 A 
ATOM     10  O   UNL     1      -8.371  -4.321  -8.069  1.00  0.00    -0.246 OA
ATOM     11  O   UNL     1      -9.498  -2.475  -8.648  1.00  0.00    -0.423 OA
ENDROOT
BRANCH   3  12
ATOM     12  O   UNL     1     -11.786   1.570  -9.820  1.00  0.00    -0.508 OA
ATOM     13  H   UNL     1     -12.490   2.053 -10.366  1.00  0.00     0.293 HD
ENDBRANCH   3  12
TORSDOF 1
ENDMDL
MODEL 7
REMARK VINA RESULT:    -5.309      3.197      5.128
REMARK INTER + INTRA:          -5.464
REMARK INTER:                  -5.464
REMARK INTRA:                   0.000
REMARK UNBOUND:                 0.000
REMARK SMILES O=c1ccc2ccc(O)cc2o1
REMARK SMILES IDX 6 1 7 2 8 3 10 4 11 5 5 6 4 7 3 8 2 9 1 10 12 11 9 12
REMARK H PARENT 9 13
REMARK Flexibility Score: inf
ROOT
ATOM      1  C   UNL     1      -9.034  -2.959  -8.385  1.00  0.00     0.016 A 
ATOM      2  C   UNL     1      -8.903  -4.337  -8.188  1.00  0.00     0.047 A 
ATOM      3  C   UNL     1      -9.888  -5.215  -8.658  1.00  0.00     0.119 A 
ATOM      4  C   UNL     1     -11.013  -4.711  -9.328  1.00  0.00     0.094 A 
ATOM      5  C   UNL     1     -11.151  -3.333  -9.530  1.00  0.00     0.142 A 
ATOM      6  C   UNL     1     -10.155  -2.451  -9.054  1.00  0.00     0.018 A 
ATOM      7  C   UNL     1     -10.322  -1.079  -9.270  1.00  0.00     0.019 A 
ATOM      8  C   UNL     1     -11.456  -0.625  -9.942  1.00  0.00     0.094 A 
ATOM      9  C   UNL     1     -12.401  -1.558 -10.384  1.00  0.00     0.336 A 
ATOM     10  O   UNL     1     -13.433  -1.168 -10.992  1.00  0.00    -0.246 OA
ATOM     11  O   UNL     1     -12.219  -2.858 -10.166  1.00  0.00    -0.423 OA
ENDROOT
BRANCH   3  12
ATOM     12  O   UNL     1      -9.740  -6.585  -8.452  1.00  0.00    -0.508 OA
ATOM     13  H   UNL     1      -9.785  -7.243  -9.221  1.00  0.00     0.293 HD
ENDBRANCH   3  12
TORSDOF 1
ENDMDL
MODEL 8
REMARK VINA RESULT:    -5.280      2.790      3.998
REMARK INTER + INTRA:          -5.434
REMARK INTER:                  -5.434
REMARK INTRA:                   0.000
REMARK UNBOUND:                 0.000
REMARK SMILES O=c1ccc2ccc(O)cc2o1
REMARK SMILES IDX 6 1 7 2 8 3 10 4 11 5 5 6 4 7 3 8 2 9 1 10 12 11 9 12
REMARK H PARENT 9 13
REMARK Flexibility Score: inf
ROOT
ATOM      1  C   UNL     1     -11.310  -4.001  -9.659  1.00  0.00     0.016 A 
ATOM      2  C   UNL     1     -10.282  -4.581  -8.909  1.00  0.00     0.047 A 
ATOM      3  C   UNL     1      -9.389  -3.775  -8.190  1.00  0.00     0.119 A 
ATOM      4  C   UNL     1      -9.525  -2.380  -8.222  1.00  0.00     0.094 A 
ATOM      5  C   UNL     1     -10.551  -1.790  -8.969  1.00  0.00     0.142 A 
ATOM      6  C   UNL     1     -11.449  -2.606  -9.693  1.00  0.00     0.018 A 
ATOM      7  C   UNL     1     -12.464  -1.989 -10.431  1.00  0.00     0.019 A 
ATOM      8  C   UNL     1     -12.560  -0.598 -10.432  1.00  0.00     0.094 A 
ATOM      9  C   UNL     1     -11.634   0.146  -9.691  1.00  0.00     0.336 A 
ATOM     10  O   UNL     1     -11.703   1.403  -9.680  1.00  0.00    -0.246 OA
ATOM     11  O   UNL     1     -10.677  -0.466  -8.998  1.00  0.00    -0.423 OA
ENDROOT
BRANCH   3  12
ATOM     12  O   UNL     1      -8.372  -4.372  -7.449  1.00  0.00    -0.508 OA
ATOM     13  H   UNL     1      -7.441  -3.973  -7.409  1.00  0.00     0.293 HD
ENDBRANCH   3  12
TORSDOF 1
ENDMDL
