MODEL 1
REMARK VINA RESULT:    -6.880      0.000      0.000
REMARK INTER + INTRA:          -9.790
REMARK INTER:                  -9.093
REMARK INTRA:                  -0.697
REMARK UNBOUND:                -0.697
REMARK SMILES CC[C@@H](C=C[C@H](C)[C@H]1CC[C@@H]2C3=CC[C@@H]4C[C@@H](O)CC[C@@]4(C)[C@H]3CC[C@]21C)C(C)C
REMARK SMILES IDX 6 1 7 2 5 3 4 4 3 5 2 6 1 7 28 8 29 9 30 10 8 11 9 12 26 13
REMARK SMILES IDX 10 14 11 15 25 16 27 17 12 18 24 19 23 20 13 21 21 22 14 23
REMARK SMILES IDX 15 24 20 25 22 26 16 27 19 28 17 29 18 30
REMARK H PARENT 18 31
REMARK Flexibility Score: inf
ROOT
ATOM      1  C   UNL     1     135.226 140.920 139.010  1.00  0.00     0.012 C 
ATOM      2  C   UNL     1     135.971 141.876 138.053  1.00  0.00     0.012 C 
ENDROOT
BRANCH   1   3
ATOM      3  C   UNL     1     134.220 140.060 138.263  1.00  0.00    -0.028 C 
ATOM      4  C   UNL     1     132.905 140.342 138.182  1.00  0.00    -0.027 C 
BRANCH   4   5
ATOM      5  C   UNL     1     131.911 139.493 137.408  1.00  0.00     0.014 C 
BRANCH   5   6
ATOM      6  C   UNL     1     132.132 139.549 135.873  1.00  0.00     0.004 C 
ATOM      7  C   UNL     1     131.826 138.213 135.193  1.00  0.00     0.004 C 
ENDBRANCH   5   6
BRANCH   5   8
ATOM      8  C   UNL     1     130.444 139.779 137.859  1.00  0.00    -0.011 C 
ATOM      9  C   UNL     1     129.722 138.567 138.471  1.00  0.00     0.008 C 
ATOM     10  C   UNL     1     130.366 140.976 138.820  1.00  0.00     0.008 C 
ENDBRANCH   5   8
ENDBRANCH   4   5
ENDBRANCH   1   3
BRANCH   1  11
ATOM     11  C   UNL     1     136.111 140.035 139.959  1.00  0.00     0.002 C 
ATOM     12  C   UNL     1     137.003 138.993 139.222  1.00  0.00     0.005 C 
ATOM     13  C   UNL     1     137.114 140.749 140.931  1.00  0.00    -0.023 C 
ATOM     14  C   UNL     1     138.472 139.391 139.459  1.00  0.00     0.009 C 
ATOM     15  C   UNL     1     138.390 140.775 140.087  1.00  0.00     0.021 C 
ATOM     16  C   UNL     1     136.803 142.213 141.367  1.00  0.00     0.008 C 
ATOM     17  C   UNL     1     137.274 139.837 142.211  1.00  0.00     0.012 C 
ATOM     18  C   UNL     1     139.602 141.331 140.816  1.00  0.00    -0.067 C 
ATOM     19  C   UNL     1     138.049 142.997 141.903  1.00  0.00     0.009 C 
ATOM     20  C   UNL     1     139.345 142.149 142.098  1.00  0.00     0.021 C 
ATOM     21  C   UNL     1     140.763 141.407 140.127  1.00  0.00    -0.027 C 
ATOM     22  C   UNL     1     140.620 142.933 142.627  1.00  0.00    -0.023 C 
ATOM     23  C   UNL     1     141.923 142.260 140.546  1.00  0.00     0.031 C 
ATOM     24  C   UNL     1     141.458 143.438 141.411  1.00  0.00     0.002 C 
ATOM     25  C   UNL     1     140.234 144.163 143.508  1.00  0.00     0.010 C 
ATOM     26  C   UNL     1     141.440 141.939 143.511  1.00  0.00     0.012 C 
ATOM     27  C   UNL     1     142.663 144.317 141.818  1.00  0.00     0.036 C 
ATOM     28  C   UNL     1     141.448 145.006 143.931  1.00  0.00     0.032 C 
ATOM     29  C   UNL     1     142.244 145.495 142.713  1.00  0.00     0.114 C 
BRANCH  29  30
ATOM     30  O   UNL     1     141.471 146.415 141.983  1.00  0.00    -0.393 OA
ATOM     31  H   UNL     1     142.104 146.951 141.438  1.00  0.00     0.210 HD
ENDBRANCH  29  30
ENDBRANCH   1  11
TORSDOF 6
ENDMDL
MODEL 2
REMARK VINA RESULT:    -6.853      4.672      7.523
REMARK INTER + INTRA:          -9.753
REMARK INTER:                  -7.753
REMARK INTRA:                  -2.000
REMARK UNBOUND:                -0.697
REMARK SMILES CC[C@@H](C=C[C@H](C)[C@H]1CC[C@@H]2C3=CC[C@@H]4C[C@@H](O)CC[C@@]4(C)[C@H]3CC[C@]21C)C(C)C
REMARK SMILES IDX 6 1 7 2 5 3 4 4 3 5 2 6 1 7 28 8 29 9 30 10 8 11 9 12 26 13
REMARK SMILES IDX 10 14 11 15 25 16 27 17 12 18 24 19 23 20 13 21 21 22 14 23
REMARK SMILES IDX 15 24 20 25 22 26 16 27 19 28 17 29 18 30
REMARK H PARENT 18 31
REMARK Flexibility Score: inf
ROOT
ATOM      1  C   UNL     1     138.280 140.842 142.101  1.00  0.00     0.012 C 
ATOM      2  C   UNL     1     137.397 140.283 143.238  1.00  0.00     0.012 C 
ENDROOT
BRANCH   1   3
ATOM      3  C   UNL     1     139.287 141.853 142.625  1.00  0.00    -0.028 C 
ATOM      4  C   UNL     1     139.518 143.050 142.050  1.00  0.00    -0.027 C 
BRANCH   4   5
ATOM      5  C   UNL     1     140.503 144.068 142.598  1.00  0.00     0.014 C 
BRANCH   5   6
ATOM      6  C   UNL     1     141.321 144.778 141.486  1.00  0.00     0.004 C 
ATOM      7  C   UNL     1     141.202 144.070 140.135  1.00  0.00     0.004 C 
ENDBRANCH   5   6
BRANCH   5   8
ATOM      8  C   UNL     1     141.369 143.463 143.747  1.00  0.00    -0.011 C 
ATOM      9  C   UNL     1     142.728 142.907 143.291  1.00  0.00     0.008 C 
ATOM     10  C   UNL     1     141.572 144.464 144.896  1.00  0.00     0.008 C 
ENDBRANCH   5   8
ENDBRANCH   4   5
ENDBRANCH   1   3
BRANCH   1  11
ATOM     11  C   UNL     1     138.988 139.792 141.171  1.00  0.00     0.002 C 
ATOM     12  C   UNL     1     139.202 140.271 139.705  1.00  0.00     0.005 C 
ATOM     13  C   UNL     1     140.401 139.253 141.588  1.00  0.00    -0.023 C 
ATOM     14  C   UNL     1     140.721 140.384 139.472  1.00  0.00     0.009 C 
ATOM     15  C   UNL     1     141.327 140.231 140.860  1.00  0.00     0.021 C 
ATOM     16  C   UNL     1     140.782 139.273 143.099  1.00  0.00     0.008 C 
ATOM     17  C   UNL     1     140.539 137.783 141.026  1.00  0.00     0.012 C 
ATOM     18  C   UNL     1     142.803 139.897 140.992  1.00  0.00    -0.067 C 
ATOM     19  C   UNL     1     142.323 139.199 143.369  1.00  0.00     0.009 C 
ATOM     20  C   UNL     1     143.214 138.925 142.116  1.00  0.00     0.021 C 
ATOM     21  C   UNL     1     143.685 140.729 140.393  1.00  0.00    -0.027 C 
ATOM     22  C   UNL     1     144.779 138.861 142.372  1.00  0.00    -0.023 C 
ATOM     23  C   UNL     1     145.145 140.775 140.733  1.00  0.00     0.031 C 
ATOM     24  C   UNL     1     145.395 140.280 142.163  1.00  0.00     0.002 C 
ATOM     25  C   UNL     1     145.123 138.379 143.817  1.00  0.00     0.010 C 
ATOM     26  C   UNL     1     145.371 137.828 141.359  1.00  0.00     0.012 C 
ATOM     27  C   UNL     1     146.902 140.351 142.503  1.00  0.00     0.036 C 
ATOM     28  C   UNL     1     146.628 138.425 144.125  1.00  0.00     0.032 C 
ATOM     29  C   UNL     1     147.201 139.835 143.920  1.00  0.00     0.114 C 
BRANCH  29  30
ATOM     30  O   UNL     1     146.664 140.706 144.884  1.00  0.00    -0.393 OA
ATOM     31  H   UNL     1     145.685 140.744 144.722  1.00  0.00     0.210 HD
ENDBRANCH  29  30
ENDBRANCH   1  11
TORSDOF 6
ENDMDL
MODEL 3
REMARK VINA RESULT:    -6.664      7.446     10.447
REMARK INTER + INTRA:          -9.503
REMARK INTER:                  -8.107
REMARK INTRA:                  -1.397
REMARK UNBOUND:                -0.697
REMARK SMILES CC[C@@H](C=C[C@H](C)[C@H]1CC[C@@H]2C3=CC[C@@H]4C[C@@H](O)CC[C@@]4(C)[C@H]3CC[C@]21C)C(C)C
REMARK SMILES IDX 6 1 7 2 5 3 4 4 3 5 2 6 1 7 28 8 29 9 30 10 8 11 9 12 26 13
REMARK SMILES IDX 10 14 11 15 25 16 27 17 12 18 24 19 23 20 13 21 21 22 14 23
REMARK SMILES IDX 15 24 20 25 22 26 16 27 19 28 17 29 18 30
REMARK H PARENT 18 31
REMARK Flexibility Score: inf
ROOT
ATOM      1  C   UNL     1     142.512 138.958 142.889  1.00  0.00     0.012 C 
ATOM      2  C   UNL     1     143.050 140.385 143.132  1.00  0.00     0.012 C 
ENDROOT
BRANCH   1   3
ATOM      3  C   UNL     1     142.224 138.716 141.417  1.00  0.00    -0.028 C 
ATOM      4  C   UNL     1     142.744 137.695 140.708  1.00  0.00    -0.027 C 
BRANCH   4   5
ATOM      5  C   UNL     1     142.427 137.442 139.244  1.00  0.00     0.014 C 
BRANCH   5   6
ATOM      6  C   UNL     1     141.613 136.141 139.016  1.00  0.00     0.004 C 
ATOM      7  C   UNL     1     141.245 135.448 140.330  1.00  0.00     0.004 C 
ENDBRANCH   5   6
BRANCH   5   8
ATOM      8  C   UNL     1     143.703 137.567 138.354  1.00  0.00    -0.011 C 
ATOM      9  C   UNL     1     143.513 137.092 136.904  1.00  0.00     0.008 C 
ATOM     10  C   UNL     1     144.269 138.996 138.366  1.00  0.00     0.008 C 
ENDBRANCH   5   8
ENDBRANCH   4   5
ENDBRANCH   1   3
BRANCH   1  11
ATOM     11  C   UNL     1     143.351 137.772 143.489  1.00  0.00     0.002 C 
ATOM     12  C   UNL     1     144.534 138.215 144.398  1.00  0.00     0.005 C 
ATOM     13  C   UNL     1     142.611 136.693 144.354  1.00  0.00    -0.023 C 
ATOM     14  C   UNL     1     144.226 137.730 145.827  1.00  0.00     0.009 C 
ATOM     15  C   UNL     1     142.777 137.266 145.763  1.00  0.00     0.021 C 
ATOM     16  C   UNL     1     141.087 136.469 144.110  1.00  0.00     0.008 C 
ATOM     17  C   UNL     1     143.382 135.325 144.179  1.00  0.00     0.012 C 
ATOM     18  C   UNL     1     142.237 136.368 146.863  1.00  0.00    -0.067 C 
ATOM     19  C   UNL     1     140.346 135.774 145.302  1.00  0.00     0.009 C 
ATOM     20  C   UNL     1     141.263 135.246 146.449  1.00  0.00     0.021 C 
ATOM     21  C   UNL     1     142.329 136.817 148.135  1.00  0.00    -0.027 C 
ATOM     22  C   UNL     1     140.525 134.552 147.671  1.00  0.00    -0.023 C 
ATOM     23  C   UNL     1     141.526 136.260 149.272  1.00  0.00     0.031 C 
ATOM     24  C   UNL     1     140.226 135.621 148.769  1.00  0.00     0.002 C 
ATOM     25  C   UNL     1     139.177 133.887 147.247  1.00  0.00     0.010 C 
ATOM     26  C   UNL     1     141.473 133.433 148.209  1.00  0.00     0.012 C 
ATOM     27  C   UNL     1     139.401 135.068 149.955  1.00  0.00     0.036 C 
ATOM     28  C   UNL     1     138.388 133.314 148.435  1.00  0.00     0.032 C 
ATOM     29  C   UNL     1     138.101 134.391 149.491  1.00  0.00     0.114 C 
BRANCH  29  30
ATOM     30  O   UNL     1     137.213 135.344 148.963  1.00  0.00    -0.393 OA
ATOM     31  H   UNL     1     137.363 136.186 149.467  1.00  0.00     0.210 HD
ENDBRANCH  29  30
ENDBRANCH   1  11
TORSDOF 6
ENDMDL
MODEL 4
REMARK VINA RESULT:    -6.606      4.602      6.823
REMARK INTER + INTRA:          -9.427
REMARK INTER:                  -8.378
REMARK INTRA:                  -1.049
REMARK UNBOUND:                -0.697
REMARK SMILES CC[C@@H](C=C[C@H](C)[C@H]1CC[C@@H]2C3=CC[C@@H]4C[C@@H](O)CC[C@@]4(C)[C@H]3CC[C@]21C)C(C)C
REMARK SMILES IDX 6 1 7 2 5 3 4 4 3 5 2 6 1 7 28 8 29 9 30 10 8 11 9 12 26 13
REMARK SMILES IDX 10 14 11 15 25 16 27 17 12 18 24 19 23 20 13 21 21 22 14 23
REMARK SMILES IDX 15 24 20 25 22 26 16 27 19 28 17 29 18 30
REMARK H PARENT 18 31
REMARK Flexibility Score: inf
ROOT
ATOM      1  C   UNL     1     138.562 144.195 140.129  1.00  0.00     0.012 C 
ATOM      2  C   UNL     1     137.471 143.344 139.442  1.00  0.00     0.012 C 
ENDROOT
BRANCH   1   3
ATOM      3  C   UNL     1     138.248 145.680 140.038  1.00  0.00    -0.028 C 
ATOM      4  C   UNL     1     137.303 146.199 139.230  1.00  0.00    -0.027 C 
BRANCH   4   5
ATOM      5  C   UNL     1     136.973 147.681 139.168  1.00  0.00     0.014 C 
BRANCH   5   6
ATOM      6  C   UNL     1     137.078 148.383 140.547  1.00  0.00     0.004 C 
ATOM      7  C   UNL     1     135.771 148.306 141.339  1.00  0.00     0.004 C 
ENDBRANCH   5   6
BRANCH   5   8
ATOM      8  C   UNL     1     135.630 147.935 138.415  1.00  0.00    -0.011 C 
ATOM      9  C   UNL     1     135.551 149.296 137.703  1.00  0.00     0.008 C 
ATOM     10  C   UNL     1     135.309 146.807 137.422  1.00  0.00     0.008 C 
ENDBRANCH   5   8
ENDBRANCH   4   5
ENDBRANCH   1   3
BRANCH   1  11
ATOM     11  C   UNL     1     138.946 143.803 141.601  1.00  0.00     0.002 C 
ATOM     12  C   UNL     1     137.838 143.028 142.371  1.00  0.00     0.005 C 
ATOM     13  C   UNL     1     140.229 142.931 141.833  1.00  0.00    -0.023 C 
ATOM     14  C   UNL     1     138.373 141.611 142.651  1.00  0.00     0.009 C 
ATOM     15  C   UNL     1     139.643 141.517 141.817  1.00  0.00     0.021 C 
ATOM     16  C   UNL     1     141.364 142.986 140.766  1.00  0.00     0.008 C 
ATOM     17  C   UNL     1     140.816 143.308 143.251  1.00  0.00     0.012 C 
ATOM     18  C   UNL     1     140.654 140.426 142.126  1.00  0.00    -0.067 C 
ATOM     19  C   UNL     1     142.339 141.762 140.807  1.00  0.00     0.009 C 
ATOM     20  C   UNL     1     142.148 140.790 142.013  1.00  0.00     0.021 C 
ATOM     21  C   UNL     1     140.214 139.147 142.109  1.00  0.00    -0.027 C 
ATOM     22  C   UNL     1     143.121 139.536 142.061  1.00  0.00    -0.023 C 
ATOM     23  C   UNL     1     141.123 137.958 142.009  1.00  0.00     0.031 C 
ATOM     24  C   UNL     1     142.448 138.331 141.331  1.00  0.00     0.002 C 
ATOM     25  C   UNL     1     144.494 139.826 141.376  1.00  0.00     0.010 C 
ATOM     26  C   UNL     1     143.386 139.214 143.567  1.00  0.00     0.012 C 
ATOM     27  C   UNL     1     143.365 137.091 141.220  1.00  0.00     0.036 C 
ATOM     28  C   UNL     1     145.405 138.590 141.304  1.00  0.00     0.032 C 
ATOM     29  C   UNL     1     144.718 137.428 140.573  1.00  0.00     0.114 C 
BRANCH  29  30
ATOM     30  O   UNL     1     144.545 137.761 139.218  1.00  0.00    -0.393 OA
ATOM     31  H   UNL     1     145.333 138.304 138.953  1.00  0.00     0.210 HD
ENDBRANCH  29  30
ENDBRANCH   1  11
TORSDOF 6
ENDMDL
MODEL 5
REMARK VINA RESULT:    -6.588      4.329      6.854
REMARK INTER + INTRA:          -9.403
REMARK INTER:                  -7.581
REMARK INTRA:                  -1.821
REMARK UNBOUND:                -0.697
REMARK SMILES CC[C@@H](C=C[C@H](C)[C@H]1CC[C@@H]2C3=CC[C@@H]4C[C@@H](O)CC[C@@]4(C)[C@H]3CC[C@]21C)C(C)C
REMARK SMILES IDX 6 1 7 2 5 3 4 4 3 5 2 6 1 7 28 8 29 9 30 10 8 11 9 12 26 13
REMARK SMILES IDX 10 14 11 15 25 16 27 17 12 18 24 19 23 20 13 21 21 22 14 23
REMARK SMILES IDX 15 24 20 25 22 26 16 27 19 28 17 29 18 30
REMARK H PARENT 18 31
REMARK Flexibility Score: inf
ROOT
ATOM      1  C   UNL     1     138.632 143.735 142.204  1.00  0.00     0.012 C 
ATOM      2  C   UNL     1     137.853 144.154 140.939  1.00  0.00     0.012 C 
ENDROOT
BRANCH   1   3
ATOM      3  C   UNL     1     138.398 142.271 142.542  1.00  0.00    -0.028 C 
ATOM      4  C   UNL     1     137.544 141.473 141.872  1.00  0.00    -0.027 C 
BRANCH   4   5
ATOM      5  C   UNL     1     137.339 140.003 142.196  1.00  0.00     0.014 C 
BRANCH   5   6
ATOM      6  C   UNL     1     137.559 139.677 143.696  1.00  0.00     0.004 C 
ATOM      7  C   UNL     1     136.589 138.611 144.208  1.00  0.00     0.004 C 
ENDBRANCH   5   6
BRANCH   5   8
ATOM      8  C   UNL     1     138.133 139.087 141.213  1.00  0.00    -0.011 C 
ATOM      9  C   UNL     1     138.125 139.568 139.752  1.00  0.00     0.008 C 
ATOM     10  C   UNL     1     139.580 138.866 141.682  1.00  0.00     0.008 C 
ENDBRANCH   5   8
ENDBRANCH   4   5
ENDBRANCH   1   3
BRANCH   1  11
ATOM     11  C   UNL     1     140.167 144.069 142.236  1.00  0.00     0.002 C 
ATOM     12  C   UNL     1     140.815 143.983 143.649  1.00  0.00     0.005 C 
ATOM     13  C   UNL     1     141.137 143.225 141.338  1.00  0.00    -0.023 C 
ATOM     14  C   UNL     1     141.832 142.827 143.622  1.00  0.00     0.009 C 
ATOM     15  C   UNL     1     141.557 142.115 142.305  1.00  0.00     0.021 C 
ATOM     16  C   UNL     1     140.557 142.547 140.060  1.00  0.00     0.008 C 
ATOM     17  C   UNL     1     142.353 144.152 140.942  1.00  0.00     0.012 C 
ATOM     18  C   UNL     1     142.604 141.169 141.740  1.00  0.00    -0.067 C 
ATOM     19  C   UNL     1     141.424 141.361 139.518  1.00  0.00     0.009 C 
ATOM     20  C   UNL     1     142.809 141.168 140.212  1.00  0.00     0.021 C 
ATOM     21  C   UNL     1     143.010 140.148 142.529  1.00  0.00    -0.027 C 
ATOM     22  C   UNL     1     143.694 139.960 139.683  1.00  0.00    -0.023 C 
ATOM     23  C   UNL     1     143.722 138.933 142.012  1.00  0.00     0.031 C 
ATOM     24  C   UNL     1     143.393 138.687 140.534  1.00  0.00     0.002 C 
ATOM     25  C   UNL     1     143.409 139.632 138.183  1.00  0.00     0.010 C 
ATOM     26  C   UNL     1     145.190 140.392 139.812  1.00  0.00     0.012 C 
ATOM     27  C   UNL     1     144.120 137.421 140.024  1.00  0.00     0.036 C 
ATOM     28  C   UNL     1     144.166 138.390 137.684  1.00  0.00     0.032 C 
ATOM     29  C   UNL     1     143.841 137.154 138.536  1.00  0.00     0.114 C 
BRANCH  29  30
ATOM     30  O   UNL     1     142.496 136.791 138.345  1.00  0.00    -0.393 OA
ATOM     31  H   UNL     1     142.300 136.068 138.997  1.00  0.00     0.210 HD
ENDBRANCH  29  30
ENDBRANCH   1  11
TORSDOF 6
ENDMDL
MODEL 6
REMARK VINA RESULT:    -6.586      3.867      8.063
REMARK INTER + INTRA:          -9.401
REMARK INTER:                  -7.711
REMARK INTRA:                  -1.690
REMARK UNBOUND:                -0.697
REMARK SMILES CC[C@@H](C=C[C@H](C)[C@H]1CC[C@@H]2C3=CC[C@@H]4C[C@@H](O)CC[C@@]4(C)[C@H]3CC[C@]21C)C(C)C
REMARK SMILES IDX 6 1 7 2 5 3 4 4 3 5 2 6 1 7 28 8 29 9 30 10 8 11 9 12 26 13
REMARK SMILES IDX 10 14 11 15 25 16 27 17 12 18 24 19 23 20 13 21 21 22 14 23
REMARK SMILES IDX 15 24 20 25 22 26 16 27 19 28 17 29 18 30
REMARK H PARENT 18 31
REMARK Flexibility Score: inf
ROOT
ATOM      1  C   UNL     1     137.866 143.745 141.721  1.00  0.00     0.012 C 
ATOM      2  C   UNL     1     137.285 143.769 143.152  1.00  0.00     0.012 C 
ENDROOT
BRANCH   1   3
ATOM      3  C   UNL     1     139.382 143.863 141.735  1.00  0.00    -0.028 C 
ATOM      4  C   UNL     1     140.158 143.447 142.754  1.00  0.00    -0.027 C 
BRANCH   4   5
ATOM      5  C   UNL     1     141.674 143.539 142.747  1.00  0.00     0.014 C 
BRANCH   5   6
ATOM      6  C   UNL     1     142.366 142.152 142.808  1.00  0.00     0.004 C 
ATOM      7  C   UNL     1     141.487 141.093 143.475  1.00  0.00     0.004 C 
ENDBRANCH   5   6
BRANCH   5   8
ATOM      8  C   UNL     1     142.188 144.563 143.808  1.00  0.00    -0.011 C 
ATOM      9  C   UNL     1     141.245 144.760 145.006  1.00  0.00     0.008 C 
ATOM     10  C   UNL     1     143.599 144.211 144.305  1.00  0.00     0.008 C 
ENDBRANCH   5   8
ENDBRANCH   4   5
ENDBRANCH   1   3
BRANCH   1  11
ATOM     11  C   UNL     1     137.414 142.562 140.791  1.00  0.00     0.002 C 
ATOM     12  C   UNL     1     138.150 142.502 139.421  1.00  0.00     0.005 C 
ATOM     13  C   UNL     1     137.533 141.095 141.333  1.00  0.00    -0.023 C 
ATOM     14  C   UNL     1     138.985 141.208 139.400  1.00  0.00     0.009 C 
ATOM     15  C   UNL     1     138.924 140.698 140.833  1.00  0.00     0.021 C 
ATOM     16  C   UNL     1     137.501 140.872 142.875  1.00  0.00     0.008 C 
ATOM     17  C   UNL     1     136.395 140.238 140.650  1.00  0.00     0.012 C 
ATOM     18  C   UNL     1     139.295 139.253 141.122  1.00  0.00    -0.067 C 
ATOM     19  C   UNL     1     138.108 139.504 143.335  1.00  0.00     0.009 C 
ATOM     20  C   UNL     1     138.466 138.507 142.188  1.00  0.00     0.021 C 
ATOM     21  C   UNL     1     140.519 138.834 140.729  1.00  0.00    -0.027 C 
ATOM     22  C   UNL     1     139.096 137.121 142.637  1.00  0.00    -0.023 C 
ATOM     23  C   UNL     1     141.182 137.598 141.259  1.00  0.00     0.031 C 
ATOM     24  C   UNL     1     140.652 137.240 142.653  1.00  0.00     0.002 C 
ATOM     25  C   UNL     1     138.617 136.688 144.059  1.00  0.00     0.010 C 
ATOM     26  C   UNL     1     138.617 136.042 141.613  1.00  0.00     0.012 C 
ATOM     27  C   UNL     1     141.359 135.975 143.192  1.00  0.00     0.036 C 
ATOM     28  C   UNL     1     139.307 135.410 144.564  1.00  0.00     0.032 C 
ATOM     29  C   UNL     1     140.834 135.564 144.577  1.00  0.00     0.114 C 
BRANCH  29  30
ATOM     30  O   UNL     1     141.204 136.514 145.544  1.00  0.00    -0.393 OA
ATOM     31  H   UNL     1     142.139 136.780 145.342  1.00  0.00     0.210 HD
ENDBRANCH  29  30
ENDBRANCH   1  11
TORSDOF 6
ENDMDL
MODEL 7
REMARK VINA RESULT:    -6.509      4.859     10.664
REMARK INTER + INTRA:          -9.299
REMARK INTER:                  -7.986
REMARK INTRA:                  -1.313
REMARK UNBOUND:                -0.697
REMARK SMILES CC[C@@H](C=C[C@H](C)[C@H]1CC[C@@H]2C3=CC[C@@H]4C[C@@H](O)CC[C@@]4(C)[C@H]3CC[C@]21C)C(C)C
REMARK SMILES IDX 6 1 7 2 5 3 4 4 3 5 2 6 1 7 28 8 29 9 30 10 8 11 9 12 26 13
REMARK SMILES IDX 10 14 11 15 25 16 27 17 12 18 24 19 23 20 13 21 21 22 14 23
REMARK SMILES IDX 15 24 20 25 22 26 16 27 19 28 17 29 18 30
REMARK H PARENT 18 31
REMARK Flexibility Score: inf
ROOT
ATOM      1  C   UNL     1     144.055 137.240 145.638  1.00  0.00     0.012 C 
ATOM      2  C   UNL     1     143.693 136.520 146.955  1.00  0.00     0.012 C 
ENDROOT
BRANCH   1   3
ATOM      3  C   UNL     1     145.559 137.389 145.480  1.00  0.00    -0.028 C 
ATOM      4  C   UNL     1     146.153 138.461 144.920  1.00  0.00    -0.027 C 
BRANCH   4   5
ATOM      5  C   UNL     1     147.659 138.616 144.794  1.00  0.00     0.014 C 
BRANCH   5   6
ATOM      6  C   UNL     1     148.253 139.613 145.823  1.00  0.00     0.004 C 
ATOM      7  C   UNL     1     147.171 140.430 146.532  1.00  0.00     0.004 C 
ENDBRANCH   5   6
BRANCH   5   8
ATOM      8  C   UNL     1     148.082 138.886 143.316  1.00  0.00    -0.011 C 
ATOM      9  C   UNL     1     146.919 138.867 142.310  1.00  0.00     0.008 C 
ATOM     10  C   UNL     1     148.871 140.198 143.178  1.00  0.00     0.008 C 
ENDBRANCH   5   8
ENDBRANCH   4   5
ENDBRANCH   1   3
BRANCH   1  11
ATOM     11  C   UNL     1     143.417 136.670 144.320  1.00  0.00     0.002 C 
ATOM     12  C   UNL     1     142.457 135.464 144.538  1.00  0.00     0.005 C 
ATOM     13  C   UNL     1     142.583 137.639 143.411  1.00  0.00    -0.023 C 
ATOM     14  C   UNL     1     141.042 135.920 144.135  1.00  0.00     0.009 C 
ATOM     15  C   UNL     1     141.169 137.427 143.956  1.00  0.00     0.021 C 
ATOM     16  C   UNL     1     142.893 139.166 143.479  1.00  0.00     0.008 C 
ATOM     17  C   UNL     1     142.721 137.137 141.919  1.00  0.00     0.012 C 
ATOM     18  C   UNL     1     140.092 138.175 143.188  1.00  0.00    -0.067 C 
ATOM     19  C   UNL     1     141.734 140.077 142.951  1.00  0.00     0.009 C 
ATOM     20  C   UNL     1     140.547 139.327 142.269  1.00  0.00     0.021 C 
ATOM     21  C   UNL     1     138.818 138.054 143.624  1.00  0.00    -0.027 C 
ATOM     22  C   UNL     1     139.357 140.236 141.741  1.00  0.00    -0.023 C 
ATOM     23  C   UNL     1     137.716 138.997 143.242  1.00  0.00     0.031 C 
ATOM     24  C   UNL     1     138.275 140.373 142.858  1.00  0.00     0.002 C 
ATOM     25  C   UNL     1     139.839 141.667 141.341  1.00  0.00     0.010 C 
ATOM     26  C   UNL     1     138.776 139.543 140.467  1.00  0.00     0.012 C 
ATOM     27  C   UNL     1     137.126 141.337 142.485  1.00  0.00     0.036 C 
ATOM     28  C   UNL     1     138.686 142.601 140.942  1.00  0.00     0.032 C 
ATOM     29  C   UNL     1     137.645 142.722 142.064  1.00  0.00     0.114 C 
BRANCH  29  30
ATOM     30  O   UNL     1     138.214 143.388 143.164  1.00  0.00    -0.393 OA
ATOM     31  H   UNL     1     138.345 142.708 143.874  1.00  0.00     0.210 HD
ENDBRANCH  29  30
ENDBRANCH   1  11
TORSDOF 6
ENDMDL
MODEL 8
REMARK VINA RESULT:    -6.504      2.722      9.161
REMARK INTER + INTRA:          -9.293
REMARK INTER:                  -8.150
REMARK INTRA:                  -1.143
REMARK UNBOUND:                -0.697
REMARK SMILES CC[C@@H](C=C[C@H](C)[C@H]1CC[C@@H]2C3=CC[C@@H]4C[C@@H](O)CC[C@@]4(C)[C@H]3CC[C@]21C)C(C)C
REMARK SMILES IDX 6 1 7 2 5 3 4 4 3 5 2 6 1 7 28 8 29 9 30 10 8 11 9 12 26 13
REMARK SMILES IDX 10 14 11 15 25 16 27 17 12 18 24 19 23 20 13 21 21 22 14 23
REMARK SMILES IDX 15 24 20 25 22 26 16 27 19 28 17 29 18 30
REMARK H PARENT 18 31
REMARK Flexibility Score: inf
ROOT
ATOM      1  C   UNL     1     137.906 143.077 141.684  1.00  0.00     0.012 C 
ATOM      2  C   UNL     1     137.159 143.731 142.867  1.00  0.00     0.012 C 
ENDROOT
BRANCH   1   3
ATOM      3  C   UNL     1     139.385 143.426 141.699  1.00  0.00    -0.028 C 
ATOM      4  C   UNL     1     140.243 143.020 142.656  1.00  0.00    -0.027 C 
BRANCH   4   5
ATOM      5  C   UNL     1     141.726 143.347 142.647  1.00  0.00     0.014 C 
BRANCH   5   6
ATOM      6  C   UNL     1     142.611 142.162 143.115  1.00  0.00     0.004 C 
ATOM      7  C   UNL     1     141.874 140.823 143.043  1.00  0.00     0.004 C 
ENDBRANCH   5   6
BRANCH   5   8
ATOM      8  C   UNL     1     142.017 144.696 143.377  1.00  0.00    -0.011 C 
ATOM      9  C   UNL     1     141.745 145.948 142.527  1.00  0.00     0.008 C 
ATOM     10  C   UNL     1     141.262 144.797 144.712  1.00  0.00     0.008 C 
ENDBRANCH   5   8
ENDBRANCH   4   5
ENDBRANCH   1   3
BRANCH   1  11
ATOM     11  C   UNL     1     137.707 141.531 141.487  1.00  0.00     0.002 C 
ATOM     12  C   UNL     1     136.594 140.906 142.378  1.00  0.00     0.005 C 
ATOM     13  C   UNL     1     137.367 140.995 140.052  1.00  0.00    -0.023 C 
ATOM     14  C   UNL     1     135.475 140.411 141.443  1.00  0.00     0.009 C 
ATOM     15  C   UNL     1     135.837 140.992 140.083  1.00  0.00     0.021 C 
ATOM     16  C   UNL     1     137.815 141.843 138.823  1.00  0.00     0.008 C 
ATOM     17  C   UNL     1     137.957 139.535 139.932  1.00  0.00     0.012 C 
ATOM     18  C   UNL     1     135.195 140.411 138.834  1.00  0.00    -0.067 C 
ATOM     19  C   UNL     1     137.032 141.519 137.506  1.00  0.00     0.009 C 
ATOM     20  C   UNL     1     136.078 140.285 137.576  1.00  0.00     0.021 C 
ATOM     21  C   UNL     1     133.844 140.393 138.779  1.00  0.00    -0.027 C 
ATOM     22  C   UNL     1     135.267 139.953 136.252  1.00  0.00    -0.023 C 
ATOM     23  C   UNL     1     133.068 140.222 137.507  1.00  0.00     0.031 C 
ATOM     24  C   UNL     1     133.887 140.681 136.294  1.00  0.00     0.002 C 
ATOM     25  C   UNL     1     136.026 140.403 134.965  1.00  0.00     0.010 C 
ATOM     26  C   UNL     1     135.090 138.401 136.196  1.00  0.00     0.012 C 
ATOM     27  C   UNL     1     133.066 140.516 134.995  1.00  0.00     0.036 C 
ATOM     28  C   UNL     1     135.207 140.201 133.679  1.00  0.00     0.032 C 
ATOM     29  C   UNL     1     133.862 140.938 133.749  1.00  0.00     0.114 C 
BRANCH  29  30
ATOM     30  O   UNL     1     134.085 142.326 133.755  1.00  0.00    -0.393 OA
ATOM     31  H   UNL     1     133.300 142.740 134.199  1.00  0.00     0.210 HD
ENDBRANCH  29  30
ENDBRANCH   1  11
TORSDOF 6
ENDMDL
MODEL 9
REMARK VINA RESULT:    -6.483      9.673     13.735
REMARK INTER + INTRA:          -9.264
REMARK INTER:                  -8.253
REMARK INTRA:                  -1.012
REMARK UNBOUND:                -0.697
REMARK SMILES CC[C@@H](C=C[C@H](C)[C@H]1CC[C@@H]2C3=CC[C@@H]4C[C@@H](O)CC[C@@]4(C)[C@H]3CC[C@]21C)C(C)C
REMARK SMILES IDX 6 1 7 2 5 3 4 4 3 5 2 6 1 7 28 8 29 9 30 10 8 11 9 12 26 13
REMARK SMILES IDX 10 14 11 15 25 16 27 17 12 18 24 19 23 20 13 21 21 22 14 23
REMARK SMILES IDX 15 24 20 25 22 26 16 27 19 28 17 29 18 30
REMARK H PARENT 18 31
REMARK Flexibility Score: inf
ROOT
ATOM      1  C   UNL     1     143.025 136.074 146.043  1.00  0.00     0.012 C 
ATOM      2  C   UNL     1     142.175 137.327 145.741  1.00  0.00     0.012 C 
ENDROOT
BRANCH   1   3
ATOM      3  C   UNL     1     144.506 136.342 145.828  1.00  0.00    -0.028 C 
ATOM      4  C   UNL     1     145.001 137.515 145.388  1.00  0.00    -0.027 C 
BRANCH   4   5
ATOM      5  C   UNL     1     146.484 137.785 145.206  1.00  0.00     0.014 C 
BRANCH   5   6
ATOM      6  C   UNL     1     147.195 138.184 146.526  1.00  0.00     0.004 C 
ATOM      7  C   UNL     1     146.493 139.344 147.236  1.00  0.00     0.004 C 
ENDBRANCH   5   6
BRANCH   5   8
ATOM      8  C   UNL     1     146.744 138.759 144.014  1.00  0.00    -0.011 C 
ATOM      9  C   UNL     1     148.211 138.822 143.556  1.00  0.00     0.008 C 
ATOM     10  C   UNL     1     145.835 138.450 142.815  1.00  0.00     0.008 C 
ENDBRANCH   5   8
ENDBRANCH   4   5
ENDBRANCH   1   3
BRANCH   1  11
ATOM     11  C   UNL     1     142.788 135.372 147.429  1.00  0.00     0.002 C 
ATOM     12  C   UNL     1     142.377 136.338 148.578  1.00  0.00     0.005 C 
ATOM     13  C   UNL     1     141.719 134.227 147.516  1.00  0.00    -0.023 C 
ATOM     14  C   UNL     1     140.940 135.976 148.995  1.00  0.00     0.009 C 
ATOM     15  C   UNL     1     140.466 135.010 147.918  1.00  0.00     0.021 C 
ATOM     16  C   UNL     1     141.383 133.430 146.219  1.00  0.00     0.008 C 
ATOM     17  C   UNL     1     142.177 133.227 148.649  1.00  0.00     0.012 C 
ATOM     18  C   UNL     1     139.252 134.138 148.186  1.00  0.00    -0.067 C 
ATOM     19  C   UNL     1     140.007 132.684 146.267  1.00  0.00     0.009 C 
ATOM     20  C   UNL     1     139.285 132.692 147.651  1.00  0.00     0.021 C 
ATOM     21  C   UNL     1     138.101 134.760 148.526  1.00  0.00    -0.027 C 
ATOM     22  C   UNL     1     137.882 131.951 147.711  1.00  0.00    -0.023 C 
ATOM     23  C   UNL     1     136.752 134.110 148.448  1.00  0.00     0.031 C 
ATOM     24  C   UNL     1     136.743 132.977 147.415  1.00  0.00     0.002 C 
ATOM     25  C   UNL     1     137.783 130.787 146.675  1.00  0.00     0.010 C 
ATOM     26  C   UNL     1     137.742 131.343 149.143  1.00  0.00     0.012 C 
ATOM     27  C   UNL     1     135.341 132.330 147.334  1.00  0.00     0.036 C 
ATOM     28  C   UNL     1     136.391 130.135 146.633  1.00  0.00     0.032 C 
ATOM     29  C   UNL     1     135.296 131.167 146.330  1.00  0.00     0.114 C 
BRANCH  29  30
ATOM     30  O   UNL     1     135.450 131.646 145.017  1.00  0.00    -0.393 OA
ATOM     31  H   UNL     1     135.956 132.498 145.080  1.00  0.00     0.210 HD
ENDBRANCH  29  30
ENDBRANCH   1  11
TORSDOF 6
ENDMDL
