MODEL 1
REMARK VINA RESULT:    -4.807      0.000      0.000
REMARK INTER + INTRA:          -5.186
REMARK INTER:                  -5.088
REMARK INTRA:                  -0.098
REMARK UNBOUND:                -0.098
REMARK SMILES C=C(C)[C@H]1CC=C(C)C(=O)C1
REMARK SMILES IDX 8 1 7 2 6 3 5 4 4 5 11 6 9 7 10 8 2 9 1 10 3 11
REMARK H PARENT
REMARK Flexibility Score: inf
ROOT
ATOM      1  C   UNL     1     -24.133  10.173 -27.801  1.00  0.00     0.048 C 
ATOM      2  C   UNL     1     -25.190  11.080 -28.369  1.00  0.00    -0.012 C 
ATOM      3  C   UNL     1     -24.844  12.057 -29.226  1.00  0.00    -0.019 C 
ATOM      4  C   UNL     1     -25.859  13.004 -29.808  1.00  0.00     0.036 C 
ATOM      5  C   UNL     1     -27.221  12.309 -29.998  1.00  0.00     0.025 C 
ATOM      6  C   UNL     1     -27.696  11.692 -28.670  1.00  0.00     0.089 C 
ATOM      7  C   UNL     1     -26.623  10.819 -28.080  1.00  0.00     0.158 C 
ATOM      8  O   UNL     1     -26.952   9.882 -27.305  1.00  0.00    -0.295 OA
ENDROOT
BRANCH   5   9
ATOM      9  C   UNL     1     -28.258  13.266 -30.570  1.00  0.00    -0.077 C 
ATOM     10  C   UNL     1     -29.549  13.149 -30.219  1.00  0.00     0.008 C 
ATOM     11  C   UNL     1     -27.871  14.362 -31.532  1.00  0.00     0.039 C 
ENDBRANCH   5   9
TORSDOF 1
ENDMDL
MODEL 2
REMARK VINA RESULT:    -4.729     10.530     12.294
REMARK INTER + INTRA:          -5.104
REMARK INTER:                  -5.007
REMARK INTRA:                  -0.097
REMARK UNBOUND:                -0.098
REMARK SMILES C=C(C)[C@H]1CC=C(C)C(=O)C1
REMARK SMILES IDX 8 1 7 2 6 3 5 4 4 5 11 6 9 7 10 8 2 9 1 10 3 11
REMARK H PARENT
REMARK Flexibility Score: inf
ROOT
ATOM      1  C   UNL     1     -12.203  14.789 -32.244  1.00  0.00     0.048 C 
ATOM      2  C   UNL     1     -13.522  14.215 -31.803  1.00  0.00    -0.012 C 
ATOM      3  C   UNL     1     -13.867  12.970 -32.174  1.00  0.00    -0.019 C 
ATOM      4  C   UNL     1     -15.182  12.355 -31.777  1.00  0.00     0.036 C 
ATOM      5  C   UNL     1     -15.636  12.861 -30.394  1.00  0.00     0.025 C 
ATOM      6  C   UNL     1     -15.685  14.400 -30.379  1.00  0.00     0.089 C 
ATOM      7  C   UNL     1     -14.382  14.975 -30.860  1.00  0.00     0.158 C 
ATOM      8  O   UNL     1     -14.043  16.128 -30.484  1.00  0.00    -0.295 OA
ENDROOT
BRANCH   5   9
ATOM      9  C   UNL     1     -16.975  12.257 -29.993  1.00  0.00    -0.077 C 
ATOM     10  C   UNL     1     -18.054  12.430 -30.773  1.00  0.00     0.008 C 
ATOM     11  C   UNL     1     -17.126  11.454 -28.725  1.00  0.00     0.039 C 
ENDBRANCH   5   9
TORSDOF 1
ENDMDL
MODEL 3
REMARK VINA RESULT:    -4.723      1.917      2.811
REMARK INTER + INTRA:          -5.097
REMARK INTER:                  -5.000
REMARK INTRA:                  -0.097
REMARK UNBOUND:                -0.098
REMARK SMILES C=C(C)[C@H]1CC=C(C)C(=O)C1
REMARK SMILES IDX 8 1 7 2 6 3 5 4 4 5 11 6 9 7 10 8 2 9 1 10 3 11
REMARK H PARENT
REMARK Flexibility Score: inf
ROOT
ATOM      1  C   UNL     1     -23.313  13.626 -30.430  1.00  0.00     0.048 C 
ATOM      2  C   UNL     1     -24.679  13.102 -30.081  1.00  0.00    -0.012 C 
ATOM      3  C   UNL     1     -25.768  13.847 -30.340  1.00  0.00    -0.019 C 
ATOM      4  C   UNL     1     -27.156  13.379 -29.993  1.00  0.00     0.036 C 
ATOM      5  C   UNL     1     -27.269  11.847 -30.110  1.00  0.00     0.025 C 
ATOM      6  C   UNL     1     -26.193  11.164 -29.247  1.00  0.00     0.089 C 
ATOM      7  C   UNL     1     -24.831  11.717 -29.566  1.00  0.00     0.158 C 
ATOM      8  O   UNL     1     -23.814  11.005 -29.355  1.00  0.00    -0.295 OA
ENDROOT
BRANCH   5   9
ATOM      9  C   UNL     1     -28.666  11.364 -29.743  1.00  0.00    -0.077 C 
ATOM     10  C   UNL     1     -29.323  11.920 -28.713  1.00  0.00     0.008 C 
ATOM     11  C   UNL     1     -29.345  10.262 -30.519  1.00  0.00     0.039 C 
ENDBRANCH   5   9
TORSDOF 1
ENDMDL
MODEL 4
REMARK VINA RESULT:    -4.718      1.545      2.139
REMARK INTER + INTRA:          -5.092
REMARK INTER:                  -4.994
REMARK INTRA:                  -0.098
REMARK UNBOUND:                -0.098
REMARK SMILES C=C(C)[C@H]1CC=C(C)C(=O)C1
REMARK SMILES IDX 8 1 7 2 6 3 5 4 4 5 11 6 9 7 10 8 2 9 1 10 3 11
REMARK H PARENT
REMARK Flexibility Score: inf
ROOT
ATOM      1  C   UNL     1     -23.844   9.900 -27.380  1.00  0.00     0.048 C 
ATOM      2  C   UNL     1     -24.966  10.529 -28.161  1.00  0.00    -0.012 C 
ATOM      3  C   UNL     1     -26.232  10.418 -27.721  1.00  0.00    -0.019 C 
ATOM      4  C   UNL     1     -27.393  11.011 -28.473  1.00  0.00     0.036 C 
ATOM      5  C   UNL     1     -26.980  12.304 -29.201  1.00  0.00     0.025 C 
ATOM      6  C   UNL     1     -25.769  12.039 -30.114  1.00  0.00     0.089 C 
ATOM      7  C   UNL     1     -24.662  11.372 -29.345  1.00  0.00     0.158 C 
ATOM      8  O   UNL     1     -23.473  11.506 -29.738  1.00  0.00    -0.295 OA
ENDROOT
BRANCH   5   9
ATOM      9  C   UNL     1     -28.145  12.901 -29.979  1.00  0.00    -0.077 C 
ATOM     10  C   UNL     1     -29.408  12.605 -29.634  1.00  0.00     0.008 C 
ATOM     11  C   UNL     1     -27.916  13.833 -31.144  1.00  0.00     0.039 C 
ENDBRANCH   5   9
TORSDOF 1
ENDMDL
MODEL 5
REMARK VINA RESULT:    -4.715      9.572     11.475
REMARK INTER + INTRA:          -5.089
REMARK INTER:                  -5.001
REMARK INTRA:                  -0.088
REMARK UNBOUND:                -0.098
REMARK SMILES C=C(C)[C@H]1CC=C(C)C(=O)C1
REMARK SMILES IDX 8 1 7 2 6 3 5 4 4 5 11 6 9 7 10 8 2 9 1 10 3 11
REMARK H PARENT
REMARK Flexibility Score: inf
ROOT
ATOM      1  C   UNL     1     -18.867  11.596 -29.897  1.00  0.00     0.048 C 
ATOM      2  C   UNL     1     -17.572  12.279 -30.244  1.00  0.00    -0.012 C 
ATOM      3  C   UNL     1     -17.416  12.843 -31.454  1.00  0.00    -0.019 C 
ATOM      4  C   UNL     1     -16.135  13.522 -31.859  1.00  0.00     0.036 C 
ATOM      5  C   UNL     1     -15.451  14.183 -30.647  1.00  0.00     0.025 C 
ATOM      6  C   UNL     1     -15.233  13.150 -29.527  1.00  0.00     0.089 C 
ATOM      7  C   UNL     1     -16.518  12.436 -29.209  1.00  0.00     0.158 C 
ATOM      8  O   UNL     1     -16.677  11.938 -28.063  1.00  0.00    -0.295 OA
ENDROOT
BRANCH   5   9
ATOM      9  C   UNL     1     -14.144  14.857 -31.044  1.00  0.00    -0.077 C 
ATOM     10  C   UNL     1     -13.919  16.138 -30.712  1.00  0.00     0.008 C 
ATOM     11  C   UNL     1     -13.078  14.114 -31.810  1.00  0.00     0.039 C 
ENDBRANCH   5   9
TORSDOF 1
ENDMDL
MODEL 6
REMARK VINA RESULT:    -4.708     12.177     14.011
REMARK INTER + INTRA:          -5.081
REMARK INTER:                  -4.984
REMARK INTRA:                  -0.097
REMARK UNBOUND:                -0.098
REMARK SMILES C=C(C)[C@H]1CC=C(C)C(=O)C1
REMARK SMILES IDX 8 1 7 2 6 3 5 4 4 5 11 6 9 7 10 8 2 9 1 10 3 11
REMARK H PARENT
REMARK Flexibility Score: inf
ROOT
ATOM      1  C   UNL     1     -16.253  14.251 -29.648  1.00  0.00     0.048 C 
ATOM      2  C   UNL     1     -15.115  14.242 -30.632  1.00  0.00    -0.012 C 
ATOM      3  C   UNL     1     -14.056  15.048 -30.438  1.00  0.00    -0.019 C 
ATOM      4  C   UNL     1     -12.900  15.093 -31.401  1.00  0.00     0.036 C 
ATOM      5  C   UNL     1     -12.665  13.715 -32.049  1.00  0.00     0.025 C 
ATOM      6  C   UNL     1     -13.958  13.210 -32.715  1.00  0.00     0.089 C 
ATOM      7  C   UNL     1     -15.106  13.259 -31.744  1.00  0.00     0.158 C 
ATOM      8  O   UNL     1     -16.081  12.478 -31.907  1.00  0.00    -0.295 OA
ENDROOT
BRANCH   5   9
ATOM      9  C   UNL     1     -11.508  13.756 -33.039  1.00  0.00    -0.077 C 
ATOM     10  C   UNL     1     -11.296  12.722 -33.869  1.00  0.00     0.008 C 
ATOM     11  C   UNL     1     -10.583  14.944 -33.117  1.00  0.00     0.039 C 
ENDBRANCH   5   9
TORSDOF 1
ENDMDL
MODEL 7
REMARK VINA RESULT:    -4.685      2.338      3.541
REMARK INTER + INTRA:          -5.057
REMARK INTER:                  -4.960
REMARK INTRA:                  -0.098
REMARK UNBOUND:                -0.098
REMARK SMILES C=C(C)[C@H]1CC=C(C)C(=O)C1
REMARK SMILES IDX 8 1 7 2 6 3 5 4 4 5 11 6 9 7 10 8 2 9 1 10 3 11
REMARK H PARENT
REMARK Flexibility Score: inf
ROOT
ATOM      1  C   UNL     1     -29.689  10.021 -30.752  1.00  0.00     0.048 C 
ATOM      2  C   UNL     1     -28.524  10.951 -30.552  1.00  0.00    -0.012 C 
ATOM      3  C   UNL     1     -27.544  11.004 -31.472  1.00  0.00    -0.019 C 
ATOM      4  C   UNL     1     -26.348  11.903 -31.312  1.00  0.00     0.036 C 
ATOM      5  C   UNL     1     -26.721  13.195 -30.561  1.00  0.00     0.025 C 
ATOM      6  C   UNL     1     -27.380  12.858 -29.212  1.00  0.00     0.089 C 
ATOM      7  C   UNL     1     -28.519  11.895 -29.405  1.00  0.00     0.158 C 
ATOM      8  O   UNL     1     -29.453  11.871 -28.561  1.00  0.00    -0.295 OA
ENDROOT
BRANCH   5   9
ATOM      9  C   UNL     1     -25.511  14.103 -30.379  1.00  0.00    -0.077 C 
ATOM     10  C   UNL     1     -24.293  13.571 -30.192  1.00  0.00     0.008 C 
ATOM     11  C   UNL     1     -25.645  15.605 -30.408  1.00  0.00     0.039 C 
ENDBRANCH   5   9
TORSDOF 1
ENDMDL
MODEL 8
REMARK VINA RESULT:    -4.576     10.927     12.595
REMARK INTER + INTRA:          -4.941
REMARK INTER:                  -4.844
REMARK INTRA:                  -0.097
REMARK UNBOUND:                -0.098
REMARK SMILES C=C(C)[C@H]1CC=C(C)C(=O)C1
REMARK SMILES IDX 8 1 7 2 6 3 5 4 4 5 11 6 9 7 10 8 2 9 1 10 3 11
REMARK H PARENT
REMARK Flexibility Score: inf
ROOT
ATOM      1  C   UNL     1     -11.786  14.764 -32.246  1.00  0.00     0.048 C 
ATOM      2  C   UNL     1     -13.018  14.304 -31.515  1.00  0.00    -0.012 C 
ATOM      3  C   UNL     1     -13.945  15.200 -31.135  1.00  0.00    -0.019 C 
ATOM      4  C   UNL     1     -15.186  14.795 -30.385  1.00  0.00     0.036 C 
ATOM      5  C   UNL     1     -15.652  13.388 -30.803  1.00  0.00     0.025 C 
ATOM      6  C   UNL     1     -14.509  12.372 -30.629  1.00  0.00     0.089 C 
ATOM      7  C   UNL     1     -13.265  12.852 -31.323  1.00  0.00     0.158 C 
ATOM      8  O   UNL     1     -12.413  12.008 -31.710  1.00  0.00    -0.295 OA
ENDROOT
BRANCH   5   9
ATOM      9  C   UNL     1     -16.897  12.963 -30.035  1.00  0.00    -0.077 C 
ATOM     10  C   UNL     1     -17.025  13.273 -28.735  1.00  0.00     0.008 C 
ATOM     11  C   UNL     1     -18.010  12.196 -30.705  1.00  0.00     0.039 C 
ENDBRANCH   5   9
TORSDOF 1
ENDMDL
MODEL 9
REMARK VINA RESULT:    -4.571     10.067     12.011
REMARK INTER + INTRA:          -4.936
REMARK INTER:                  -4.840
REMARK INTRA:                  -0.097
REMARK UNBOUND:                -0.098
REMARK SMILES C=C(C)[C@H]1CC=C(C)C(=O)C1
REMARK SMILES IDX 8 1 7 2 6 3 5 4 4 5 11 6 9 7 10 8 2 9 1 10 3 11
REMARK H PARENT
REMARK Flexibility Score: inf
ROOT
ATOM      1  C   UNL     1     -17.232  10.493 -29.150  1.00  0.00     0.048 C 
ATOM      2  C   UNL     1     -16.371  11.662 -29.541  1.00  0.00    -0.012 C 
ATOM      3  C   UNL     1     -15.136  11.786 -29.026  1.00  0.00    -0.019 C 
ATOM      4  C   UNL     1     -14.240  12.946 -29.369  1.00  0.00     0.036 C 
ATOM      5  C   UNL     1     -14.486  13.428 -30.812  1.00  0.00     0.025 C 
ATOM      6  C   UNL     1     -15.975  13.761 -31.018  1.00  0.00     0.089 C 
ATOM      7  C   UNL     1     -16.839  12.608 -30.587  1.00  0.00     0.158 C 
ATOM      8  O   UNL     1     -17.983  12.473 -31.097  1.00  0.00    -0.295 OA
ENDROOT
BRANCH   5   9
ATOM      9  C   UNL     1     -13.597  14.614 -31.162  1.00  0.00    -0.077 C 
ATOM     10  C   UNL     1     -13.877  15.833 -30.675  1.00  0.00     0.008 C 
ATOM     11  C   UNL     1     -12.387  14.454 -32.050  1.00  0.00     0.039 C 
ENDBRANCH   5   9
TORSDOF 1
ENDMDL
