MODEL 1
REMARK VINA RESULT:    -6.391      0.000      0.000
REMARK INTER + INTRA:          -8.030
REMARK INTER:                  -7.699
REMARK INTRA:                  -0.331
REMARK UNBOUND:                -0.331
REMARK SMILES O=c1c(O)c(-c2ccc(O)c(O)c2)oc2cc(O)cc(O)c12
REMARK SMILES IDX 5 1 3 2 2 3 1 4 22 5 20 6 19 7 17 8 16 9 15 10 14 11 6 12
REMARK SMILES IDX 7 13 8 14 9 15 13 16 11 17 10 18 12 20 4 22 21 24 18 26
REMARK H PARENT 10 19 12 21 4 23 21 25 18 27
REMARK Flexibility Score: inf
ROOT
ATOM      1  C   UNL     1      -6.069 -14.186  20.121  1.00  0.00     0.180 A 
ATOM      2  C   UNL     1      -6.283 -13.808  21.461  1.00  0.00     0.208 A 
ATOM      3  C   UNL     1      -7.520 -13.246  21.817  1.00  0.00     0.238 A 
ATOM      4  O   UNL     1      -7.720 -12.895  23.012  1.00  0.00    -0.285 OA
ATOM      5  C   UNL     1      -8.523 -13.091  20.839  1.00  0.00     0.111 A 
ATOM      6  C   UNL     1      -9.796 -12.537  21.116  1.00  0.00     0.134 A 
ATOM      7  C   UNL     1     -10.745 -12.425  20.088  1.00  0.00     0.093 A 
ATOM      8  C   UNL     1     -10.446 -12.854  18.793  1.00  0.00     0.123 A 
ATOM      9  C   UNL     1      -9.190 -13.401  18.513  1.00  0.00     0.094 A 
ATOM     10  C   UNL     1      -8.230 -13.520  19.523  1.00  0.00     0.146 A 
ATOM     11  O   UNL     1      -7.043 -14.039  19.229  1.00  0.00    -0.452 OA
ENDROOT
BRANCH   1  12
ATOM     12  C   UNL     1      -4.786 -14.768  19.664  1.00  0.00     0.025 A 
ATOM     13  C   UNL     1      -4.659 -16.162  19.558  1.00  0.00     0.016 A 
ATOM     14  C   UNL     1      -3.466 -16.733  19.109  1.00  0.00     0.051 A 
ATOM     15  C   UNL     1      -2.387 -15.917  18.745  1.00  0.00     0.157 A 
ATOM     16  C   UNL     1      -3.707 -13.952  19.279  1.00  0.00     0.062 A 
ATOM     17  C   UNL     1      -2.510 -14.524  18.826  1.00  0.00     0.158 A 
BRANCH  15  18
ATOM     18  O   UNL     1      -1.193 -16.481  18.299  1.00  0.00    -0.504 OA
ATOM     19  H   UNL     1      -0.832 -17.340  18.697  1.00  0.00     0.293 HD
ENDBRANCH  15  18
BRANCH  17  20
ATOM     20  O   UNL     1      -1.439 -13.714  18.450  1.00  0.00    -0.504 OA
ATOM     21  H   UNL     1      -0.608 -13.635  19.024  1.00  0.00     0.293 HD
ENDBRANCH  17  20
ENDBRANCH   1  12
BRANCH   2  22
ATOM     22  O   UNL     1      -5.291 -14.019  22.422  1.00  0.00    -0.502 OA
ATOM     23  H   UNL     1      -4.466 -14.577  22.236  1.00  0.00     0.293 HD
ENDBRANCH   2  22
BRANCH   6  24
ATOM     24  O   UNL     1     -10.125 -12.101  22.400  1.00  0.00    -0.507 OA
ATOM     25  H   UNL     1     -11.083 -12.090  22.730  1.00  0.00     0.293 HD
ENDBRANCH   6  24
BRANCH   8  26
ATOM     26  O   UNL     1     -11.406 -12.731  17.792  1.00  0.00    -0.508 OA
ATOM     27  H   UNL     1     -12.218 -12.135  17.907  1.00  0.00     0.293 HD
ENDBRANCH   8  26
TORSDOF 6
ENDMDL
MODEL 2
REMARK VINA RESULT:    -6.302      4.193      5.887
REMARK INTER + INTRA:          -7.922
REMARK INTER:                  -7.769
REMARK INTRA:                  -0.153
REMARK UNBOUND:                -0.331
REMARK SMILES O=c1c(O)c(-c2ccc(O)c(O)c2)oc2cc(O)cc(O)c12
REMARK SMILES IDX 5 1 3 2 2 3 1 4 22 5 20 6 19 7 17 8 16 9 15 10 14 11 6 12
REMARK SMILES IDX 7 13 8 14 9 15 13 16 11 17 10 18 12 20 4 22 21 24 18 26
REMARK H PARENT 10 19 12 21 4 23 21 25 18 27
REMARK Flexibility Score: inf
ROOT
ATOM      1  C   UNL     1      -9.848 -14.884  21.889  1.00  0.00     0.180 A 
ATOM      2  C   UNL     1      -9.795 -16.170  22.461  1.00  0.00     0.208 A 
ATOM      3  C   UNL     1     -10.773 -17.112  22.104  1.00  0.00     0.238 A 
ATOM      4  O   UNL     1     -10.741 -18.264  22.618  1.00  0.00    -0.285 OA
ATOM      5  C   UNL     1     -11.770 -16.762  21.171  1.00  0.00     0.111 A 
ATOM      6  C   UNL     1     -12.788 -17.654  20.755  1.00  0.00     0.134 A 
ATOM      7  C   UNL     1     -13.740 -17.232  19.814  1.00  0.00     0.093 A 
ATOM      8  C   UNL     1     -13.693 -15.942  19.283  1.00  0.00     0.123 A 
ATOM      9  C   UNL     1     -12.690 -15.057  19.690  1.00  0.00     0.094 A 
ATOM     10  C   UNL     1     -11.733 -15.456  20.628  1.00  0.00     0.146 A 
ATOM     11  O   UNL     1     -10.794 -14.595  21.002  1.00  0.00    -0.452 OA
ENDROOT
BRANCH   1  12
ATOM     12  C   UNL     1      -8.864 -13.831  22.230  1.00  0.00     0.025 A 
ATOM     13  C   UNL     1      -7.517 -14.003  21.873  1.00  0.00     0.016 A 
ATOM     14  C   UNL     1      -6.575 -13.015  22.165  1.00  0.00     0.051 A 
ATOM     15  C   UNL     1      -6.969 -11.832  22.804  1.00  0.00     0.157 A 
ATOM     16  C   UNL     1      -9.259 -12.634  22.854  1.00  0.00     0.062 A 
ATOM     17  C   UNL     1      -8.314 -11.639  23.145  1.00  0.00     0.158 A 
BRANCH  15  18
ATOM     18  O   UNL     1      -6.032 -10.843  23.100  1.00  0.00    -0.504 OA
ATOM     19  H   UNL     1      -5.373 -10.949  23.862  1.00  0.00     0.293 HD
ENDBRANCH  15  18
BRANCH  17  20
ATOM     20  O   UNL     1      -8.705 -10.455  23.769  1.00  0.00    -0.504 OA
ATOM     21  H   UNL     1      -9.669 -10.146  23.761  1.00  0.00     0.293 HD
ENDBRANCH  17  20
ENDBRANCH   1  12
BRANCH   2  22
ATOM     22  O   UNL     1      -8.767 -16.508  23.346  1.00  0.00    -0.502 OA
ATOM     23  H   UNL     1      -7.809 -16.632  23.042  1.00  0.00     0.293 HD
ENDBRANCH   2  22
BRANCH   6  24
ATOM     24  O   UNL     1     -12.861 -18.949  21.267  1.00  0.00    -0.507 OA
ATOM     25  H   UNL     1     -12.785 -19.135  22.261  1.00  0.00     0.293 HD
ENDBRANCH   6  24
BRANCH   8  26
ATOM     26  O   UNL     1     -14.650 -15.549  18.350  1.00  0.00    -0.508 OA
ATOM     27  H   UNL     1     -15.641 -15.661  18.529  1.00  0.00     0.293 HD
ENDBRANCH   8  26
TORSDOF 6
ENDMDL
MODEL 3
REMARK VINA RESULT:    -6.201      4.749      5.605
REMARK INTER + INTRA:          -7.800
REMARK INTER:                  -7.511
REMARK INTRA:                  -0.289
REMARK UNBOUND:                -0.331
REMARK SMILES O=c1c(O)c(-c2ccc(O)c(O)c2)oc2cc(O)cc(O)c12
REMARK SMILES IDX 5 1 3 2 2 3 1 4 22 5 20 6 19 7 17 8 16 9 15 10 14 11 6 12
REMARK SMILES IDX 7 13 8 14 9 15 13 16 11 17 10 18 12 20 4 22 21 24 18 26
REMARK H PARENT 10 19 12 21 4 23 21 25 18 27
REMARK Flexibility Score: inf
ROOT
ATOM      1  C   UNL     1      -9.194 -17.691  21.214  1.00  0.00     0.180 A 
ATOM      2  C   UNL     1      -9.229 -17.285  22.562  1.00  0.00     0.208 A 
ATOM      3  C   UNL     1      -9.667 -15.986  22.868  1.00  0.00     0.238 A 
ATOM      4  O   UNL     1      -9.692 -15.607  24.071  1.00  0.00    -0.285 OA
ATOM      5  C   UNL     1     -10.080 -15.127  21.829  1.00  0.00     0.111 A 
ATOM      6  C   UNL     1     -10.538 -13.806  22.052  1.00  0.00     0.134 A 
ATOM      7  C   UNL     1     -10.941 -13.017  20.964  1.00  0.00     0.093 A 
ATOM      8  C   UNL     1     -10.895 -13.520  19.663  1.00  0.00     0.123 A 
ATOM      9  C   UNL     1     -10.443 -14.824  19.436  1.00  0.00     0.094 A 
ATOM     10  C   UNL     1     -10.035 -15.627  20.505  1.00  0.00     0.146 A 
ATOM     11  O   UNL     1      -9.605 -16.860  20.262  1.00  0.00    -0.452 OA
ENDROOT
BRANCH   1  12
ATOM     12  C   UNL     1      -8.727 -19.038  20.811  1.00  0.00     0.025 A 
ATOM     13  C   UNL     1      -7.349 -19.306  20.769  1.00  0.00     0.016 A 
ATOM     14  C   UNL     1      -6.885 -20.574  20.413  1.00  0.00     0.051 A 
ATOM     15  C   UNL     1      -7.792 -21.597  20.109  1.00  0.00     0.157 A 
ATOM     16  C   UNL     1      -9.634 -20.073  20.526  1.00  0.00     0.062 A 
ATOM     17  C   UNL     1      -9.169 -21.348  20.170  1.00  0.00     0.158 A 
BRANCH  15  18
ATOM     18  O   UNL     1      -7.335 -22.864  19.751  1.00  0.00    -0.504 OA
ATOM     19  H   UNL     1      -7.935 -23.679  19.802  1.00  0.00     0.293 HD
ENDBRANCH  15  18
BRANCH  17  20
ATOM     20  O   UNL     1     -10.070 -22.372  19.881  1.00  0.00    -0.504 OA
ATOM     21  H   UNL     1     -10.723 -22.714  20.575  1.00  0.00     0.293 HD
ENDBRANCH  17  20
ENDBRANCH   1  12
BRANCH   2  22
ATOM     22  O   UNL     1      -8.861 -18.172  23.577  1.00  0.00    -0.502 OA
ATOM     23  H   UNL     1      -7.911 -18.503  23.691  1.00  0.00     0.293 HD
ENDBRANCH   2  22
BRANCH   6  24
ATOM     24  O   UNL     1     -10.596 -13.275  23.340  1.00  0.00    -0.507 OA
ATOM     25  H   UNL     1     -10.106 -13.705  24.117  1.00  0.00     0.293 HD
ENDBRANCH   6  24
BRANCH   8  26
ATOM     26  O   UNL     1     -11.302 -12.715  18.601  1.00  0.00    -0.508 OA
ATOM     27  H   UNL     1     -12.160 -12.901  18.095  1.00  0.00     0.293 HD
ENDBRANCH   8  26
TORSDOF 6
ENDMDL
MODEL 4
REMARK VINA RESULT:    -6.136      5.350      7.836
REMARK INTER + INTRA:          -7.722
REMARK INTER:                  -7.399
REMARK INTRA:                  -0.323
REMARK UNBOUND:                -0.331
REMARK SMILES O=c1c(O)c(-c2ccc(O)c(O)c2)oc2cc(O)cc(O)c12
REMARK SMILES IDX 5 1 3 2 2 3 1 4 22 5 20 6 19 7 17 8 16 9 15 10 14 11 6 12
REMARK SMILES IDX 7 13 8 14 9 15 13 16 11 17 10 18 12 20 4 22 21 24 18 26
REMARK H PARENT 10 19 12 21 4 23 21 25 18 27
REMARK Flexibility Score: inf
ROOT
ATOM      1  C   UNL     1     -11.576 -16.838  21.402  1.00  0.00     0.180 A 
ATOM      2  C   UNL     1     -10.507 -16.896  22.317  1.00  0.00     0.208 A 
ATOM      3  C   UNL     1      -9.721 -15.749  22.514  1.00  0.00     0.238 A 
ATOM      4  O   UNL     1      -8.755 -15.792  23.324  1.00  0.00    -0.285 OA
ATOM      5  C   UNL     1     -10.027 -14.565  21.814  1.00  0.00     0.111 A 
ATOM      6  C   UNL     1      -9.287 -13.366  21.958  1.00  0.00     0.134 A 
ATOM      7  C   UNL     1      -9.662 -12.226  21.231  1.00  0.00     0.093 A 
ATOM      8  C   UNL     1     -10.757 -12.261  20.365  1.00  0.00     0.123 A 
ATOM      9  C   UNL     1     -11.490 -13.442  20.218  1.00  0.00     0.094 A 
ATOM     10  C   UNL     1     -11.134 -14.589  20.932  1.00  0.00     0.146 A 
ATOM     11  O   UNL     1     -11.844 -15.700  20.770  1.00  0.00    -0.452 OA
ENDROOT
BRANCH   1  12
ATOM     12  C   UNL     1     -12.438 -18.010  21.126  1.00  0.00     0.025 A 
ATOM     13  C   UNL     1     -12.087 -18.897  20.095  1.00  0.00     0.016 A 
ATOM     14  C   UNL     1     -12.873 -20.022  19.830  1.00  0.00     0.051 A 
ATOM     15  C   UNL     1     -14.012 -20.283  20.602  1.00  0.00     0.157 A 
ATOM     16  C   UNL     1     -13.571 -18.288  21.911  1.00  0.00     0.062 A 
ATOM     17  C   UNL     1     -14.360 -19.417  21.647  1.00  0.00     0.158 A 
BRANCH  15  18
ATOM     18  O   UNL     1     -14.801 -21.402  20.340  1.00  0.00    -0.504 OA
ATOM     19  H   UNL     1     -14.390 -22.295  20.093  1.00  0.00     0.293 HD
ENDBRANCH  15  18
BRANCH  17  20
ATOM     20  O   UNL     1     -15.486 -19.688  22.422  1.00  0.00    -0.504 OA
ATOM     21  H   UNL     1     -15.761 -19.084  23.187  1.00  0.00     0.293 HD
ENDBRANCH  17  20
ENDBRANCH   1  12
BRANCH   2  22
ATOM     22  O   UNL     1     -10.256 -18.067  23.037  1.00  0.00    -0.502 OA
ATOM     23  H   UNL     1     -10.998 -18.633  23.429  1.00  0.00     0.293 HD
ENDBRANCH   2  22
BRANCH   6  24
ATOM     24  O   UNL     1      -8.189 -13.300  22.815  1.00  0.00    -0.507 OA
ATOM     25  H   UNL     1      -7.942 -12.444  23.300  1.00  0.00     0.293 HD
ENDBRANCH   6  24
BRANCH   8  26
ATOM     26  O   UNL     1     -11.107 -11.114  19.656  1.00  0.00    -0.508 OA
ATOM     27  H   UNL     1     -11.949 -10.594  19.874  1.00  0.00     0.293 HD
ENDBRANCH   8  26
TORSDOF 6
ENDMDL
MODEL 5
REMARK VINA RESULT:    -6.076      8.359     11.510
REMARK INTER + INTRA:          -7.650
REMARK INTER:                  -7.532
REMARK INTRA:                  -0.117
REMARK UNBOUND:                -0.331
REMARK SMILES O=c1c(O)c(-c2ccc(O)c(O)c2)oc2cc(O)cc(O)c12
REMARK SMILES IDX 5 1 3 2 2 3 1 4 22 5 20 6 19 7 17 8 16 9 15 10 14 11 6 12
REMARK SMILES IDX 7 13 8 14 9 15 13 16 11 17 10 18 12 20 4 22 21 24 18 26
REMARK H PARENT 10 19 12 21 4 23 21 25 18 27
REMARK Flexibility Score: inf
ROOT
ATOM      1  C   UNL     1     -15.741 -17.300  18.637  1.00  0.00     0.180 A 
ATOM      2  C   UNL     1     -14.647 -16.481  18.978  1.00  0.00     0.208 A 
ATOM      3  C   UNL     1     -13.837 -16.850  20.064  1.00  0.00     0.238 A 
ATOM      4  O   UNL     1     -12.861 -16.119  20.385  1.00  0.00    -0.285 OA
ATOM      5  C   UNL     1     -14.120 -18.035  20.774  1.00  0.00     0.111 A 
ATOM      6  C   UNL     1     -13.351 -18.478  21.877  1.00  0.00     0.134 A 
ATOM      7  C   UNL     1     -13.692 -19.675  22.526  1.00  0.00     0.093 A 
ATOM      8  C   UNL     1     -14.783 -20.433  22.095  1.00  0.00     0.123 A 
ATOM      9  C   UNL     1     -15.546 -20.000  21.007  1.00  0.00     0.094 A 
ATOM     10  C   UNL     1     -15.224 -18.810  20.348  1.00  0.00     0.146 A 
ATOM     11  O   UNL     1     -15.968 -18.418  19.319  1.00  0.00    -0.452 OA
ENDROOT
BRANCH   1  12
ATOM     12  C   UNL     1     -16.652 -16.968  17.517  1.00  0.00     0.025 A 
ATOM     13  C   UNL     1     -18.005 -16.705  17.783  1.00  0.00     0.016 A 
ATOM     14  C   UNL     1     -18.879 -16.369  16.746  1.00  0.00     0.051 A 
ATOM     15  C   UNL     1     -18.408 -16.276  15.430  1.00  0.00     0.157 A 
ATOM     16  C   UNL     1     -16.179 -16.854  16.197  1.00  0.00     0.062 A 
ATOM     17  C   UNL     1     -17.055 -16.515  15.156  1.00  0.00     0.158 A 
BRANCH  15  18
ATOM     18  O   UNL     1     -19.275 -15.944  14.391  1.00  0.00    -0.504 OA
ATOM     19  H   UNL     1     -19.831 -16.648  13.919  1.00  0.00     0.293 HD
ENDBRANCH  15  18
BRANCH  17  20
ATOM     20  O   UNL     1     -16.587 -16.408  13.847  1.00  0.00    -0.504 OA
ATOM     21  H   UNL     1     -17.051 -15.819  13.165  1.00  0.00     0.293 HD
ENDBRANCH  17  20
ENDBRANCH   1  12
BRANCH   2  22
ATOM     22  O   UNL     1     -14.359 -15.339  18.227  1.00  0.00    -0.502 OA
ATOM     23  H   UNL     1     -14.055 -15.386  17.262  1.00  0.00     0.293 HD
ENDBRANCH   2  22
BRANCH   6  24
ATOM     24  O   UNL     1     -12.256 -17.743  22.331  1.00  0.00    -0.507 OA
ATOM     25  H   UNL     1     -12.363 -16.973  22.981  1.00  0.00     0.293 HD
ENDBRANCH   6  24
BRANCH   8  26
ATOM     26  O   UNL     1     -15.099 -21.617  22.757  1.00  0.00    -0.508 OA
ATOM     27  H   UNL     1     -15.884 -21.674  23.395  1.00  0.00     0.293 HD
ENDBRANCH   8  26
TORSDOF 6
ENDMDL
MODEL 6
REMARK VINA RESULT:    -6.073      5.813      8.252
REMARK INTER + INTRA:          -7.647
REMARK INTER:                  -7.472
REMARK INTRA:                  -0.175
REMARK UNBOUND:                -0.331
REMARK SMILES O=c1c(O)c(-c2ccc(O)c(O)c2)oc2cc(O)cc(O)c12
REMARK SMILES IDX 5 1 3 2 2 3 1 4 22 5 20 6 19 7 17 8 16 9 15 10 14 11 6 12
REMARK SMILES IDX 7 13 8 14 9 15 13 16 11 17 10 18 12 20 4 22 21 24 18 26
REMARK H PARENT 10 19 12 21 4 23 21 25 18 27
REMARK Flexibility Score: inf
ROOT
ATOM      1  C   UNL     1     -12.604 -16.283  20.407  1.00  0.00     0.180 A 
ATOM      2  C   UNL     1     -13.601 -15.969  19.463  1.00  0.00     0.208 A 
ATOM      3  C   UNL     1     -14.718 -16.814  19.350  1.00  0.00     0.238 A 
ATOM      4  O   UNL     1     -15.613 -16.549  18.501  1.00  0.00    -0.285 OA
ATOM      5  C   UNL     1     -14.828 -17.940  20.192  1.00  0.00     0.111 A 
ATOM      6  C   UNL     1     -15.921 -18.838  20.144  1.00  0.00     0.134 A 
ATOM      7  C   UNL     1     -15.962 -19.932  21.022  1.00  0.00     0.093 A 
ATOM      8  C   UNL     1     -14.934 -20.144  21.944  1.00  0.00     0.123 A 
ATOM      9  C   UNL     1     -13.852 -19.260  21.995  1.00  0.00     0.094 A 
ATOM     10  C   UNL     1     -13.791 -18.166  21.128  1.00  0.00     0.146 A 
ATOM     11  O   UNL     1     -12.749 -17.344  21.193  1.00  0.00    -0.452 OA
ENDROOT
BRANCH   1  12
ATOM     12  C   UNL     1     -11.390 -15.452  20.572  1.00  0.00     0.025 A 
ATOM     13  C   UNL     1     -10.141 -15.971  20.192  1.00  0.00     0.016 A 
ATOM     14  C   UNL     1      -8.985 -15.198  20.318  1.00  0.00     0.051 A 
ATOM     15  C   UNL     1      -9.062 -13.889  20.811  1.00  0.00     0.157 A 
ATOM     16  C   UNL     1     -11.465 -14.130  21.046  1.00  0.00     0.062 A 
ATOM     17  C   UNL     1     -10.305 -13.353  21.171  1.00  0.00     0.158 A 
BRANCH  15  18
ATOM     18  O   UNL     1      -7.910 -13.114  20.941  1.00  0.00    -0.504 OA
ATOM     19  H   UNL     1      -7.594 -12.505  20.196  1.00  0.00     0.293 HD
ENDBRANCH  15  18
BRANCH  17  20
ATOM     20  O   UNL     1     -10.379 -12.045  21.648  1.00  0.00    -0.504 OA
ATOM     21  H   UNL     1     -10.626 -11.844  22.609  1.00  0.00     0.293 HD
ENDBRANCH  17  20
ENDBRANCH   1  12
BRANCH   2  22
ATOM     22  O   UNL     1     -13.493 -14.820  18.676  1.00  0.00    -0.502 OA
ATOM     23  H   UNL     1     -14.280 -14.206  18.501  1.00  0.00     0.293 HD
ENDBRANCH   2  22
BRANCH   6  24
ATOM     24  O   UNL     1     -16.963 -18.653  19.235  1.00  0.00    -0.507 OA
ATOM     25  H   UNL     1     -17.622 -17.888  19.329  1.00  0.00     0.293 HD
ENDBRANCH   6  24
BRANCH   8  26
ATOM     26  O   UNL     1     -15.000 -21.237  22.805  1.00  0.00    -0.508 OA
ATOM     27  H   UNL     1     -15.585 -21.224  23.632  1.00  0.00     0.293 HD
ENDBRANCH   8  26
TORSDOF 6
ENDMDL
MODEL 7
REMARK VINA RESULT:    -6.060      1.920      7.017
REMARK INTER + INTRA:          -7.630
REMARK INTER:                  -7.517
REMARK INTRA:                  -0.113
REMARK UNBOUND:                -0.331
REMARK SMILES O=c1c(O)c(-c2ccc(O)c(O)c2)oc2cc(O)cc(O)c12
REMARK SMILES IDX 5 1 3 2 2 3 1 4 22 5 20 6 19 7 17 8 16 9 15 10 14 11 6 12
REMARK SMILES IDX 7 13 8 14 9 15 13 16 11 17 10 18 12 20 4 22 21 24 18 26
REMARK H PARENT 10 19 12 21 4 23 21 25 18 27
REMARK Flexibility Score: inf
ROOT
ATOM      1  C   UNL     1      -7.159 -14.210  19.480  1.00  0.00     0.180 A 
ATOM      2  C   UNL     1      -7.259 -13.827  18.128  1.00  0.00     0.208 A 
ATOM      3  C   UNL     1      -6.275 -14.264  17.226  1.00  0.00     0.238 A 
ATOM      4  O   UNL     1      -6.348 -13.919  16.015  1.00  0.00    -0.285 OA
ATOM      5  C   UNL     1      -5.227 -15.089  17.683  1.00  0.00     0.111 A 
ATOM      6  C   UNL     1      -4.200 -15.575  16.838  1.00  0.00     0.134 A 
ATOM      7  C   UNL     1      -3.196 -16.399  17.368  1.00  0.00     0.093 A 
ATOM      8  C   UNL     1      -3.199 -16.746  18.721  1.00  0.00     0.123 A 
ATOM      9  C   UNL     1      -4.210 -16.269  19.560  1.00  0.00     0.094 A 
ATOM     10  C   UNL     1      -5.219 -15.445  19.052  1.00  0.00     0.146 A 
ATOM     11  O   UNL     1      -6.166 -15.001  19.872  1.00  0.00    -0.452 OA
ENDROOT
BRANCH   1  12
ATOM     12  C   UNL     1      -8.147 -13.774  20.494  1.00  0.00     0.025 A 
ATOM     13  C   UNL     1      -9.490 -14.160  20.361  1.00  0.00     0.016 A 
ATOM     14  C   UNL     1     -10.435 -13.779  21.316  1.00  0.00     0.051 A 
ATOM     15  C   UNL     1     -10.047 -13.019  22.428  1.00  0.00     0.157 A 
ATOM     16  C   UNL     1      -7.758 -13.029  21.622  1.00  0.00     0.062 A 
ATOM     17  C   UNL     1      -8.705 -12.647  22.583  1.00  0.00     0.158 A 
BRANCH  15  18
ATOM     18  O   UNL     1     -10.986 -12.633  23.383  1.00  0.00    -0.504 OA
ATOM     19  H   UNL     1     -10.787 -11.905  24.058  1.00  0.00     0.293 HD
ENDBRANCH  15  18
BRANCH  17  20
ATOM     20  O   UNL     1      -8.320 -11.903  23.697  1.00  0.00    -0.504 OA
ATOM     21  H   UNL     1      -8.853 -11.100  24.008  1.00  0.00     0.293 HD
ENDBRANCH  17  20
ENDBRANCH   1  12
BRANCH   2  22
ATOM     22  O   UNL     1      -8.335 -13.050  17.691  1.00  0.00    -0.502 OA
ATOM     23  H   UNL     1      -8.895 -12.494  18.325  1.00  0.00     0.293 HD
ENDBRANCH   2  22
BRANCH   6  24
ATOM     24  O   UNL     1      -4.170 -15.247  15.483  1.00  0.00    -0.507 OA
ATOM     25  H   UNL     1      -4.481 -14.342  15.147  1.00  0.00     0.293 HD
ENDBRANCH   6  24
BRANCH   8  26
ATOM     26  O   UNL     1      -2.190 -17.567  19.221  1.00  0.00    -0.508 OA
ATOM     27  H   UNL     1      -1.803 -18.324  18.670  1.00  0.00     0.293 HD
ENDBRANCH   8  26
TORSDOF 6
ENDMDL
MODEL 8
REMARK VINA RESULT:    -6.057      4.112      6.654
REMARK INTER + INTRA:          -7.626
REMARK INTER:                  -7.367
REMARK INTRA:                  -0.259
REMARK UNBOUND:                -0.331
REMARK SMILES O=c1c(O)c(-c2ccc(O)c(O)c2)oc2cc(O)cc(O)c12
REMARK SMILES IDX 5 1 3 2 2 3 1 4 22 5 20 6 19 7 17 8 16 9 15 10 14 11 6 12
REMARK SMILES IDX 7 13 8 14 9 15 13 16 11 17 10 18 12 20 4 22 21 24 18 26
REMARK H PARENT 10 19 12 21 4 23 21 25 18 27
REMARK Flexibility Score: inf
ROOT
ATOM      1  C   UNL     1     -10.928 -14.768  20.877  1.00  0.00     0.180 A 
ATOM      2  C   UNL     1     -11.749 -14.188  19.890  1.00  0.00     0.208 A 
ATOM      3  C   UNL     1     -12.874 -14.899  19.441  1.00  0.00     0.238 A 
ATOM      4  O   UNL     1     -13.611 -14.395  18.550  1.00  0.00    -0.285 OA
ATOM      5  C   UNL     1     -13.169 -16.160  19.998  1.00  0.00     0.111 A 
ATOM      6  C   UNL     1     -14.285 -16.938  19.603  1.00  0.00     0.134 A 
ATOM      7  C   UNL     1     -14.515 -18.181  20.213  1.00  0.00     0.093 A 
ATOM      8  C   UNL     1     -13.656 -18.659  21.204  1.00  0.00     0.123 A 
ATOM      9  C   UNL     1     -12.553 -17.895  21.597  1.00  0.00     0.094 A 
ATOM     10  C   UNL     1     -12.304 -16.655  21.002  1.00  0.00     0.146 A 
ATOM     11  O   UNL     1     -11.246 -15.952  21.389  1.00  0.00    -0.452 OA
ENDROOT
BRANCH   1  12
ATOM     12  C   UNL     1      -9.714 -14.089  21.387  1.00  0.00     0.025 A 
ATOM     13  C   UNL     1      -8.451 -14.505  20.938  1.00  0.00     0.016 A 
ATOM     14  C   UNL     1      -7.293 -13.866  21.389  1.00  0.00     0.051 A 
ATOM     15  C   UNL     1      -7.384 -12.791  22.283  1.00  0.00     0.157 A 
ATOM     16  C   UNL     1      -9.802 -12.996  22.269  1.00  0.00     0.062 A 
ATOM     17  C   UNL     1      -8.640 -12.353  22.720  1.00  0.00     0.158 A 
BRANCH  15  18
ATOM     18  O   UNL     1      -6.232 -12.151  22.738  1.00  0.00    -0.504 OA
ATOM     19  H   UNL     1      -6.112 -11.149  22.648  1.00  0.00     0.293 HD
ENDBRANCH  15  18
BRANCH  17  20
ATOM     20  O   UNL     1      -8.727 -11.274  23.598  1.00  0.00    -0.504 OA
ATOM     21  H   UNL     1      -9.594 -10.767  23.730  1.00  0.00     0.293 HD
ENDBRANCH  17  20
ENDBRANCH   1  12
BRANCH   2  22
ATOM     22  O   UNL     1     -11.462 -12.915  19.391  1.00  0.00    -0.502 OA
ATOM     23  H   UNL     1     -12.104 -12.137  19.488  1.00  0.00     0.293 HD
ENDBRANCH   2  22
BRANCH   6  24
ATOM     24  O   UNL     1     -15.161 -16.487  18.617  1.00  0.00    -0.507 OA
ATOM     25  H   UNL     1     -16.137 -16.299  18.816  1.00  0.00     0.293 HD
ENDBRANCH   6  24
BRANCH   8  26
ATOM     26  O   UNL     1     -13.909 -19.896  21.793  1.00  0.00    -0.508 OA
ATOM     27  H   UNL     1     -14.843 -20.288  21.819  1.00  0.00     0.293 HD
ENDBRANCH   8  26
TORSDOF 6
ENDMDL
MODEL 9
REMARK VINA RESULT:    -6.041     10.010     13.352
REMARK INTER + INTRA:          -7.607
REMARK INTER:                  -7.720
REMARK INTRA:                   0.112
REMARK UNBOUND:                -0.331
REMARK SMILES O=c1c(O)c(-c2ccc(O)c(O)c2)oc2cc(O)cc(O)c12
REMARK SMILES IDX 5 1 3 2 2 3 1 4 22 5 20 6 19 7 17 8 16 9 15 10 14 11 6 12
REMARK SMILES IDX 7 13 8 14 9 15 13 16 11 17 10 18 12 20 4 22 21 24 18 26
REMARK H PARENT 10 19 12 21 4 23 21 25 18 27
REMARK Flexibility Score: inf
ROOT
ATOM      1  C   UNL     1      -5.814  -9.580  30.619  1.00  0.00     0.180 A 
ATOM      2  C   UNL     1      -5.321  -8.610  31.513  1.00  0.00     0.208 A 
ATOM      3  C   UNL     1      -4.042  -8.786  32.066  1.00  0.00     0.238 A 
ATOM      4  O   UNL     1      -3.594  -7.930  32.876  1.00  0.00    -0.285 OA
ATOM      5  C   UNL     1      -3.274  -9.911  31.702  1.00  0.00     0.111 A 
ATOM      6  C   UNL     1      -1.976 -10.160  32.212  1.00  0.00     0.134 A 
ATOM      7  C   UNL     1      -1.272 -11.299  31.793  1.00  0.00     0.093 A 
ATOM      8  C   UNL     1      -1.837 -12.190  30.879  1.00  0.00     0.123 A 
ATOM      9  C   UNL     1      -3.118 -11.950  30.373  1.00  0.00     0.094 A 
ATOM     10  C   UNL     1      -3.838 -10.822  30.779  1.00  0.00     0.146 A 
ATOM     11  O   UNL     1      -5.056 -10.620  30.287  1.00  0.00    -0.452 OA
ENDROOT
BRANCH   1  12
ATOM     12  C   UNL     1      -7.159  -9.474  30.009  1.00  0.00     0.025 A 
ATOM     13  C   UNL     1      -7.348  -9.881  28.678  1.00  0.00     0.016 A 
ATOM     14  C   UNL     1      -8.612  -9.811  28.088  1.00  0.00     0.051 A 
ATOM     15  C   UNL     1      -9.709  -9.348  28.826  1.00  0.00     0.157 A 
ATOM     16  C   UNL     1      -8.267  -9.030  30.751  1.00  0.00     0.062 A 
ATOM     17  C   UNL     1      -9.538  -8.961  30.161  1.00  0.00     0.158 A 
BRANCH  15  18
ATOM     18  O   UNL     1     -10.973  -9.274  28.241  1.00  0.00    -0.504 OA
ATOM     19  H   UNL     1     -11.314  -8.415  27.824  1.00  0.00     0.293 HD
ENDBRANCH  15  18
BRANCH  17  20
ATOM     20  O   UNL     1     -10.635  -8.514  30.896  1.00  0.00    -0.504 OA
ATOM     21  H   UNL     1     -11.239  -9.159  31.390  1.00  0.00     0.293 HD
ENDBRANCH  17  20
ENDBRANCH   1  12
BRANCH   2  22
ATOM     22  O   UNL     1      -6.082  -7.479  31.818  1.00  0.00    -0.502 OA
ATOM     23  H   UNL     1      -6.307  -7.218  32.771  1.00  0.00     0.293 HD
ENDBRANCH   2  22
BRANCH   6  24
ATOM     24  O   UNL     1      -1.384  -9.288  33.125  1.00  0.00    -0.507 OA
ATOM     25  H   UNL     1      -1.904  -8.898  33.904  1.00  0.00     0.293 HD
ENDBRANCH   6  24
BRANCH   8  26
ATOM     26  O   UNL     1      -1.115 -13.313  30.479  1.00  0.00    -0.508 OA
ATOM     27  H   UNL     1      -1.342 -13.812  29.627  1.00  0.00     0.293 HD
ENDBRANCH   8  26
TORSDOF 6
ENDMDL
