MODEL 1
REMARK VINA RESULT:    -3.745      0.000      0.000
REMARK INTER + INTRA:          -4.439
REMARK INTER:                  -4.401
REMARK INTRA:                  -0.038
REMARK UNBOUND:                -0.038
REMARK SMILES CCCCC(=O)[O-]
REMARK SMILES IDX 4 1 5 2 6 3 7 4 3 5 2 6 1 7
REMARK H PARENT
REMARK Flexibility Score: inf
ROOT
ATOM      1  C   UNL     1     -12.806   9.410   6.624  1.00  0.00     0.053 C 
ENDROOT
BRANCH   1   2
ATOM      2  C   UNL     1     -13.681   8.443   7.357  1.00  0.00     0.041 C 
ATOM      3  O   UNL     1     -13.933   7.314   6.858  1.00  0.00    -0.550 OA
ATOM      4  O   UNL     1     -14.177   8.768   8.612  1.00  0.00    -0.550 OA
ENDBRANCH   1   2
BRANCH   1   5
ATOM      5  C   UNL     1     -12.073  10.324   7.611  1.00  0.00     0.006 C 
BRANCH   5   6
ATOM      6  C   UNL     1     -11.390  11.486   6.880  1.00  0.00    -0.003 C 
ATOM      7  C   UNL     1     -11.332  11.234   5.376  1.00  0.00     0.004 C 
ENDBRANCH   5   6
ENDBRANCH   1   5
TORSDOF 3
ENDMDL
MODEL 2
REMARK VINA RESULT:    -3.614      3.899      4.938
REMARK INTER + INTRA:          -4.286
REMARK INTER:                  -4.270
REMARK INTRA:                  -0.016
REMARK UNBOUND:                -0.038
REMARK SMILES CCCCC(=O)[O-]
REMARK SMILES IDX 4 1 5 2 6 3 7 4 3 5 2 6 1 7
REMARK H PARENT
REMARK Flexibility Score: inf
ROOT
ATOM      1  C   UNL     1     -10.643  11.884   4.349  1.00  0.00     0.053 C 
ENDROOT
BRANCH   1   2
ATOM      2  C   UNL     1     -10.273  11.139   3.105  1.00  0.00     0.041 C 
ATOM      3  O   UNL     1      -9.089  10.743   2.934  1.00  0.00    -0.550 OA
ATOM      4  O   UNL     1     -11.243  10.839   2.160  1.00  0.00    -0.550 OA
ENDBRANCH   1   2
BRANCH   1   5
ATOM      5  C   UNL     1     -11.446  10.984   5.293  1.00  0.00     0.006 C 
BRANCH   5   6
ATOM      6  C   UNL     1     -11.318  11.459   6.746  1.00  0.00    -0.003 C 
ATOM      7  C   UNL     1     -12.099  10.553   7.693  1.00  0.00     0.004 C 
ENDBRANCH   5   6
ENDBRANCH   1   5
TORSDOF 3
ENDMDL
MODEL 3
REMARK VINA RESULT:    -3.573      0.969      1.892
REMARK INTER + INTRA:          -4.237
REMARK INTER:                  -4.145
REMARK INTRA:                  -0.092
REMARK UNBOUND:                -0.038
REMARK SMILES CCCCC(=O)[O-]
REMARK SMILES IDX 4 1 5 2 6 3 7 4 3 5 2 6 1 7
REMARK H PARENT
REMARK Flexibility Score: inf
ROOT
ATOM      1  C   UNL     1     -12.711   9.640   6.412  1.00  0.00     0.053 C 
ENDROOT
BRANCH   1   2
ATOM      2  C   UNL     1     -13.376   8.742   7.407  1.00  0.00     0.041 C 
ATOM      3  O   UNL     1     -13.778   9.204   8.507  1.00  0.00    -0.550 OA
ATOM      4  O   UNL     1     -13.599   7.408   7.097  1.00  0.00    -0.550 OA
ENDBRANCH   1   2
BRANCH   1   5
ATOM      5  C   UNL     1     -12.707  11.087   6.915  1.00  0.00     0.006 C 
BRANCH   5   6
ATOM      6  C   UNL     1     -11.303  11.509   7.366  1.00  0.00    -0.003 C 
ATOM      7  C   UNL     1     -11.335  12.129   8.759  1.00  0.00     0.004 C 
ENDBRANCH   5   6
ENDBRANCH   1   5
TORSDOF 3
ENDMDL
MODEL 4
REMARK VINA RESULT:    -3.556      8.272      8.608
REMARK INTER + INTRA:          -4.217
REMARK INTER:                  -4.169
REMARK INTRA:                  -0.048
REMARK UNBOUND:                -0.038
REMARK SMILES CCCCC(=O)[O-]
REMARK SMILES IDX 4 1 5 2 6 3 7 4 3 5 2 6 1 7
REMARK H PARENT
REMARK Flexibility Score: inf
ROOT
ATOM      1  C   UNL     1      -5.685   7.068   7.914  1.00  0.00     0.053 C 
ENDROOT
BRANCH   1   2
ATOM      2  C   UNL     1      -4.983   5.777   7.634  1.00  0.00     0.041 C 
ATOM      3  O   UNL     1      -3.735   5.758   7.467  1.00  0.00    -0.550 OA
ATOM      4  O   UNL     1      -5.699   4.588   7.609  1.00  0.00    -0.550 OA
ENDBRANCH   1   2
BRANCH   1   5
ATOM      5  C   UNL     1      -4.897   8.245   7.332  1.00  0.00     0.006 C 
BRANCH   5   6
ATOM      6  C   UNL     1      -4.338   9.137   8.447  1.00  0.00    -0.003 C 
ATOM      7  C   UNL     1      -3.572  10.324   7.871  1.00  0.00     0.004 C 
ENDBRANCH   5   6
ENDBRANCH   1   5
TORSDOF 3
ENDMDL
MODEL 5
REMARK VINA RESULT:    -3.545      8.548      9.127
REMARK INTER + INTRA:          -4.205
REMARK INTER:                  -4.184
REMARK INTRA:                  -0.021
REMARK UNBOUND:                -0.038
REMARK SMILES CCCCC(=O)[O-]
REMARK SMILES IDX 4 1 5 2 6 3 7 4 3 5 2 6 1 7
REMARK H PARENT
REMARK Flexibility Score: inf
ROOT
ATOM      1  C   UNL     1      -4.387   8.894   6.864  1.00  0.00     0.053 C 
ENDROOT
BRANCH   1   2
ATOM      2  C   UNL     1      -3.774  10.082   7.535  1.00  0.00     0.041 C 
ATOM      3  O   UNL     1      -3.465  10.030   8.755  1.00  0.00    -0.550 OA
ATOM      4  O   UNL     1      -3.498  11.228   6.803  1.00  0.00    -0.550 OA
ENDBRANCH   1   2
BRANCH   1   5
ATOM      5  C   UNL     1      -5.139   8.031   7.881  1.00  0.00     0.006 C 
BRANCH   5   6
ATOM      6  C   UNL     1      -5.800   6.827   7.199  1.00  0.00    -0.003 C 
ATOM      7  C   UNL     1      -6.432   5.891   8.225  1.00  0.00     0.004 C 
ENDBRANCH   5   6
ENDBRANCH   1   5
TORSDOF 3
ENDMDL
MODEL 6
REMARK VINA RESULT:    -3.537      1.709      2.404
REMARK INTER + INTRA:          -4.196
REMARK INTER:                  -4.175
REMARK INTRA:                  -0.020
REMARK UNBOUND:                -0.038
REMARK SMILES CCCCC(=O)[O-]
REMARK SMILES IDX 4 1 5 2 6 3 7 4 3 5 2 6 1 7
REMARK H PARENT
REMARK Flexibility Score: inf
ROOT
ATOM      1  C   UNL     1     -12.267  10.266   6.227  1.00  0.00     0.053 C 
ENDROOT
BRANCH   1   2
ATOM      2  C   UNL     1     -12.514  10.248   7.702  1.00  0.00     0.041 C 
ATOM      3  O   UNL     1     -13.430   9.528   8.182  1.00  0.00    -0.550 OA
ATOM      4  O   UNL     1     -11.702  10.986   8.552  1.00  0.00    -0.550 OA
ENDBRANCH   1   2
BRANCH   1   5
ATOM      5  C   UNL     1     -11.369  11.447   5.848  1.00  0.00     0.006 C 
BRANCH   5   6
ATOM      6  C   UNL     1     -10.943  11.365   4.377  1.00  0.00    -0.003 C 
ATOM      7  C   UNL     1     -10.022  12.522   4.004  1.00  0.00     0.004 C 
ENDBRANCH   5   6
ENDBRANCH   1   5
TORSDOF 3
ENDMDL
MODEL 7
REMARK VINA RESULT:    -3.507      4.230      5.138
REMARK INTER + INTRA:          -4.160
REMARK INTER:                  -4.143
REMARK INTRA:                  -0.018
REMARK UNBOUND:                -0.038
REMARK SMILES CCCCC(=O)[O-]
REMARK SMILES IDX 4 1 5 2 6 3 7 4 3 5 2 6 1 7
REMARK H PARENT
REMARK Flexibility Score: inf
ROOT
ATOM      1  C   UNL     1     -10.947  11.208   4.373  1.00  0.00     0.053 C 
ENDROOT
BRANCH   1   2
ATOM      2  C   UNL     1     -10.210  12.408   3.871  1.00  0.00     0.041 C 
ATOM      3  O   UNL     1     -10.453  12.867   2.723  1.00  0.00    -0.550 OA
ATOM      4  O   UNL     1      -9.291  13.052   4.688  1.00  0.00    -0.550 OA
ENDBRANCH   1   2
BRANCH   1   5
ATOM      5  C   UNL     1     -11.308  11.380   5.852  1.00  0.00     0.006 C 
BRANCH   5   6
ATOM      6  C   UNL     1     -12.169  10.211   6.347  1.00  0.00    -0.003 C 
ATOM      7  C   UNL     1     -12.298  10.227   7.867  1.00  0.00     0.004 C 
ENDBRANCH   5   6
ENDBRANCH   1   5
TORSDOF 3
ENDMDL
MODEL 8
REMARK VINA RESULT:    -3.415      8.671      8.993
REMARK INTER + INTRA:          -4.052
REMARK INTER:                  -3.983
REMARK INTRA:                  -0.069
REMARK UNBOUND:                -0.038
REMARK SMILES CCCCC(=O)[O-]
REMARK SMILES IDX 4 1 5 2 6 3 7 4 3 5 2 6 1 7
REMARK H PARENT
REMARK Flexibility Score: inf
ROOT
ATOM      1  C   UNL     1      -4.813   8.093   6.664  1.00  0.00     0.053 C 
ENDROOT
BRANCH   1   2
ATOM      2  C   UNL     1      -4.045   6.833   6.424  1.00  0.00     0.041 C 
ATOM      3  O   UNL     1      -3.557   6.595   5.287  1.00  0.00    -0.550 OA
ATOM      4  O   UNL     1      -3.823   5.944   7.467  1.00  0.00    -0.550 OA
ENDBRANCH   1   2
BRANCH   1   5
ATOM      5  C   UNL     1      -4.922   8.377   8.165  1.00  0.00     0.006 C 
BRANCH   5   6
ATOM      6  C   UNL     1      -4.110   9.620   8.549  1.00  0.00    -0.003 C 
ATOM      7  C   UNL     1      -3.702  10.416   7.313  1.00  0.00     0.004 C 
ENDBRANCH   5   6
ENDBRANCH   1   5
TORSDOF 3
ENDMDL
MODEL 9
REMARK VINA RESULT:    -3.283      6.031      7.281
REMARK INTER + INTRA:          -3.896
REMARK INTER:                  -3.845
REMARK INTRA:                  -0.051
REMARK UNBOUND:                -0.038
REMARK SMILES CCCCC(=O)[O-]
REMARK SMILES IDX 4 1 5 2 6 3 7 4 3 5 2 6 1 7
REMARK H PARENT
REMARK Flexibility Score: inf
ROOT
ATOM      1  C   UNL     1      -8.478  13.059   3.289  1.00  0.00     0.053 C 
ENDROOT
BRANCH   1   2
ATOM      2  C   UNL     1      -8.898  14.040   2.241  1.00  0.00     0.041 C 
ATOM      3  O   UNL     1      -9.741  14.935   2.513  1.00  0.00    -0.550 OA
ATOM      4  O   UNL     1      -8.322  13.998   0.979  1.00  0.00    -0.550 OA
ENDBRANCH   1   2
BRANCH   1   5
ATOM      5  C   UNL     1      -9.590  12.873   4.326  1.00  0.00     0.006 C 
BRANCH   5   6
ATOM      6  C   UNL     1     -10.545  11.748   3.912  1.00  0.00    -0.003 C 
ATOM      7  C   UNL     1     -11.264  11.161   5.123  1.00  0.00     0.004 C 
ENDBRANCH   5   6
ENDBRANCH   1   5
TORSDOF 3
ENDMDL
