MODEL 1
REMARK VINA RESULT:    -4.308      0.000      0.000
REMARK INTER + INTRA:          -5.847
REMARK INTER:                  -5.693
REMARK INTRA:                  -0.153
REMARK UNBOUND:                -0.153
REMARK SMILES CCCCCCCO
REMARK SMILES IDX 5 1 4 2 3 3 2 4 1 5 6 6 7 7 8 8
REMARK H PARENT 8 9
REMARK Flexibility Score: inf
ROOT
ATOM      1  C   UNL     1     -31.661 -22.364  28.184  1.00  0.00     0.002 C 
ENDROOT
BRANCH   1   2
ATOM      2  C   UNL     1     -31.389 -21.232  29.190  1.00  0.00     0.000 C 
BRANCH   2   3
ATOM      3  C   UNL     1     -32.549 -20.232  29.295  1.00  0.00    -0.000 C 
BRANCH   3   4
ATOM      4  C   UNL     1     -32.032 -18.820  29.588  1.00  0.00    -0.003 C 
ATOM      5  C   UNL     1     -32.461 -17.838  28.501  1.00  0.00     0.004 C 
ENDBRANCH   3   4
ENDBRANCH   2   3
ENDBRANCH   1   2
BRANCH   1   6
ATOM      6  C   UNL     1     -33.102 -22.423  27.639  1.00  0.00     0.028 C 
BRANCH   6   7
ATOM      7  C   UNL     1     -33.180 -22.722  26.138  1.00  0.00     0.156 C 
BRANCH   7   8
ATOM      8  O   UNL     1     -34.513 -22.898  25.746  1.00  0.00    -0.396 OA
ATOM      9  H   UNL     1     -34.892 -23.585  26.355  1.00  0.00     0.210 HD
ENDBRANCH   7   8
ENDBRANCH   6   7
ENDBRANCH   1   6
TORSDOF 6
ENDMDL
MODEL 2
REMARK VINA RESULT:    -4.280      0.852      1.150
REMARK INTER + INTRA:          -5.810
REMARK INTER:                  -5.675
REMARK INTRA:                  -0.135
REMARK UNBOUND:                -0.153
REMARK SMILES CCCCCCCO
REMARK SMILES IDX 5 1 4 2 3 3 2 4 1 5 6 6 7 7 8 8
REMARK H PARENT 8 9
REMARK Flexibility Score: inf
ROOT
ATOM      1  C   UNL     1     -33.773 -21.677  28.274  1.00  0.00     0.002 C 
ENDROOT
BRANCH   1   2
ATOM      2  C   UNL     1     -33.174 -20.260  28.242  1.00  0.00     0.000 C 
BRANCH   2   3
ATOM      3  C   UNL     1     -32.441 -19.890  29.539  1.00  0.00    -0.000 C 
BRANCH   3   4
ATOM      4  C   UNL     1     -32.129 -18.391  29.584  1.00  0.00    -0.003 C 
ATOM      5  C   UNL     1     -32.505 -17.709  28.272  1.00  0.00     0.004 C 
ENDBRANCH   3   4
ENDBRANCH   2   3
ENDBRANCH   1   2
BRANCH   1   6
ATOM      6  C   UNL     1     -32.934 -22.759  27.565  1.00  0.00     0.028 C 
BRANCH   6   7
ATOM      7  C   UNL     1     -33.120 -22.785  26.044  1.00  0.00     0.156 C 
BRANCH   7   8
ATOM      8  O   UNL     1     -34.479 -22.894  25.723  1.00  0.00    -0.396 OA
ATOM      9  H   UNL     1     -34.969 -22.379  26.415  1.00  0.00     0.210 HD
ENDBRANCH   7   8
ENDBRANCH   6   7
ENDBRANCH   1   6
TORSDOF 6
ENDMDL
MODEL 3
REMARK VINA RESULT:    -3.596      2.037      4.341
REMARK INTER + INTRA:          -4.906
REMARK INTER:                  -4.828
REMARK INTRA:                  -0.078
REMARK UNBOUND:                -0.153
REMARK SMILES CCCCCCCO
REMARK SMILES IDX 5 1 4 2 3 3 2 4 1 5 6 6 7 7 8 8
REMARK H PARENT 8 9
REMARK Flexibility Score: inf
ROOT
ATOM      1  C   UNL     1     -32.741 -19.714  29.685  1.00  0.00     0.002 C 
ENDROOT
BRANCH   1   2
ATOM      2  C   UNL     1     -32.448 -21.030  28.944  1.00  0.00     0.000 C 
BRANCH   2   3
ATOM      3  C   UNL     1     -33.695 -21.633  28.281  1.00  0.00    -0.000 C 
BRANCH   3   4
ATOM      4  C   UNL     1     -33.357 -22.951  27.575  1.00  0.00    -0.003 C 
ATOM      5  C   UNL     1     -33.341 -22.778  26.059  1.00  0.00     0.004 C 
ENDBRANCH   3   4
ENDBRANCH   2   3
ENDBRANCH   1   2
BRANCH   1   6
ATOM      6  C   UNL     1     -31.774 -18.556  29.370  1.00  0.00     0.028 C 
BRANCH   6   7
ATOM      7  C   UNL     1     -32.367 -17.495  28.436  1.00  0.00     0.156 C 
BRANCH   7   8
ATOM      8  O   UNL     1     -33.221 -18.094  27.502  1.00  0.00    -0.396 OA
ATOM      9  H   UNL     1     -33.913 -18.574  28.027  1.00  0.00     0.210 HD
ENDBRANCH   7   8
ENDBRANCH   6   7
ENDBRANCH   1   6
TORSDOF 6
ENDMDL
MODEL 4
REMARK VINA RESULT:    -3.245     10.978     12.631
REMARK INTER + INTRA:          -4.442
REMARK INTER:                  -4.293
REMARK INTRA:                  -0.149
REMARK UNBOUND:                -0.153
REMARK SMILES CCCCCCCO
REMARK SMILES IDX 5 1 4 2 3 3 2 4 1 5 6 6 7 7 8 8
REMARK H PARENT 8 9
REMARK Flexibility Score: inf
ROOT
ATOM      1  C   UNL     1     -22.527 -27.652  26.367  1.00  0.00     0.002 C 
ENDROOT
BRANCH   1   2
ATOM      2  C   UNL     1     -22.989 -28.706  27.388  1.00  0.00     0.000 C 
BRANCH   2   3
ATOM      3  C   UNL     1     -23.799 -29.843  26.751  1.00  0.00    -0.000 C 
BRANCH   3   4
ATOM      4  C   UNL     1     -23.363 -30.081  25.301  1.00  0.00    -0.003 C 
ATOM      5  C   UNL     1     -23.392 -31.567  24.953  1.00  0.00     0.004 C 
ENDBRANCH   3   4
ENDBRANCH   2   3
ENDBRANCH   1   2
BRANCH   1   6
ATOM      6  C   UNL     1     -22.924 -26.200  26.699  1.00  0.00     0.028 C 
BRANCH   6   7
ATOM      7  C   UNL     1     -23.027 -25.293  25.468  1.00  0.00     0.156 C 
BRANCH   7   8
ATOM      8  O   UNL     1     -23.855 -25.878  24.501  1.00  0.00    -0.396 OA
ATOM      9  H   UNL     1     -23.988 -26.820  24.785  1.00  0.00     0.210 HD
ENDBRANCH   7   8
ENDBRANCH   6   7
ENDBRANCH   1   6
TORSDOF 6
ENDMDL
MODEL 5
REMARK VINA RESULT:    -2.938      2.263      4.093
REMARK INTER + INTRA:          -4.036
REMARK INTER:                  -3.673
REMARK INTRA:                  -0.363
REMARK UNBOUND:                -0.153
REMARK SMILES CCCCCCCO
REMARK SMILES IDX 5 1 4 2 3 3 2 4 1 5 6 6 7 7 8 8
REMARK H PARENT 8 9
REMARK Flexibility Score: inf
ROOT
ATOM      1  C   UNL     1     -32.879 -20.417  29.428  1.00  0.00     0.002 C 
ENDROOT
BRANCH   1   2
ATOM      2  C   UNL     1     -33.709 -21.316  28.496  1.00  0.00     0.000 C 
BRANCH   2   3
ATOM      3  C   UNL     1     -33.354 -21.132  27.014  1.00  0.00    -0.000 C 
BRANCH   3   4
ATOM      4  C   UNL     1     -33.296 -22.482  26.292  1.00  0.00    -0.003 C 
ATOM      5  C   UNL     1     -33.474 -23.640  27.271  1.00  0.00     0.004 C 
ENDBRANCH   3   4
ENDBRANCH   2   3
ENDBRANCH   1   2
BRANCH   1   6
ATOM      6  C   UNL     1     -31.364 -20.400  29.144  1.00  0.00     0.028 C 
BRANCH   6   7
ATOM      7  C   UNL     1     -30.646 -21.690  29.554  1.00  0.00     0.156 C 
BRANCH   7   8
ATOM      8  O   UNL     1     -30.427 -22.501  28.433  1.00  0.00    -0.396 OA
ATOM      9  H   UNL     1     -29.879 -23.267  28.749  1.00  0.00     0.210 HD
ENDBRANCH   7   8
ENDBRANCH   6   7
ENDBRANCH   1   6
TORSDOF 6
ENDMDL
MODEL 6
REMARK VINA RESULT:    -2.749     11.401     12.399
REMARK INTER + INTRA:          -3.787
REMARK INTER:                  -3.656
REMARK INTRA:                  -0.131
REMARK UNBOUND:                -0.153
REMARK SMILES CCCCCCCO
REMARK SMILES IDX 5 1 4 2 3 3 2 4 1 5 6 6 7 7 8 8
REMARK H PARENT 8 9
REMARK Flexibility Score: inf
ROOT
ATOM      1  C   UNL     1     -23.391 -29.732  26.684  1.00  0.00     0.002 C 
ENDROOT
BRANCH   1   2
ATOM      2  C   UNL     1     -23.145 -28.385  27.385  1.00  0.00     0.000 C 
BRANCH   2   3
ATOM      3  C   UNL     1     -22.428 -27.365  26.489  1.00  0.00    -0.000 C 
BRANCH   3   4
ATOM      4  C   UNL     1     -23.065 -25.977  26.618  1.00  0.00    -0.003 C 
ATOM      5  C   UNL     1     -22.300 -25.109  27.613  1.00  0.00     0.004 C 
ENDBRANCH   3   4
ENDBRANCH   2   3
ENDBRANCH   1   2
BRANCH   1   6
ATOM      6  C   UNL     1     -23.318 -29.692  25.145  1.00  0.00     0.028 C 
BRANCH   6   7
ATOM      7  C   UNL     1     -23.308 -31.080  24.493  1.00  0.00     0.156 C 
BRANCH   7   8
ATOM      8  O   UNL     1     -23.765 -32.045  25.398  1.00  0.00    -0.396 OA
ATOM      9  H   UNL     1     -23.024 -32.697  25.505  1.00  0.00     0.210 HD
ENDBRANCH   7   8
ENDBRANCH   6   7
ENDBRANCH   1   6
TORSDOF 6
ENDMDL
MODEL 7
REMARK VINA RESULT:    -2.613      1.380      2.115
REMARK INTER + INTRA:          -3.607
REMARK INTER:                  -3.462
REMARK INTRA:                  -0.145
REMARK UNBOUND:                -0.153
REMARK SMILES CCCCCCCO
REMARK SMILES IDX 5 1 4 2 3 3 2 4 1 5 6 6 7 7 8 8
REMARK H PARENT 8 9
REMARK Flexibility Score: inf
ROOT
ATOM      1  C   UNL     1     -33.564 -20.968  27.864  1.00  0.00     0.002 C 
ENDROOT
BRANCH   1   2
ATOM      2  C   UNL     1     -33.330 -20.712  29.362  1.00  0.00     0.000 C 
BRANCH   2   3
ATOM      3  C   UNL     1     -32.398 -19.521  29.628  1.00  0.00    -0.000 C 
BRANCH   3   4
ATOM      4  C   UNL     1     -30.964 -19.840  29.194  1.00  0.00    -0.003 C 
ATOM      5  C   UNL     1     -30.546 -21.236  29.649  1.00  0.00     0.004 C 
ENDBRANCH   3   4
ENDBRANCH   2   3
ENDBRANCH   1   2
BRANCH   1   6
ATOM      6  C   UNL     1     -33.090 -22.343  27.352  1.00  0.00     0.028 C 
BRANCH   6   7
ATOM      7  C   UNL     1     -34.232 -23.259  26.898  1.00  0.00     0.156 C 
BRANCH   7   8
ATOM      8  O   UNL     1     -35.374 -23.034  27.677  1.00  0.00    -0.396 OA
ATOM      9  H   UNL     1     -35.989 -23.790  27.490  1.00  0.00     0.210 HD
ENDBRANCH   7   8
ENDBRANCH   6   7
ENDBRANCH   1   6
TORSDOF 6
ENDMDL
MODEL 8
REMARK VINA RESULT:    -2.496      2.755      4.330
REMARK INTER + INTRA:          -3.452
REMARK INTER:                  -3.252
REMARK INTRA:                  -0.200
REMARK UNBOUND:                -0.153
REMARK SMILES CCCCCCCO
REMARK SMILES IDX 5 1 4 2 3 3 2 4 1 5 6 6 7 7 8 8
REMARK H PARENT 8 9
REMARK Flexibility Score: inf
ROOT
ATOM      1  C   UNL     1     -33.530 -20.087  27.390  1.00  0.00     0.002 C 
ENDROOT
BRANCH   1   2
ATOM      2  C   UNL     1     -33.468 -21.177  28.474  1.00  0.00     0.000 C 
BRANCH   2   3
ATOM      3  C   UNL     1     -33.020 -22.540  27.927  1.00  0.00    -0.000 C 
BRANCH   3   4
ATOM      4  C   UNL     1     -31.492 -22.655  27.925  1.00  0.00    -0.003 C 
ATOM      5  C   UNL     1     -30.881 -21.923  29.116  1.00  0.00     0.004 C 
ENDBRANCH   3   4
ENDBRANCH   2   3
ENDBRANCH   1   2
BRANCH   1   6
ATOM      6  C   UNL     1     -33.045 -18.693  27.834  1.00  0.00     0.028 C 
BRANCH   6   7
ATOM      7  C   UNL     1     -32.330 -18.693  29.190  1.00  0.00     0.156 C 
BRANCH   7   8
ATOM      8  O   UNL     1     -32.326 -17.404  29.737  1.00  0.00    -0.396 OA
ATOM      9  H   UNL     1     -32.714 -16.808  29.043  1.00  0.00     0.210 HD
ENDBRANCH   7   8
ENDBRANCH   6   7
ENDBRANCH   1   6
TORSDOF 6
ENDMDL
