MODEL 1
REMARK VINA RESULT:     3.246      0.000      0.000
REMARK INTER + INTRA:           4.015
REMARK INTER:                   4.195
REMARK INTRA:                  -0.180
REMARK UNBOUND:                -0.180
REMARK SMILES CCCCCCC(=O)[O-]
REMARK SMILES IDX 5 1 6 2 7 3 8 4 9 5 4 6 3 7 2 8 1 9
REMARK H PARENT
REMARK Flexibility Score: inf
ROOT
ATOM      1  C   UNL     1      10.829 -11.295   6.186  1.00  0.00     0.006 C 
ENDROOT
BRANCH   1   2
ATOM      2  C   UNL     1      11.118 -12.746   5.776  1.00  0.00     0.053 C 
BRANCH   2   3
ATOM      3  C   UNL     1       9.899 -13.421   5.226  1.00  0.00     0.041 C 
ATOM      4  O   UNL     1       9.913 -14.659   4.993  1.00  0.00    -0.550 OA
ATOM      5  O   UNL     1       8.738 -12.692   5.005  1.00  0.00    -0.550 OA
ENDBRANCH   2   3
ENDBRANCH   1   2
BRANCH   1   6
ATOM      6  C   UNL     1      11.559 -10.282   5.287  1.00  0.00     0.000 C 
BRANCH   6   7
ATOM      7  C   UNL     1      12.603 -10.942   4.368  1.00  0.00    -0.000 C 
BRANCH   7   8
ATOM      8  C   UNL     1      13.686  -9.989   3.833  1.00  0.00    -0.003 C 
ATOM      9  C   UNL     1      14.486 -10.583   2.674  1.00  0.00     0.004 C 
ENDBRANCH   7   8
ENDBRANCH   6   7
ENDBRANCH   1   6
TORSDOF 5
ENDMDL
MODEL 2
REMARK VINA RESULT:     3.472      2.579      4.523
REMARK INTER + INTRA:           4.307
REMARK INTER:                   3.914
REMARK INTRA:                   0.393
REMARK UNBOUND:                -0.180
REMARK SMILES CCCCCCC(=O)[O-]
REMARK SMILES IDX 5 1 6 2 7 3 8 4 9 5 4 6 3 7 2 8 1 9
REMARK H PARENT
REMARK Flexibility Score: inf
ROOT
ATOM      1  C   UNL     1      10.862 -12.058   6.351  1.00  0.00     0.006 C 
ENDROOT
BRANCH   1   2
ATOM      2  C   UNL     1      12.078 -12.079   5.414  1.00  0.00     0.053 C 
BRANCH   2   3
ATOM      3  C   UNL     1      12.281 -10.757   4.739  1.00  0.00     0.041 C 
ATOM      4  O   UNL     1      11.619  -9.750   5.106  1.00  0.00    -0.550 OA
ATOM      5  O   UNL     1      13.228 -10.628   3.731  1.00  0.00    -0.550 OA
ENDBRANCH   2   3
ENDBRANCH   1   2
BRANCH   1   6
ATOM      6  C   UNL     1       9.532 -12.056   5.576  1.00  0.00     0.000 C 
BRANCH   6   7
ATOM      7  C   UNL     1       9.238 -13.402   4.889  1.00  0.00    -0.000 C 
BRANCH   7   8
ATOM      8  C   UNL     1      10.218 -14.534   5.241  1.00  0.00    -0.003 C 
ATOM      9  C   UNL     1       9.691 -15.919   4.867  1.00  0.00     0.004 C 
ENDBRANCH   7   8
ENDBRANCH   6   7
ENDBRANCH   1   6
TORSDOF 5
ENDMDL
MODEL 3
REMARK VINA RESULT:     3.757      2.638      4.470
REMARK INTER + INTRA:           4.675
REMARK INTER:                   4.460
REMARK INTRA:                   0.215
REMARK UNBOUND:                -0.180
REMARK SMILES CCCCCCC(=O)[O-]
REMARK SMILES IDX 5 1 6 2 7 3 8 4 9 5 4 6 3 7 2 8 1 9
REMARK H PARENT
REMARK Flexibility Score: inf
ROOT
ATOM      1  C   UNL     1      11.943 -13.009   5.943  1.00  0.00     0.006 C 
ENDROOT
BRANCH   1   2
ATOM      2  C   UNL     1      11.210 -11.678   6.159  1.00  0.00     0.053 C 
BRANCH   2   3
ATOM      3  C   UNL     1      11.681 -10.623   5.206  1.00  0.00     0.041 C 
ATOM      4  O   UNL     1      11.178  -9.468   5.241  1.00  0.00    -0.550 OA
ATOM      5  O   UNL     1      12.699 -10.903   4.304  1.00  0.00    -0.550 OA
ENDBRANCH   2   3
ENDBRANCH   1   2
BRANCH   1   6
ATOM      6  C   UNL     1      11.067 -14.041   5.211  1.00  0.00     0.000 C 
BRANCH   6   7
ATOM      7  C   UNL     1       9.567 -13.874   5.513  1.00  0.00    -0.000 C 
BRANCH   7   8
ATOM      8  C   UNL     1       8.803 -12.986   4.516  1.00  0.00    -0.003 C 
ATOM      9  C   UNL     1       8.105 -11.801   5.184  1.00  0.00     0.004 C 
ENDBRANCH   7   8
ENDBRANCH   6   7
ENDBRANCH   1   6
TORSDOF 5
ENDMDL
MODEL 4
REMARK VINA RESULT:     4.381      3.499      4.258
REMARK INTER + INTRA:           5.482
REMARK INTER:                   5.555
REMARK INTRA:                  -0.073
REMARK UNBOUND:                -0.180
REMARK SMILES CCCCCCC(=O)[O-]
REMARK SMILES IDX 5 1 6 2 7 3 8 4 9 5 4 6 3 7 2 8 1 9
REMARK H PARENT
REMARK Flexibility Score: inf
ROOT
ATOM      1  C   UNL     1      12.507 -13.233   6.372  1.00  0.00     0.006 C 
ENDROOT
BRANCH   1   2
ATOM      2  C   UNL     1      11.173 -13.421   5.638  1.00  0.00     0.053 C 
BRANCH   2   3
ATOM      3  C   UNL     1      10.367 -12.158   5.617  1.00  0.00     0.041 C 
ATOM      4  O   UNL     1      10.927 -11.047   5.814  1.00  0.00    -0.550 OA
ATOM      5  O   UNL     1       9.007 -12.204   5.342  1.00  0.00    -0.550 OA
ENDBRANCH   2   3
ENDBRANCH   1   2
BRANCH   1   6
ATOM      6  C   UNL     1      13.495 -14.377   6.083  1.00  0.00     0.000 C 
BRANCH   6   7
ATOM      7  C   UNL     1      14.642 -14.450   7.108  1.00  0.00    -0.000 C 
BRANCH   7   8
ATOM      8  C   UNL     1      15.464 -15.749   7.065  1.00  0.00    -0.003 C 
ATOM      9  C   UNL     1      16.944 -15.511   6.766  1.00  0.00     0.004 C 
ENDBRANCH   7   8
ENDBRANCH   6   7
ENDBRANCH   1   6
TORSDOF 5
ENDMDL
