MODEL 1
REMARK VINA RESULT:    -4.763      0.000      0.000
REMARK INTER + INTRA:          -9.408
REMARK INTER:                  -8.661
REMARK INTRA:                  -0.747
REMARK UNBOUND:                -0.747
REMARK SMILES CCCCCCCCCCCCCCCC(=O)[O-]
REMARK SMILES IDX 9 1 10 2 11 3 12 4 13 5 14 6 15 7 16 8 17 9 18 10 8 11 7 12
REMARK SMILES IDX 6 13 5 14 4 15 3 16 2 17 1 18
REMARK H PARENT
REMARK Flexibility Score: inf
ROOT
ATOM      1  C   UNL     1      -1.186   0.619   6.036  1.00  0.00     0.000 C 
ENDROOT
BRANCH   1   2
ATOM      2  C   UNL     1      -2.265   0.073   5.083  1.00  0.00     0.000 C 
BRANCH   2   3
ATOM      3  C   UNL     1      -3.165  -1.031   5.676  1.00  0.00     0.000 C 
BRANCH   3   4
ATOM      4  C   UNL     1      -4.514  -1.229   4.961  1.00  0.00     0.000 C 
BRANCH   4   5
ATOM      5  C   UNL     1      -4.664  -2.630   4.348  1.00  0.00     0.000 C 
BRANCH   5   6
ATOM      6  C   UNL     1      -4.813  -2.546   2.822  1.00  0.00     0.006 C 
BRANCH   6   7
ATOM      7  C   UNL     1      -5.430  -3.820   2.228  1.00  0.00     0.053 C 
BRANCH   7   8
ATOM      8  C   UNL     1      -4.806  -4.180   0.915  1.00  0.00     0.041 C 
ATOM      9  O   UNL     1      -4.491  -5.375   0.670  1.00  0.00    -0.550 OA
ATOM     10  O   UNL     1      -4.603  -3.203  -0.051  1.00  0.00    -0.550 OA
ENDBRANCH   7   8
ENDBRANCH   6   7
ENDBRANCH   5   6
ENDBRANCH   4   5
ENDBRANCH   3   4
ENDBRANCH   2   3
ENDBRANCH   1   2
BRANCH   1  11
ATOM     11  C   UNL     1      -0.836  -0.304   7.218  1.00  0.00     0.000 C 
BRANCH  11  12
ATOM     12  C   UNL     1       0.658  -0.686   7.289  1.00  0.00    -0.000 C 
BRANCH  12  13
ATOM     13  C   UNL     1       1.223  -1.125   5.926  1.00  0.00    -0.000 C 
BRANCH  13  14
ATOM     14  C   UNL     1       2.245  -2.275   6.061  1.00  0.00    -0.000 C 
BRANCH  14  15
ATOM     15  C   UNL     1       2.563  -2.975   4.728  1.00  0.00    -0.000 C 
BRANCH  15  16
ATOM     16  C   UNL     1       2.457  -2.033   3.518  1.00  0.00    -0.000 C 
BRANCH  16  17
ATOM     17  C   UNL     1       3.709  -2.072   2.629  1.00  0.00    -0.003 C 
ATOM     18  C   UNL     1       4.647  -0.892   2.879  1.00  0.00     0.004 C 
ENDBRANCH  16  17
ENDBRANCH  15  16
ENDBRANCH  14  15
ENDBRANCH  13  14
ENDBRANCH  12  13
ENDBRANCH  11  12
ENDBRANCH   1  11
TORSDOF 14
ENDMDL
MODEL 2
REMARK VINA RESULT:    -4.742      3.993      7.632
REMARK INTER + INTRA:          -9.370
REMARK INTER:                  -7.821
REMARK INTRA:                  -1.549
REMARK UNBOUND:                -0.747
REMARK SMILES CCCCCCCCCCCCCCCC(=O)[O-]
REMARK SMILES IDX 9 1 10 2 11 3 12 4 13 5 14 6 15 7 16 8 17 9 18 10 8 11 7 12
REMARK SMILES IDX 6 13 5 14 4 15 3 16 2 17 1 18
REMARK H PARENT
REMARK Flexibility Score: inf
ROOT
ATOM      1  C   UNL     1      -4.913  -3.486   6.023  1.00  0.00     0.000 C 
ENDROOT
BRANCH   1   2
ATOM      2  C   UNL     1      -3.783  -2.520   6.423  1.00  0.00     0.000 C 
BRANCH   2   3
ATOM      3  C   UNL     1      -4.251  -1.144   6.942  1.00  0.00     0.000 C 
BRANCH   3   4
ATOM      4  C   UNL     1      -3.893   0.051   6.041  1.00  0.00     0.000 C 
BRANCH   4   5
ATOM      5  C   UNL     1      -2.754  -0.262   5.059  1.00  0.00     0.000 C 
BRANCH   5   6
ATOM      6  C   UNL     1      -1.525   0.613   5.347  1.00  0.00     0.006 C 
BRANCH   6   7
ATOM      7  C   UNL     1      -0.338  -0.207   5.870  1.00  0.00     0.053 C 
BRANCH   7   8
ATOM      8  C   UNL     1      -0.377  -0.355   7.360  1.00  0.00     0.041 C 
ATOM      9  O   UNL     1      -0.130   0.633   8.102  1.00  0.00    -0.550 OA
ATOM     10  O   UNL     1      -0.721  -1.574   7.930  1.00  0.00    -0.550 OA
ENDBRANCH   7   8
ENDBRANCH   6   7
ENDBRANCH   5   6
ENDBRANCH   4   5
ENDBRANCH   3   4
ENDBRANCH   2   3
ENDBRANCH   1   2
BRANCH   1  11
ATOM     11  C   UNL     1      -5.019  -3.771   4.513  1.00  0.00     0.000 C 
BRANCH  11  12
ATOM     12  C   UNL     1      -5.670  -2.626   3.708  1.00  0.00    -0.000 C 
BRANCH  12  13
ATOM     13  C   UNL     1      -4.774  -2.122   2.563  1.00  0.00    -0.000 C 
BRANCH  13  14
ATOM     14  C   UNL     1      -5.282  -2.582   1.178  1.00  0.00    -0.000 C 
BRANCH  14  15
ATOM     15  C   UNL     1      -4.589  -3.854   0.660  1.00  0.00    -0.000 C 
BRANCH  15  16
ATOM     16  C   UNL     1      -5.419  -5.126   0.897  1.00  0.00    -0.000 C 
BRANCH  16  17
ATOM     17  C   UNL     1      -6.484  -5.345  -0.188  1.00  0.00    -0.003 C 
ATOM     18  C   UNL     1      -5.878  -5.549  -1.577  1.00  0.00     0.004 C 
ENDBRANCH  16  17
ENDBRANCH  15  16
ENDBRANCH  14  15
ENDBRANCH  13  14
ENDBRANCH  12  13
ENDBRANCH  11  12
ENDBRANCH   1  11
TORSDOF 14
ENDMDL
MODEL 3
REMARK VINA RESULT:    -4.706      3.034      7.131
REMARK INTER + INTRA:          -9.305
REMARK INTER:                  -8.305
REMARK INTRA:                  -1.000
REMARK UNBOUND:                -0.747
REMARK SMILES CCCCCCCCCCCCCCCC(=O)[O-]
REMARK SMILES IDX 9 1 10 2 11 3 12 4 13 5 14 6 15 7 16 8 17 9 18 10 8 11 7 12
REMARK SMILES IDX 6 13 5 14 4 15 3 16 2 17 1 18
REMARK H PARENT
REMARK Flexibility Score: inf
ROOT
ATOM      1  C   UNL     1      -3.221  -0.262   6.205  1.00  0.00     0.000 C 
ENDROOT
BRANCH   1   2
ATOM      2  C   UNL     1      -2.266   0.325   5.149  1.00  0.00     0.000 C 
BRANCH   2   3
ATOM      3  C   UNL     1      -0.764   0.126   5.441  1.00  0.00     0.000 C 
BRANCH   3   4
ATOM      4  C   UNL     1      -0.444  -0.554   6.784  1.00  0.00     0.000 C 
BRANCH   4   5
ATOM      5  C   UNL     1       0.921  -1.260   6.785  1.00  0.00     0.000 C 
BRANCH   5   6
ATOM      6  C   UNL     1       1.548  -1.242   5.384  1.00  0.00     0.006 C 
BRANCH   6   7
ATOM      7  C   UNL     1       2.452  -2.457   5.136  1.00  0.00     0.053 C 
BRANCH   7   8
ATOM      8  C   UNL     1       3.121  -2.389   3.798  1.00  0.00     0.041 C 
ATOM      9  O   UNL     1       4.339  -2.686   3.682  1.00  0.00    -0.550 OA
ATOM     10  O   UNL     1       2.390  -2.032   2.672  1.00  0.00    -0.550 OA
ENDBRANCH   7   8
ENDBRANCH   6   7
ENDBRANCH   5   6
ENDBRANCH   4   5
ENDBRANCH   3   4
ENDBRANCH   2   3
ENDBRANCH   1   2
BRANCH   1  11
ATOM     11  C   UNL     1      -4.477  -0.945   5.635  1.00  0.00     0.000 C 
BRANCH  11  12
ATOM     12  C   UNL     1      -4.427  -2.487   5.691  1.00  0.00    -0.000 C 
BRANCH  12  13
ATOM     13  C   UNL     1      -4.909  -3.144   4.385  1.00  0.00    -0.000 C 
BRANCH  13  14
ATOM     14  C   UNL     1      -4.649  -2.250   3.152  1.00  0.00    -0.000 C 
BRANCH  14  15
ATOM     15  C   UNL     1      -5.878  -2.084   2.242  1.00  0.00    -0.000 C 
BRANCH  15  16
ATOM     16  C   UNL     1      -5.614  -2.525   0.794  1.00  0.00    -0.000 C 
BRANCH  16  17
ATOM     17  C   UNL     1      -4.617  -3.691   0.705  1.00  0.00    -0.003 C 
ATOM     18  C   UNL     1      -5.308  -5.045   0.546  1.00  0.00     0.004 C 
ENDBRANCH  16  17
ENDBRANCH  15  16
ENDBRANCH  14  15
ENDBRANCH  13  14
ENDBRANCH  12  13
ENDBRANCH  11  12
ENDBRANCH   1  11
TORSDOF 14
ENDMDL
MODEL 4
REMARK VINA RESULT:    -4.672      3.104      6.214
REMARK INTER + INTRA:          -9.243
REMARK INTER:                  -7.912
REMARK INTRA:                  -1.331
REMARK UNBOUND:                -0.747
REMARK SMILES CCCCCCCCCCCCCCCC(=O)[O-]
REMARK SMILES IDX 9 1 10 2 11 3 12 4 13 5 14 6 15 7 16 8 17 9 18 10 8 11 7 12
REMARK SMILES IDX 6 13 5 14 4 15 3 16 2 17 1 18
REMARK H PARENT
REMARK Flexibility Score: inf
ROOT
ATOM      1  C   UNL     1      -6.137  -2.536   1.233  1.00  0.00     0.000 C 
ENDROOT
BRANCH   1   2
ATOM      2  C   UNL     1      -4.820  -3.075   0.646  1.00  0.00     0.000 C 
BRANCH   2   3
ATOM      3  C   UNL     1      -4.669  -4.609   0.675  1.00  0.00     0.000 C 
BRANCH   3   4
ATOM      4  C   UNL     1      -5.871  -5.396   0.122  1.00  0.00     0.000 C 
BRANCH   4   5
ATOM      5  C   UNL     1      -5.794  -5.614  -1.397  1.00  0.00     0.000 C 
BRANCH   5   6
ATOM      6  C   UNL     1      -7.167  -5.403  -2.051  1.00  0.00     0.006 C 
BRANCH   6   7
ATOM      7  C   UNL     1      -7.544  -3.918  -2.144  1.00  0.00     0.053 C 
BRANCH   7   8
ATOM      8  C   UNL     1      -6.581  -3.152  -2.999  1.00  0.00     0.041 C 
ATOM      9  O   UNL     1      -6.308  -3.553  -4.161  1.00  0.00    -0.550 OA
ATOM     10  O   UNL     1      -6.013  -1.976  -2.526  1.00  0.00    -0.550 OA
ENDBRANCH   7   8
ENDBRANCH   6   7
ENDBRANCH   5   6
ENDBRANCH   4   5
ENDBRANCH   3   4
ENDBRANCH   2   3
ENDBRANCH   1   2
BRANCH   1  11
ATOM     11  C   UNL     1      -5.991  -1.764   2.558  1.00  0.00     0.000 C 
BRANCH  11  12
ATOM     12  C   UNL     1      -4.672  -2.057   3.306  1.00  0.00    -0.000 C 
BRANCH  12  13
ATOM     13  C   UNL     1      -4.828  -3.152   4.376  1.00  0.00    -0.000 C 
BRANCH  13  14
ATOM     14  C   UNL     1      -4.530  -2.625   5.797  1.00  0.00    -0.000 C 
BRANCH  14  15
ATOM     15  C   UNL     1      -4.271  -1.110   5.850  1.00  0.00    -0.000 C 
BRANCH  15  16
ATOM     16  C   UNL     1      -2.826  -0.764   6.244  1.00  0.00    -0.000 C 
BRANCH  16  17
ATOM     17  C   UNL     1      -2.159   0.202   5.253  1.00  0.00    -0.003 C 
ATOM     18  C   UNL     1      -0.633   0.116   5.283  1.00  0.00     0.004 C 
ENDBRANCH  16  17
ENDBRANCH  15  16
ENDBRANCH  14  15
ENDBRANCH  13  14
ENDBRANCH  12  13
ENDBRANCH  11  12
ENDBRANCH   1  11
TORSDOF 14
ENDMDL
MODEL 5
REMARK VINA RESULT:    -4.637      2.910      4.609
REMARK INTER + INTRA:          -9.179
REMARK INTER:                  -7.765
REMARK INTRA:                  -1.415
REMARK UNBOUND:                -0.747
REMARK SMILES CCCCCCCCCCCCCCCC(=O)[O-]
REMARK SMILES IDX 9 1 10 2 11 3 12 4 13 5 14 6 15 7 16 8 17 9 18 10 8 11 7 12
REMARK SMILES IDX 6 13 5 14 4 15 3 16 2 17 1 18
REMARK H PARENT
REMARK Flexibility Score: inf
ROOT
ATOM      1  C   UNL     1      -4.106  -1.761   4.239  1.00  0.00     0.000 C 
ENDROOT
BRANCH   1   2
ATOM      2  C   UNL     1      -5.435  -1.856   3.468  1.00  0.00     0.000 C 
BRANCH   2   3
ATOM      3  C   UNL     1      -5.335  -2.490   2.066  1.00  0.00     0.000 C 
BRANCH   3   4
ATOM      4  C   UNL     1      -5.204  -4.024   2.049  1.00  0.00     0.000 C 
BRANCH   4   5
ATOM      5  C   UNL     1      -4.667  -4.562   0.714  1.00  0.00     0.000 C 
BRANCH   5   6
ATOM      6  C   UNL     1      -5.750  -5.354  -0.033  1.00  0.00     0.006 C 
BRANCH   6   7
ATOM      7  C   UNL     1      -6.035  -4.776  -1.426  1.00  0.00     0.053 C 
BRANCH   7   8
ATOM      8  C   UNL     1      -6.541  -3.368  -1.352  1.00  0.00     0.041 C 
ATOM      9  O   UNL     1      -5.936  -2.444  -1.957  1.00  0.00    -0.550 OA
ATOM     10  O   UNL     1      -7.701  -3.082  -0.642  1.00  0.00    -0.550 OA
ENDBRANCH   7   8
ENDBRANCH   6   7
ENDBRANCH   5   6
ENDBRANCH   4   5
ENDBRANCH   3   4
ENDBRANCH   2   3
ENDBRANCH   1   2
BRANCH   1  11
ATOM     11  C   UNL     1      -4.210  -2.043   5.750  1.00  0.00     0.000 C 
BRANCH  11  12
ATOM     12  C   UNL     1      -4.373  -0.771   6.610  1.00  0.00    -0.000 C 
BRANCH  12  13
ATOM     13  C   UNL     1      -3.661  -0.881   7.970  1.00  0.00    -0.000 C 
BRANCH  13  14
ATOM     14  C   UNL     1      -2.186  -1.316   7.824  1.00  0.00    -0.000 C 
BRANCH  14  15
ATOM     15  C   UNL     1      -1.215  -0.139   7.628  1.00  0.00    -0.000 C 
BRANCH  15  16
ATOM     16  C   UNL     1      -0.275  -0.334   6.427  1.00  0.00    -0.000 C 
BRANCH  16  17
ATOM     17  C   UNL     1      -0.926   0.073   5.097  1.00  0.00    -0.003 C 
ATOM     18  C   UNL     1      -1.731   1.368   5.207  1.00  0.00     0.004 C 
ENDBRANCH  16  17
ENDBRANCH  15  16
ENDBRANCH  14  15
ENDBRANCH  13  14
ENDBRANCH  12  13
ENDBRANCH  11  12
ENDBRANCH   1  11
TORSDOF 14
ENDMDL
MODEL 6
REMARK VINA RESULT:    -4.619      3.869      6.390
REMARK INTER + INTRA:          -9.147
REMARK INTER:                  -7.412
REMARK INTRA:                  -1.735
REMARK UNBOUND:                -0.747
REMARK SMILES CCCCCCCCCCCCCCCC(=O)[O-]
REMARK SMILES IDX 9 1 10 2 11 3 12 4 13 5 14 6 15 7 16 8 17 9 18 10 8 11 7 12
REMARK SMILES IDX 6 13 5 14 4 15 3 16 2 17 1 18
REMARK H PARENT
REMARK Flexibility Score: inf
ROOT
ATOM      1  C   UNL     1      -6.626  -5.410   2.950  1.00  0.00     0.000 C 
ENDROOT
BRANCH   1   2
ATOM      2  C   UNL     1      -6.406  -5.162   1.446  1.00  0.00     0.000 C 
BRANCH   2   3
ATOM      3  C   UNL     1      -4.955  -4.826   1.042  1.00  0.00     0.000 C 
BRANCH   3   4
ATOM      4  C   UNL     1      -4.712  -3.361   0.636  1.00  0.00     0.000 C 
BRANCH   4   5
ATOM      5  C   UNL     1      -4.970  -2.373   1.784  1.00  0.00     0.000 C 
BRANCH   5   6
ATOM      6  C   UNL     1      -5.943  -1.268   1.347  1.00  0.00     0.006 C 
BRANCH   6   7
ATOM      7  C   UNL     1      -6.264  -1.337  -0.153  1.00  0.00     0.053 C 
BRANCH   7   8
ATOM      8  C   UNL     1      -6.077  -0.010  -0.823  1.00  0.00     0.041 C 
ATOM      9  O   UNL     1      -5.371   0.081  -1.861  1.00  0.00    -0.550 OA
ATOM     10  O   UNL     1      -6.711   1.119  -0.320  1.00  0.00    -0.550 OA
ENDBRANCH   7   8
ENDBRANCH   6   7
ENDBRANCH   5   6
ENDBRANCH   4   5
ENDBRANCH   3   4
ENDBRANCH   2   3
ENDBRANCH   1   2
BRANCH   1  11
ATOM     11  C   UNL     1      -7.480  -4.347   3.664  1.00  0.00     0.000 C 
BRANCH  11  12
ATOM     12  C   UNL     1      -6.740  -3.616   4.805  1.00  0.00    -0.000 C 
BRANCH  12  13
ATOM     13  C   UNL     1      -5.260  -4.027   4.909  1.00  0.00    -0.000 C 
BRANCH  13  14
ATOM     14  C   UNL     1      -4.453  -3.074   5.818  1.00  0.00    -0.000 C 
BRANCH  14  15
ATOM     15  C   UNL     1      -4.662  -1.586   5.488  1.00  0.00    -0.000 C 
BRANCH  15  16
ATOM     16  C   UNL     1      -3.424  -0.936   4.848  1.00  0.00    -0.000 C 
BRANCH  16  17
ATOM     17  C   UNL     1      -2.501  -0.278   5.885  1.00  0.00    -0.003 C 
ATOM     18  C   UNL     1      -1.657   0.850   5.290  1.00  0.00     0.004 C 
ENDBRANCH  16  17
ENDBRANCH  15  16
ENDBRANCH  14  15
ENDBRANCH  13  14
ENDBRANCH  12  13
ENDBRANCH  11  12
ENDBRANCH   1  11
TORSDOF 14
ENDMDL
MODEL 7
REMARK VINA RESULT:    -4.600      3.709      6.882
REMARK INTER + INTRA:          -9.111
REMARK INTER:                  -8.338
REMARK INTRA:                  -0.773
REMARK UNBOUND:                -0.747
REMARK SMILES CCCCCCCCCCCCCCCC(=O)[O-]
REMARK SMILES IDX 9 1 10 2 11 3 12 4 13 5 14 6 15 7 16 8 17 9 18 10 8 11 7 12
REMARK SMILES IDX 6 13 5 14 4 15 3 16 2 17 1 18
REMARK H PARENT
REMARK Flexibility Score: inf
ROOT
ATOM      1  C   UNL     1      -4.504  -3.449   0.996  1.00  0.00     0.000 C 
ENDROOT
BRANCH   1   2
ATOM      2  C   UNL     1      -4.840  -4.894   0.583  1.00  0.00     0.000 C 
BRANCH   2   3
ATOM      3  C   UNL     1      -6.344  -5.235   0.558  1.00  0.00     0.000 C 
BRANCH   3   4
ATOM      4  C   UNL     1      -6.905  -5.616  -0.824  1.00  0.00     0.000 C 
BRANCH   4   5
ATOM      5  C   UNL     1      -5.825  -5.658  -1.916  1.00  0.00     0.000 C 
BRANCH   5   6
ATOM      6  C   UNL     1      -6.459  -5.769  -3.310  1.00  0.00     0.006 C 
BRANCH   6   7
ATOM      7  C   UNL     1      -6.577  -7.226  -3.780  1.00  0.00     0.053 C 
BRANCH   7   8
ATOM      8  C   UNL     1      -5.313  -7.706  -4.423  1.00  0.00     0.041 C 
ATOM      9  O   UNL     1      -5.081  -8.940  -4.523  1.00  0.00    -0.550 OA
ATOM     10  O   UNL     1      -4.406  -6.792  -4.945  1.00  0.00    -0.550 OA
ENDBRANCH   7   8
ENDBRANCH   6   7
ENDBRANCH   5   6
ENDBRANCH   4   5
ENDBRANCH   3   4
ENDBRANCH   2   3
ENDBRANCH   1   2
BRANCH   1  11
ATOM     11  C   UNL     1      -5.419  -2.855   2.082  1.00  0.00     0.000 C 
BRANCH  11  12
ATOM     12  C   UNL     1      -4.654  -2.199   3.252  1.00  0.00    -0.000 C 
BRANCH  12  13
ATOM     13  C   UNL     1      -4.716  -3.034   4.543  1.00  0.00    -0.000 C 
BRANCH  13  14
ATOM     14  C   UNL     1      -4.831  -2.151   5.805  1.00  0.00    -0.000 C 
BRANCH  14  15
ATOM     15  C   UNL     1      -3.906  -0.921   5.780  1.00  0.00    -0.000 C 
BRANCH  15  16
ATOM     16  C   UNL     1      -2.699  -1.063   6.722  1.00  0.00    -0.000 C 
BRANCH  16  17
ATOM     17  C   UNL     1      -1.632   0.014   6.478  1.00  0.00    -0.003 C 
ATOM     18  C   UNL     1      -1.495   0.384   5.001  1.00  0.00     0.004 C 
ENDBRANCH  16  17
ENDBRANCH  15  16
ENDBRANCH  14  15
ENDBRANCH  13  14
ENDBRANCH  12  13
ENDBRANCH  11  12
ENDBRANCH   1  11
TORSDOF 14
ENDMDL
MODEL 8
REMARK VINA RESULT:    -4.547      3.071      5.172
REMARK INTER + INTRA:          -9.015
REMARK INTER:                  -7.841
REMARK INTRA:                  -1.174
REMARK UNBOUND:                -0.747
REMARK SMILES CCCCCCCCCCCCCCCC(=O)[O-]
REMARK SMILES IDX 9 1 10 2 11 3 12 4 13 5 14 6 15 7 16 8 17 9 18 10 8 11 7 12
REMARK SMILES IDX 6 13 5 14 4 15 3 16 2 17 1 18
REMARK H PARENT
REMARK Flexibility Score: inf
ROOT
ATOM      1  C   UNL     1      -4.895  -2.489   2.890  1.00  0.00     0.000 C 
ENDROOT
BRANCH   1   2
ATOM      2  C   UNL     1      -5.269  -3.881   3.434  1.00  0.00     0.000 C 
BRANCH   2   3
ATOM      3  C   UNL     1      -5.334  -5.001   2.376  1.00  0.00     0.000 C 
BRANCH   3   4
ATOM      4  C   UNL     1      -4.736  -4.641   1.004  1.00  0.00     0.000 C 
BRANCH   4   5
ATOM      5  C   UNL     1      -5.528  -5.241  -0.168  1.00  0.00     0.000 C 
BRANCH   5   6
ATOM      6  C   UNL     1      -5.933  -4.150  -1.170  1.00  0.00     0.006 C 
BRANCH   6   7
ATOM      7  C   UNL     1      -6.667  -2.984  -0.494  1.00  0.00     0.053 C 
BRANCH   7   8
ATOM      8  C   UNL     1      -6.039  -1.665  -0.826  1.00  0.00     0.041 C 
ATOM      9  O   UNL     1      -5.579  -1.454  -1.979  1.00  0.00    -0.550 OA
ATOM     10  O   UNL     1      -5.995  -0.655   0.128  1.00  0.00    -0.550 OA
ENDBRANCH   7   8
ENDBRANCH   6   7
ENDBRANCH   5   6
ENDBRANCH   4   5
ENDBRANCH   3   4
ENDBRANCH   2   3
ENDBRANCH   1   2
BRANCH   1  11
ATOM     11  C   UNL     1      -4.181  -1.569   3.898  1.00  0.00     0.000 C 
BRANCH  11  12
ATOM     12  C   UNL     1      -4.151  -2.127   5.337  1.00  0.00    -0.000 C 
BRANCH  12  13
ATOM     13  C   UNL     1      -3.270  -1.287   6.279  1.00  0.00    -0.000 C 
BRANCH  13  14
ATOM     14  C   UNL     1      -3.093   0.162   5.776  1.00  0.00    -0.000 C 
BRANCH  14  15
ATOM     15  C   UNL     1      -1.634   0.527   5.453  1.00  0.00    -0.000 C 
BRANCH  15  16
ATOM     16  C   UNL     1      -0.619  -0.316   6.240  1.00  0.00    -0.000 C 
BRANCH  16  17
ATOM     17  C   UNL     1      -0.236   0.325   7.583  1.00  0.00    -0.003 C 
ATOM     18  C   UNL     1      -0.231  -0.681   8.735  1.00  0.00     0.004 C 
ENDBRANCH  16  17
ENDBRANCH  15  16
ENDBRANCH  14  15
ENDBRANCH  13  14
ENDBRANCH  12  13
ENDBRANCH  11  12
ENDBRANCH   1  11
TORSDOF 14
ENDMDL
MODEL 9
REMARK VINA RESULT:    -4.546      2.681      5.126
REMARK INTER + INTRA:          -9.014
REMARK INTER:                  -8.126
REMARK INTRA:                  -0.888
REMARK UNBOUND:                -0.747
REMARK SMILES CCCCCCCCCCCCCCCC(=O)[O-]
REMARK SMILES IDX 9 1 10 2 11 3 12 4 13 5 14 6 15 7 16 8 17 9 18 10 8 11 7 12
REMARK SMILES IDX 6 13 5 14 4 15 3 16 2 17 1 18
REMARK H PARENT
REMARK Flexibility Score: inf
ROOT
ATOM      1  C   UNL     1      -4.875  -3.146   3.892  1.00  0.00     0.000 C 
ENDROOT
BRANCH   1   2
ATOM      2  C   UNL     1      -4.845  -2.233   2.653  1.00  0.00     0.000 C 
BRANCH   2   3
ATOM      3  C   UNL     1      -5.082  -2.947   1.306  1.00  0.00     0.000 C 
BRANCH   3   4
ATOM      4  C   UNL     1      -4.895  -4.475   1.335  1.00  0.00     0.000 C 
BRANCH   4   5
ATOM      5  C   UNL     1      -6.163  -5.239   0.924  1.00  0.00     0.000 C 
BRANCH   5   6
ATOM      6  C   UNL     1      -6.535  -4.939  -0.535  1.00  0.00     0.006 C 
BRANCH   6   7
ATOM      7  C   UNL     1      -5.623  -5.670  -1.529  1.00  0.00     0.053 C 
BRANCH   7   8
ATOM      8  C   UNL     1      -6.274  -5.829  -2.869  1.00  0.00     0.041 C 
ATOM      9  O   UNL     1      -7.448  -5.412  -3.056  1.00  0.00    -0.550 OA
ATOM     10  O   UNL     1      -5.572  -6.404  -3.920  1.00  0.00    -0.550 OA
ENDBRANCH   7   8
ENDBRANCH   6   7
ENDBRANCH   5   6
ENDBRANCH   4   5
ENDBRANCH   3   4
ENDBRANCH   2   3
ENDBRANCH   1   2
BRANCH   1  11
ATOM     11  C   UNL     1      -4.448  -2.469   5.207  1.00  0.00     0.000 C 
BRANCH  11  12
ATOM     12  C   UNL     1      -5.390  -1.332   5.657  1.00  0.00    -0.000 C 
BRANCH  12  13
ATOM     13  C   UNL     1      -4.638  -0.023   5.956  1.00  0.00    -0.000 C 
BRANCH  13  14
ATOM     14  C   UNL     1      -3.136  -0.261   6.225  1.00  0.00    -0.000 C 
BRANCH  14  15
ATOM     15  C   UNL     1      -2.210   0.566   5.318  1.00  0.00    -0.000 C 
BRANCH  15  16
ATOM     16  C   UNL     1      -0.758   0.060   5.325  1.00  0.00    -0.000 C 
BRANCH  16  17
ATOM     17  C   UNL     1      -0.351  -0.544   6.678  1.00  0.00    -0.003 C 
ATOM     18  C   UNL     1       1.081  -1.078   6.678  1.00  0.00     0.004 C 
ENDBRANCH  16  17
ENDBRANCH  15  16
ENDBRANCH  14  15
ENDBRANCH  13  14
ENDBRANCH  12  13
ENDBRANCH  11  12
ENDBRANCH   1  11
TORSDOF 14
ENDMDL
