MODEL 1
REMARK VINA RESULT:    -3.287      0.000      0.000
REMARK INTER + INTRA:          -4.129
REMARK INTER:                  -4.055
REMARK INTRA:                  -0.073
REMARK UNBOUND:                -0.073
REMARK SMILES CCCCCC(=O)[O-]
REMARK SMILES IDX 4 1 5 2 6 3 7 4 8 5 3 6 2 7 1 8
REMARK H PARENT
REMARK Flexibility Score: inf
ROOT
ATOM      1  C   UNL     1      51.398  -6.170 -55.301  1.00  0.00     0.006 C 
ENDROOT
BRANCH   1   2
ATOM      2  C   UNL     1      50.096  -5.842 -54.562  1.00  0.00     0.053 C 
BRANCH   2   3
ATOM      3  C   UNL     1      49.453  -7.093 -54.054  1.00  0.00     0.041 C 
ATOM      4  O   UNL     1      50.104  -8.171 -54.016  1.00  0.00    -0.550 OA
ATOM      5  O   UNL     1      48.149  -7.060 -53.577  1.00  0.00    -0.550 OA
ENDBRANCH   2   3
ENDBRANCH   1   2
BRANCH   1   6
ATOM      6  C   UNL     1      51.199  -6.105 -56.820  1.00  0.00     0.000 C 
BRANCH   6   7
ATOM      7  C   UNL     1      52.515  -5.775 -57.533  1.00  0.00    -0.003 C 
ATOM      8  C   UNL     1      52.586  -6.450 -58.900  1.00  0.00     0.004 C 
ENDBRANCH   6   7
ENDBRANCH   1   6
TORSDOF 4
ENDMDL
MODEL 2
REMARK VINA RESULT:    -3.257      6.604      7.312
REMARK INTER + INTRA:          -4.091
REMARK INTER:                  -3.984
REMARK INTRA:                  -0.108
REMARK UNBOUND:                -0.073
REMARK SMILES CCCCCC(=O)[O-]
REMARK SMILES IDX 4 1 5 2 6 3 7 4 8 5 3 6 2 7 1 8
REMARK H PARENT
REMARK Flexibility Score: inf
ROOT
ATOM      1  C   UNL     1      47.672 -12.405 -56.915  1.00  0.00     0.006 C 
ENDROOT
BRANCH   1   2
ATOM      2  C   UNL     1      48.664 -13.303 -56.170  1.00  0.00     0.053 C 
BRANCH   2   3
ATOM      3  C   UNL     1      48.003 -14.577 -55.749  1.00  0.00     0.041 C 
ATOM      4  O   UNL     1      47.042 -14.555 -54.936  1.00  0.00    -0.550 OA
ATOM      5  O   UNL     1      48.418 -15.787 -56.291  1.00  0.00    -0.550 OA
ENDBRANCH   2   3
ENDBRANCH   1   2
BRANCH   1   6
ATOM      6  C   UNL     1      47.929 -10.926 -56.604  1.00  0.00     0.000 C 
BRANCH   6   7
ATOM      7  C   UNL     1      47.645 -10.049 -57.829  1.00  0.00    -0.003 C 
ATOM      8  C   UNL     1      47.951 -10.796 -59.124  1.00  0.00     0.004 C 
ENDBRANCH   6   7
ENDBRANCH   1   6
TORSDOF 4
ENDMDL
MODEL 3
REMARK VINA RESULT:    -3.249      2.929      4.642
REMARK INTER + INTRA:          -4.082
REMARK INTER:                  -4.007
REMARK INTRA:                  -0.075
REMARK UNBOUND:                -0.073
REMARK SMILES CCCCCC(=O)[O-]
REMARK SMILES IDX 4 1 5 2 6 3 7 4 8 5 3 6 2 7 1 8
REMARK H PARENT
REMARK Flexibility Score: inf
ROOT
ATOM      1  C   UNL     1      51.086  -5.478 -56.595  1.00  0.00     0.006 C 
ENDROOT
BRANCH   1   2
ATOM      2  C   UNL     1      52.350  -5.353 -57.450  1.00  0.00     0.053 C 
BRANCH   2   3
ATOM      3  C   UNL     1      52.316  -6.332 -58.580  1.00  0.00     0.041 C 
ATOM      4  O   UNL     1      53.387  -6.710 -59.125  1.00  0.00    -0.550 OA
ATOM      5  O   UNL     1      51.104  -6.865 -59.002  1.00  0.00    -0.550 OA
ENDBRANCH   2   3
ENDBRANCH   1   2
BRANCH   1   6
ATOM      6  C   UNL     1      51.387  -6.190 -55.270  1.00  0.00     0.000 C 
BRANCH   6   7
ATOM      7  C   UNL     1      50.103  -6.411 -54.461  1.00  0.00    -0.003 C 
ATOM      8  C   UNL     1      49.895  -7.891 -54.152  1.00  0.00     0.004 C 
ENDBRANCH   6   7
ENDBRANCH   1   6
TORSDOF 4
ENDMDL
MODEL 4
REMARK VINA RESULT:    -3.245      8.189      9.049
REMARK INTER + INTRA:          -4.077
REMARK INTER:                  -3.908
REMARK INTRA:                  -0.169
REMARK UNBOUND:                -0.073
REMARK SMILES CCCCCC(=O)[O-]
REMARK SMILES IDX 4 1 5 2 6 3 7 4 8 5 3 6 2 7 1 8
REMARK H PARENT
REMARK Flexibility Score: inf
ROOT
ATOM      1  C   UNL     1      47.786 -14.213 -55.662  1.00  0.00     0.006 C 
ENDROOT
BRANCH   1   2
ATOM      2  C   UNL     1      48.298 -15.611 -56.019  1.00  0.00     0.053 C 
BRANCH   2   3
ATOM      3  C   UNL     1      47.274 -16.357 -56.815  1.00  0.00     0.041 C 
ATOM      4  O   UNL     1      47.322 -17.613 -56.893  1.00  0.00    -0.550 OA
ATOM      5  O   UNL     1      46.237 -15.669 -57.432  1.00  0.00    -0.550 OA
ENDBRANCH   2   3
ENDBRANCH   1   2
BRANCH   1   6
ATOM      6  C   UNL     1      48.779 -13.133 -56.107  1.00  0.00     0.000 C 
BRANCH   6   7
ATOM      7  C   UNL     1      48.045 -11.861 -56.548  1.00  0.00    -0.003 C 
ATOM      8  C   UNL     1      46.928 -12.182 -57.536  1.00  0.00     0.004 C 
ENDBRANCH   6   7
ENDBRANCH   1   6
TORSDOF 4
ENDMDL
MODEL 5
REMARK VINA RESULT:    -3.172      2.327      4.082
REMARK INTER + INTRA:          -3.987
REMARK INTER:                  -3.768
REMARK INTRA:                  -0.220
REMARK UNBOUND:                -0.073
REMARK SMILES CCCCCC(=O)[O-]
REMARK SMILES IDX 4 1 5 2 6 3 7 4 8 5 3 6 2 7 1 8
REMARK H PARENT
REMARK Flexibility Score: inf
ROOT
ATOM      1  C   UNL     1      49.951  -5.979 -54.430  1.00  0.00     0.006 C 
ENDROOT
BRANCH   1   2
ATOM      2  C   UNL     1      51.360  -6.203 -54.988  1.00  0.00     0.053 C 
BRANCH   2   3
ATOM      3  C   UNL     1      51.352  -6.112 -56.481  1.00  0.00     0.041 C 
ATOM      4  O   UNL     1      52.435  -6.013 -57.116  1.00  0.00    -0.550 OA
ATOM      5  O   UNL     1      50.151  -6.184 -57.175  1.00  0.00    -0.550 OA
ENDBRANCH   2   3
ENDBRANCH   1   2
BRANCH   1   6
ATOM      6  C   UNL     1      49.353  -7.290 -53.904  1.00  0.00     0.000 C 
BRANCH   6   7
ATOM      7  C   UNL     1      48.028  -7.609 -54.605  1.00  0.00    -0.003 C 
ATOM      8  C   UNL     1      48.198  -8.737 -55.620  1.00  0.00     0.004 C 
ENDBRANCH   6   7
ENDBRANCH   1   6
TORSDOF 4
ENDMDL
MODEL 6
REMARK VINA RESULT:    -3.172      1.188      1.557
REMARK INTER + INTRA:          -3.987
REMARK INTER:                  -3.809
REMARK INTRA:                  -0.178
REMARK UNBOUND:                -0.073
REMARK SMILES CCCCCC(=O)[O-]
REMARK SMILES IDX 4 1 5 2 6 3 7 4 8 5 3 6 2 7 1 8
REMARK H PARENT
REMARK Flexibility Score: inf
ROOT
ATOM      1  C   UNL     1      51.267  -5.579 -56.590  1.00  0.00     0.006 C 
ENDROOT
BRANCH   1   2
ATOM      2  C   UNL     1      51.393  -6.236 -55.213  1.00  0.00     0.053 C 
BRANCH   2   3
ATOM      3  C   UNL     1      50.172  -7.042 -54.904  1.00  0.00     0.041 C 
ATOM      4  O   UNL     1      50.161  -7.827 -53.919  1.00  0.00    -0.550 OA
ATOM      5  O   UNL     1      49.026  -6.893 -55.676  1.00  0.00    -0.550 OA
ENDBRANCH   2   3
ENDBRANCH   1   2
BRANCH   1   6
ATOM      6  C   UNL     1      52.499  -5.874 -57.455  1.00  0.00     0.000 C 
BRANCH   6   7
ATOM      7  C   UNL     1      52.097  -6.543 -58.774  1.00  0.00    -0.003 C 
ATOM      8  C   UNL     1      50.585  -6.732 -58.857  1.00  0.00     0.004 C 
ENDBRANCH   6   7
ENDBRANCH   1   6
TORSDOF 4
ENDMDL
MODEL 7
REMARK VINA RESULT:    -3.120      7.760      8.803
REMARK INTER + INTRA:          -3.923
REMARK INTER:                  -3.749
REMARK INTRA:                  -0.174
REMARK UNBOUND:                -0.073
REMARK SMILES CCCCCC(=O)[O-]
REMARK SMILES IDX 4 1 5 2 6 3 7 4 8 5 3 6 2 7 1 8
REMARK H PARENT
REMARK Flexibility Score: inf
ROOT
ATOM      1  C   UNL     1      47.688 -14.483 -55.748  1.00  0.00     0.006 C 
ENDROOT
BRANCH   1   2
ATOM      2  C   UNL     1      48.604 -13.292 -56.046  1.00  0.00     0.053 C 
BRANCH   2   3
ATOM      3  C   UNL     1      47.831 -12.186 -56.692  1.00  0.00     0.041 C 
ATOM      4  O   UNL     1      46.927 -12.448 -57.528  1.00  0.00    -0.550 OA
ATOM      5  O   UNL     1      48.077 -10.866 -56.335  1.00  0.00    -0.550 OA
ENDBRANCH   2   3
ENDBRANCH   1   2
BRANCH   1   6
ATOM      6  C   UNL     1      48.384 -15.808 -56.082  1.00  0.00     0.000 C 
BRANCH   6   7
ATOM      7  C   UNL     1      47.500 -16.681 -56.980  1.00  0.00    -0.003 C 
ATOM      8  C   UNL     1      46.266 -15.917 -57.450  1.00  0.00     0.004 C 
ENDBRANCH   6   7
ENDBRANCH   1   6
TORSDOF 4
ENDMDL
MODEL 8
REMARK VINA RESULT:    -3.114      9.222     10.129
REMARK INTER + INTRA:          -3.915
REMARK INTER:                  -3.812
REMARK INTRA:                  -0.104
REMARK UNBOUND:                -0.073
REMARK SMILES CCCCCC(=O)[O-]
REMARK SMILES IDX 4 1 5 2 6 3 7 4 8 5 3 6 2 7 1 8
REMARK H PARENT
REMARK Flexibility Score: inf
ROOT
ATOM      1  C   UNL     1      48.232 -15.576 -56.122  1.00  0.00     0.006 C 
ENDROOT
BRANCH   1   2
ATOM      2  C   UNL     1      47.158 -16.299 -56.939  1.00  0.00     0.053 C 
BRANCH   2   3
ATOM      3  C   UNL     1      47.209 -17.772 -56.684  1.00  0.00     0.041 C 
ATOM      4  O   UNL     1      47.911 -18.229 -55.744  1.00  0.00    -0.550 OA
ATOM      5  O   UNL     1      46.443 -18.638 -57.455  1.00  0.00    -0.550 OA
ENDBRANCH   2   3
ENDBRANCH   1   2
BRANCH   1   6
ATOM      6  C   UNL     1      47.702 -14.247 -55.570  1.00  0.00     0.000 C 
BRANCH   6   7
ATOM      7  C   UNL     1      48.546 -13.069 -56.070  1.00  0.00    -0.003 C 
ATOM      8  C   UNL     1      47.740 -12.170 -57.004  1.00  0.00     0.004 C 
ENDBRANCH   6   7
ENDBRANCH   1   6
TORSDOF 4
ENDMDL
MODEL 9
REMARK VINA RESULT:    -3.094      3.417      5.078
REMARK INTER + INTRA:          -3.891
REMARK INTER:                  -3.805
REMARK INTRA:                  -0.086
REMARK UNBOUND:                -0.073
REMARK SMILES CCCCCC(=O)[O-]
REMARK SMILES IDX 4 1 5 2 6 3 7 4 8 5 3 6 2 7 1 8
REMARK H PARENT
REMARK Flexibility Score: inf
ROOT
ATOM      1  C   UNL     1      51.277  -6.003 -56.863  1.00  0.00     0.006 C 
ENDROOT
BRANCH   1   2
ATOM      2  C   UNL     1      52.593  -5.898 -57.638  1.00  0.00     0.053 C 
BRANCH   2   3
ATOM      3  C   UNL     1      52.922  -4.467 -57.920  1.00  0.00     0.041 C 
ATOM      4  O   UNL     1      52.003  -3.611 -58.013  1.00  0.00    -0.550 OA
ATOM      5  O   UNL     1      54.248  -4.067 -58.033  1.00  0.00    -0.550 OA
ENDBRANCH   2   3
ENDBRANCH   1   2
BRANCH   1   6
ATOM      6  C   UNL     1      51.535  -6.162 -55.360  1.00  0.00     0.000 C 
BRANCH   6   7
ATOM      7  C   UNL     1      50.217  -6.255 -54.583  1.00  0.00    -0.003 C 
ATOM      8  C   UNL     1      49.954  -7.682 -54.112  1.00  0.00     0.004 C 
ENDBRANCH   6   7
ENDBRANCH   1   6
TORSDOF 4
ENDMDL
