MODEL 1
REMARK VINA RESULT:    -3.982      0.000      0.000
REMARK INTER + INTRA:          -5.959
REMARK INTER:                  -5.611
REMARK INTRA:                  -0.347
REMARK UNBOUND:                -0.347
REMARK SMILES CCCCCCCCC(=O)[O-]
REMARK SMILES IDX 6 1 7 2 8 3 9 4 10 5 11 6 5 7 4 8 3 9 2 10 1 11
REMARK H PARENT
REMARK Flexibility Score: inf
ROOT
ATOM      1  C   UNL     1       5.642 -22.595 -12.091  1.00  0.00     0.000 C 
ENDROOT
BRANCH   1   2
ATOM      2  C   UNL     1       5.658 -23.341 -10.744  1.00  0.00     0.006 C 
BRANCH   2   3
ATOM      3  C   UNL     1       5.149 -22.465  -9.592  1.00  0.00     0.053 C 
BRANCH   3   4
ATOM      4  C   UNL     1       6.103 -22.454  -8.436  1.00  0.00     0.041 C 
ATOM      5  O   UNL     1       6.165 -23.441  -7.658  1.00  0.00    -0.550 OA
ATOM      6  O   UNL     1       6.944 -21.366  -8.238  1.00  0.00    -0.550 OA
ENDBRANCH   3   4
ENDBRANCH   2   3
ENDBRANCH   1   2
BRANCH   1   7
ATOM      7  C   UNL     1       4.992 -21.206 -11.986  1.00  0.00     0.000 C 
BRANCH   7   8
ATOM      8  C   UNL     1       5.288 -20.320 -13.209  1.00  0.00    -0.000 C 
BRANCH   8   9
ATOM      9  C   UNL     1       6.439 -20.864 -14.076  1.00  0.00    -0.000 C 
BRANCH   9  10
ATOM     10  C   UNL     1       6.825 -19.970 -15.268  1.00  0.00    -0.003 C 
ATOM     11  C   UNL     1       6.304 -18.540 -15.136  1.00  0.00     0.004 C 
ENDBRANCH   9  10
ENDBRANCH   8   9
ENDBRANCH   7   8
ENDBRANCH   1   7
TORSDOF 7
ENDMDL
MODEL 2
REMARK VINA RESULT:    -3.705      3.584      6.061
REMARK INTER + INTRA:          -5.568
REMARK INTER:                  -5.203
REMARK INTRA:                  -0.365
REMARK UNBOUND:                -0.347
REMARK SMILES CCCCCCCCC(=O)[O-]
REMARK SMILES IDX 6 1 7 2 8 3 9 4 10 5 11 6 5 7 4 8 3 9 2 10 1 11
REMARK H PARENT
REMARK Flexibility Score: inf
ROOT
ATOM      1  C   UNL     1       4.929 -21.441 -12.107  1.00  0.00     0.000 C 
ENDROOT
BRANCH   1   2
ATOM      2  C   UNL     1       5.196 -20.324 -13.132  1.00  0.00     0.006 C 
BRANCH   2   3
ATOM      3  C   UNL     1       6.346 -20.678 -14.085  1.00  0.00     0.053 C 
BRANCH   3   4
ATOM      4  C   UNL     1       6.360 -19.795 -15.295  1.00  0.00     0.041 C 
ATOM      5  O   UNL     1       6.704 -18.587 -15.193  1.00  0.00    -0.550 OA
ATOM      6  O   UNL     1       6.024 -20.312 -16.540  1.00  0.00    -0.550 OA
ENDBRANCH   3   4
ENDBRANCH   2   3
ENDBRANCH   1   2
BRANCH   1   7
ATOM      7  C   UNL     1       5.897 -22.624 -12.259  1.00  0.00     0.000 C 
BRANCH   7   8
ATOM      8  C   UNL     1       5.362 -23.914 -11.612  1.00  0.00    -0.000 C 
BRANCH   8   9
ATOM      9  C   UNL     1       6.003 -24.204 -10.242  1.00  0.00    -0.000 C 
BRANCH   9  10
ATOM     10  C   UNL     1       5.373 -23.441  -9.062  1.00  0.00    -0.003 C 
ATOM     11  C   UNL     1       6.314 -22.406  -8.449  1.00  0.00     0.004 C 
ENDBRANCH   9  10
ENDBRANCH   8   9
ENDBRANCH   7   8
ENDBRANCH   1   7
TORSDOF 7
ENDMDL
MODEL 3
REMARK VINA RESULT:    -3.452     14.188     16.063
REMARK INTER + INTRA:          -5.212
REMARK INTER:                  -4.853
REMARK INTRA:                  -0.359
REMARK UNBOUND:                -0.347
REMARK SMILES CCCCCCCCC(=O)[O-]
REMARK SMILES IDX 6 1 7 2 8 3 9 4 10 5 11 6 5 7 4 8 3 9 2 10 1 11
REMARK H PARENT
REMARK Flexibility Score: inf
ROOT
ATOM      1  C   UNL     1      20.260 -17.169 -16.743  1.00  0.00     0.000 C 
ENDROOT
BRANCH   1   2
ATOM      2  C   UNL     1      19.719 -15.930 -16.006  1.00  0.00     0.006 C 
BRANCH   2   3
ATOM      3  C   UNL     1      18.263 -16.116 -15.557  1.00  0.00     0.053 C 
BRANCH   3   4
ATOM      4  C   UNL     1      17.368 -15.051 -16.112  1.00  0.00     0.041 C 
ATOM      5  O   UNL     1      16.388 -15.362 -16.838  1.00  0.00    -0.550 OA
ATOM      6  O   UNL     1      17.598 -13.716 -15.801  1.00  0.00    -0.550 OA
ENDBRANCH   3   4
ENDBRANCH   2   3
ENDBRANCH   1   2
BRANCH   1   7
ATOM      7  C   UNL     1      21.757 -17.050 -17.072  1.00  0.00     0.000 C 
BRANCH   7   8
ATOM      8  C   UNL     1      22.467 -18.415 -17.099  1.00  0.00    -0.000 C 
BRANCH   8   9
ATOM      9  C   UNL     1      21.485 -19.600 -17.030  1.00  0.00    -0.000 C 
BRANCH   9  10
ATOM     10  C   UNL     1      21.561 -20.569 -18.223  1.00  0.00    -0.003 C 
ATOM     11  C   UNL     1      20.446 -20.349 -19.244  1.00  0.00     0.004 C 
ENDBRANCH   9  10
ENDBRANCH   8   9
ENDBRANCH   7   8
ENDBRANCH   1   7
TORSDOF 7
ENDMDL
MODEL 4
REMARK VINA RESULT:    -3.430     13.500     15.397
REMARK INTER + INTRA:          -5.181
REMARK INTER:                  -5.007
REMARK INTRA:                  -0.174
REMARK UNBOUND:                -0.347
REMARK SMILES CCCCCCCCC(=O)[O-]
REMARK SMILES IDX 6 1 7 2 8 3 9 4 10 5 11 6 5 7 4 8 3 9 2 10 1 11
REMARK H PARENT
REMARK Flexibility Score: inf
ROOT
ATOM      1  C   UNL     1      19.665 -21.515 -19.721  1.00  0.00     0.000 C 
ENDROOT
BRANCH   1   2
ATOM      2  C   UNL     1      20.870 -21.053 -18.882  1.00  0.00     0.006 C 
BRANCH   2   3
ATOM      3  C   UNL     1      20.874 -19.534 -18.662  1.00  0.00     0.053 C 
BRANCH   3   4
ATOM      4  C   UNL     1      21.237 -19.175 -17.254  1.00  0.00     0.041 C 
ATOM      5  O   UNL     1      21.920 -19.969 -16.554  1.00  0.00    -0.550 OA
ATOM      6  O   UNL     1      20.849 -17.950 -16.725  1.00  0.00    -0.550 OA
ENDBRANCH   3   4
ENDBRANCH   2   3
ENDBRANCH   1   2
BRANCH   1   7
ATOM      7  C   UNL     1      19.115 -22.874 -19.262  1.00  0.00     0.000 C 
BRANCH   7   8
ATOM      8  C   UNL     1      17.580 -22.952 -19.348  1.00  0.00    -0.000 C 
BRANCH   8   9
ATOM      9  C   UNL     1      16.950 -23.671 -18.141  1.00  0.00    -0.000 C 
BRANCH   9  10
ATOM     10  C   UNL     1      15.415 -23.583 -18.068  1.00  0.00    -0.003 C 
ATOM     11  C   UNL     1      14.913 -22.940 -16.776  1.00  0.00     0.004 C 
ENDBRANCH   9  10
ENDBRANCH   8   9
ENDBRANCH   7   8
ENDBRANCH   1   7
TORSDOF 7
ENDMDL
MODEL 5
REMARK VINA RESULT:    -3.417      4.787      6.375
REMARK INTER + INTRA:          -5.163
REMARK INTER:                  -4.821
REMARK INTRA:                  -0.342
REMARK UNBOUND:                -0.347
REMARK SMILES CCCCCCCCC(=O)[O-]
REMARK SMILES IDX 6 1 7 2 8 3 9 4 10 5 11 6 5 7 4 8 3 9 2 10 1 11
REMARK H PARENT
REMARK Flexibility Score: inf
ROOT
ATOM      1  C   UNL     1       6.661 -18.198 -15.251  1.00  0.00     0.000 C 
ENDROOT
BRANCH   1   2
ATOM      2  C   UNL     1       5.836 -19.227 -14.457  1.00  0.00     0.006 C 
BRANCH   2   3
ATOM      3  C   UNL     1       6.503 -20.608 -14.433  1.00  0.00     0.053 C 
BRANCH   3   4
ATOM      4  C   UNL     1       7.156 -20.936 -15.741  1.00  0.00     0.041 C 
ATOM      5  O   UNL     1       6.456 -21.108 -16.773  1.00  0.00    -0.550 OA
ATOM      6  O   UNL     1       8.540 -21.020 -15.826  1.00  0.00    -0.550 OA
ENDBRANCH   3   4
ENDBRANCH   2   3
ENDBRANCH   1   2
BRANCH   1   7
ATOM      7  C   UNL     1       5.779 -17.233 -16.059  1.00  0.00     0.000 C 
BRANCH   7   8
ATOM      8  C   UNL     1       5.065 -17.925 -17.233  1.00  0.00    -0.000 C 
BRANCH   8   9
ATOM      9  C   UNL     1       5.017 -17.051 -18.501  1.00  0.00    -0.000 C 
BRANCH   9  10
ATOM     10  C   UNL     1       5.554 -15.620 -18.316  1.00  0.00    -0.003 C 
ATOM     11  C   UNL     1       6.392 -15.139 -19.500  1.00  0.00     0.004 C 
ENDBRANCH   9  10
ENDBRANCH   8   9
ENDBRANCH   7   8
ENDBRANCH   1   7
TORSDOF 7
ENDMDL
MODEL 6
REMARK VINA RESULT:    -3.343      6.071      7.493
REMARK INTER + INTRA:          -5.058
REMARK INTER:                  -4.356
REMARK INTRA:                  -0.702
REMARK UNBOUND:                -0.347
REMARK SMILES CCCCCCCCC(=O)[O-]
REMARK SMILES IDX 6 1 7 2 8 3 9 4 10 5 11 6 5 7 4 8 3 9 2 10 1 11
REMARK H PARENT
REMARK Flexibility Score: inf
ROOT
ATOM      1  C   UNL     1       7.208 -21.298 -16.860  1.00  0.00     0.000 C 
ENDROOT
BRANCH   1   2
ATOM      2  C   UNL     1       5.712 -21.272 -17.218  1.00  0.00     0.006 C 
BRANCH   2   3
ATOM      3  C   UNL     1       5.465 -20.723 -18.629  1.00  0.00     0.053 C 
BRANCH   3   4
ATOM      4  C   UNL     1       6.082 -21.592 -19.682  1.00  0.00     0.041 C 
ATOM      5  O   UNL     1       5.711 -22.788 -19.814  1.00  0.00    -0.550 OA
ATOM      6  O   UNL     1       7.046 -21.072 -20.537  1.00  0.00    -0.550 OA
ENDBRANCH   3   4
ENDBRANCH   2   3
ENDBRANCH   1   2
BRANCH   1   7
ATOM      7  C   UNL     1       7.504 -20.615 -15.515  1.00  0.00     0.000 C 
BRANCH   7   8
ATOM      8  C   UNL     1       6.265 -20.537 -14.605  1.00  0.00    -0.000 C 
BRANCH   8   9
ATOM      9  C   UNL     1       5.805 -19.090 -14.346  1.00  0.00    -0.000 C 
BRANCH   9  10
ATOM     10  C   UNL     1       6.416 -18.041 -15.292  1.00  0.00    -0.003 C 
ATOM     11  C   UNL     1       5.464 -17.618 -16.410  1.00  0.00     0.004 C 
ENDBRANCH   9  10
ENDBRANCH   8   9
ENDBRANCH   7   8
ENDBRANCH   1   7
TORSDOF 7
ENDMDL
MODEL 7
REMARK VINA RESULT:    -3.305     15.174     16.928
REMARK INTER + INTRA:          -5.004
REMARK INTER:                  -4.724
REMARK INTRA:                  -0.281
REMARK UNBOUND:                -0.347
REMARK SMILES CCCCCCCCC(=O)[O-]
REMARK SMILES IDX 6 1 7 2 8 3 9 4 10 5 11 6 5 7 4 8 3 9 2 10 1 11
REMARK H PARENT
REMARK Flexibility Score: inf
ROOT
ATOM      1  C   UNL     1      20.219 -17.212 -16.636  1.00  0.00     0.000 C 
ENDROOT
BRANCH   1   2
ATOM      2  C   UNL     1      19.616 -15.898 -16.107  1.00  0.00     0.006 C 
BRANCH   2   3
ATOM      3  C   UNL     1      18.271 -16.121 -15.403  1.00  0.00     0.053 C 
BRANCH   3   4
ATOM      4  C   UNL     1      17.249 -15.109 -15.819  1.00  0.00     0.041 C 
ATOM      5  O   UNL     1      16.488 -15.341 -16.795  1.00  0.00    -0.550 OA
ATOM      6  O   UNL     1      17.116 -13.921 -15.110  1.00  0.00    -0.550 OA
ENDBRANCH   3   4
ENDBRANCH   2   3
ENDBRANCH   1   2
BRANCH   1   7
ATOM      7  C   UNL     1      21.690 -17.060 -17.053  1.00  0.00     0.000 C 
BRANCH   7   8
ATOM      8  C   UNL     1      22.261 -15.671 -16.713  1.00  0.00    -0.000 C 
BRANCH   8   9
ATOM      9  C   UNL     1      23.575 -15.368 -17.457  1.00  0.00    -0.000 C 
BRANCH   9  10
ATOM     10  C   UNL     1      24.749 -16.294 -17.094  1.00  0.00    -0.003 C 
ATOM     11  C   UNL     1      24.978 -16.406 -15.587  1.00  0.00     0.004 C 
ENDBRANCH   9  10
ENDBRANCH   8   9
ENDBRANCH   7   8
ENDBRANCH   1   7
TORSDOF 7
ENDMDL
MODEL 8
REMARK VINA RESULT:    -3.260     12.368     13.763
REMARK INTER + INTRA:          -4.941
REMARK INTER:                  -4.261
REMARK INTRA:                  -0.679
REMARK UNBOUND:                -0.347
REMARK SMILES CCCCCCCCC(=O)[O-]
REMARK SMILES IDX 6 1 7 2 8 3 9 4 10 5 11 6 5 7 4 8 3 9 2 10 1 11
REMARK H PARENT
REMARK Flexibility Score: inf
ROOT
ATOM      1  C   UNL     1      16.481 -23.623 -17.545  1.00  0.00     0.000 C 
ENDROOT
BRANCH   1   2
ATOM      2  C   UNL     1      17.191 -24.039 -18.845  1.00  0.00     0.006 C 
BRANCH   2   3
ATOM      3  C   UNL     1      17.907 -22.859 -19.516  1.00  0.00     0.053 C 
BRANCH   3   4
ATOM      4  C   UNL     1      19.394 -23.036 -19.520  1.00  0.00     0.041 C 
ATOM      5  O   UNL     1      19.920 -23.962 -20.192  1.00  0.00    -0.550 OA
ATOM      6  O   UNL     1      20.202 -22.161 -18.805  1.00  0.00    -0.550 OA
ENDBRANCH   3   4
ENDBRANCH   2   3
ENDBRANCH   1   2
BRANCH   1   7
ATOM      7  C   UNL     1      14.962 -23.848 -17.606  1.00  0.00     0.000 C 
BRANCH   7   8
ATOM      8  C   UNL     1      14.502 -24.419 -18.959  1.00  0.00    -0.000 C 
BRANCH   8   9
ATOM      9  C   UNL     1      13.639 -23.429 -19.764  1.00  0.00    -0.000 C 
BRANCH   9  10
ATOM     10  C   UNL     1      13.866 -21.947 -19.415  1.00  0.00    -0.003 C 
ATOM     11  C   UNL     1      14.707 -21.210 -20.457  1.00  0.00     0.004 C 
ENDBRANCH   9  10
ENDBRANCH   8   9
ENDBRANCH   7   8
ENDBRANCH   1   7
TORSDOF 7
ENDMDL
MODEL 9
REMARK VINA RESULT:    -3.246     11.934     13.461
REMARK INTER + INTRA:          -4.921
REMARK INTER:                  -4.179
REMARK INTRA:                  -0.742
REMARK UNBOUND:                -0.347
REMARK SMILES CCCCCCCCC(=O)[O-]
REMARK SMILES IDX 6 1 7 2 8 3 9 4 10 5 11 6 5 7 4 8 3 9 2 10 1 11
REMARK H PARENT
REMARK Flexibility Score: inf
ROOT
ATOM      1  C   UNL     1      14.272 -22.349 -18.786  1.00  0.00     0.000 C 
ENDROOT
BRANCH   1   2
ATOM      2  C   UNL     1      14.232 -21.677 -20.170  1.00  0.00     0.006 C 
BRANCH   2   3
ATOM      3  C   UNL     1      15.354 -20.645 -20.345  1.00  0.00     0.053 C 
BRANCH   3   4
ATOM      4  C   UNL     1      14.820 -19.298 -20.724  1.00  0.00     0.041 C 
ATOM      5  O   UNL     1      13.607 -19.162 -21.036  1.00  0.00    -0.550 OA
ATOM      6  O   UNL     1      15.653 -18.186 -20.703  1.00  0.00    -0.550 OA
ENDBRANCH   3   4
ENDBRANCH   2   3
ENDBRANCH   1   2
BRANCH   1   7
ATOM      7  C   UNL     1      14.241 -23.883 -18.875  1.00  0.00     0.000 C 
BRANCH   7   8
ATOM      8  C   UNL     1      15.648 -24.506 -18.837  1.00  0.00    -0.000 C 
BRANCH   8   9
ATOM      9  C   UNL     1      16.655 -23.658 -18.037  1.00  0.00    -0.000 C 
BRANCH   9  10
ATOM     10  C   UNL     1      17.915 -23.247 -18.821  1.00  0.00    -0.003 C 
ATOM     11  C   UNL     1      17.797 -23.509 -20.321  1.00  0.00     0.004 C 
ENDBRANCH   9  10
ENDBRANCH   8   9
ENDBRANCH   7   8
ENDBRANCH   1   7
TORSDOF 7
ENDMDL
