MODEL 1
REMARK VINA RESULT:    -7.108      0.000      0.000
REMARK INTER + INTRA:          -8.767
REMARK INTER:                  -8.562
REMARK INTRA:                  -0.205
REMARK UNBOUND:                -0.205
REMARK SMILES Oc1cc(O)c2c(c1)O[C@@H](c1ccc(O)c(O)c1)[C@H](O)C2
REMARK SMILES IDX 21 1 19 2 10 3 9 4 7 5 8 6 2 7 3 8 4 9 6 10 20 11 11 13
REMARK SMILES IDX 18 14 12 15 16 16 13 17 14 18 17 19 15 21 5 23 1 25
REMARK H PARENT 20 12 17 20 15 22 5 24 1 26
REMARK Flexibility Score: inf
ROOT
ATOM      1  C   UNL     1       9.051  31.962  21.584  1.00  0.00     0.079 C 
ATOM      2  C   UNL     1      10.402  32.122  20.861  1.00  0.00     0.164 C 
ATOM      3  C   UNL     1      11.124  33.393  21.352  1.00  0.00     0.232 C 
ATOM      4  O   UNL     1      11.283  33.338  22.770  1.00  0.00    -0.482 OA
ATOM      5  C   UNL     1      10.294  32.818  23.614  1.00  0.00     0.131 A 
ATOM      6  C   UNL     1      10.439  32.970  24.996  1.00  0.00     0.093 A 
ATOM      7  C   UNL     1       9.460  32.476  25.864  1.00  0.00     0.122 A 
ATOM      8  C   UNL     1       8.331  31.838  25.347  1.00  0.00     0.092 A 
ATOM      9  C   UNL     1       8.169  31.678  23.967  1.00  0.00     0.126 A 
ATOM     10  C   UNL     1       9.176  32.137  23.084  1.00  0.00     0.039 A 
ENDROOT
BRANCH   2  11
ATOM     11  O   UNL     1      10.217  32.143  19.467  1.00  0.00    -0.389 OA
ATOM     12  H   UNL     1       9.444  32.736  19.275  1.00  0.00     0.211 HD
ENDBRANCH   2  11
BRANCH   3  13
ATOM     13  C   UNL     1      12.475  33.543  20.694  1.00  0.00    -0.001 A 
ATOM     14  C   UNL     1      13.629  33.051  21.328  1.00  0.00     0.057 A 
ATOM     15  C   UNL     1      12.602  34.220  19.470  1.00  0.00     0.012 A 
ATOM     16  C   UNL     1      14.889  33.213  20.740  1.00  0.00     0.157 A 
ATOM     17  C   UNL     1      13.858  34.381  18.880  1.00  0.00     0.050 A 
ATOM     18  C   UNL     1      15.005  33.879  19.508  1.00  0.00     0.157 A 
BRANCH  16  19
ATOM     19  O   UNL     1      16.012  32.706  21.393  1.00  0.00    -0.504 OA
ATOM     20  H   UNL     1      16.067  32.649  22.403  1.00  0.00     0.293 HD
ENDBRANCH  16  19
BRANCH  18  21
ATOM     21  O   UNL     1      16.256  34.042  18.916  1.00  0.00    -0.504 OA
ATOM     22  H   UNL     1      16.486  34.870  18.379  1.00  0.00     0.293 HD
ENDBRANCH  18  21
ENDBRANCH   3  13
BRANCH   9  23
ATOM     23  O   UNL     1       6.997  31.072  23.508  1.00  0.00    -0.507 OA
ATOM     24  H   UNL     1       6.812  30.082  23.595  1.00  0.00     0.293 HD
ENDBRANCH   9  23
BRANCH   7  25
ATOM     25  O   UNL     1       9.597  32.620  27.243  1.00  0.00    -0.508 OA
ATOM     26  H   UNL     1      10.509  32.643  27.686  1.00  0.00     0.293 HD
ENDBRANCH   7  25
TORSDOF 6
ENDMDL
MODEL 2
REMARK VINA RESULT:    -7.061      1.335      1.759
REMARK INTER + INTRA:          -8.711
REMARK INTER:                  -8.349
REMARK INTRA:                  -0.362
REMARK UNBOUND:                -0.205
REMARK SMILES Oc1cc(O)c2c(c1)O[C@@H](c1ccc(O)c(O)c1)[C@H](O)C2
REMARK SMILES IDX 21 1 19 2 10 3 9 4 7 5 8 6 2 7 3 8 4 9 6 10 20 11 11 13
REMARK SMILES IDX 18 14 12 15 16 16 13 17 14 18 17 19 15 21 5 23 1 25
REMARK H PARENT 20 12 17 20 15 22 5 24 1 26
REMARK Flexibility Score: inf
ROOT
ATOM      1  C   UNL     1       9.439  33.507  21.365  1.00  0.00     0.079 C 
ATOM      2  C   UNL     1      10.698  33.039  20.611  1.00  0.00     0.164 C 
ATOM      3  C   UNL     1      11.968  33.510  21.346  1.00  0.00     0.232 C 
ATOM      4  O   UNL     1      11.948  33.035  22.692  1.00  0.00    -0.482 OA
ATOM      5  C   UNL     1      10.772  32.986  23.451  1.00  0.00     0.131 A 
ATOM      6  C   UNL     1      10.860  32.691  24.814  1.00  0.00     0.093 A 
ATOM      7  C   UNL     1       9.705  32.650  25.602  1.00  0.00     0.122 A 
ATOM      8  C   UNL     1       8.461  32.914  25.024  1.00  0.00     0.092 A 
ATOM      9  C   UNL     1       8.355  33.212  23.661  1.00  0.00     0.126 A 
ATOM     10  C   UNL     1       9.514  33.213  22.849  1.00  0.00     0.039 A 
ENDROOT
BRANCH   2  11
ATOM     11  O   UNL     1      10.676  33.495  19.281  1.00  0.00    -0.389 OA
ATOM     12  H   UNL     1      10.980  34.441  19.282  1.00  0.00     0.211 HD
ENDBRANCH   2  11
BRANCH   3  13
ATOM     13  C   UNL     1      13.217  33.018  20.652  1.00  0.00    -0.001 A 
ATOM     14  C   UNL     1      14.068  33.926  19.999  1.00  0.00     0.057 A 
ATOM     15  C   UNL     1      13.514  31.646  20.607  1.00  0.00     0.012 A 
ATOM     16  C   UNL     1      15.210  33.475  19.328  1.00  0.00     0.157 A 
ATOM     17  C   UNL     1      14.654  31.193  19.939  1.00  0.00     0.050 A 
ATOM     18  C   UNL     1      15.508  32.102  19.299  1.00  0.00     0.157 A 
BRANCH  16  19
ATOM     19  O   UNL     1      16.036  34.404  18.697  1.00  0.00    -0.504 OA
ATOM     20  H   UNL     1      16.780  34.884  19.188  1.00  0.00     0.293 HD
ENDBRANCH  16  19
BRANCH  18  21
ATOM     21  O   UNL     1      16.645  31.646  18.634  1.00  0.00    -0.504 OA
ATOM     22  H   UNL     1      16.658  31.523  17.629  1.00  0.00     0.293 HD
ENDBRANCH  18  21
ENDBRANCH   3  13
BRANCH   9  23
ATOM     23  O   UNL     1       7.089  33.512  23.151  1.00  0.00    -0.507 OA
ATOM     24  H   UNL     1       6.671  33.018  22.375  1.00  0.00     0.293 HD
ENDBRANCH   9  23
BRANCH   7  25
ATOM     25  O   UNL     1       9.783  32.354  26.961  1.00  0.00    -0.508 OA
ATOM     26  H   UNL     1      10.638  32.495  27.486  1.00  0.00     0.293 HD
ENDBRANCH   7  25
TORSDOF 6
ENDMDL
MODEL 3
REMARK VINA RESULT:    -6.822      1.304      6.708
REMARK INTER + INTRA:          -8.423
REMARK INTER:                  -8.155
REMARK INTRA:                  -0.268
REMARK UNBOUND:                -0.205
REMARK SMILES Oc1cc(O)c2c(c1)O[C@@H](c1ccc(O)c(O)c1)[C@H](O)C2
REMARK SMILES IDX 21 1 19 2 10 3 9 4 7 5 8 6 2 7 3 8 4 9 6 10 20 11 11 13
REMARK SMILES IDX 18 14 12 15 16 16 13 17 14 18 17 19 15 21 5 23 1 25
REMARK H PARENT 20 12 17 20 15 22 5 24 1 26
REMARK Flexibility Score: inf
ROOT
ATOM      1  C   UNL     1      11.694  33.640  20.256  1.00  0.00     0.079 C 
ATOM      2  C   UNL     1      10.573  33.516  21.306  1.00  0.00     0.164 C 
ATOM      3  C   UNL     1      10.633  32.136  21.990  1.00  0.00     0.232 C 
ATOM      4  O   UNL     1      11.925  31.940  22.566  1.00  0.00    -0.482 OA
ATOM      5  C   UNL     1      13.098  32.373  21.936  1.00  0.00     0.131 A 
ATOM      6  C   UNL     1      14.331  31.981  22.462  1.00  0.00     0.093 A 
ATOM      7  C   UNL     1      15.520  32.384  21.846  1.00  0.00     0.122 A 
ATOM      8  C   UNL     1      15.473  33.173  20.695  1.00  0.00     0.092 A 
ATOM      9  C   UNL     1      14.247  33.574  20.153  1.00  0.00     0.126 A 
ATOM     10  C   UNL     1      13.041  33.206  20.797  1.00  0.00     0.039 A 
ENDROOT
BRANCH   2  11
ATOM     11  O   UNL     1       9.317  33.743  20.718  1.00  0.00    -0.389 OA
ATOM     12  H   UNL     1       8.953  34.585  21.100  1.00  0.00     0.211 HD
ENDBRANCH   2  11
BRANCH   3  13
ATOM     13  C   UNL     1       9.575  32.011  23.062  1.00  0.00    -0.001 A 
ATOM     14  C   UNL     1       9.844  32.436  24.374  1.00  0.00     0.057 A 
ATOM     15  C   UNL     1       8.333  31.422  22.774  1.00  0.00     0.012 A 
ATOM     16  C   UNL     1       8.880  32.296  25.380  1.00  0.00     0.157 A 
ATOM     17  C   UNL     1       7.369  31.282  23.774  1.00  0.00     0.050 A 
ATOM     18  C   UNL     1       7.635  31.719  25.079  1.00  0.00     0.157 A 
BRANCH  16  19
ATOM     19  O   UNL     1       9.178  32.735  26.669  1.00  0.00    -0.504 OA
ATOM     20  H   UNL     1       9.712  32.172  27.319  1.00  0.00     0.293 HD
ENDBRANCH  16  19
BRANCH  18  21
ATOM     21  O   UNL     1       6.670  31.578  26.075  1.00  0.00    -0.504 OA
ATOM     22  H   UNL     1       6.509  30.690  26.537  1.00  0.00     0.293 HD
ENDBRANCH  18  21
ENDBRANCH   3  13
BRANCH   9  23
ATOM     23  O   UNL     1      14.263  34.325  18.975  1.00  0.00    -0.507 OA
ATOM     24  H   UNL     1      13.901  33.986  18.095  1.00  0.00     0.293 HD
ENDBRANCH   9  23
BRANCH   7  25
ATOM     25  O   UNL     1      16.754  32.000  22.366  1.00  0.00    -0.508 OA
ATOM     26  H   UNL     1      16.929  31.989  23.365  1.00  0.00     0.293 HD
ENDBRANCH   7  25
TORSDOF 6
ENDMDL
MODEL 4
REMARK VINA RESULT:    -6.781      3.046      5.406
REMARK INTER + INTRA:          -8.374
REMARK INTER:                  -8.015
REMARK INTRA:                  -0.358
REMARK UNBOUND:                -0.205
REMARK SMILES Oc1cc(O)c2c(c1)O[C@@H](c1ccc(O)c(O)c1)[C@H](O)C2
REMARK SMILES IDX 21 1 19 2 10 3 9 4 7 5 8 6 2 7 3 8 4 9 6 10 20 11 11 13
REMARK SMILES IDX 18 14 12 15 16 16 13 17 14 18 17 19 15 21 5 23 1 25
REMARK H PARENT 20 12 17 20 15 22 5 24 1 26
REMARK Flexibility Score: inf
ROOT
ATOM      1  C   UNL     1      13.896  33.101  19.451  1.00  0.00     0.079 C 
ATOM      2  C   UNL     1      14.661  32.076  20.310  1.00  0.00     0.164 C 
ATOM      3  C   UNL     1      14.571  32.456  21.801  1.00  0.00     0.232 C 
ATOM      4  O   UNL     1      13.202  32.559  22.189  1.00  0.00    -0.482 OA
ATOM      5  C   UNL     1      12.224  33.106  21.349  1.00  0.00     0.131 A 
ATOM      6  C   UNL     1      10.948  33.348  21.865  1.00  0.00     0.093 A 
ATOM      7  C   UNL     1       9.955  33.908  21.054  1.00  0.00     0.122 A 
ATOM      8  C   UNL     1      10.245  34.234  19.728  1.00  0.00     0.092 A 
ATOM      9  C   UNL     1      11.517  34.000  19.195  1.00  0.00     0.126 A 
ATOM     10  C   UNL     1      12.514  33.394  19.996  1.00  0.00     0.039 A 
ENDROOT
BRANCH   2  11
ATOM     11  O   UNL     1      15.997  31.974  19.885  1.00  0.00    -0.389 OA
ATOM     12  H   UNL     1      16.182  31.016  19.699  1.00  0.00     0.211 HD
ENDBRANCH   2  11
BRANCH   3  13
ATOM     13  C   UNL     1      15.270  31.436  22.669  1.00  0.00    -0.001 A 
ATOM     14  C   UNL     1      16.468  31.766  23.324  1.00  0.00     0.057 A 
ATOM     15  C   UNL     1      14.761  30.132  22.789  1.00  0.00     0.012 A 
ATOM     16  C   UNL     1      17.138  30.818  24.106  1.00  0.00     0.157 A 
ATOM     17  C   UNL     1      15.426  29.184  23.569  1.00  0.00     0.050 A 
ATOM     18  C   UNL     1      16.614  29.520  24.232  1.00  0.00     0.157 A 
BRANCH  16  19
ATOM     19  O   UNL     1      18.321  31.182  24.747  1.00  0.00    -0.504 OA
ATOM     20  H   UNL     1      18.330  31.550  25.691  1.00  0.00     0.293 HD
ENDBRANCH  16  19
BRANCH  18  21
ATOM     21  O   UNL     1      17.275  28.571  25.009  1.00  0.00    -0.504 OA
ATOM     22  H   UNL     1      17.533  28.759  25.971  1.00  0.00     0.293 HD
ENDBRANCH  18  21
ENDBRANCH   3  13
BRANCH   9  23
ATOM     23  O   UNL     1      11.759  34.390  17.875  1.00  0.00    -0.507 OA
ATOM     24  H   UNL     1      12.110  35.302  17.620  1.00  0.00     0.293 HD
ENDBRANCH   9  23
BRANCH   7  25
ATOM     25  O   UNL     1       8.680  34.150  21.559  1.00  0.00    -0.508 OA
ATOM     26  H   UNL     1       8.089  33.395  21.890  1.00  0.00     0.293 HD
ENDBRANCH   7  25
TORSDOF 6
ENDMDL
MODEL 5
REMARK VINA RESULT:    -6.569      3.390      6.500
REMARK INTER + INTRA:          -8.118
REMARK INTER:                  -7.750
REMARK INTRA:                  -0.368
REMARK UNBOUND:                -0.205
REMARK SMILES Oc1cc(O)c2c(c1)O[C@@H](c1ccc(O)c(O)c1)[C@H](O)C2
REMARK SMILES IDX 21 1 19 2 10 3 9 4 7 5 8 6 2 7 3 8 4 9 6 10 20 11 11 13
REMARK SMILES IDX 18 14 12 15 16 16 13 17 14 18 17 19 15 21 5 23 1 25
REMARK H PARENT 20 12 17 20 15 22 5 24 1 26
REMARK Flexibility Score: inf
ROOT
ATOM      1  C   UNL     1      14.074  31.362  19.928  1.00  0.00     0.079 C 
ATOM      2  C   UNL     1      13.336  32.192  20.996  1.00  0.00     0.164 C 
ATOM      3  C   UNL     1      11.837  31.832  21.011  1.00  0.00     0.232 C 
ATOM      4  O   UNL     1      11.682  30.430  21.227  1.00  0.00    -0.482 OA
ATOM      5  C   UNL     1      12.542  29.485  20.656  1.00  0.00     0.131 A 
ATOM      6  C   UNL     1      12.219  28.129  20.755  1.00  0.00     0.093 A 
ATOM      7  C   UNL     1      13.050  27.162  20.181  1.00  0.00     0.122 A 
ATOM      8  C   UNL     1      14.203  27.555  19.498  1.00  0.00     0.092 A 
ATOM      9  C   UNL     1      14.542  28.907  19.388  1.00  0.00     0.126 A 
ATOM     10  C   UNL     1      13.729  29.889  20.004  1.00  0.00     0.039 A 
ENDROOT
BRANCH   2  11
ATOM     11  O   UNL     1      13.531  33.567  20.775  1.00  0.00    -0.389 OA
ATOM     12  H   UNL     1      14.285  33.861  21.352  1.00  0.00     0.211 HD
ENDBRANCH   2  11
BRANCH   3  13
ATOM     13  C   UNL     1      11.102  32.597  22.086  1.00  0.00    -0.001 A 
ATOM     14  C   UNL     1      11.293  32.273  23.441  1.00  0.00     0.057 A 
ATOM     15  C   UNL     1      10.182  33.602  21.746  1.00  0.00     0.012 A 
ATOM     16  C   UNL     1      10.593  32.956  24.442  1.00  0.00     0.157 A 
ATOM     17  C   UNL     1       9.483  34.287  22.743  1.00  0.00     0.050 A 
ATOM     18  C   UNL     1       9.685  33.970  24.093  1.00  0.00     0.157 A 
BRANCH  16  19
ATOM     19  O   UNL     1      10.812  32.613  25.776  1.00  0.00    -0.504 OA
ATOM     20  H   UNL     1      10.184  32.004  26.285  1.00  0.00     0.293 HD
ENDBRANCH  16  19
BRANCH  18  21
ATOM     21  O   UNL     1       8.986  34.655  25.085  1.00  0.00    -0.504 OA
ATOM     22  H   UNL     1       9.399  35.435  25.583  1.00  0.00     0.293 HD
ENDBRANCH  18  21
ENDBRANCH   3  13
BRANCH   9  23
ATOM     23  O   UNL     1      15.683  29.241  18.654  1.00  0.00    -0.507 OA
ATOM     24  H   UNL     1      16.573  28.774  18.765  1.00  0.00     0.293 HD
ENDBRANCH   9  23
BRANCH   7  25
ATOM     25  O   UNL     1      12.737  25.808  20.278  1.00  0.00    -0.508 OA
ATOM     26  H   UNL     1      13.120  25.128  19.631  1.00  0.00     0.293 HD
ENDBRANCH   7  25
TORSDOF 6
ENDMDL
MODEL 6
REMARK VINA RESULT:    -6.536      5.535      7.803
REMARK INTER + INTRA:          -8.079
REMARK INTER:                  -8.240
REMARK INTRA:                   0.162
REMARK UNBOUND:                -0.205
REMARK SMILES Oc1cc(O)c2c(c1)O[C@@H](c1ccc(O)c(O)c1)[C@H](O)C2
REMARK SMILES IDX 21 1 19 2 10 3 9 4 7 5 8 6 2 7 3 8 4 9 6 10 20 11 11 13
REMARK SMILES IDX 18 14 12 15 16 16 13 17 14 18 17 19 15 21 5 23 1 25
REMARK H PARENT 20 12 17 20 15 22 5 24 1 26
REMARK Flexibility Score: inf
ROOT
ATOM      1  C   UNL     1      15.294  31.609  22.072  1.00  0.00     0.079 C 
ATOM      2  C   UNL     1      16.415  31.201  23.048  1.00  0.00     0.164 C 
ATOM      3  C   UNL     1      15.898  30.142  24.042  1.00  0.00     0.232 C 
ATOM      4  O   UNL     1      15.383  29.021  23.325  1.00  0.00    -0.482 OA
ATOM      5  C   UNL     1      14.659  29.161  22.136  1.00  0.00     0.131 A 
ATOM      6  C   UNL     1      14.026  28.040  21.593  1.00  0.00     0.093 A 
ATOM      7  C   UNL     1      13.282  28.152  20.414  1.00  0.00     0.122 A 
ATOM      8  C   UNL     1      13.164  29.392  19.783  1.00  0.00     0.092 A 
ATOM      9  C   UNL     1      13.790  30.526  20.312  1.00  0.00     0.126 A 
ATOM     10  C   UNL     1      14.581  30.411  21.481  1.00  0.00     0.039 A 
ENDROOT
BRANCH   2  11
ATOM     11  O   UNL     1      16.923  32.328  23.716  1.00  0.00    -0.389 OA
ATOM     12  H   UNL     1      17.650  32.019  24.319  1.00  0.00     0.211 HD
ENDBRANCH   2  11
BRANCH   3  13
ATOM     13  C   UNL     1      16.995  29.688  24.976  1.00  0.00    -0.001 A 
ATOM     14  C   UNL     1      17.616  30.608  25.838  1.00  0.00     0.057 A 
ATOM     15  C   UNL     1      17.442  28.356  24.959  1.00  0.00     0.012 A 
ATOM     16  C   UNL     1      18.654  30.202  26.685  1.00  0.00     0.157 A 
ATOM     17  C   UNL     1      18.476  27.947  25.804  1.00  0.00     0.050 A 
ATOM     18  C   UNL     1      19.086  28.864  26.671  1.00  0.00     0.157 A 
BRANCH  16  19
ATOM     19  O   UNL     1      19.243  31.139  27.532  1.00  0.00    -0.504 OA
ATOM     20  H   UNL     1      20.104  30.949  28.030  1.00  0.00     0.293 HD
ENDBRANCH  16  19
BRANCH  18  21
ATOM     21  O   UNL     1      20.117  28.453  27.513  1.00  0.00    -0.504 OA
ATOM     22  H   UNL     1      20.195  28.794  28.464  1.00  0.00     0.293 HD
ENDBRANCH  18  21
ENDBRANCH   3  13
BRANCH   9  23
ATOM     23  O   UNL     1      13.599  31.746  19.660  1.00  0.00    -0.507 OA
ATOM     24  H   UNL     1      13.237  32.571  20.119  1.00  0.00     0.293 HD
ENDBRANCH   9  23
BRANCH   7  25
ATOM     25  O   UNL     1      12.650  27.039  19.865  1.00  0.00    -0.508 OA
ATOM     26  H   UNL     1      12.962  26.096  20.071  1.00  0.00     0.293 HD
ENDBRANCH   7  25
TORSDOF 6
ENDMDL
MODEL 7
REMARK VINA RESULT:    -6.360      1.501      6.890
REMARK INTER + INTRA:          -7.866
REMARK INTER:                  -7.500
REMARK INTRA:                  -0.367
REMARK UNBOUND:                -0.205
REMARK SMILES Oc1cc(O)c2c(c1)O[C@@H](c1ccc(O)c(O)c1)[C@H](O)C2
REMARK SMILES IDX 21 1 19 2 10 3 9 4 7 5 8 6 2 7 3 8 4 9 6 10 20 11 11 13
REMARK SMILES IDX 18 14 12 15 16 16 13 17 14 18 17 19 15 21 5 23 1 25
REMARK H PARENT 20 12 17 20 15 22 5 24 1 26
REMARK Flexibility Score: inf
ROOT
ATOM      1  C   UNL     1      10.597  34.060  19.710  1.00  0.00     0.079 C 
ATOM      2  C   UNL     1       9.668  33.826  20.916  1.00  0.00     0.164 C 
ATOM      3  C   UNL     1       9.975  32.463  21.570  1.00  0.00     0.232 C 
ATOM      4  O   UNL     1      11.352  32.408  21.941  1.00  0.00    -0.482 OA
ATOM      5  C   UNL     1      12.364  32.958  21.146  1.00  0.00     0.131 A 
ATOM      6  C   UNL     1      13.697  32.701  21.475  1.00  0.00     0.093 A 
ATOM      7  C   UNL     1      14.731  33.224  20.690  1.00  0.00     0.122 A 
ATOM      8  C   UNL     1      14.427  33.996  19.568  1.00  0.00     0.092 A 
ATOM      9  C   UNL     1      13.098  34.263  19.222  1.00  0.00     0.126 A 
ATOM     10  C   UNL     1      12.048  33.774  20.036  1.00  0.00     0.039 A 
ENDROOT
BRANCH   2  11
ATOM     11  O   UNL     1       8.320  33.916  20.527  1.00  0.00    -0.389 OA
ATOM     12  H   UNL     1       7.773  34.007  21.352  1.00  0.00     0.211 HD
ENDBRANCH   2  11
BRANCH   3  13
ATOM     13  C   UNL     1       9.111  32.234  22.788  1.00  0.00    -0.001 A 
ATOM     14  C   UNL     1       8.210  31.156  22.824  1.00  0.00     0.057 A 
ATOM     15  C   UNL     1       9.159  33.122  23.875  1.00  0.00     0.012 A 
ATOM     16  C   UNL     1       7.384  30.954  23.936  1.00  0.00     0.157 A 
ATOM     17  C   UNL     1       8.338  32.923  24.987  1.00  0.00     0.050 A 
ATOM     18  C   UNL     1       7.449  31.840  25.025  1.00  0.00     0.157 A 
BRANCH  16  19
ATOM     19  O   UNL     1       6.507  29.871  23.940  1.00  0.00    -0.504 OA
ATOM     20  H   UNL     1       6.751  28.982  24.359  1.00  0.00     0.293 HD
ENDBRANCH  16  19
BRANCH  18  21
ATOM     21  O   UNL     1       6.631  31.643  26.136  1.00  0.00    -0.504 OA
ATOM     22  H   UNL     1       5.848  31.000  26.112  1.00  0.00     0.293 HD
ENDBRANCH  18  21
ENDBRANCH   3  13
BRANCH   9  23
ATOM     23  O   UNL     1      12.856  35.004  18.062  1.00  0.00    -0.507 OA
ATOM     24  H   UNL     1      12.143  34.764  17.387  1.00  0.00     0.293 HD
ENDBRANCH   9  23
BRANCH   7  25
ATOM     25  O   UNL     1      16.063  32.975  21.014  1.00  0.00    -0.508 OA
ATOM     26  H   UNL     1      16.338  32.692  21.948  1.00  0.00     0.293 HD
ENDBRANCH   7  25
TORSDOF 6
ENDMDL
MODEL 8
REMARK VINA RESULT:    -6.222      1.847      7.080
REMARK INTER + INTRA:          -7.700
REMARK INTER:                  -7.352
REMARK INTRA:                  -0.348
REMARK UNBOUND:                -0.205
REMARK SMILES Oc1cc(O)c2c(c1)O[C@@H](c1ccc(O)c(O)c1)[C@H](O)C2
REMARK SMILES IDX 21 1 19 2 10 3 9 4 7 5 8 6 2 7 3 8 4 9 6 10 20 11 11 13
REMARK SMILES IDX 18 14 12 15 16 16 13 17 14 18 17 19 15 21 5 23 1 25
REMARK H PARENT 20 12 17 20 15 22 5 24 1 26
REMARK Flexibility Score: inf
ROOT
ATOM      1  C   UNL     1      14.134  31.144  20.165  1.00  0.00     0.079 C 
ATOM      2  C   UNL     1      12.738  31.312  20.795  1.00  0.00     0.164 C 
ATOM      3  C   UNL     1      12.705  32.564  21.693  1.00  0.00     0.232 C 
ATOM      4  O   UNL     1      13.087  33.711  20.934  1.00  0.00    -0.482 OA
ATOM      5  C   UNL     1      14.099  33.665  19.968  1.00  0.00     0.131 A 
ATOM      6  C   UNL     1      14.547  34.862  19.403  1.00  0.00     0.093 A 
ATOM      7  C   UNL     1      15.568  34.851  18.447  1.00  0.00     0.122 A 
ATOM      8  C   UNL     1      16.148  33.640  18.065  1.00  0.00     0.092 A 
ATOM      9  C   UNL     1      15.713  32.432  18.621  1.00  0.00     0.126 A 
ATOM     10  C   UNL     1      14.651  32.432  19.557  1.00  0.00     0.039 A 
ENDROOT
BRANCH   2  11
ATOM     11  O   UNL     1      12.376  30.157  21.510  1.00  0.00    -0.389 OA
ATOM     12  H   UNL     1      13.212  29.727  21.831  1.00  0.00     0.211 HD
ENDBRANCH   2  11
BRANCH   3  13
ATOM     13  C   UNL     1      11.330  32.779  22.281  1.00  0.00    -0.001 A 
ATOM     14  C   UNL     1      11.095  32.524  23.643  1.00  0.00     0.057 A 
ATOM     15  C   UNL     1      10.260  33.185  21.466  1.00  0.00     0.012 A 
ATOM     16  C   UNL     1       9.817  32.691  24.189  1.00  0.00     0.157 A 
ATOM     17  C   UNL     1       8.984  33.354  22.008  1.00  0.00     0.050 A 
ATOM     18  C   UNL     1       8.756  33.111  23.370  1.00  0.00     0.157 A 
BRANCH  16  19
ATOM     19  O   UNL     1       9.622  32.435  25.546  1.00  0.00    -0.504 OA
ATOM     20  H   UNL     1       8.697  32.344  25.949  1.00  0.00     0.293 HD
ENDBRANCH  16  19
BRANCH  18  21
ATOM     21  O   UNL     1       7.482  33.281  23.907  1.00  0.00    -0.504 OA
ATOM     22  H   UNL     1       7.252  32.960  24.841  1.00  0.00     0.293 HD
ENDBRANCH  18  21
ENDBRANCH   3  13
BRANCH   9  23
ATOM     23  O   UNL     1      16.362  31.257  18.232  1.00  0.00    -0.507 OA
ATOM     24  H   UNL     1      15.894  30.489  17.772  1.00  0.00     0.293 HD
ENDBRANCH   9  23
BRANCH   7  25
ATOM     25  O   UNL     1      16.019  36.039  17.876  1.00  0.00    -0.508 OA
ATOM     26  H   UNL     1      16.981  36.151  17.576  1.00  0.00     0.293 HD
ENDBRANCH   7  25
TORSDOF 6
ENDMDL
MODEL 9
REMARK VINA RESULT:    -5.919      2.318      2.449
REMARK INTER + INTRA:          -7.335
REMARK INTER:                  -7.021
REMARK INTRA:                  -0.314
REMARK UNBOUND:                -0.205
REMARK SMILES Oc1cc(O)c2c(c1)O[C@@H](c1ccc(O)c(O)c1)[C@H](O)C2
REMARK SMILES IDX 21 1 19 2 10 3 9 4 7 5 8 6 2 7 3 8 4 9 6 10 20 11 11 13
REMARK SMILES IDX 18 14 12 15 16 16 13 17 14 18 17 19 15 21 5 23 1 25
REMARK H PARENT 20 12 17 20 15 22 5 24 1 26
REMARK Flexibility Score: inf
ROOT
ATOM      1  C   UNL     1       9.067  32.698  21.271  1.00  0.00     0.079 C 
ATOM      2  C   UNL     1      10.165  31.872  20.574  1.00  0.00     0.164 C 
ATOM      3  C   UNL     1      11.554  32.264  21.117  1.00  0.00     0.232 C 
ATOM      4  O   UNL     1      11.581  32.096  22.534  1.00  0.00    -0.482 OA
ATOM      5  C   UNL     1      10.485  32.410  23.346  1.00  0.00     0.131 A 
ATOM      6  C   UNL     1      10.648  32.400  24.734  1.00  0.00     0.093 A 
ATOM      7  C   UNL     1       9.576  32.725  25.571  1.00  0.00     0.122 A 
ATOM      8  C   UNL     1       8.342  33.070  25.017  1.00  0.00     0.092 A 
ATOM      9  C   UNL     1       8.161  33.086  23.630  1.00  0.00     0.126 A 
ATOM     10  C   UNL     1       9.229  32.716  22.777  1.00  0.00     0.039 A 
ENDROOT
BRANCH   2  11
ATOM     11  O   UNL     1      10.095  32.034  19.179  1.00  0.00    -0.389 OA
ATOM     12  H   UNL     1      10.974  32.379  18.871  1.00  0.00     0.211 HD
ENDBRANCH   2  11
BRANCH   3  13
ATOM     13  C   UNL     1      12.643  31.430  20.485  1.00  0.00    -0.001 A 
ATOM     14  C   UNL     1      12.925  30.144  20.976  1.00  0.00     0.057 A 
ATOM     15  C   UNL     1      13.421  31.947  19.435  1.00  0.00     0.012 A 
ATOM     16  C   UNL     1      13.953  29.376  20.416  1.00  0.00     0.157 A 
ATOM     17  C   UNL     1      14.446  31.183  18.873  1.00  0.00     0.050 A 
ATOM     18  C   UNL     1      14.716  29.896  19.357  1.00  0.00     0.157 A 
BRANCH  16  19
ATOM     19  O   UNL     1      14.200  28.102  20.924  1.00  0.00    -0.504 OA
ATOM     20  H   UNL     1      14.012  27.263  20.389  1.00  0.00     0.293 HD
ENDBRANCH  16  19
BRANCH  18  21
ATOM     21  O   UNL     1      15.740  29.136  18.794  1.00  0.00    -0.504 OA
ATOM     22  H   UNL     1      16.303  29.488  18.028  1.00  0.00     0.293 HD
ENDBRANCH  18  21
ENDBRANCH   3  13
BRANCH   9  23
ATOM     23  O   UNL     1       6.916  33.483  23.134  1.00  0.00    -0.507 OA
ATOM     24  H   UNL     1       6.266  32.849  22.691  1.00  0.00     0.293 HD
ENDBRANCH   9  23
BRANCH   7  25
ATOM     25  O   UNL     1       9.729  32.715  26.956  1.00  0.00    -0.508 OA
ATOM     26  H   UNL     1       9.114  33.248  27.561  1.00  0.00     0.293 HD
ENDBRANCH   7  25
TORSDOF 6
ENDMDL
