MODEL 1
REMARK VINA RESULT:    -4.600      0.000      0.000
REMARK INTER + INTRA:          -6.668
REMARK INTER:                  -6.214
REMARK INTRA:                  -0.454
REMARK UNBOUND:                -0.454
REMARK SMILES CC(=O)OCC=C(C)CCC=C(C)C
REMARK SMILES IDX 7 1 6 2 8 3 9 4 10 5 11 6 13 7 12 8 14 9 5 10 4 11 2 12 3 13
REMARK SMILES IDX 1 14
REMARK H PARENT
REMARK Flexibility Score: inf
ROOT
ATOM      1  C   UNL     1       4.237  -0.580  -8.530  1.00  0.00    -0.074 C 
ATOM      2  C   UNL     1       3.280  -1.470  -8.184  1.00  0.00     0.013 C 
ATOM      3  C   UNL     1       3.886   0.772  -9.108  1.00  0.00     0.039 C 
ENDROOT
BRANCH   1   4
ATOM      4  C   UNL     1       5.691  -0.941  -8.320  1.00  0.00     0.034 C 
BRANCH   4   5
ATOM      5  C   UNL     1       6.571   0.314  -8.321  1.00  0.00     0.032 C 
BRANCH   5   6
ATOM      6  C   UNL     1       7.593   0.268  -7.209  1.00  0.00    -0.028 C 
ATOM      7  C   UNL     1       9.706   0.832  -6.086  1.00  0.00     0.039 C 
ATOM      8  C   UNL     1       8.757   0.949  -7.251  1.00  0.00    -0.080 C 
ATOM      9  C   UNL     1       9.122   1.818  -8.431  1.00  0.00     0.039 C 
ENDBRANCH   5   6
ENDBRANCH   4   5
ENDBRANCH   1   4
BRANCH   2  10
ATOM     10  C   UNL     1       1.807  -1.223  -8.352  1.00  0.00     0.260 C 
BRANCH  10  11
ATOM     11  O   UNL     1       1.278  -0.644  -7.164  1.00  0.00    -0.462 OA
BRANCH  11  12
ATOM     12  C   UNL     1       0.158   0.190  -7.165  1.00  0.00     0.302 C 
ATOM     13  O   UNL     1      -1.005  -0.292  -7.078  1.00  0.00    -0.253 OA
ATOM     14  C   UNL     1       0.337   1.662  -7.319  1.00  0.00     0.139 C 
ENDBRANCH  11  12
ENDBRANCH  10  11
ENDBRANCH   2  10
TORSDOF 6
ENDMDL
MODEL 2
REMARK VINA RESULT:    -4.507      1.622      2.096
REMARK INTER + INTRA:          -6.542
REMARK INTER:                  -6.005
REMARK INTRA:                  -0.537
REMARK UNBOUND:                -0.454
REMARK SMILES CC(=O)OCC=C(C)CCC=C(C)C
REMARK SMILES IDX 7 1 6 2 8 3 9 4 10 5 11 6 13 7 12 8 14 9 5 10 4 11 2 12 3 13
REMARK SMILES IDX 1 14
REMARK H PARENT
REMARK Flexibility Score: inf
ROOT
ATOM      1  C   UNL     1       5.248  -0.627  -8.446  1.00  0.00    -0.074 C 
ATOM      2  C   UNL     1       4.928   0.509  -9.105  1.00  0.00     0.013 C 
ATOM      3  C   UNL     1       4.214  -1.690  -8.156  1.00  0.00     0.039 C 
ENDROOT
BRANCH   1   4
ATOM      4  C   UNL     1       6.679  -0.845  -8.004  1.00  0.00     0.034 C 
BRANCH   4   5
ATOM      5  C   UNL     1       7.467   0.470  -8.037  1.00  0.00     0.032 C 
BRANCH   5   6
ATOM      6  C   UNL     1       8.364   0.602  -6.829  1.00  0.00    -0.028 C 
ATOM      7  C   UNL     1      10.237   1.509  -5.520  1.00  0.00     0.039 C 
ATOM      8  C   UNL     1       9.406   1.457  -6.776  1.00  0.00    -0.080 C 
ATOM      9  C   UNL     1       9.750   2.356  -7.940  1.00  0.00     0.039 C 
ENDBRANCH   5   6
ENDBRANCH   4   5
ENDBRANCH   1   4
BRANCH   2  10
ATOM     10  C   UNL     1       3.541   0.835  -9.586  1.00  0.00     0.260 C 
BRANCH  10  11
ATOM     11  O   UNL     1       2.906   1.712  -8.663  1.00  0.00    -0.462 OA
BRANCH  11  12
ATOM     12  C   UNL     1       1.563   1.583  -8.301  1.00  0.00     0.302 C 
ATOM     13  O   UNL     1       0.794   2.582  -8.310  1.00  0.00    -0.253 OA
ATOM     14  C   UNL     1       1.046   0.257  -7.855  1.00  0.00     0.139 C 
ENDBRANCH  11  12
ENDBRANCH  10  11
ENDBRANCH   2  10
TORSDOF 6
ENDMDL
MODEL 3
REMARK VINA RESULT:    -4.399      1.163      1.695
REMARK INTER + INTRA:          -6.397
REMARK INTER:                  -6.029
REMARK INTRA:                  -0.368
REMARK UNBOUND:                -0.454
REMARK SMILES CC(=O)OCC=C(C)CCC=C(C)C
REMARK SMILES IDX 7 1 6 2 8 3 9 4 10 5 11 6 13 7 12 8 14 9 5 10 4 11 2 12 3 13
REMARK SMILES IDX 1 14
REMARK H PARENT
REMARK Flexibility Score: inf
ROOT
ATOM      1  C   UNL     1       4.365  -0.914  -8.413  1.00  0.00    -0.074 C 
ATOM      2  C   UNL     1       3.117  -0.437  -8.617  1.00  0.00     0.013 C 
ATOM      3  C   UNL     1       4.604  -2.347  -7.993  1.00  0.00     0.039 C 
ENDROOT
BRANCH   1   4
ATOM      4  C   UNL     1       5.550   0.003  -8.625  1.00  0.00     0.034 C 
BRANCH   4   5
ATOM      5  C   UNL     1       6.814  -0.582  -7.985  1.00  0.00     0.032 C 
BRANCH   5   6
ATOM      6  C   UNL     1       7.675   0.503  -7.382  1.00  0.00    -0.028 C 
ATOM      7  C   UNL     1       9.603   1.407  -6.154  1.00  0.00     0.039 C 
ATOM      8  C   UNL     1       8.821   0.249  -6.716  1.00  0.00    -0.080 C 
ATOM      9  C   UNL     1       9.330  -1.162  -6.529  1.00  0.00     0.039 C 
ENDBRANCH   5   6
ENDBRANCH   4   5
ENDBRANCH   1   4
BRANCH   2  10
ATOM     10  C   UNL     1       1.868  -1.254  -8.433  1.00  0.00     0.260 C 
BRANCH  10  11
ATOM     11  O   UNL     1       1.213  -0.864  -7.231  1.00  0.00    -0.462 OA
BRANCH  11  12
ATOM     12  C   UNL     1       0.143   0.034  -7.213  1.00  0.00     0.302 C 
ATOM     13  O   UNL     1       0.346   1.279  -7.203  1.00  0.00    -0.253 OA
ATOM     14  C   UNL     1      -1.253  -0.487  -7.156  1.00  0.00     0.139 C 
ENDBRANCH  11  12
ENDBRANCH  10  11
ENDBRANCH   2  10
TORSDOF 6
ENDMDL
MODEL 4
REMARK VINA RESULT:    -4.288      3.388      4.810
REMARK INTER + INTRA:          -6.247
REMARK INTER:                  -5.553
REMARK INTRA:                  -0.693
REMARK UNBOUND:                -0.454
REMARK SMILES CC(=O)OCC=C(C)CCC=C(C)C
REMARK SMILES IDX 7 1 6 2 8 3 9 4 10 5 11 6 13 7 12 8 14 9 5 10 4 11 2 12 3 13
REMARK SMILES IDX 1 14
REMARK H PARENT
REMARK Flexibility Score: inf
ROOT
ATOM      1  C   UNL     1       6.293  -0.852  -8.317  1.00  0.00    -0.074 C 
ATOM      2  C   UNL     1       7.101  -1.789  -8.861  1.00  0.00     0.013 C 
ATOM      3  C   UNL     1       4.788  -0.987  -8.359  1.00  0.00     0.039 C 
ENDROOT
BRANCH   1   4
ATOM      4  C   UNL     1       6.910   0.351  -7.638  1.00  0.00     0.034 C 
BRANCH   4   5
ATOM      5  C   UNL     1       8.356   0.059  -7.218  1.00  0.00     0.032 C 
BRANCH   5   6
ATOM      6  C   UNL     1       9.063   1.318  -6.776  1.00  0.00    -0.028 C 
ATOM      7  C   UNL     1      10.440   3.333  -7.072  1.00  0.00     0.039 C 
ATOM      8  C   UNL     1       9.774   2.097  -7.618  1.00  0.00    -0.080 C 
ATOM      9  C   UNL     1       9.911   1.756  -9.084  1.00  0.00     0.039 C 
ENDBRANCH   5   6
ENDBRANCH   4   5
ENDBRANCH   1   4
BRANCH   2  10
ATOM     10  C   UNL     1       6.601  -3.020  -9.564  1.00  0.00     0.260 C 
BRANCH  10  11
ATOM     11  O   UNL     1       6.935  -4.176  -8.803  1.00  0.00    -0.462 OA
BRANCH  11  12
ATOM     12  C   UNL     1       6.348  -4.461  -7.568  1.00  0.00     0.302 C 
ATOM     13  O   UNL     1       5.110  -4.682  -7.478  1.00  0.00    -0.253 OA
ATOM     14  C   UNL     1       7.189  -4.458  -6.336  1.00  0.00     0.139 C 
ENDBRANCH  11  12
ENDBRANCH  10  11
ENDBRANCH   2  10
TORSDOF 6
ENDMDL
MODEL 5
REMARK VINA RESULT:    -4.280     11.144     12.626
REMARK INTER + INTRA:          -6.235
REMARK INTER:                  -5.535
REMARK INTRA:                  -0.701
REMARK UNBOUND:                -0.454
REMARK SMILES CC(=O)OCC=C(C)CCC=C(C)C
REMARK SMILES IDX 7 1 6 2 8 3 9 4 10 5 11 6 13 7 12 8 14 9 5 10 4 11 2 12 3 13
REMARK SMILES IDX 1 14
REMARK H PARENT
REMARK Flexibility Score: inf
ROOT
ATOM      1  C   UNL     1       7.390  -2.785   1.939  1.00  0.00    -0.074 C 
ATOM      2  C   UNL     1       6.644  -3.904   1.808  1.00  0.00     0.013 C 
ATOM      3  C   UNL     1       8.719  -2.635   1.235  1.00  0.00     0.039 C 
ENDROOT
BRANCH   1   4
ATOM      4  C   UNL     1       6.875  -1.651   2.798  1.00  0.00     0.034 C 
BRANCH   4   5
ATOM      5  C   UNL     1       7.456  -1.732   4.215  1.00  0.00     0.032 C 
BRANCH   5   6
ATOM      6  C   UNL     1       6.453  -2.308   5.186  1.00  0.00    -0.028 C 
ATOM      7  C   UNL     1       5.480  -4.038   6.636  1.00  0.00     0.039 C 
ATOM      8  C   UNL     1       6.535  -3.565   5.671  1.00  0.00    -0.080 C 
ATOM      9  C   UNL     1       7.656  -4.495   5.269  1.00  0.00     0.039 C 
ENDBRANCH   5   6
ENDBRANCH   4   5
ENDBRANCH   1   4
BRANCH   2  10
ATOM     10  C   UNL     1       7.056  -5.094   0.987  1.00  0.00     0.260 C 
BRANCH  10  11
ATOM     11  O   UNL     1       6.067  -6.112   1.087  1.00  0.00    -0.462 OA
BRANCH  11  12
ATOM     12  C   UNL     1       6.264  -7.406   0.597  1.00  0.00     0.302 C 
ATOM     13  O   UNL     1       6.110  -7.663  -0.628  1.00  0.00    -0.253 OA
ATOM     14  C   UNL     1       6.615  -8.504   1.543  1.00  0.00     0.139 C 
ENDBRANCH  11  12
ENDBRANCH  10  11
ENDBRANCH   2  10
TORSDOF 6
ENDMDL
MODEL 6
REMARK VINA RESULT:    -4.268      3.717      6.693
REMARK INTER + INTRA:          -6.219
REMARK INTER:                  -5.527
REMARK INTRA:                  -0.692
REMARK UNBOUND:                -0.454
REMARK SMILES CC(=O)OCC=C(C)CCC=C(C)C
REMARK SMILES IDX 7 1 6 2 8 3 9 4 10 5 11 6 13 7 12 8 14 9 5 10 4 11 2 12 3 13
REMARK SMILES IDX 1 14
REMARK H PARENT
REMARK Flexibility Score: inf
ROOT
ATOM      1  C   UNL     1       7.981  -0.157  -7.195  1.00  0.00    -0.074 C 
ATOM      2  C   UNL     1       7.992  -1.508  -7.161  1.00  0.00     0.013 C 
ATOM      3  C   UNL     1       9.108   0.657  -6.600  1.00  0.00     0.039 C 
ENDROOT
BRANCH   1   4
ATOM      4  C   UNL     1       6.822   0.556  -7.856  1.00  0.00     0.034 C 
BRANCH   4   5
ATOM      5  C   UNL     1       6.102  -0.372  -8.842  1.00  0.00     0.032 C 
BRANCH   5   6
ATOM      6  C   UNL     1       4.608  -0.353  -8.621  1.00  0.00    -0.028 C 
ATOM      7  C   UNL     1       2.427  -1.295  -7.989  1.00  0.00     0.039 C 
ATOM      8  C   UNL     1       3.916  -1.423  -8.175  1.00  0.00    -0.080 C 
ATOM      9  C   UNL     1       4.602  -2.732  -7.861  1.00  0.00     0.039 C 
ENDBRANCH   5   6
ENDBRANCH   4   5
ENDBRANCH   1   4
BRANCH   2  10
ATOM     10  C   UNL     1       9.087  -2.321  -6.528  1.00  0.00     0.260 C 
BRANCH  10  11
ATOM     11  O   UNL     1       8.827  -3.707  -6.718  1.00  0.00    -0.462 OA
BRANCH  11  12
ATOM     12  C   UNL     1       8.009  -4.445  -5.859  1.00  0.00     0.302 C 
ATOM     13  O   UNL     1       7.004  -5.066  -6.301  1.00  0.00    -0.253 OA
ATOM     14  C   UNL     1       8.302  -4.460  -4.397  1.00  0.00     0.139 C 
ENDBRANCH  11  12
ENDBRANCH  10  11
ENDBRANCH   2  10
TORSDOF 6
ENDMDL
MODEL 7
REMARK VINA RESULT:    -4.252      4.991      8.313
REMARK INTER + INTRA:          -6.197
REMARK INTER:                  -5.667
REMARK INTRA:                  -0.531
REMARK UNBOUND:                -0.454
REMARK SMILES CC(=O)OCC=C(C)CCC=C(C)C
REMARK SMILES IDX 7 1 6 2 8 3 9 4 10 5 11 6 13 7 12 8 14 9 5 10 4 11 2 12 3 13
REMARK SMILES IDX 1 14
REMARK H PARENT
REMARK Flexibility Score: inf
ROOT
ATOM      1  C   UNL     1       9.558   1.554  -6.998  1.00  0.00    -0.074 C 
ATOM      2  C   UNL     1      10.323   1.735  -5.899  1.00  0.00     0.013 C 
ATOM      3  C   UNL     1       9.912   2.195  -8.321  1.00  0.00     0.039 C 
ENDROOT
BRANCH   1   4
ATOM      4  C   UNL     1       8.327   0.678  -6.905  1.00  0.00     0.034 C 
BRANCH   4   5
ATOM      5  C   UNL     1       7.608   0.603  -8.257  1.00  0.00     0.032 C 
BRANCH   5   6
ATOM      6  C   UNL     1       6.140   0.293  -8.079  1.00  0.00    -0.028 C 
ATOM      7  C   UNL     1       4.059  -0.965  -8.438  1.00  0.00     0.039 C 
ATOM      8  C   UNL     1       5.529  -0.747  -8.685  1.00  0.00    -0.080 C 
ATOM      9  C   UNL     1       6.285  -1.688  -9.594  1.00  0.00     0.039 C 
ENDBRANCH   5   6
ENDBRANCH   4   5
ENDBRANCH   1   4
BRANCH   2  10
ATOM     10  C   UNL     1      11.562   2.586  -5.872  1.00  0.00     0.260 C 
BRANCH  10  11
ATOM     11  O   UNL     1      11.283   3.820  -5.221  1.00  0.00    -0.462 OA
BRANCH  11  12
ATOM     12  C   UNL     1      11.485   5.059  -5.835  1.00  0.00     0.302 C 
ATOM     13  O   UNL     1      11.221   6.131  -5.226  1.00  0.00    -0.253 OA
ATOM     14  C   UNL     1      11.973   5.111  -7.243  1.00  0.00     0.139 C 
ENDBRANCH  11  12
ENDBRANCH  10  11
ENDBRANCH   2  10
TORSDOF 6
ENDMDL
MODEL 8
REMARK VINA RESULT:    -4.224      5.990      8.022
REMARK INTER + INTRA:          -6.160
REMARK INTER:                  -5.386
REMARK INTRA:                  -0.774
REMARK UNBOUND:                -0.454
REMARK SMILES CC(=O)OCC=C(C)CCC=C(C)C
REMARK SMILES IDX 7 1 6 2 8 3 9 4 10 5 11 6 13 7 12 8 14 9 5 10 4 11 2 12 3 13
REMARK SMILES IDX 1 14
REMARK H PARENT
REMARK Flexibility Score: inf
ROOT
ATOM      1  C   UNL     1       9.468   1.733  -8.720  1.00  0.00    -0.074 C 
ATOM      2  C   UNL     1       9.841   2.531  -7.695  1.00  0.00     0.013 C 
ATOM      3  C   UNL     1      10.438   1.346  -9.814  1.00  0.00     0.039 C 
ENDROOT
BRANCH   1   4
ATOM      4  C   UNL     1       8.051   1.203  -8.766  1.00  0.00     0.034 C 
BRANCH   4   5
ATOM      5  C   UNL     1       7.643   0.620  -7.408  1.00  0.00     0.032 C 
BRANCH   5   6
ATOM      6  C   UNL     1       7.720  -0.889  -7.414  1.00  0.00    -0.028 C 
ATOM      7  C   UNL     1       8.709  -3.081  -6.907  1.00  0.00     0.039 C 
ATOM      8  C   UNL     1       8.731  -1.576  -6.843  1.00  0.00    -0.080 C 
ATOM      9  C   UNL     1       9.871  -0.872  -6.145  1.00  0.00     0.039 C 
ENDBRANCH   5   6
ENDBRANCH   4   5
ENDBRANCH   1   4
BRANCH   2  10
ATOM     10  C   UNL     1      11.217   3.119  -7.550  1.00  0.00     0.260 C 
BRANCH  10  11
ATOM     11  O   UNL     1      11.117   4.481  -7.151  1.00  0.00    -0.462 OA
BRANCH  11  12
ATOM     12  C   UNL     1      11.337   4.900  -5.837  1.00  0.00     0.302 C 
ATOM     13  O   UNL     1      11.283   6.123  -5.532  1.00  0.00    -0.253 OA
ATOM     14  C   UNL     1      11.687   3.894  -4.793  1.00  0.00     0.139 C 
ENDBRANCH  11  12
ENDBRANCH  10  11
ENDBRANCH   2  10
TORSDOF 6
ENDMDL
MODEL 9
REMARK VINA RESULT:    -4.179     10.633     12.209
REMARK INTER + INTRA:          -6.100
REMARK INTER:                  -5.324
REMARK INTRA:                  -0.776
REMARK UNBOUND:                -0.454
REMARK SMILES CC(=O)OCC=C(C)CCC=C(C)C
REMARK SMILES IDX 7 1 6 2 8 3 9 4 10 5 11 6 13 7 12 8 14 9 5 10 4 11 2 12 3 13
REMARK SMILES IDX 1 14
REMARK H PARENT
REMARK Flexibility Score: inf
ROOT
ATOM      1  C   UNL     1       7.477  -3.067   2.206  1.00  0.00    -0.074 C 
ATOM      2  C   UNL     1       7.947  -3.315   0.963  1.00  0.00     0.013 C 
ATOM      3  C   UNL     1       7.581  -4.095   3.309  1.00  0.00     0.039 C 
ENDROOT
BRANCH   1   4
ATOM      4  C   UNL     1       6.845  -1.724   2.502  1.00  0.00     0.034 C 
BRANCH   4   5
ATOM      5  C   UNL     1       6.518  -1.592   3.994  1.00  0.00     0.032 C 
BRANCH   5   6
ATOM      6  C   UNL     1       6.909  -0.232   4.522  1.00  0.00    -0.028 C 
ATOM      7  C   UNL     1       8.384   1.409   5.605  1.00  0.00     0.039 C 
ATOM      8  C   UNL     1       8.096   0.014   5.114  1.00  0.00    -0.080 C 
ATOM      9  C   UNL     1       9.131  -1.072   5.291  1.00  0.00     0.039 C 
ENDBRANCH   5   6
ENDBRANCH   4   5
ENDBRANCH   1   4
BRANCH   2  10
ATOM     10  C   UNL     1       8.588  -4.612   0.554  1.00  0.00     0.260 C 
BRANCH  10  11
ATOM     11  O   UNL     1       7.629  -5.435  -0.101  1.00  0.00    -0.462 OA
BRANCH  11  12
ATOM     12  C   UNL     1       6.915  -6.435   0.563  1.00  0.00     0.302 C 
ATOM     13  O   UNL     1       5.768  -6.205   1.034  1.00  0.00    -0.253 OA
ATOM     14  C   UNL     1       7.538  -7.776   0.758  1.00  0.00     0.139 C 
ENDBRANCH  11  12
ENDBRANCH  10  11
ENDBRANCH   2  10
TORSDOF 6
ENDMDL
