MODEL 1
REMARK VINA RESULT:    -5.424      0.000      0.000
REMARK INTER + INTRA:          -6.379
REMARK INTER:                  -6.217
REMARK INTRA:                  -0.161
REMARK UNBOUND:                -0.161
REMARK SMILES CC=Cc1ccc(O)c(OC)c1
REMARK SMILES IDX 4 1 12 2 9 3 7 4 6 5 5 6 3 7 1 8 2 9 10 10 11 11 8 12
REMARK H PARENT 8 13
REMARK Flexibility Score: inf
ROOT
ATOM      1  C   UNL     1     -35.781  -3.884 -10.583  1.00  0.00    -0.022 A 
ATOM      2  C   UNL     1     -35.555  -2.936  -9.572  1.00  0.00     0.058 A 
ATOM      3  C   UNL     1     -34.312  -2.280  -9.459  1.00  0.00     0.161 A 
ATOM      4  C   UNL     1     -33.293  -2.577 -10.381  1.00  0.00     0.157 A 
ATOM      5  C   UNL     1     -33.519  -3.508 -11.396  1.00  0.00     0.051 A 
ATOM      6  C   UNL     1     -34.751  -4.156 -11.504  1.00  0.00     0.012 A 
ENDROOT
BRANCH   1   7
ATOM      7  C   UNL     1     -37.111  -4.537 -10.661  1.00  0.00     0.003 C 
ATOM      8  C   UNL     1     -39.118  -5.405 -11.795  1.00  0.00     0.035 C 
ATOM      9  C   UNL     1     -37.787  -4.725 -11.800  1.00  0.00    -0.030 C 
ENDBRANCH   1   7
BRANCH   3  10
ATOM     10  O   UNL     1     -34.059  -1.334  -8.452  1.00  0.00    -0.493 OA
ATOM     11  C   UNL     1     -34.505  -1.449  -7.104  1.00  0.00     0.278 C 
ENDBRANCH   3  10
BRANCH   4  12
ATOM     12  O   UNL     1     -32.047  -1.952 -10.305  1.00  0.00    -0.504 OA
ATOM     13  H   UNL     1     -31.419  -1.905 -11.098  1.00  0.00     0.293 HD
ENDBRANCH   4  12
TORSDOF 3
ENDMDL
MODEL 2
REMARK VINA RESULT:    -5.229      1.806      3.250
REMARK INTER + INTRA:          -6.155
REMARK INTER:                  -5.986
REMARK INTRA:                  -0.168
REMARK UNBOUND:                -0.161
REMARK SMILES CC=Cc1ccc(O)c(OC)c1
REMARK SMILES IDX 4 1 12 2 9 3 7 4 6 5 5 6 3 7 1 8 2 9 10 10 11 11 8 12
REMARK H PARENT 8 13
REMARK Flexibility Score: inf
ROOT
ATOM      1  C   UNL     1     -36.103  -3.334  -9.499  1.00  0.00    -0.022 A 
ATOM      2  C   UNL     1     -35.449  -3.844 -10.633  1.00  0.00     0.058 A 
ATOM      3  C   UNL     1     -34.165  -3.391 -10.993  1.00  0.00     0.161 A 
ATOM      4  C   UNL     1     -33.530  -2.422 -10.196  1.00  0.00     0.157 A 
ATOM      5  C   UNL     1     -34.170  -1.924  -9.059  1.00  0.00     0.051 A 
ATOM      6  C   UNL     1     -35.443  -2.375  -8.707  1.00  0.00     0.012 A 
ENDROOT
BRANCH   1   7
ATOM      7  C   UNL     1     -37.451  -3.855  -9.161  1.00  0.00     0.003 C 
ATOM      8  C   UNL     1     -39.125  -5.003  -7.765  1.00  0.00     0.035 C 
ATOM      9  C   UNL     1     -37.736  -4.523  -8.037  1.00  0.00    -0.030 C 
ENDBRANCH   1   7
BRANCH   3  10
ATOM     10  O   UNL     1     -33.494  -3.878 -12.126  1.00  0.00    -0.493 OA
ATOM     11  C   UNL     1     -33.921  -3.671 -13.470  1.00  0.00     0.278 C 
ENDBRANCH   3  10
BRANCH   4  12
ATOM     12  O   UNL     1     -32.259  -1.944 -10.516  1.00  0.00    -0.504 OA
ATOM     13  H   UNL     1     -31.424  -2.281 -10.053  1.00  0.00     0.293 HD
ENDBRANCH   4  12
TORSDOF 3
ENDMDL
MODEL 3
REMARK VINA RESULT:    -5.162      2.439      4.548
REMARK INTER + INTRA:          -6.078
REMARK INTER:                  -5.919
REMARK INTRA:                  -0.158
REMARK UNBOUND:                -0.161
REMARK SMILES CC=Cc1ccc(O)c(OC)c1
REMARK SMILES IDX 4 1 12 2 9 3 7 4 6 5 5 6 3 7 1 8 2 9 10 10 11 11 8 12
REMARK H PARENT 8 13
REMARK Flexibility Score: inf
ROOT
ATOM      1  C   UNL     1     -34.352  -2.751  -9.981  1.00  0.00    -0.022 A 
ATOM      2  C   UNL     1     -35.675  -3.211 -10.069  1.00  0.00     0.058 A 
ATOM      3  C   UNL     1     -36.097  -4.000 -11.157  1.00  0.00     0.161 A 
ATOM      4  C   UNL     1     -35.172  -4.336 -12.161  1.00  0.00     0.157 A 
ATOM      5  C   UNL     1     -33.851  -3.893 -12.070  1.00  0.00     0.051 A 
ATOM      6  C   UNL     1     -33.438  -3.110 -10.990  1.00  0.00     0.012 A 
ENDROOT
BRANCH   1   7
ATOM      7  C   UNL     1     -33.960  -1.931  -8.807  1.00  0.00     0.003 C 
ATOM      8  C   UNL     1     -34.282  -0.875  -6.605  1.00  0.00     0.035 C 
ATOM      9  C   UNL     1     -34.756  -1.702  -7.756  1.00  0.00    -0.030 C 
ENDBRANCH   1   7
BRANCH   3  10
ATOM     10  O   UNL     1     -37.417  -4.465 -11.272  1.00  0.00    -0.493 OA
ATOM     11  C   UNL     1     -38.173  -5.027 -10.203  1.00  0.00     0.278 C 
ENDBRANCH   3  10
BRANCH   4  12
ATOM     12  O   UNL     1     -35.546  -5.114 -13.257  1.00  0.00    -0.504 OA
ATOM     13  H   UNL     1     -35.337  -4.840 -14.209  1.00  0.00     0.293 HD
ENDBRANCH   4  12
TORSDOF 3
ENDMDL
MODEL 4
REMARK VINA RESULT:    -5.118      2.251      3.643
REMARK INTER + INTRA:          -6.028
REMARK INTER:                  -5.874
REMARK INTRA:                  -0.154
REMARK UNBOUND:                -0.161
REMARK SMILES CC=Cc1ccc(O)c(OC)c1
REMARK SMILES IDX 4 1 12 2 9 3 7 4 6 5 5 6 3 7 1 8 2 9 10 10 11 11 8 12
REMARK H PARENT 8 13
REMARK Flexibility Score: inf
ROOT
ATOM      1  C   UNL     1     -34.267  -3.001 -10.713  1.00  0.00    -0.022 A 
ATOM      2  C   UNL     1     -35.550  -3.255 -10.200  1.00  0.00     0.058 A 
ATOM      3  C   UNL     1     -35.932  -2.771  -8.933  1.00  0.00     0.161 A 
ATOM      4  C   UNL     1     -35.014  -2.015  -8.182  1.00  0.00     0.157 A 
ATOM      5  C   UNL     1     -33.743  -1.747  -8.696  1.00  0.00     0.051 A 
ATOM      6  C   UNL     1     -33.369  -2.231  -9.951  1.00  0.00     0.012 A 
ENDROOT
BRANCH   1   7
ATOM      7  C   UNL     1     -33.922  -3.528 -12.057  1.00  0.00     0.003 C 
ATOM      8  C   UNL     1     -33.855  -3.514 -14.520  1.00  0.00     0.035 C 
ATOM      9  C   UNL     1     -34.253  -2.925 -13.206  1.00  0.00    -0.030 C 
ENDBRANCH   1   7
BRANCH   3  10
ATOM     10  O   UNL     1     -37.204  -3.018  -8.394  1.00  0.00    -0.493 OA
ATOM     11  C   UNL     1     -37.879  -4.271  -8.457  1.00  0.00     0.278 C 
ENDBRANCH   3  10
BRANCH   4  12
ATOM     12  O   UNL     1     -35.349  -1.517  -6.923  1.00  0.00    -0.504 OA
ATOM     13  H   UNL     1     -35.122  -0.571  -6.639  1.00  0.00     0.293 HD
ENDBRANCH   4  12
TORSDOF 3
ENDMDL
MODEL 5
REMARK VINA RESULT:    -4.901      2.701      4.957
REMARK INTER + INTRA:          -5.779
REMARK INTER:                  -5.604
REMARK INTRA:                  -0.176
REMARK UNBOUND:                -0.161
REMARK SMILES CC=Cc1ccc(O)c(OC)c1
REMARK SMILES IDX 4 1 12 2 9 3 7 4 6 5 5 6 3 7 1 8 2 9 10 10 11 11 8 12
REMARK H PARENT 8 13
REMARK Flexibility Score: inf
ROOT
ATOM      1  C   UNL     1     -34.423  -2.873 -10.778  1.00  0.00    -0.022 A 
ATOM      2  C   UNL     1     -33.864  -2.554 -12.026  1.00  0.00     0.058 A 
ATOM      3  C   UNL     1     -34.222  -3.272 -13.184  1.00  0.00     0.161 A 
ATOM      4  C   UNL     1     -35.161  -4.314 -13.084  1.00  0.00     0.157 A 
ATOM      5  C   UNL     1     -35.731  -4.624 -11.847  1.00  0.00     0.051 A 
ATOM      6  C   UNL     1     -35.371  -3.911 -10.702  1.00  0.00     0.012 A 
ENDROOT
BRANCH   1   7
ATOM      7  C   UNL     1     -34.016  -2.078  -9.592  1.00  0.00     0.003 C 
ATOM      8  C   UNL     1     -34.321  -1.038  -7.379  1.00  0.00     0.035 C 
ATOM      9  C   UNL     1     -34.811  -1.838  -8.543  1.00  0.00    -0.030 C 
ENDBRANCH   1   7
BRANCH   3  10
ATOM     10  O   UNL     1     -33.670  -2.979 -14.442  1.00  0.00    -0.493 OA
ATOM     11  C   UNL     1     -33.826  -1.738 -15.124  1.00  0.00     0.278 C 
ENDBRANCH   3  10
BRANCH   4  12
ATOM     12  O   UNL     1     -35.543  -5.051 -14.205  1.00  0.00    -0.504 OA
ATOM     13  H   UNL     1     -36.432  -5.534 -14.255  1.00  0.00     0.293 HD
ENDBRANCH   4  12
TORSDOF 3
ENDMDL
MODEL 6
REMARK VINA RESULT:    -4.898      2.914      4.686
REMARK INTER + INTRA:          -5.775
REMARK INTER:                  -5.617
REMARK INTRA:                  -0.158
REMARK UNBOUND:                -0.161
REMARK SMILES CC=Cc1ccc(O)c(OC)c1
REMARK SMILES IDX 4 1 12 2 9 3 7 4 6 5 5 6 3 7 1 8 2 9 10 10 11 11 8 12
REMARK H PARENT 8 13
REMARK Flexibility Score: inf
ROOT
ATOM      1  C   UNL     1     -34.959  -2.886 -10.528  1.00  0.00    -0.022 A 
ATOM      2  C   UNL     1     -36.043  -2.785 -11.416  1.00  0.00     0.058 A 
ATOM      3  C   UNL     1     -35.942  -3.259 -12.739  1.00  0.00     0.161 A 
ATOM      4  C   UNL     1     -34.740  -3.851 -13.166  1.00  0.00     0.157 A 
ATOM      5  C   UNL     1     -33.666  -3.967 -12.282  1.00  0.00     0.051 A 
ATOM      6  C   UNL     1     -33.770  -3.494 -10.972  1.00  0.00     0.012 A 
ENDROOT
BRANCH   1   7
ATOM      7  C   UNL     1     -35.125  -2.378  -9.143  1.00  0.00     0.003 C 
ATOM      8  C   UNL     1     -34.462  -1.149  -7.114  1.00  0.00     0.035 C 
ATOM      9  C   UNL     1     -34.213  -1.634  -8.505  1.00  0.00    -0.030 C 
ENDBRANCH   1   7
BRANCH   3  10
ATOM     10  O   UNL     1     -37.008  -3.161 -13.648  1.00  0.00    -0.493 OA
ATOM     11  C   UNL     1     -37.971  -2.112 -13.655  1.00  0.00     0.278 C 
ENDBRANCH   3  10
BRANCH   4  12
ATOM     12  O   UNL     1     -34.596  -4.333 -14.467  1.00  0.00    -0.504 OA
ATOM     13  H   UNL     1     -35.391  -4.594 -15.037  1.00  0.00     0.293 HD
ENDBRANCH   4  12
TORSDOF 3
ENDMDL
MODEL 7
REMARK VINA RESULT:    -4.709     12.778     14.141
REMARK INTER + INTRA:          -5.559
REMARK INTER:                  -5.410
REMARK INTRA:                  -0.149
REMARK UNBOUND:                -0.161
REMARK SMILES CC=Cc1ccc(O)c(OC)c1
REMARK SMILES IDX 4 1 12 2 9 3 7 4 6 5 5 6 3 7 1 8 2 9 10 10 11 11 8 12
REMARK H PARENT 8 13
REMARK Flexibility Score: inf
ROOT
ATOM      1  C   UNL     1     -21.126  -6.903  -9.111  1.00  0.00    -0.022 A 
ATOM      2  C   UNL     1     -21.726  -5.808  -8.468  1.00  0.00     0.058 A 
ATOM      3  C   UNL     1     -22.328  -4.773  -9.211  1.00  0.00     0.161 A 
ATOM      4  C   UNL     1     -22.331  -4.849 -10.616  1.00  0.00     0.157 A 
ATOM      5  C   UNL     1     -21.749  -5.943 -11.258  1.00  0.00     0.051 A 
ATOM      6  C   UNL     1     -21.153  -6.966 -10.517  1.00  0.00     0.012 A 
ENDROOT
BRANCH   1   7
ATOM      7  C   UNL     1     -20.516  -7.969  -8.278  1.00  0.00     0.003 C 
ATOM      8  C   UNL     1     -20.378  -9.513  -6.363  1.00  0.00     0.035 C 
ATOM      9  C   UNL     1     -21.048  -8.425  -7.138  1.00  0.00    -0.030 C 
ENDBRANCH   1   7
BRANCH   3  10
ATOM     10  O   UNL     1     -22.926  -3.664  -8.593  1.00  0.00    -0.493 OA
ATOM     11  C   UNL     1     -23.029  -3.481  -7.184  1.00  0.00     0.278 C 
ENDBRANCH   3  10
BRANCH   4  12
ATOM     12  O   UNL     1     -22.914  -3.846 -11.391  1.00  0.00    -0.504 OA
ATOM     13  H   UNL     1     -22.859  -2.867 -11.136  1.00  0.00     0.293 HD
ENDBRANCH   4  12
TORSDOF 3
ENDMDL
MODEL 8
REMARK VINA RESULT:    -4.679     13.008     15.025
REMARK INTER + INTRA:          -5.525
REMARK INTER:                  -5.354
REMARK INTRA:                  -0.171
REMARK UNBOUND:                -0.161
REMARK SMILES CC=Cc1ccc(O)c(OC)c1
REMARK SMILES IDX 4 1 12 2 9 3 7 4 6 5 5 6 3 7 1 8 2 9 10 10 11 11 8 12
REMARK H PARENT 8 13
REMARK Flexibility Score: inf
ROOT
ATOM      1  C   UNL     1     -20.822  -7.267  -8.162  1.00  0.00    -0.022 A 
ATOM      2  C   UNL     1     -20.834  -7.050  -9.549  1.00  0.00     0.058 A 
ATOM      3  C   UNL     1     -21.659  -6.061 -10.121  1.00  0.00     0.161 A 
ATOM      4  C   UNL     1     -22.473  -5.278  -9.283  1.00  0.00     0.157 A 
ATOM      5  C   UNL     1     -22.452  -5.481  -7.901  1.00  0.00     0.051 A 
ATOM      6  C   UNL     1     -21.634  -6.462  -7.340  1.00  0.00     0.012 A 
ENDROOT
BRANCH   1   7
ATOM      7  C   UNL     1     -19.926  -8.316  -7.614  1.00  0.00     0.003 C 
ATOM      8  C   UNL     1     -19.272 -10.122  -6.071  1.00  0.00     0.035 C 
ATOM      9  C   UNL     1     -20.224  -9.076  -6.553  1.00  0.00    -0.030 C 
ENDBRANCH   1   7
BRANCH   3  10
ATOM     10  O   UNL     1     -21.695  -5.831 -11.505  1.00  0.00    -0.493 OA
ATOM     11  C   UNL     1     -22.024  -6.816 -12.481  1.00  0.00     0.278 C 
ENDBRANCH   3  10
BRANCH   4  12
ATOM     12  O   UNL     1     -23.306  -4.289  -9.806  1.00  0.00    -0.504 OA
ATOM     13  H   UNL     1     -24.142  -3.979  -9.326  1.00  0.00     0.293 HD
ENDBRANCH   4  12
TORSDOF 3
ENDMDL
MODEL 9
REMARK VINA RESULT:    -4.674      1.371      2.740
REMARK INTER + INTRA:          -5.519
REMARK INTER:                  -5.376
REMARK INTRA:                  -0.143
REMARK UNBOUND:                -0.161
REMARK SMILES CC=Cc1ccc(O)c(OC)c1
REMARK SMILES IDX 4 1 12 2 9 3 7 4 6 5 5 6 3 7 1 8 2 9 10 10 11 11 8 12
REMARK H PARENT 8 13
REMARK Flexibility Score: inf
ROOT
ATOM      1  C   UNL     1     -36.459  -3.737 -10.153  1.00  0.00    -0.022 A 
ATOM      2  C   UNL     1     -35.151  -3.231 -10.238  1.00  0.00     0.058 A 
ATOM      3  C   UNL     1     -34.629  -2.401  -9.226  1.00  0.00     0.161 A 
ATOM      4  C   UNL     1     -35.430  -2.087  -8.113  1.00  0.00     0.157 A 
ATOM      5  C   UNL     1     -36.725  -2.601  -8.019  1.00  0.00     0.051 A 
ATOM      6  C   UNL     1     -37.239  -3.422  -9.024  1.00  0.00     0.012 A 
ENDROOT
BRANCH   1   7
ATOM      7  C   UNL     1     -36.954  -4.614 -11.243  1.00  0.00     0.003 C 
ATOM      8  C   UNL     1     -37.613  -5.161 -13.553  1.00  0.00     0.035 C 
ATOM      9  C   UNL     1     -37.123  -4.211 -12.509  1.00  0.00    -0.030 C 
ENDBRANCH   1   7
BRANCH   3  10
ATOM     10  O   UNL     1     -33.329  -1.876  -9.291  1.00  0.00    -0.493 OA
ATOM     11  C   UNL     1     -32.467  -1.988 -10.421  1.00  0.00     0.278 C 
ENDBRANCH   3  10
BRANCH   4  12
ATOM     12  O   UNL     1     -34.954  -1.269  -7.089  1.00  0.00    -0.504 OA
ATOM     13  H   UNL     1     -35.170  -0.280  -7.045  1.00  0.00     0.293 HD
ENDBRANCH   4  12
TORSDOF 3
ENDMDL
