MODEL 1
REMARK VINA RESULT:    25.091      0.000      0.000
REMARK INTER + INTRA:          61.749
REMARK INTER:                  63.228
REMARK INTRA:                  -1.479
REMARK UNBOUND:                -1.479
REMARK SMILES CCCCCCCCCCCCCCCCCCCCCCCCCCCC(=O)[O-]
REMARK SMILES IDX 15 1 16 2 17 3 18 4 19 5 20 6 21 7 22 8 23 9 24 10 25 11
REMARK SMILES IDX 26 12 27 13 28 14 29 15 30 16 14 17 13 18 12 19 11 20 10 21
REMARK SMILES IDX 9 22 8 23 7 24 6 25 5 26 4 27 3 28 2 29 1 30
REMARK H PARENT
REMARK Flexibility Score: inf
ROOT
ATOM      1  C   UNL     1      -0.778  17.642  20.911  1.00  0.00     0.000 C 
ENDROOT
BRANCH   1   2
ATOM      2  C   UNL     1       0.235  16.789  20.133  1.00  0.00     0.000 C 
BRANCH   2   3
ATOM      3  C   UNL     1      -0.236  15.339  19.929  1.00  0.00     0.000 C 
BRANCH   3   4
ATOM      4  C   UNL     1      -0.784  15.085  18.513  1.00  0.00     0.000 C 
BRANCH   4   5
ATOM      5  C   UNL     1      -0.642  13.614  18.083  1.00  0.00     0.000 C 
BRANCH   5   6
ATOM      6  C   UNL     1      -0.900  12.596  19.208  1.00  0.00     0.000 C 
BRANCH   6   7
ATOM      7  C   UNL     1      -2.384  12.202  19.317  1.00  0.00     0.000 C 
BRANCH   7   8
ATOM      8  C   UNL     1      -3.300  13.411  19.570  1.00  0.00     0.000 C 
BRANCH   8   9
ATOM      9  C   UNL     1      -4.385  13.123  20.624  1.00  0.00     0.000 C 
BRANCH   9  10
ATOM     10  C   UNL     1      -4.767  14.373  21.432  1.00  0.00     0.000 C 
BRANCH  10  11
ATOM     11  C   UNL     1      -4.354  15.678  20.730  1.00  0.00     0.000 C 
BRANCH  11  12
ATOM     12  C   UNL     1      -5.367  16.818  20.953  1.00  0.00     0.006 C 
BRANCH  12  13
ATOM     13  C   UNL     1      -6.353  17.021  19.791  1.00  0.00     0.053 C 
BRANCH  13  14
ATOM     14  C   UNL     1      -7.668  16.350  20.046  1.00  0.00     0.041 C 
ATOM     15  O   UNL     1      -7.716  15.107  20.237  1.00  0.00    -0.550 OA
ATOM     16  O   UNL     1      -8.833  17.101  20.110  1.00  0.00    -0.550 OA
ENDBRANCH  13  14
ENDBRANCH  12  13
ENDBRANCH  11  12
ENDBRANCH  10  11
ENDBRANCH   9  10
ENDBRANCH   8   9
ENDBRANCH   7   8
ENDBRANCH   6   7
ENDBRANCH   5   6
ENDBRANCH   4   5
ENDBRANCH   3   4
ENDBRANCH   2   3
ENDBRANCH   1   2
BRANCH   1  17
ATOM     17  C   UNL     1      -0.760  19.099  20.425  1.00  0.00     0.000 C 
BRANCH  17  18
ATOM     18  C   UNL     1      -1.224  20.085  21.518  1.00  0.00     0.000 C 
BRANCH  18  19
ATOM     19  C   UNL     1      -0.134  21.075  21.963  1.00  0.00     0.000 C 
BRANCH  19  20
ATOM     20  C   UNL     1      -0.598  22.540  21.901  1.00  0.00     0.000 C 
BRANCH  20  21
ATOM     21  C   UNL     1      -1.286  23.008  23.198  1.00  0.00     0.000 C 
BRANCH  21  22
ATOM     22  C   UNL     1      -2.747  23.471  23.039  1.00  0.00    -0.000 C 
BRANCH  22  23
ATOM     23  C   UNL     1      -2.889  25.001  22.963  1.00  0.00    -0.000 C 
BRANCH  23  24
ATOM     24  C   UNL     1      -3.118  25.511  21.528  1.00  0.00    -0.000 C 
BRANCH  24  25
ATOM     25  C   UNL     1      -3.715  26.927  21.423  1.00  0.00    -0.000 C 
BRANCH  25  26
ATOM     26  C   UNL     1      -4.483  27.158  20.110  1.00  0.00    -0.000 C 
BRANCH  26  27
ATOM     27  C   UNL     1      -3.822  28.214  19.210  1.00  0.00    -0.000 C 
BRANCH  27  28
ATOM     28  C   UNL     1      -4.116  29.678  19.589  1.00  0.00    -0.000 C 
BRANCH  28  29
ATOM     29  C   UNL     1      -2.859  30.498  19.946  1.00  0.00    -0.003 C 
ATOM     30  C   UNL     1      -1.619  29.622  20.119  1.00  0.00     0.004 C 
ENDBRANCH  28  29
ENDBRANCH  27  28
ENDBRANCH  26  27
ENDBRANCH  25  26
ENDBRANCH  24  25
ENDBRANCH  23  24
ENDBRANCH  22  23
ENDBRANCH  21  22
ENDBRANCH  20  21
ENDBRANCH  19  20
ENDBRANCH  18  19
ENDBRANCH  17  18
ENDBRANCH   1  17
TORSDOF 26
ENDMDL
MODEL 2
REMARK VINA RESULT:    25.502      3.925     11.102
REMARK INTER + INTRA:          62.784
REMARK INTER:                  64.624
REMARK INTRA:                  -1.840
REMARK UNBOUND:                -1.479
REMARK SMILES CCCCCCCCCCCCCCCCCCCCCCCCCCCC(=O)[O-]
REMARK SMILES IDX 15 1 16 2 17 3 18 4 19 5 20 6 21 7 22 8 23 9 24 10 25 11
REMARK SMILES IDX 26 12 27 13 28 14 29 15 30 16 14 17 13 18 12 19 11 20 10 21
REMARK SMILES IDX 9 22 8 23 7 24 6 25 5 26 4 27 3 28 2 29 1 30
REMARK H PARENT
REMARK Flexibility Score: inf
ROOT
ATOM      1  C   UNL     1      -0.812  17.405  20.690  1.00  0.00     0.000 C 
ENDROOT
BRANCH   1   2
ATOM      2  C   UNL     1      -0.278  18.757  20.192  1.00  0.00     0.000 C 
BRANCH   2   3
ATOM      3  C   UNL     1      -1.124  19.948  20.673  1.00  0.00     0.000 C 
BRANCH   3   4
ATOM      4  C   UNL     1      -0.473  20.704  21.845  1.00  0.00     0.000 C 
BRANCH   4   5
ATOM      5  C   UNL     1      -1.096  22.095  22.066  1.00  0.00     0.000 C 
BRANCH   5   6
ATOM      6  C   UNL     1      -2.223  22.126  23.114  1.00  0.00     0.000 C 
BRANCH   6   7
ATOM      7  C   UNL     1      -2.864  23.519  23.249  1.00  0.00     0.000 C 
BRANCH   7   8
ATOM      8  C   UNL     1      -2.061  24.611  22.523  1.00  0.00     0.000 C 
BRANCH   8   9
ATOM      9  C   UNL     1      -2.834  25.938  22.409  1.00  0.00     0.000 C 
BRANCH   9  10
ATOM     10  C   UNL     1      -3.992  25.860  21.401  1.00  0.00     0.000 C 
BRANCH  10  11
ATOM     11  C   UNL     1      -4.433  27.247  20.901  1.00  0.00     0.000 C 
BRANCH  11  12
ATOM     12  C   UNL     1      -4.061  27.491  19.426  1.00  0.00     0.006 C 
BRANCH  12  13
ATOM     13  C   UNL     1      -2.728  28.230  19.224  1.00  0.00     0.053 C 
BRANCH  13  14
ATOM     14  C   UNL     1      -2.731  29.580  19.872  1.00  0.00     0.041 C 
ATOM     15  O   UNL     1      -1.655  30.086  20.283  1.00  0.00    -0.550 OA
ATOM     16  O   UNL     1      -3.915  30.296  19.987  1.00  0.00    -0.550 OA
ENDBRANCH  13  14
ENDBRANCH  12  13
ENDBRANCH  11  12
ENDBRANCH  10  11
ENDBRANCH   9  10
ENDBRANCH   8   9
ENDBRANCH   7   8
ENDBRANCH   6   7
ENDBRANCH   5   6
ENDBRANCH   4   5
ENDBRANCH   3   4
ENDBRANCH   2   3
ENDBRANCH   1   2
BRANCH   1  17
ATOM     17  C   UNL     1       0.005  16.242  20.109  1.00  0.00     0.000 C 
BRANCH  17  18
ATOM     18  C   UNL     1      -0.852  15.313  19.222  1.00  0.00     0.000 C 
BRANCH  18  19
ATOM     19  C   UNL     1      -0.037  14.242  18.477  1.00  0.00     0.000 C 
BRANCH  19  20
ATOM     20  C   UNL     1      -0.790  12.909  18.339  1.00  0.00     0.000 C 
BRANCH  20  21
ATOM     21  C   UNL     1      -2.310  13.052  18.549  1.00  0.00     0.000 C 
BRANCH  21  22
ATOM     22  C   UNL     1      -2.867  12.374  19.816  1.00  0.00    -0.000 C 
BRANCH  22  23
ATOM     23  C   UNL     1      -4.403  12.418  19.897  1.00  0.00    -0.000 C 
BRANCH  23  24
ATOM     24  C   UNL     1      -4.918  13.415  20.951  1.00  0.00    -0.000 C 
BRANCH  24  25
ATOM     25  C   UNL     1      -3.943  14.555  21.305  1.00  0.00    -0.000 C 
BRANCH  25  26
ATOM     26  C   UNL     1      -4.174  15.822  20.464  1.00  0.00    -0.000 C 
BRANCH  26  27
ATOM     27  C   UNL     1      -5.258  16.740  21.052  1.00  0.00    -0.000 C 
BRANCH  27  28
ATOM     28  C   UNL     1      -6.425  17.071  20.101  1.00  0.00    -0.000 C 
BRANCH  28  29
ATOM     29  C   UNL     1      -7.705  16.254  20.373  1.00  0.00    -0.003 C 
ATOM     30  C   UNL     1      -8.968  16.967  19.890  1.00  0.00     0.004 C 
ENDBRANCH  28  29
ENDBRANCH  27  28
ENDBRANCH  26  27
ENDBRANCH  25  26
ENDBRANCH  24  25
ENDBRANCH  23  24
ENDBRANCH  22  23
ENDBRANCH  21  22
ENDBRANCH  20  21
ENDBRANCH  19  20
ENDBRANCH  18  19
ENDBRANCH  17  18
ENDBRANCH   1  17
TORSDOF 26
ENDMDL
MODEL 3
REMARK VINA RESULT:    25.959      4.031     11.201
REMARK INTER + INTRA:          63.937
REMARK INTER:                  65.773
REMARK INTRA:                  -1.836
REMARK UNBOUND:                -1.479
REMARK SMILES CCCCCCCCCCCCCCCCCCCCCCCCCCCC(=O)[O-]
REMARK SMILES IDX 15 1 16 2 17 3 18 4 19 5 20 6 21 7 22 8 23 9 24 10 25 11
REMARK SMILES IDX 26 12 27 13 28 14 29 15 30 16 14 17 13 18 12 19 11 20 10 21
REMARK SMILES IDX 9 22 8 23 7 24 6 25 5 26 4 27 3 28 2 29 1 30
REMARK H PARENT
REMARK Flexibility Score: inf
ROOT
ATOM      1  C   UNL     1      -0.741  17.582  20.768  1.00  0.00     0.000 C 
ENDROOT
BRANCH   1   2
ATOM      2  C   UNL     1      -0.622  19.018  20.235  1.00  0.00     0.000 C 
BRANCH   2   3
ATOM      3  C   UNL     1      -1.095  20.073  21.249  1.00  0.00     0.000 C 
BRANCH   3   4
ATOM      4  C   UNL     1       0.068  20.872  21.863  1.00  0.00     0.000 C 
BRANCH   4   5
ATOM      5  C   UNL     1      -0.352  22.292  22.286  1.00  0.00     0.000 C 
BRANCH   5   6
ATOM      6  C   UNL     1      -1.850  22.591  22.101  1.00  0.00     0.000 C 
BRANCH   6   7
ATOM      7  C   UNL     1      -2.464  23.299  23.322  1.00  0.00     0.000 C 
BRANCH   7   8
ATOM      8  C   UNL     1      -3.265  24.554  22.937  1.00  0.00     0.000 C 
BRANCH   8   9
ATOM      9  C   UNL     1      -2.594  25.364  21.812  1.00  0.00     0.000 C 
BRANCH   9  10
ATOM     10  C   UNL     1      -3.417  26.595  21.401  1.00  0.00     0.000 C 
BRANCH  10  11
ATOM     11  C   UNL     1      -3.190  26.993  19.933  1.00  0.00     0.000 C 
BRANCH  11  12
ATOM     12  C   UNL     1      -4.068  28.182  19.498  1.00  0.00     0.006 C 
BRANCH  12  13
ATOM     13  C   UNL     1      -3.745  29.502  20.217  1.00  0.00     0.053 C 
BRANCH  13  14
ATOM     14  C   UNL     1      -2.309  29.893  20.055  1.00  0.00     0.041 C 
ATOM     15  O   UNL     1      -1.888  30.307  18.944  1.00  0.00    -0.550 OA
ATOM     16  O   UNL     1      -1.444  29.836  21.140  1.00  0.00    -0.550 OA
ENDBRANCH  13  14
ENDBRANCH  12  13
ENDBRANCH  11  12
ENDBRANCH  10  11
ENDBRANCH   9  10
ENDBRANCH   8   9
ENDBRANCH   7   8
ENDBRANCH   6   7
ENDBRANCH   5   6
ENDBRANCH   4   5
ENDBRANCH   3   4
ENDBRANCH   2   3
ENDBRANCH   1   2
BRANCH   1  17
ATOM     17  C   UNL     1       0.029  16.597  19.876  1.00  0.00     0.000 C 
BRANCH  17  18
ATOM     18  C   UNL     1      -0.708  15.249  19.724  1.00  0.00     0.000 C 
BRANCH  18  19
ATOM     19  C   UNL     1      -0.403  14.521  18.404  1.00  0.00     0.000 C 
BRANCH  19  20
ATOM     20  C   UNL     1      -0.859  13.053  18.413  1.00  0.00     0.000 C 
BRANCH  20  21
ATOM     21  C   UNL     1      -1.836  12.734  19.561  1.00  0.00     0.000 C 
BRANCH  21  22
ATOM     22  C   UNL     1      -3.331  12.873  19.212  1.00  0.00    -0.000 C 
BRANCH  22  23
ATOM     23  C   UNL     1      -4.255  12.660  20.423  1.00  0.00    -0.000 C 
BRANCH  23  24
ATOM     24  C   UNL     1      -4.713  13.983  21.066  1.00  0.00    -0.000 C 
BRANCH  24  25
ATOM     25  C   UNL     1      -3.863  15.215  20.704  1.00  0.00    -0.000 C 
BRANCH  25  26
ATOM     26  C   UNL     1      -4.520  16.540  21.127  1.00  0.00    -0.000 C 
BRANCH  26  27
ATOM     27  C   UNL     1      -5.707  16.930  20.231  1.00  0.00    -0.000 C 
BRANCH  27  28
ATOM     28  C   UNL     1      -7.093  16.826  20.896  1.00  0.00    -0.000 C 
BRANCH  28  29
ATOM     29  C   UNL     1      -8.199  16.296  19.959  1.00  0.00    -0.003 C 
ATOM     30  C   UNL     1      -7.959  14.848  19.531  1.00  0.00     0.004 C 
ENDBRANCH  28  29
ENDBRANCH  27  28
ENDBRANCH  26  27
ENDBRANCH  25  26
ENDBRANCH  24  25
ENDBRANCH  23  24
ENDBRANCH  22  23
ENDBRANCH  21  22
ENDBRANCH  20  21
ENDBRANCH  19  20
ENDBRANCH  18  19
ENDBRANCH  17  18
ENDBRANCH   1  17
TORSDOF 26
ENDMDL
MODEL 4
REMARK VINA RESULT:    25.979      0.644      0.996
REMARK INTER + INTRA:          63.988
REMARK INTER:                  65.916
REMARK INTRA:                  -1.928
REMARK UNBOUND:                -1.479
REMARK SMILES CCCCCCCCCCCCCCCCCCCCCCCCCCCC(=O)[O-]
REMARK SMILES IDX 15 1 16 2 17 3 18 4 19 5 20 6 21 7 22 8 23 9 24 10 25 11
REMARK SMILES IDX 26 12 27 13 28 14 29 15 30 16 14 17 13 18 12 19 11 20 10 21
REMARK SMILES IDX 9 22 8 23 7 24 6 25 5 26 4 27 3 28 2 29 1 30
REMARK H PARENT
REMARK Flexibility Score: inf
ROOT
ATOM      1  C   UNL     1      -0.293  18.338  20.271  1.00  0.00     0.000 C 
ENDROOT
BRANCH   1   2
ATOM      2  C   UNL     1      -0.902  17.000  20.718  1.00  0.00     0.000 C 
BRANCH   2   3
ATOM      3  C   UNL     1      -0.218  15.785  20.069  1.00  0.00     0.000 C 
BRANCH   3   4
ATOM      4  C   UNL     1      -0.955  15.289  18.812  1.00  0.00     0.000 C 
BRANCH   4   5
ATOM      5  C   UNL     1      -0.512  13.876  18.391  1.00  0.00     0.000 C 
BRANCH   5   6
ATOM      6  C   UNL     1      -1.215  12.737  19.152  1.00  0.00     0.000 C 
BRANCH   6   7
ATOM      7  C   UNL     1      -2.737  12.730  18.926  1.00  0.00     0.000 C 
BRANCH   7   8
ATOM      8  C   UNL     1      -3.513  12.195  20.140  1.00  0.00     0.000 C 
BRANCH   8   9
ATOM      9  C   UNL     1      -4.555  13.199  20.668  1.00  0.00     0.000 C 
BRANCH   9  10
ATOM     10  C   UNL     1      -3.929  14.548  21.055  1.00  0.00     0.000 C 
BRANCH  10  11
ATOM     11  C   UNL     1      -4.457  15.711  20.197  1.00  0.00     0.000 C 
BRANCH  11  12
ATOM     12  C   UNL     1      -5.397  16.647  20.982  1.00  0.00     0.006 C 
BRANCH  12  13
ATOM     13  C   UNL     1      -6.509  17.282  20.131  1.00  0.00     0.053 C 
BRANCH  13  14
ATOM     14  C   UNL     1      -7.737  16.426  20.080  1.00  0.00     0.041 C 
ATOM     15  O   UNL     1      -8.868  16.929  20.305  1.00  0.00    -0.550 OA
ATOM     16  O   UNL     1      -7.636  15.082  19.747  1.00  0.00    -0.550 OA
ENDBRANCH  13  14
ENDBRANCH  12  13
ENDBRANCH  11  12
ENDBRANCH  10  11
ENDBRANCH   9  10
ENDBRANCH   8   9
ENDBRANCH   7   8
ENDBRANCH   6   7
ENDBRANCH   5   6
ENDBRANCH   4   5
ENDBRANCH   3   4
ENDBRANCH   2   3
ENDBRANCH   1   2
BRANCH   1  17
ATOM     17  C   UNL     1      -1.161  19.519  20.729  1.00  0.00     0.000 C 
BRANCH  17  18
ATOM     18  C   UNL     1      -0.360  20.545  21.558  1.00  0.00     0.000 C 
BRANCH  18  19
ATOM     19  C   UNL     1      -1.065  21.903  21.714  1.00  0.00     0.000 C 
BRANCH  19  20
ATOM     20  C   UNL     1      -1.524  22.176  23.155  1.00  0.00     0.000 C 
BRANCH  20  21
ATOM     21  C   UNL     1      -1.775  23.670  23.434  1.00  0.00     0.000 C 
BRANCH  21  22
ATOM     22  C   UNL     1      -3.068  24.247  22.823  1.00  0.00    -0.000 C 
BRANCH  22  23
ATOM     23  C   UNL     1      -2.803  25.225  21.666  1.00  0.00    -0.000 C 
BRANCH  23  24
ATOM     24  C   UNL     1      -3.247  26.664  21.986  1.00  0.00    -0.000 C 
BRANCH  24  25
ATOM     25  C   UNL     1      -4.407  27.198  21.123  1.00  0.00    -0.000 C 
BRANCH  25  26
ATOM     26  C   UNL     1      -4.236  26.880  19.628  1.00  0.00    -0.000 C 
BRANCH  26  27
ATOM     27  C   UNL     1      -3.672  28.065  18.826  1.00  0.00    -0.000 C 
BRANCH  27  28
ATOM     28  C   UNL     1      -4.107  29.458  19.320  1.00  0.00    -0.000 C 
BRANCH  28  29
ATOM     29  C   UNL     1      -3.127  30.102  20.322  1.00  0.00    -0.003 C 
ATOM     30  C   UNL     1      -1.665  29.847  19.957  1.00  0.00     0.004 C 
ENDBRANCH  28  29
ENDBRANCH  27  28
ENDBRANCH  26  27
ENDBRANCH  25  26
ENDBRANCH  24  25
ENDBRANCH  23  24
ENDBRANCH  22  23
ENDBRANCH  21  22
ENDBRANCH  20  21
ENDBRANCH  19  20
ENDBRANCH  18  19
ENDBRANCH  17  18
ENDBRANCH   1  17
TORSDOF 26
ENDMDL
MODEL 5
REMARK VINA RESULT:    27.121      3.824     10.709
REMARK INTER + INTRA:          66.865
REMARK INTER:                  68.546
REMARK INTRA:                  -1.680
REMARK UNBOUND:                -1.479
REMARK SMILES CCCCCCCCCCCCCCCCCCCCCCCCCCCC(=O)[O-]
REMARK SMILES IDX 15 1 16 2 17 3 18 4 19 5 20 6 21 7 22 8 23 9 24 10 25 11
REMARK SMILES IDX 26 12 27 13 28 14 29 15 30 16 14 17 13 18 12 19 11 20 10 21
REMARK SMILES IDX 9 22 8 23 7 24 6 25 5 26 4 27 3 28 2 29 1 30
REMARK H PARENT
REMARK Flexibility Score: inf
ROOT
ATOM      1  C   UNL     1      -0.587  16.152  20.635  1.00  0.00     0.000 C 
ENDROOT
BRANCH   1   2
ATOM      2  C   UNL     1      -0.151  17.594  20.332  1.00  0.00     0.000 C 
BRANCH   2   3
ATOM      3  C   UNL     1      -1.233  18.630  20.678  1.00  0.00     0.000 C 
BRANCH   3   4
ATOM      4  C   UNL     1      -0.709  20.077  20.629  1.00  0.00     0.000 C 
BRANCH   4   5
ATOM      5  C   UNL     1      -0.612  20.715  22.027  1.00  0.00     0.000 C 
BRANCH   5   6
ATOM      6  C   UNL     1       0.144  22.055  22.061  1.00  0.00     0.000 C 
BRANCH   6   7
ATOM      7  C   UNL     1      -0.776  23.241  22.403  1.00  0.00     0.000 C 
BRANCH   7   8
ATOM      8  C   UNL     1      -2.194  22.796  22.793  1.00  0.00     0.000 C 
BRANCH   8   9
ATOM      9  C   UNL     1      -3.055  23.956  23.327  1.00  0.00     0.000 C 
BRANCH   9  10
ATOM     10  C   UNL     1      -2.627  25.317  22.756  1.00  0.00     0.000 C 
BRANCH  10  11
ATOM     11  C   UNL     1      -3.484  25.748  21.553  1.00  0.00     0.000 C 
BRANCH  11  12
ATOM     12  C   UNL     1      -3.534  27.278  21.378  1.00  0.00     0.006 C 
BRANCH  12  13
ATOM     13  C   UNL     1      -3.362  27.753  19.926  1.00  0.00     0.053 C 
BRANCH  13  14
ATOM     14  C   UNL     1      -3.228  29.242  19.833  1.00  0.00     0.041 C 
ATOM     15  O   UNL     1      -4.235  29.952  19.579  1.00  0.00    -0.550 OA
ATOM     16  O   UNL     1      -2.000  29.847  20.065  1.00  0.00    -0.550 OA
ENDBRANCH  13  14
ENDBRANCH  12  13
ENDBRANCH  11  12
ENDBRANCH  10  11
ENDBRANCH   9  10
ENDBRANCH   8   9
ENDBRANCH   7   8
ENDBRANCH   6   7
ENDBRANCH   5   6
ENDBRANCH   4   5
ENDBRANCH   3   4
ENDBRANCH   2   3
ENDBRANCH   1   2
BRANCH   1  17
ATOM     17  C   UNL     1       0.155  15.152  19.737  1.00  0.00     0.000 C 
BRANCH  17  18
ATOM     18  C   UNL     1      -0.680  14.743  18.504  1.00  0.00     0.000 C 
BRANCH  18  19
ATOM     19  C   UNL     1      -0.698  13.227  18.242  1.00  0.00     0.000 C 
BRANCH  19  20
ATOM     20  C   UNL     1      -1.748  12.488  19.087  1.00  0.00     0.000 C 
BRANCH  20  21
ATOM     21  C   UNL     1      -2.997  13.344  19.377  1.00  0.00     0.000 C 
BRANCH  21  22
ATOM     22  C   UNL     1      -4.190  12.583  19.986  1.00  0.00    -0.000 C 
BRANCH  22  23
ATOM     23  C   UNL     1      -4.945  13.399  21.050  1.00  0.00    -0.000 C 
BRANCH  23  24
ATOM     24  C   UNL     1      -6.471  13.380  20.847  1.00  0.00    -0.000 C 
BRANCH  24  25
ATOM     25  C   UNL     1      -7.012  14.422  19.848  1.00  0.00    -0.000 C 
BRANCH  25  26
ATOM     26  C   UNL     1      -8.047  15.370  20.475  1.00  0.00    -0.000 C 
BRANCH  26  27
ATOM     27  C   UNL     1      -7.780  16.848  20.146  1.00  0.00    -0.000 C 
BRANCH  27  28
ATOM     28  C   UNL     1      -6.312  17.196  19.833  1.00  0.00    -0.000 C 
BRANCH  28  29
ATOM     29  C   UNL     1      -5.421  17.338  21.085  1.00  0.00    -0.003 C 
ATOM     30  C   UNL     1      -4.265  16.338  21.098  1.00  0.00     0.004 C 
ENDBRANCH  28  29
ENDBRANCH  27  28
ENDBRANCH  26  27
ENDBRANCH  25  26
ENDBRANCH  24  25
ENDBRANCH  23  24
ENDBRANCH  22  23
ENDBRANCH  21  22
ENDBRANCH  20  21
ENDBRANCH  19  20
ENDBRANCH  18  19
ENDBRANCH  17  18
ENDBRANCH   1  17
TORSDOF 26
ENDMDL
MODEL 6
REMARK VINA RESULT:    27.631      3.458     10.453
REMARK INTER + INTRA:          68.149
REMARK INTER:                  70.340
REMARK INTRA:                  -2.191
REMARK UNBOUND:                -1.479
REMARK SMILES CCCCCCCCCCCCCCCCCCCCCCCCCCCC(=O)[O-]
REMARK SMILES IDX 15 1 16 2 17 3 18 4 19 5 20 6 21 7 22 8 23 9 24 10 25 11
REMARK SMILES IDX 26 12 27 13 28 14 29 15 30 16 14 17 13 18 12 19 11 20 10 21
REMARK SMILES IDX 9 22 8 23 7 24 6 25 5 26 4 27 3 28 2 29 1 30
REMARK H PARENT
REMARK Flexibility Score: inf
ROOT
ATOM      1  C   UNL     1      -1.054  15.333  19.176  1.00  0.00     0.000 C 
ENDROOT
BRANCH   1   2
ATOM      2  C   UNL     1      -0.059  16.226  19.934  1.00  0.00     0.000 C 
BRANCH   2   3
ATOM      3  C   UNL     1      -0.751  17.319  20.765  1.00  0.00     0.000 C 
BRANCH   3   4
ATOM      4  C   UNL     1      -0.409  18.740  20.282  1.00  0.00     0.000 C 
BRANCH   4   5
ATOM      5  C   UNL     1      -1.321  19.810  20.909  1.00  0.00     0.000 C 
BRANCH   5   6
ATOM      6  C   UNL     1      -0.567  20.962  21.598  1.00  0.00     0.000 C 
BRANCH   6   7
ATOM      7  C   UNL     1      -1.120  21.273  23.000  1.00  0.00     0.000 C 
BRANCH   7   8
ATOM      8  C   UNL     1      -2.201  22.365  22.980  1.00  0.00     0.000 C 
BRANCH   8   9
ATOM      9  C   UNL     1      -1.670  23.716  22.466  1.00  0.00     0.000 C 
BRANCH   9  10
ATOM     10  C   UNL     1      -2.711  24.841  22.581  1.00  0.00     0.000 C 
BRANCH  10  11
ATOM     11  C   UNL     1      -3.034  25.487  21.223  1.00  0.00     0.000 C 
BRANCH  11  12
ATOM     12  C   UNL     1      -3.518  26.943  21.359  1.00  0.00     0.006 C 
BRANCH  12  13
ATOM     13  C   UNL     1      -2.931  27.904  20.311  1.00  0.00     0.053 C 
BRANCH  13  14
ATOM     14  C   UNL     1      -3.999  28.662  19.585  1.00  0.00     0.041 C 
ATOM     15  O   UNL     1      -4.626  28.120  18.638  1.00  0.00    -0.550 OA
ATOM     16  O   UNL     1      -4.326  29.953  19.977  1.00  0.00    -0.550 OA
ENDBRANCH  13  14
ENDBRANCH  12  13
ENDBRANCH  11  12
ENDBRANCH  10  11
ENDBRANCH   9  10
ENDBRANCH   8   9
ENDBRANCH   7   8
ENDBRANCH   6   7
ENDBRANCH   5   6
ENDBRANCH   4   5
ENDBRANCH   3   4
ENDBRANCH   2   3
ENDBRANCH   1   2
BRANCH   1  17
ATOM     17  C   UNL     1      -0.335  14.155  18.503  1.00  0.00     0.000 C 
BRANCH  17  18
ATOM     18  C   UNL     1      -1.077  12.818  18.718  1.00  0.00     0.000 C 
BRANCH  18  19
ATOM     19  C   UNL     1      -2.593  12.905  18.479  1.00  0.00     0.000 C 
BRANCH  19  20
ATOM     20  C   UNL     1      -3.411  12.184  19.564  1.00  0.00     0.000 C 
BRANCH  20  21
ATOM     21  C   UNL     1      -3.482  12.973  20.886  1.00  0.00     0.000 C 
BRANCH  21  22
ATOM     22  C   UNL     1      -4.602  14.029  20.964  1.00  0.00    -0.000 C 
BRANCH  22  23
ATOM     23  C   UNL     1      -4.109  15.454  20.659  1.00  0.00    -0.000 C 
BRANCH  23  24
ATOM     24  C   UNL     1      -4.939  16.539  21.369  1.00  0.00    -0.000 C 
BRANCH  24  25
ATOM     25  C   UNL     1      -5.487  17.649  20.452  1.00  0.00    -0.000 C 
BRANCH  25  26
ATOM     26  C   UNL     1      -6.576  17.146  19.488  1.00  0.00    -0.000 C 
BRANCH  26  27
ATOM     27  C   UNL     1      -7.916  16.875  20.191  1.00  0.00    -0.000 C 
BRANCH  27  28
ATOM     28  C   UNL     1      -8.295  15.388  20.334  1.00  0.00    -0.000 C 
BRANCH  28  29
ATOM     29  C   UNL     1      -7.725  14.487  19.219  1.00  0.00    -0.003 C 
ATOM     30  C   UNL     1      -8.813  13.941  18.294  1.00  0.00     0.004 C 
ENDBRANCH  28  29
ENDBRANCH  27  28
ENDBRANCH  26  27
ENDBRANCH  25  26
ENDBRANCH  24  25
ENDBRANCH  23  24
ENDBRANCH  22  23
ENDBRANCH  21  22
ENDBRANCH  20  21
ENDBRANCH  19  20
ENDBRANCH  18  19
ENDBRANCH  17  18
ENDBRANCH   1  17
TORSDOF 26
ENDMDL
MODEL 7
REMARK VINA RESULT:    27.897      1.592      2.048
REMARK INTER + INTRA:          68.821
REMARK INTER:                  70.541
REMARK INTRA:                  -1.720
REMARK UNBOUND:                -1.479
REMARK SMILES CCCCCCCCCCCCCCCCCCCCCCCCCCCC(=O)[O-]
REMARK SMILES IDX 15 1 16 2 17 3 18 4 19 5 20 6 21 7 22 8 23 9 24 10 25 11
REMARK SMILES IDX 26 12 27 13 28 14 29 15 30 16 14 17 13 18 12 19 11 20 10 21
REMARK SMILES IDX 9 22 8 23 7 24 6 25 5 26 4 27 3 28 2 29 1 30
REMARK H PARENT
REMARK Flexibility Score: inf
ROOT
ATOM      1  C   UNL     1      -0.067  17.580  19.884  1.00  0.00     0.000 C 
ENDROOT
BRANCH   1   2
ATOM      2  C   UNL     1      -0.031  16.047  19.982  1.00  0.00     0.000 C 
BRANCH   2   3
ATOM      3  C   UNL     1      -1.129  15.369  19.146  1.00  0.00     0.000 C 
BRANCH   3   4
ATOM      4  C   UNL     1      -0.681  14.020  18.556  1.00  0.00     0.000 C 
BRANCH   4   5
ATOM      5  C   UNL     1      -1.734  12.914  18.750  1.00  0.00     0.000 C 
BRANCH   5   6
ATOM      6  C   UNL     1      -2.506  12.999  20.079  1.00  0.00     0.000 C 
BRANCH   6   7
ATOM      7  C   UNL     1      -4.031  12.963  19.878  1.00  0.00     0.000 C 
BRANCH   7   8
ATOM      8  C   UNL     1      -4.759  14.052  20.683  1.00  0.00     0.000 C 
BRANCH   8   9
ATOM      9  C   UNL     1      -3.877  15.288  20.940  1.00  0.00     0.000 C 
BRANCH   9  10
ATOM     10  C   UNL     1      -4.703  16.565  21.165  1.00  0.00     0.000 C 
BRANCH  10  11
ATOM     11  C   UNL     1      -5.847  16.713  20.147  1.00  0.00     0.000 C 
BRANCH  11  12
ATOM     12  C   UNL     1      -6.067  18.175  19.711  1.00  0.00     0.006 C 
BRANCH  12  13
ATOM     13  C   UNL     1      -6.906  18.332  18.432  1.00  0.00     0.053 C 
BRANCH  13  14
ATOM     14  C   UNL     1      -6.648  19.640  17.749  1.00  0.00     0.041 C 
ATOM     15  O   UNL     1      -7.610  20.386  17.429  1.00  0.00    -0.550 OA
ATOM     16  O   UNL     1      -5.346  20.051  17.498  1.00  0.00    -0.550 OA
ENDBRANCH  13  14
ENDBRANCH  12  13
ENDBRANCH  11  12
ENDBRANCH  10  11
ENDBRANCH   9  10
ENDBRANCH   8   9
ENDBRANCH   7   8
ENDBRANCH   6   7
ENDBRANCH   5   6
ENDBRANCH   4   5
ENDBRANCH   3   4
ENDBRANCH   2   3
ENDBRANCH   1   2
BRANCH   1  17
ATOM     17  C   UNL     1      -0.981  18.180  20.962  1.00  0.00     0.000 C 
BRANCH  17  18
ATOM     18  C   UNL     1      -1.065  19.719  20.867  1.00  0.00     0.000 C 
BRANCH  18  19
ATOM     19  C   UNL     1      -0.253  20.452  21.947  1.00  0.00     0.000 C 
BRANCH  19  20
ATOM     20  C   UNL     1      -0.495  21.971  21.947  1.00  0.00     0.000 C 
BRANCH  20  21
ATOM     21  C   UNL     1      -1.803  22.371  22.656  1.00  0.00     0.000 C 
BRANCH  21  22
ATOM     22  C   UNL     1      -1.845  23.814  23.196  1.00  0.00    -0.000 C 
BRANCH  22  23
ATOM     23  C   UNL     1      -3.109  24.581  22.769  1.00  0.00    -0.000 C 
BRANCH  23  24
ATOM     24  C   UNL     1      -2.826  25.656  21.705  1.00  0.00    -0.000 C 
BRANCH  24  25
ATOM     25  C   UNL     1      -3.928  26.719  21.537  1.00  0.00    -0.000 C 
BRANCH  25  26
ATOM     26  C   UNL     1      -4.247  27.023  20.064  1.00  0.00    -0.000 C 
BRANCH  26  27
ATOM     27  C   UNL     1      -3.325  28.096  19.462  1.00  0.00    -0.000 C 
BRANCH  27  28
ATOM     28  C   UNL     1      -3.701  29.551  19.799  1.00  0.00    -0.000 C 
BRANCH  28  29
ATOM     29  C   UNL     1      -2.501  30.520  19.821  1.00  0.00    -0.003 C 
ATOM     30  C   UNL     1      -1.315  29.965  20.610  1.00  0.00     0.004 C 
ENDBRANCH  28  29
ENDBRANCH  27  28
ENDBRANCH  26  27
ENDBRANCH  25  26
ENDBRANCH  24  25
ENDBRANCH  23  24
ENDBRANCH  22  23
ENDBRANCH  21  22
ENDBRANCH  20  21
ENDBRANCH  19  20
ENDBRANCH  18  19
ENDBRANCH  17  18
ENDBRANCH   1  17
TORSDOF 26
ENDMDL
MODEL 8
REMARK VINA RESULT:    27.918      3.056     11.227
REMARK INTER + INTRA:          68.874
REMARK INTER:                  69.477
REMARK INTRA:                  -0.602
REMARK UNBOUND:                -1.479
REMARK SMILES CCCCCCCCCCCCCCCCCCCCCCCCCCCC(=O)[O-]
REMARK SMILES IDX 15 1 16 2 17 3 18 4 19 5 20 6 21 7 22 8 23 9 24 10 25 11
REMARK SMILES IDX 26 12 27 13 28 14 29 15 30 16 14 17 13 18 12 19 11 20 10 21
REMARK SMILES IDX 9 22 8 23 7 24 6 25 5 26 4 27 3 28 2 29 1 30
REMARK H PARENT
REMARK Flexibility Score: inf
ROOT
ATOM      1  C   UNL     1      -0.683  19.156  20.246  1.00  0.00     0.000 C 
ENDROOT
BRANCH   1   2
ATOM      2  C   UNL     1      -1.260  20.140  21.275  1.00  0.00     0.000 C 
BRANCH   2   3
ATOM      3  C   UNL     1      -0.173  20.951  22.000  1.00  0.00     0.000 C 
BRANCH   3   4
ATOM      4  C   UNL     1      -0.669  22.335  22.458  1.00  0.00     0.000 C 
BRANCH   4   5
ATOM      5  C   UNL     1      -2.197  22.381  22.642  1.00  0.00     0.000 C 
BRANCH   5   6
ATOM      6  C   UNL     1      -2.744  23.758  23.060  1.00  0.00     0.000 C 
BRANCH   6   7
ATOM      7  C   UNL     1      -2.321  24.878  22.093  1.00  0.00     0.000 C 
BRANCH   7   8
ATOM      8  C   UNL     1      -3.390  25.974  21.953  1.00  0.00     0.000 C 
BRANCH   8   9
ATOM      9  C   UNL     1      -3.049  26.998  20.854  1.00  0.00     0.000 C 
BRANCH   9  10
ATOM     10  C   UNL     1      -2.815  28.409  21.416  1.00  0.00     0.000 C 
BRANCH  10  11
ATOM     11  C   UNL     1      -2.752  29.480  20.314  1.00  0.00     0.000 C 
BRANCH  11  12
ATOM     12  C   UNL     1      -4.148  29.895  19.811  1.00  0.00     0.006 C 
BRANCH  12  13
ATOM     13  C   UNL     1      -4.557  29.246  18.478  1.00  0.00     0.053 C 
BRANCH  13  14
ATOM     14  C   UNL     1      -4.634  27.754  18.581  1.00  0.00     0.041 C 
ATOM     15  O   UNL     1      -3.877  27.033  17.880  1.00  0.00    -0.550 OA
ATOM     16  O   UNL     1      -5.514  27.161  19.476  1.00  0.00    -0.550 OA
ENDBRANCH  13  14
ENDBRANCH  12  13
ENDBRANCH  11  12
ENDBRANCH  10  11
ENDBRANCH   9  10
ENDBRANCH   8   9
ENDBRANCH   7   8
ENDBRANCH   6   7
ENDBRANCH   5   6
ENDBRANCH   4   5
ENDBRANCH   3   4
ENDBRANCH   2   3
ENDBRANCH   1   2
BRANCH   1  17
ATOM     17  C   UNL     1      -0.796  17.708  20.747  1.00  0.00     0.000 C 
BRANCH  17  18
ATOM     18  C   UNL     1       0.027  16.727  19.884  1.00  0.00     0.000 C 
BRANCH  18  19
ATOM     19  C   UNL     1      -0.453  15.268  19.975  1.00  0.00     0.000 C 
BRANCH  19  20
ATOM     20  C   UNL     1      -0.424  14.545  18.619  1.00  0.00     0.000 C 
BRANCH  20  21
ATOM     21  C   UNL     1      -1.669  13.669  18.378  1.00  0.00     0.000 C 
BRANCH  21  22
ATOM     22  C   UNL     1      -1.736  12.375  19.213  1.00  0.00    -0.000 C 
BRANCH  22  23
ATOM     23  C   UNL     1      -2.983  12.302  20.111  1.00  0.00    -0.000 C 
BRANCH  23  24
ATOM     24  C   UNL     1      -4.037  13.369  19.760  1.00  0.00    -0.000 C 
BRANCH  24  25
ATOM     25  C   UNL     1      -4.484  14.260  20.935  1.00  0.00    -0.000 C 
BRANCH  25  26
ATOM     26  C   UNL     1      -3.883  15.674  20.876  1.00  0.00    -0.000 C 
BRANCH  26  27
ATOM     27  C   UNL     1      -4.905  16.772  21.210  1.00  0.00    -0.000 C 
BRANCH  27  28
ATOM     28  C   UNL     1      -6.014  16.979  20.160  1.00  0.00    -0.000 C 
BRANCH  28  29
ATOM     29  C   UNL     1      -7.419  16.563  20.643  1.00  0.00    -0.003 C 
ATOM     30  C   UNL     1      -8.045  15.482  19.762  1.00  0.00     0.004 C 
ENDBRANCH  28  29
ENDBRANCH  27  28
ENDBRANCH  26  27
ENDBRANCH  25  26
ENDBRANCH  24  25
ENDBRANCH  23  24
ENDBRANCH  22  23
ENDBRANCH  21  22
ENDBRANCH  20  21
ENDBRANCH  19  20
ENDBRANCH  18  19
ENDBRANCH  17  18
ENDBRANCH   1  17
TORSDOF 26
ENDMDL
