MODEL 1
REMARK VINA RESULT:    -4.907      0.000      0.000
REMARK INTER + INTRA:         -11.618
REMARK INTER:                  -9.209
REMARK INTRA:                  -2.409
REMARK UNBOUND:                -2.409
REMARK SMILES O=C([O-])CCCCCCCCCCCCCCC(=O)[O-]
REMARK SMILES IDX 10 1 9 2 8 3 7 4 6 5 5 6 4 7 2 8 1 9 3 10 11 11 12 12 13 13
REMARK SMILES IDX 14 14 15 15 16 16 17 17 18 18 19 19 20 20
REMARK H PARENT
REMARK Flexibility Score: inf
ROOT
ATOM      1  C   UNL     1      19.788 -42.443 -24.374  1.00  0.00     0.000 C 
ENDROOT
BRANCH   1   2
ATOM      2  C   UNL     1      18.627 -41.468 -24.640  1.00  0.00     0.000 C 
BRANCH   2   3
ATOM      3  C   UNL     1      17.748 -41.230 -23.402  1.00  0.00     0.000 C 
BRANCH   3   4
ATOM      4  C   UNL     1      16.339 -41.830 -23.548  1.00  0.00     0.000 C 
BRANCH   4   5
ATOM      5  C   UNL     1      15.670 -42.176 -22.200  1.00  0.00     0.000 C 
BRANCH   5   6
ATOM      6  C   UNL     1      16.188 -41.296 -21.053  1.00  0.00     0.006 C 
BRANCH   6   7
ATOM      7  C   UNL     1      16.700 -42.152 -19.890  1.00  0.00     0.053 C 
BRANCH   7   8
ATOM      8  C   UNL     1      15.860 -41.934 -18.671  1.00  0.00     0.041 C 
ATOM      9  O   UNL     1      16.357 -42.089 -17.524  1.00  0.00    -0.550 OA
ATOM     10  O   UNL     1      14.544 -41.512 -18.800  1.00  0.00    -0.550 OA
ENDBRANCH   7   8
ENDBRANCH   6   7
ENDBRANCH   5   6
ENDBRANCH   4   5
ENDBRANCH   3   4
ENDBRANCH   2   3
ENDBRANCH   1   2
BRANCH   1  11
ATOM     11  C   UNL     1      19.791 -43.716 -25.245  1.00  0.00     0.000 C 
BRANCH  11  12
ATOM     12  C   UNL     1      18.400 -44.201 -25.700  1.00  0.00     0.000 C 
BRANCH  12  13
ATOM     13  C   UNL     1      18.209 -45.731 -25.681  1.00  0.00     0.000 C 
BRANCH  13  14
ATOM     14  C   UNL     1      17.936 -46.335 -24.290  1.00  0.00     0.000 C 
BRANCH  14  15
ATOM     15  C   UNL     1      17.174 -45.415 -23.314  1.00  0.00     0.000 C 
BRANCH  15  16
ATOM     16  C   UNL     1      17.690 -45.438 -21.864  1.00  0.00     0.006 C 
BRANCH  16  17
ATOM     17  C   UNL     1      18.843 -44.456 -21.626  1.00  0.00     0.053 C 
BRANCH  17  18
ATOM     18  C   UNL     1      20.151 -45.183 -21.601  1.00  0.00     0.041 C 
ATOM     19  O   UNL     1      21.210 -44.591 -21.936  1.00  0.00    -0.550 OA
ATOM     20  O   UNL     1      20.192 -46.528 -21.257  1.00  0.00    -0.550 OA
ENDBRANCH  17  18
ENDBRANCH  16  17
ENDBRANCH  15  16
ENDBRANCH  14  15
ENDBRANCH  13  14
ENDBRANCH  12  13
ENDBRANCH  11  12
ENDBRANCH   1  11
TORSDOF 15
ENDMDL
MODEL 2
REMARK VINA RESULT:    -4.861      2.514      3.416
REMARK INTER + INTRA:         -11.534
REMARK INTER:                  -9.436
REMARK INTRA:                  -2.098
REMARK UNBOUND:                -2.409
REMARK SMILES O=C([O-])CCCCCCCCCCCCCCC(=O)[O-]
REMARK SMILES IDX 10 1 9 2 8 3 7 4 6 5 5 6 4 7 2 8 1 9 3 10 11 11 12 12 13 13
REMARK SMILES IDX 14 14 15 15 16 16 17 17 18 18 19 19 20 20
REMARK H PARENT
REMARK Flexibility Score: inf
ROOT
ATOM      1  C   UNL     1      20.396 -42.638 -23.584  1.00  0.00     0.000 C 
ENDROOT
BRANCH   1   2
ATOM      2  C   UNL     1      19.242 -42.092 -24.445  1.00  0.00     0.000 C 
BRANCH   2   3
ATOM      3  C   UNL     1      18.106 -43.108 -24.639  1.00  0.00     0.000 C 
BRANCH   3   4
ATOM      4  C   UNL     1      16.863 -42.781 -23.794  1.00  0.00     0.000 C 
BRANCH   4   5
ATOM      5  C   UNL     1      16.671 -41.271 -23.534  1.00  0.00     0.000 C 
BRANCH   5   6
ATOM      6  C   UNL     1      16.750 -40.926 -22.039  1.00  0.00     0.006 C 
BRANCH   6   7
ATOM      7  C   UNL     1      16.448 -42.153 -21.174  1.00  0.00     0.053 C 
BRANCH   7   8
ATOM      8  C   UNL     1      16.349 -41.766 -19.732  1.00  0.00     0.041 C 
ATOM      9  O   UNL     1      17.393 -41.617 -19.043  1.00  0.00    -0.550 OA
ATOM     10  O   UNL     1      15.107 -41.521 -19.161  1.00  0.00    -0.550 OA
ENDBRANCH   7   8
ENDBRANCH   6   7
ENDBRANCH   5   6
ENDBRANCH   4   5
ENDBRANCH   3   4
ENDBRANCH   2   3
ENDBRANCH   1   2
BRANCH   1  11
ATOM     11  C   UNL     1      20.155 -42.599 -22.061  1.00  0.00     0.000 C 
BRANCH  11  12
ATOM     12  C   UNL     1      19.593 -43.899 -21.453  1.00  0.00     0.000 C 
BRANCH  12  13
ATOM     13  C   UNL     1      20.004 -45.190 -22.190  1.00  0.00     0.000 C 
BRANCH  13  14
ATOM     14  C   UNL     1      18.967 -46.329 -22.132  1.00  0.00     0.000 C 
BRANCH  14  15
ATOM     15  C   UNL     1      17.536 -45.894 -21.758  1.00  0.00     0.000 C 
BRANCH  15  16
ATOM     16  C   UNL     1      16.423 -46.846 -22.233  1.00  0.00     0.006 C 
BRANCH  16  17
ATOM     17  C   UNL     1      16.564 -48.260 -21.656  1.00  0.00     0.053 C 
BRANCH  17  18
ATOM     18  C   UNL     1      15.269 -48.711 -21.057  1.00  0.00     0.041 C 
ATOM     19  O   UNL     1      14.290 -47.922 -20.998  1.00  0.00    -0.550 OA
ATOM     20  O   UNL     1      15.159 -49.987 -20.519  1.00  0.00    -0.550 OA
ENDBRANCH  17  18
ENDBRANCH  16  17
ENDBRANCH  15  16
ENDBRANCH  14  15
ENDBRANCH  13  14
ENDBRANCH  12  13
ENDBRANCH  11  12
ENDBRANCH   1  11
TORSDOF 15
ENDMDL
MODEL 3
REMARK VINA RESULT:    -4.683      2.837      5.311
REMARK INTER + INTRA:         -11.198
REMARK INTER:                  -9.338
REMARK INTRA:                  -1.860
REMARK UNBOUND:                -2.409
REMARK SMILES O=C([O-])CCCCCCCCCCCCCCC(=O)[O-]
REMARK SMILES IDX 10 1 9 2 8 3 7 4 6 5 5 6 4 7 2 8 1 9 3 10 11 11 12 12 13 13
REMARK SMILES IDX 14 14 15 15 16 16 17 17 18 18 19 19 20 20
REMARK H PARENT
REMARK Flexibility Score: inf
ROOT
ATOM      1  C   UNL     1      19.660 -44.041 -25.008  1.00  0.00     0.000 C 
ENDROOT
BRANCH   1   2
ATOM      2  C   UNL     1      18.362 -44.749 -25.438  1.00  0.00     0.000 C 
BRANCH   2   3
ATOM      3  C   UNL     1      18.102 -46.048 -24.660  1.00  0.00     0.000 C 
BRANCH   3   4
ATOM      4  C   UNL     1      18.989 -46.181 -23.409  1.00  0.00     0.000 C 
BRANCH   4   5
ATOM      5  C   UNL     1      18.191 -46.270 -22.091  1.00  0.00     0.000 C 
BRANCH   5   6
ATOM      6  C   UNL     1      17.483 -47.624 -21.932  1.00  0.00     0.006 C 
BRANCH   6   7
ATOM      7  C   UNL     1      15.974 -47.486 -22.154  1.00  0.00     0.053 C 
BRANCH   7   8
ATOM      8  C   UNL     1      15.223 -48.390 -21.228  1.00  0.00     0.041 C 
ATOM      9  O   UNL     1      15.749 -49.460 -20.822  1.00  0.00    -0.550 OA
ATOM     10  O   UNL     1      13.963 -48.027 -20.773  1.00  0.00    -0.550 OA
ENDBRANCH   7   8
ENDBRANCH   6   7
ENDBRANCH   5   6
ENDBRANCH   4   5
ENDBRANCH   3   4
ENDBRANCH   2   3
ENDBRANCH   1   2
BRANCH   1  11
ATOM     11  C   UNL     1      19.545 -42.516 -24.813  1.00  0.00     0.000 C 
BRANCH  11  12
ATOM     12  C   UNL     1      20.075 -41.986 -23.466  1.00  0.00     0.000 C 
BRANCH  12  13
ATOM     13  C   UNL     1      19.905 -42.953 -22.277  1.00  0.00     0.000 C 
BRANCH  13  14
ATOM     14  C   UNL     1      18.683 -42.672 -21.381  1.00  0.00     0.000 C 
BRANCH  14  15
ATOM     15  C   UNL     1      18.186 -41.212 -21.390  1.00  0.00     0.000 C 
BRANCH  15  16
ATOM     16  C   UNL     1      16.703 -41.034 -21.765  1.00  0.00     0.006 C 
BRANCH  16  17
ATOM     17  C   UNL     1      16.389 -41.502 -23.191  1.00  0.00     0.053 C 
BRANCH  17  18
ATOM     18  C   UNL     1      15.354 -42.583 -23.169  1.00  0.00     0.041 C 
ATOM     19  O   UNL     1      14.130 -42.286 -23.167  1.00  0.00    -0.550 OA
ATOM     20  O   UNL     1      15.740 -43.915 -23.101  1.00  0.00    -0.550 OA
ENDBRANCH  17  18
ENDBRANCH  16  17
ENDBRANCH  15  16
ENDBRANCH  14  15
ENDBRANCH  13  14
ENDBRANCH  12  13
ENDBRANCH  11  12
ENDBRANCH   1  11
TORSDOF 15
ENDMDL
MODEL 4
REMARK VINA RESULT:    -4.664      2.323      3.509
REMARK INTER + INTRA:         -11.163
REMARK INTER:                  -9.104
REMARK INTRA:                  -2.060
REMARK UNBOUND:                -2.409
REMARK SMILES O=C([O-])CCCCCCCCCCCCCCC(=O)[O-]
REMARK SMILES IDX 10 1 9 2 8 3 7 4 6 5 5 6 4 7 2 8 1 9 3 10 11 11 12 12 13 13
REMARK SMILES IDX 14 14 15 15 16 16 17 17 18 18 19 19 20 20
REMARK H PARENT
REMARK Flexibility Score: inf
ROOT
ATOM      1  C   UNL     1      19.604 -42.506 -24.508  1.00  0.00     0.000 C 
ENDROOT
BRANCH   1   2
ATOM      2  C   UNL     1      18.423 -41.622 -24.948  1.00  0.00     0.000 C 
BRANCH   2   3
ATOM      3  C   UNL     1      17.551 -41.156 -23.771  1.00  0.00     0.000 C 
BRANCH   3   4
ATOM      4  C   UNL     1      16.137 -41.760 -23.802  1.00  0.00     0.000 C 
BRANCH   4   5
ATOM      5  C   UNL     1      15.888 -42.809 -22.696  1.00  0.00     0.000 C 
BRANCH   5   6
ATOM      6  C   UNL     1      16.829 -42.621 -21.497  1.00  0.00     0.006 C 
BRANCH   6   7
ATOM      7  C   UNL     1      17.686 -43.870 -21.269  1.00  0.00     0.053 C 
BRANCH   7   8
ATOM      8  C   UNL     1      19.140 -43.521 -21.304  1.00  0.00     0.041 C 
ATOM      9  O   UNL     1      19.513 -42.337 -21.090  1.00  0.00    -0.550 OA
ATOM     10  O   UNL     1      20.088 -44.512 -21.523  1.00  0.00    -0.550 OA
ENDBRANCH   7   8
ENDBRANCH   6   7
ENDBRANCH   5   6
ENDBRANCH   4   5
ENDBRANCH   3   4
ENDBRANCH   2   3
ENDBRANCH   1   2
BRANCH   1  11
ATOM     11  C   UNL     1      19.753 -43.835 -25.276  1.00  0.00     0.000 C 
BRANCH  11  12
ATOM     12  C   UNL     1      18.477 -44.327 -25.988  1.00  0.00     0.000 C 
BRANCH  12  13
ATOM     13  C   UNL     1      17.971 -45.710 -25.529  1.00  0.00     0.000 C 
BRANCH  13  14
ATOM     14  C   UNL     1      17.663 -45.821 -24.023  1.00  0.00     0.000 C 
BRANCH  14  15
ATOM     15  C   UNL     1      18.294 -47.035 -23.313  1.00  0.00     0.000 C 
BRANCH  15  16
ATOM     16  C   UNL     1      17.572 -47.484 -22.029  1.00  0.00     0.006 C 
BRANCH  16  17
ATOM     17  C   UNL     1      16.061 -47.229 -22.076  1.00  0.00     0.053 C 
BRANCH  17  18
ATOM     18  C   UNL     1      15.330 -48.273 -21.292  1.00  0.00     0.041 C 
ATOM     19  O   UNL     1      14.138 -48.080 -20.938  1.00  0.00    -0.550 OA
ATOM     20  O   UNL     1      15.983 -49.439 -20.910  1.00  0.00    -0.550 OA
ENDBRANCH  17  18
ENDBRANCH  16  17
ENDBRANCH  15  16
ENDBRANCH  14  15
ENDBRANCH  13  14
ENDBRANCH  12  13
ENDBRANCH  11  12
ENDBRANCH   1  11
TORSDOF 15
ENDMDL
MODEL 5
REMARK VINA RESULT:    -4.645      3.690      6.892
REMARK INTER + INTRA:         -11.128
REMARK INTER:                  -9.340
REMARK INTRA:                  -1.788
REMARK UNBOUND:                -2.409
REMARK SMILES O=C([O-])CCCCCCCCCCCCCCC(=O)[O-]
REMARK SMILES IDX 10 1 9 2 8 3 7 4 6 5 5 6 4 7 2 8 1 9 3 10 11 11 12 12 13 13
REMARK SMILES IDX 14 14 15 15 16 16 17 17 18 18 19 19 20 20
REMARK H PARENT
REMARK Flexibility Score: inf
ROOT
ATOM      1  C   UNL     1      19.695 -42.211 -23.989  1.00  0.00     0.000 C 
ENDROOT
BRANCH   1   2
ATOM      2  C   UNL     1      20.171 -43.111 -25.144  1.00  0.00     0.000 C 
BRANCH   2   3
ATOM      3  C   UNL     1      19.450 -44.467 -25.184  1.00  0.00     0.000 C 
BRANCH   3   4
ATOM      4  C   UNL     1      18.190 -44.446 -26.067  1.00  0.00     0.000 C 
BRANCH   4   5
ATOM      5  C   UNL     1      18.042 -45.693 -26.965  1.00  0.00     0.000 C 
BRANCH   5   6
ATOM      6  C   UNL     1      17.327 -45.374 -28.286  1.00  0.00     0.006 C 
BRANCH   6   7
ATOM      7  C   UNL     1      17.286 -46.602 -29.200  1.00  0.00     0.053 C 
BRANCH   7   8
ATOM      8  C   UNL     1      18.104 -46.366 -30.431  1.00  0.00     0.041 C 
ATOM      9  O   UNL     1      17.560 -46.384 -31.567  1.00  0.00    -0.550 OA
ATOM     10  O   UNL     1      19.458 -46.078 -30.321  1.00  0.00    -0.550 OA
ENDBRANCH   7   8
ENDBRANCH   6   7
ENDBRANCH   5   6
ENDBRANCH   4   5
ENDBRANCH   3   4
ENDBRANCH   2   3
ENDBRANCH   1   2
BRANCH   1  11
ATOM     11  C   UNL     1      18.508 -41.284 -24.324  1.00  0.00     0.000 C 
BRANCH  11  12
ATOM     12  C   UNL     1      17.382 -41.256 -23.271  1.00  0.00     0.000 C 
BRANCH  12  13
ATOM     13  C   UNL     1      16.113 -42.041 -23.660  1.00  0.00     0.000 C 
BRANCH  13  14
ATOM     14  C   UNL     1      15.924 -43.378 -22.917  1.00  0.00     0.000 C 
BRANCH  14  15
ATOM     15  C   UNL     1      16.994 -43.694 -21.853  1.00  0.00     0.000 C 
BRANCH  15  16
ATOM     16  C   UNL     1      17.792 -44.987 -22.098  1.00  0.00     0.006 C 
BRANCH  16  17
ATOM     17  C   UNL     1      16.980 -46.056 -22.840  1.00  0.00     0.053 C 
BRANCH  17  18
ATOM     18  C   UNL     1      16.865 -47.295 -22.008  1.00  0.00     0.041 C 
ATOM     19  O   UNL     1      15.748 -47.645 -21.546  1.00  0.00    -0.550 OA
ATOM     20  O   UNL     1      18.000 -48.035 -21.703  1.00  0.00    -0.550 OA
ENDBRANCH  17  18
ENDBRANCH  16  17
ENDBRANCH  15  16
ENDBRANCH  14  15
ENDBRANCH  13  14
ENDBRANCH  12  13
ENDBRANCH  11  12
ENDBRANCH   1  11
TORSDOF 15
ENDMDL
MODEL 6
REMARK VINA RESULT:    -4.604      4.623      6.356
REMARK INTER + INTRA:         -11.051
REMARK INTER:                  -9.716
REMARK INTRA:                  -1.334
REMARK UNBOUND:                -2.409
REMARK SMILES O=C([O-])CCCCCCCCCCCCCCC(=O)[O-]
REMARK SMILES IDX 10 1 9 2 8 3 7 4 6 5 5 6 4 7 2 8 1 9 3 10 11 11 12 12 13 13
REMARK SMILES IDX 14 14 15 15 16 16 17 17 18 18 19 19 20 20
REMARK H PARENT
REMARK Flexibility Score: inf
ROOT
ATOM      1  C   UNL     1      19.572 -43.073 -24.522  1.00  0.00     0.000 C 
ENDROOT
BRANCH   1   2
ATOM      2  C   UNL     1      19.033 -41.638 -24.667  1.00  0.00     0.000 C 
BRANCH   2   3
ATOM      3  C   UNL     1      17.728 -41.406 -23.889  1.00  0.00     0.000 C 
BRANCH   3   4
ATOM      4  C   UNL     1      17.423 -42.537 -22.890  1.00  0.00     0.000 C 
BRANCH   4   5
ATOM      5  C   UNL     1      16.019 -43.154 -23.065  1.00  0.00     0.000 C 
BRANCH   5   6
ATOM      6  C   UNL     1      16.061 -44.690 -23.102  1.00  0.00     0.006 C 
BRANCH   6   7
ATOM      7  C   UNL     1      17.201 -45.229 -22.233  1.00  0.00     0.053 C 
BRANCH   7   8
ATOM      8  C   UNL     1      17.364 -46.702 -22.439  1.00  0.00     0.041 C 
ATOM      9  O   UNL     1      16.880 -47.516 -21.608  1.00  0.00    -0.550 OA
ATOM     10  O   UNL     1      18.008 -47.179 -23.573  1.00  0.00    -0.550 OA
ENDBRANCH   7   8
ENDBRANCH   6   7
ENDBRANCH   5   6
ENDBRANCH   4   5
ENDBRANCH   3   4
ENDBRANCH   2   3
ENDBRANCH   1   2
BRANCH   1  11
ATOM     11  C   UNL     1      19.445 -43.954 -25.781  1.00  0.00     0.000 C 
BRANCH  11  12
ATOM     12  C   UNL     1      18.057 -44.589 -25.998  1.00  0.00     0.000 C 
BRANCH  12  13
ATOM     13  C   UNL     1      18.021 -45.732 -27.032  1.00  0.00     0.000 C 
BRANCH  13  14
ATOM     14  C   UNL     1      17.347 -45.376 -28.371  1.00  0.00     0.000 C 
BRANCH  14  15
ATOM     15  C   UNL     1      17.387 -46.485 -29.441  1.00  0.00     0.000 C 
BRANCH  15  16
ATOM     16  C   UNL     1      18.758 -46.695 -30.108  1.00  0.00     0.006 C 
BRANCH  16  17
ATOM     17  C   UNL     1      18.818 -47.969 -30.958  1.00  0.00     0.053 C 
BRANCH  17  18
ATOM     18  C   UNL     1      19.404 -47.673 -32.303  1.00  0.00     0.041 C 
ATOM     19  O   UNL     1      19.162 -46.576 -32.871  1.00  0.00    -0.550 OA
ATOM     20  O   UNL     1      20.176 -48.629 -32.951  1.00  0.00    -0.550 OA
ENDBRANCH  17  18
ENDBRANCH  16  17
ENDBRANCH  15  16
ENDBRANCH  14  15
ENDBRANCH  13  14
ENDBRANCH  12  13
ENDBRANCH  11  12
ENDBRANCH   1  11
TORSDOF 15
ENDMDL
MODEL 7
REMARK VINA RESULT:    -4.594      3.248      5.619
REMARK INTER + INTRA:         -11.032
REMARK INTER:                  -9.102
REMARK INTRA:                  -1.930
REMARK UNBOUND:                -2.409
REMARK SMILES O=C([O-])CCCCCCCCCCCCCCC(=O)[O-]
REMARK SMILES IDX 10 1 9 2 8 3 7 4 6 5 5 6 4 7 2 8 1 9 3 10 11 11 12 12 13 13
REMARK SMILES IDX 14 14 15 15 16 16 17 17 18 18 19 19 20 20
REMARK H PARENT
REMARK Flexibility Score: inf
ROOT
ATOM      1  C   UNL     1      17.757 -41.285 -23.666  1.00  0.00     0.000 C 
ENDROOT
BRANCH   1   2
ATOM      2  C   UNL     1      16.555 -42.239 -23.803  1.00  0.00     0.000 C 
BRANCH   2   3
ATOM      3  C   UNL     1      16.500 -43.296 -22.689  1.00  0.00     0.000 C 
BRANCH   3   4
ATOM      4  C   UNL     1      15.920 -44.637 -23.169  1.00  0.00     0.000 C 
BRANCH   4   5
ATOM      5  C   UNL     1      16.619 -45.869 -22.555  1.00  0.00     0.000 C 
BRANCH   5   6
ATOM      6  C   UNL     1      17.939 -45.501 -21.862  1.00  0.00     0.006 C 
BRANCH   6   7
ATOM      7  C   UNL     1      18.904 -46.690 -21.850  1.00  0.00     0.053 C 
BRANCH   7   8
ATOM      8  C   UNL     1      20.307 -46.224 -21.617  1.00  0.00     0.041 C 
ATOM      9  O   UNL     1      20.537 -45.013 -21.358  1.00  0.00    -0.550 OA
ATOM     10  O   UNL     1      21.355 -47.134 -21.637  1.00  0.00    -0.550 OA
ENDBRANCH   7   8
ENDBRANCH   6   7
ENDBRANCH   5   6
ENDBRANCH   4   5
ENDBRANCH   3   4
ENDBRANCH   2   3
ENDBRANCH   1   2
BRANCH   1  11
ATOM     11  C   UNL     1      18.956 -41.602 -24.583  1.00  0.00     0.000 C 
BRANCH  11  12
ATOM     12  C   UNL     1      19.870 -42.743 -24.093  1.00  0.00     0.000 C 
BRANCH  12  13
ATOM     13  C   UNL     1      20.134 -43.853 -25.131  1.00  0.00     0.000 C 
BRANCH  13  14
ATOM     14  C   UNL     1      19.033 -44.927 -25.226  1.00  0.00     0.000 C 
BRANCH  14  15
ATOM     15  C   UNL     1      18.055 -44.760 -26.407  1.00  0.00     0.000 C 
BRANCH  15  16
ATOM     16  C   UNL     1      17.959 -45.976 -27.346  1.00  0.00     0.006 C 
BRANCH  16  17
ATOM     17  C   UNL     1      17.514 -45.599 -28.764  1.00  0.00     0.053 C 
BRANCH  17  18
ATOM     18  C   UNL     1      17.936 -46.651 -29.742  1.00  0.00     0.041 C 
ATOM     19  O   UNL     1      17.175 -47.621 -29.996  1.00  0.00    -0.550 OA
ATOM     20  O   UNL     1      19.191 -46.586 -30.334  1.00  0.00    -0.550 OA
ENDBRANCH  17  18
ENDBRANCH  16  17
ENDBRANCH  15  16
ENDBRANCH  14  15
ENDBRANCH  13  14
ENDBRANCH  12  13
ENDBRANCH  11  12
ENDBRANCH   1  11
TORSDOF 15
ENDMDL
MODEL 8
REMARK VINA RESULT:    -4.564      4.428      7.988
REMARK INTER + INTRA:         -10.975
REMARK INTER:                  -9.447
REMARK INTRA:                  -1.528
REMARK UNBOUND:                -2.409
REMARK SMILES O=C([O-])CCCCCCCCCCCCCCC(=O)[O-]
REMARK SMILES IDX 10 1 9 2 8 3 7 4 6 5 5 6 4 7 2 8 1 9 3 10 11 11 12 12 13 13
REMARK SMILES IDX 14 14 15 15 16 16 17 17 18 18 19 19 20 20
REMARK H PARENT
REMARK Flexibility Score: inf
ROOT
ATOM      1  C   UNL     1      19.699 -44.443 -25.046  1.00  0.00     0.000 C 
ENDROOT
BRANCH   1   2
ATOM      2  C   UNL     1      18.562 -44.270 -26.071  1.00  0.00     0.000 C 
BRANCH   2   3
ATOM      3  C   UNL     1      17.977 -45.609 -26.547  1.00  0.00     0.000 C 
BRANCH   3   4
ATOM      4  C   UNL     1      17.549 -45.581 -28.024  1.00  0.00     0.000 C 
BRANCH   4   5
ATOM      5  C   UNL     1      17.793 -46.912 -28.766  1.00  0.00     0.000 C 
BRANCH   5   6
ATOM      6  C   UNL     1      17.782 -46.737 -30.292  1.00  0.00     0.006 C 
BRANCH   6   7
ATOM      7  C   UNL     1      19.199 -46.820 -30.866  1.00  0.00     0.053 C 
BRANCH   7   8
ATOM      8  C   UNL     1      19.328 -48.001 -31.774  1.00  0.00     0.041 C 
ATOM      9  O   UNL     1      18.777 -49.094 -31.476  1.00  0.00    -0.550 OA
ATOM     10  O   UNL     1      20.015 -47.883 -32.975  1.00  0.00    -0.550 OA
ENDBRANCH   7   8
ENDBRANCH   6   7
ENDBRANCH   5   6
ENDBRANCH   4   5
ENDBRANCH   3   4
ENDBRANCH   2   3
ENDBRANCH   1   2
BRANCH   1  11
ATOM     11  C   UNL     1      19.950 -43.226 -24.131  1.00  0.00     0.000 C 
BRANCH  11  12
ATOM     12  C   UNL     1      19.167 -41.952 -24.507  1.00  0.00     0.000 C 
BRANCH  12  13
ATOM     13  C   UNL     1      18.105 -41.517 -23.477  1.00  0.00     0.000 C 
BRANCH  13  14
ATOM     14  C   UNL     1      16.651 -41.856 -23.862  1.00  0.00     0.000 C 
BRANCH  14  15
ATOM     15  C   UNL     1      15.929 -42.826 -22.905  1.00  0.00     0.000 C 
BRANCH  15  16
ATOM     16  C   UNL     1      16.749 -44.063 -22.494  1.00  0.00     0.006 C 
BRANCH  16  17
ATOM     17  C   UNL     1      16.318 -45.335 -23.234  1.00  0.00     0.053 C 
BRANCH  17  18
ATOM     18  C   UNL     1      16.965 -46.539 -22.624  1.00  0.00     0.041 C 
ATOM     19  O   UNL     1      18.120 -46.886 -22.984  1.00  0.00    -0.550 OA
ATOM     20  O   UNL     1      16.272 -47.305 -21.696  1.00  0.00    -0.550 OA
ENDBRANCH  17  18
ENDBRANCH  16  17
ENDBRANCH  15  16
ENDBRANCH  14  15
ENDBRANCH  13  14
ENDBRANCH  12  13
ENDBRANCH  11  12
ENDBRANCH   1  11
TORSDOF 15
ENDMDL
MODEL 9
REMARK VINA RESULT:    -4.559      3.922      7.821
REMARK INTER + INTRA:         -10.965
REMARK INTER:                  -9.449
REMARK INTRA:                  -1.516
REMARK UNBOUND:                -2.409
REMARK SMILES O=C([O-])CCCCCCCCCCCCCCC(=O)[O-]
REMARK SMILES IDX 10 1 9 2 8 3 7 4 6 5 5 6 4 7 2 8 1 9 3 10 11 11 12 12 13 13
REMARK SMILES IDX 14 14 15 15 16 16 17 17 18 18 19 19 20 20
REMARK H PARENT
REMARK Flexibility Score: inf
ROOT
ATOM      1  C   UNL     1      18.210 -46.532 -23.265  1.00  0.00     0.000 C 
ENDROOT
BRANCH   1   2
ATOM      2  C   UNL     1      18.819 -46.097 -24.611  1.00  0.00     0.000 C 
BRANCH   2   3
ATOM      3  C   UNL     1      17.877 -45.205 -25.434  1.00  0.00     0.000 C 
BRANCH   3   4
ATOM      4  C   UNL     1      18.304 -45.087 -26.908  1.00  0.00     0.000 C 
BRANCH   4   5
ATOM      5  C   UNL     1      17.160 -45.361 -27.908  1.00  0.00     0.000 C 
BRANCH   5   6
ATOM      6  C   UNL     1      17.686 -45.718 -29.307  1.00  0.00     0.006 C 
BRANCH   6   7
ATOM      7  C   UNL     1      17.621 -47.229 -29.550  1.00  0.00     0.053 C 
BRANCH   7   8
ATOM      8  C   UNL     1      18.534 -47.619 -30.669  1.00  0.00     0.041 C 
ATOM      9  O   UNL     1      18.513 -48.793 -31.125  1.00  0.00    -0.550 OA
ATOM     10  O   UNL     1      19.375 -46.674 -31.242  1.00  0.00    -0.550 OA
ENDBRANCH   7   8
ENDBRANCH   6   7
ENDBRANCH   5   6
ENDBRANCH   4   5
ENDBRANCH   3   4
ENDBRANCH   2   3
ENDBRANCH   1   2
BRANCH   1  11
ATOM     11  C   UNL     1      18.782 -45.818 -22.023  1.00  0.00     0.000 C 
BRANCH  11  12
ATOM     12  C   UNL     1      18.013 -44.557 -21.581  1.00  0.00     0.000 C 
BRANCH  12  13
ATOM     13  C   UNL     1      18.848 -43.261 -21.566  1.00  0.00     0.000 C 
BRANCH  13  14
ATOM     14  C   UNL     1      19.681 -43.010 -22.838  1.00  0.00     0.000 C 
BRANCH  14  15
ATOM     15  C   UNL     1      19.056 -42.027 -23.848  1.00  0.00     0.000 C 
BRANCH  15  16
ATOM     16  C   UNL     1      17.765 -41.338 -23.369  1.00  0.00     0.006 C 
BRANCH  16  17
ATOM     17  C   UNL     1      16.499 -41.981 -23.948  1.00  0.00     0.053 C 
BRANCH  17  18
ATOM     18  C   UNL     1      15.412 -42.010 -22.920  1.00  0.00     0.041 C 
ATOM     19  O   UNL     1      14.245 -42.355 -23.243  1.00  0.00    -0.550 OA
ATOM     20  O   UNL     1      15.676 -41.609 -21.617  1.00  0.00    -0.550 OA
ENDBRANCH  17  18
ENDBRANCH  16  17
ENDBRANCH  15  16
ENDBRANCH  14  15
ENDBRANCH  13  14
ENDBRANCH  12  13
ENDBRANCH  11  12
ENDBRANCH   1  11
TORSDOF 15
ENDMDL
