MODEL 1
REMARK VINA RESULT:    -3.493      0.000      0.000
REMARK INTER + INTRA:          -4.207
REMARK INTER:                  -4.105
REMARK INTRA:                  -0.102
REMARK UNBOUND:                -0.102
REMARK SMILES O=C([O-])CCC(=O)[O-]
REMARK SMILES IDX 4 1 2 2 1 3 3 4 5 5 6 6 7 7 8 8
REMARK H PARENT
REMARK Flexibility Score: inf
ROOT
ATOM      1  C   UNL     1      39.889   8.679  -5.405  1.00  0.00     0.059 C 
ENDROOT
BRANCH   1   2
ATOM      2  C   UNL     1      39.782   8.989  -3.943  1.00  0.00     0.042 C 
ATOM      3  O   UNL     1      40.340   8.244  -3.094  1.00  0.00    -0.550 OA
ATOM      4  O   UNL     1      39.100  10.123  -3.521  1.00  0.00    -0.550 OA
ENDBRANCH   1   2
BRANCH   1   5
ATOM      5  C   UNL     1      39.003   7.491  -5.795  1.00  0.00     0.059 C 
BRANCH   5   6
ATOM      6  C   UNL     1      37.776   7.936  -6.529  1.00  0.00     0.042 C 
ATOM      7  O   UNL     1      37.599   9.155  -6.788  1.00  0.00    -0.550 OA
ATOM      8  O   UNL     1      36.848   6.998  -6.964  1.00  0.00    -0.550 OA
ENDBRANCH   5   6
ENDBRANCH   1   5
TORSDOF 3
ENDMDL
MODEL 2
REMARK VINA RESULT:    -3.476      0.166      3.785
REMARK INTER + INTRA:          -4.188
REMARK INTER:                  -4.101
REMARK INTRA:                  -0.087
REMARK UNBOUND:                -0.102
REMARK SMILES O=C([O-])CCC(=O)[O-]
REMARK SMILES IDX 4 1 2 2 1 3 3 4 5 5 6 6 7 7 8 8
REMARK H PARENT
REMARK Flexibility Score: inf
ROOT
ATOM      1  C   UNL     1      38.973   7.469  -5.828  1.00  0.00     0.059 C 
ENDROOT
BRANCH   1   2
ATOM      2  C   UNL     1      37.737   7.878  -6.569  1.00  0.00     0.042 C 
ATOM      3  O   UNL     1      36.883   7.014  -6.903  1.00  0.00    -0.550 OA
ATOM      4  O   UNL     1      37.510   9.217  -6.858  1.00  0.00    -0.550 OA
ENDBRANCH   1   2
BRANCH   1   5
ATOM      5  C   UNL     1      39.844   8.680  -5.474  1.00  0.00     0.059 C 
BRANCH   5   6
ATOM      6  C   UNL     1      39.878   8.922  -3.996  1.00  0.00     0.042 C 
ATOM      7  O   UNL     1      39.283   9.916  -3.503  1.00  0.00    -0.550 OA
ATOM      8  O   UNL     1      40.533   8.027  -3.160  1.00  0.00    -0.550 OA
ENDBRANCH   5   6
ENDBRANCH   1   5
TORSDOF 3
ENDMDL
MODEL 3
REMARK VINA RESULT:    -3.326     10.209     11.301
REMARK INTER + INTRA:          -4.012
REMARK INTER:                  -3.872
REMARK INTRA:                  -0.140
REMARK UNBOUND:                -0.102
REMARK SMILES O=C([O-])CCC(=O)[O-]
REMARK SMILES IDX 4 1 2 2 1 3 3 4 5 5 6 6 7 7 8 8
REMARK H PARENT
REMARK Flexibility Score: inf
ROOT
ATOM      1  C   UNL     1      50.295   9.883  -6.915  1.00  0.00     0.059 C 
ENDROOT
BRANCH   1   2
ATOM      2  C   UNL     1      49.163   8.929  -7.149  1.00  0.00     0.042 C 
ATOM      3  O   UNL     1      49.277   8.007  -8.000  1.00  0.00    -0.550 OA
ATOM      4  O   UNL     1      47.999   9.034  -6.399  1.00  0.00    -0.550 OA
ENDBRANCH   1   2
BRANCH   1   5
ATOM      5  C   UNL     1      49.788  11.263  -6.484  1.00  0.00     0.059 C 
BRANCH   5   6
ATOM      6  C   UNL     1      49.337  12.077  -7.658  1.00  0.00     0.042 C 
ATOM      7  O   UNL     1      48.114  12.324  -7.826  1.00  0.00    -0.550 OA
ATOM      8  O   UNL     1      50.272  12.598  -8.543  1.00  0.00    -0.550 OA
ENDBRANCH   5   6
ENDBRANCH   1   5
TORSDOF 3
ENDMDL
MODEL 4
REMARK VINA RESULT:    -3.315     13.290     13.847
REMARK INTER + INTRA:          -3.998
REMARK INTER:                  -3.863
REMARK INTRA:                  -0.135
REMARK UNBOUND:                -0.102
REMARK SMILES O=C([O-])CCC(=O)[O-]
REMARK SMILES IDX 4 1 2 2 1 3 3 4 5 5 6 6 7 7 8 8
REMARK H PARENT
REMARK Flexibility Score: inf
ROOT
ATOM      1  C   UNL     1      36.824   4.515   7.973  1.00  0.00     0.059 C 
ENDROOT
BRANCH   1   2
ATOM      2  C   UNL     1      36.997   3.202   7.273  1.00  0.00     0.042 C 
ATOM      3  O   UNL     1      37.834   3.087   6.339  1.00  0.00    -0.550 OA
ATOM      4  O   UNL     1      36.261   2.096   7.678  1.00  0.00    -0.550 OA
ENDBRANCH   1   2
BRANCH   1   5
ATOM      5  C   UNL     1      35.373   4.731   8.415  1.00  0.00     0.059 C 
BRANCH   5   6
ATOM      6  C   UNL     1      34.468   4.961   7.244  1.00  0.00     0.042 C 
ATOM      7  O   UNL     1      34.610   5.985   6.525  1.00  0.00    -0.550 OA
ATOM      8  O   UNL     1      33.495   4.024   6.922  1.00  0.00    -0.550 OA
ENDBRANCH   5   6
ENDBRANCH   1   5
TORSDOF 3
ENDMDL
MODEL 5
REMARK VINA RESULT:    -3.311     12.577     13.321
REMARK INTER + INTRA:          -3.993
REMARK INTER:                  -3.827
REMARK INTRA:                  -0.167
REMARK UNBOUND:                -0.102
REMARK SMILES O=C([O-])CCC(=O)[O-]
REMARK SMILES IDX 4 1 2 2 1 3 3 4 5 5 6 6 7 7 8 8
REMARK H PARENT
REMARK Flexibility Score: inf
ROOT
ATOM      1  C   UNL     1      34.713  -1.016   4.254  1.00  0.00     0.059 C 
ENDROOT
BRANCH   1   2
ATOM      2  C   UNL     1      36.063  -0.993   4.904  1.00  0.00     0.042 C 
ATOM      3  O   UNL     1      37.104  -1.139   4.210  1.00  0.00    -0.550 OA
ATOM      4  O   UNL     1      36.173  -0.772   6.271  1.00  0.00    -0.550 OA
ENDBRANCH   1   2
BRANCH   1   5
ATOM      5  C   UNL     1      34.599   0.045   3.155  1.00  0.00     0.059 C 
BRANCH   5   6
ATOM      6  C   UNL     1      34.634   1.432   3.720  1.00  0.00     0.042 C 
ATOM      7  O   UNL     1      35.315   2.328   3.157  1.00  0.00    -0.550 OA
ATOM      8  O   UNL     1      33.880   1.743   4.844  1.00  0.00    -0.550 OA
ENDBRANCH   5   6
ENDBRANCH   1   5
TORSDOF 3
ENDMDL
MODEL 6
REMARK VINA RESULT:    -3.305     13.171     13.890
REMARK INTER + INTRA:          -3.986
REMARK INTER:                  -3.856
REMARK INTRA:                  -0.130
REMARK UNBOUND:                -0.102
REMARK SMILES O=C([O-])CCC(=O)[O-]
REMARK SMILES IDX 4 1 2 2 1 3 3 4 5 5 6 6 7 7 8 8
REMARK H PARENT
REMARK Flexibility Score: inf
ROOT
ATOM      1  C   UNL     1      35.332   4.691   8.296  1.00  0.00     0.059 C 
ENDROOT
BRANCH   1   2
ATOM      2  C   UNL     1      34.439   4.948   7.120  1.00  0.00     0.042 C 
ATOM      3  O   UNL     1      33.519   4.137   6.834  1.00  0.00    -0.550 OA
ATOM      4  O   UNL     1      34.598   6.103   6.366  1.00  0.00    -0.550 OA
ENDBRANCH   1   2
BRANCH   1   5
ATOM      5  C   UNL     1      36.801   4.586   7.874  1.00  0.00     0.059 C 
BRANCH   5   6
ATOM      6  C   UNL     1      37.095   3.271   7.219  1.00  0.00     0.042 C 
ATOM      7  O   UNL     1      38.015   3.180   6.365  1.00  0.00    -0.550 OA
ATOM      8  O   UNL     1      36.378   2.138   7.583  1.00  0.00    -0.550 OA
ENDBRANCH   5   6
ENDBRANCH   1   5
TORSDOF 3
ENDMDL
MODEL 7
REMARK VINA RESULT:    -3.303     10.271     11.287
REMARK INTER + INTRA:          -3.984
REMARK INTER:                  -3.860
REMARK INTRA:                  -0.123
REMARK UNBOUND:                -0.102
REMARK SMILES O=C([O-])CCC(=O)[O-]
REMARK SMILES IDX 4 1 2 2 1 3 3 4 5 5 6 6 7 7 8 8
REMARK H PARENT
REMARK Flexibility Score: inf
ROOT
ATOM      1  C   UNL     1      49.898  11.149  -6.712  1.00  0.00     0.059 C 
ENDROOT
BRANCH   1   2
ATOM      2  C   UNL     1      49.373  12.091  -7.753  1.00  0.00     0.042 C 
ATOM      3  O   UNL     1      48.136  12.309  -7.844  1.00  0.00    -0.550 OA
ATOM      4  O   UNL     1      50.254  12.757  -8.595  1.00  0.00    -0.550 OA
ENDBRANCH   1   2
BRANCH   1   5
ATOM      5  C   UNL     1      50.317   9.809  -7.326  1.00  0.00     0.059 C 
BRANCH   5   6
ATOM      6  C   UNL     1      49.199   8.812  -7.290  1.00  0.00     0.042 C 
ATOM      7  O   UNL     1      49.254   7.773  -7.998  1.00  0.00    -0.550 OA
ATOM      8  O   UNL     1      48.117   9.012  -6.443  1.00  0.00    -0.550 OA
ENDBRANCH   5   6
ENDBRANCH   1   5
TORSDOF 3
ENDMDL
MODEL 8
REMARK VINA RESULT:    -3.296     13.665     14.557
REMARK INTER + INTRA:          -3.976
REMARK INTER:                  -3.848
REMARK INTRA:                  -0.128
REMARK UNBOUND:                -0.102
REMARK SMILES O=C([O-])CCC(=O)[O-]
REMARK SMILES IDX 4 1 2 2 1 3 3 4 5 5 6 6 7 7 8 8
REMARK H PARENT
REMARK Flexibility Score: inf
ROOT
ATOM      1  C   UNL     1      36.129  -0.751   6.097  1.00  0.00     0.059 C 
ENDROOT
BRANCH   1   2
ATOM      2  C   UNL     1      37.181   0.315   6.158  1.00  0.00     0.042 C 
ATOM      3  O   UNL     1      37.286   1.156   5.227  1.00  0.00    -0.550 OA
ATOM      4  O   UNL     1      38.019   0.400   7.262  1.00  0.00    -0.550 OA
ENDBRANCH   1   2
BRANCH   1   5
ATOM      5  C   UNL     1      34.919  -0.300   5.271  1.00  0.00     0.059 C 
BRANCH   5   6
ATOM      6  C   UNL     1      33.898   0.392   6.120  1.00  0.00     0.042 C 
ATOM      7  O   UNL     1      33.075  -0.280   6.796  1.00  0.00    -0.550 OA
ATOM      8  O   UNL     1      33.882   1.779   6.196  1.00  0.00    -0.550 OA
ENDBRANCH   5   6
ENDBRANCH   1   5
TORSDOF 3
ENDMDL
MODEL 9
REMARK VINA RESULT:    -3.277     12.615     13.518
REMARK INTER + INTRA:          -3.954
REMARK INTER:                  -3.764
REMARK INTRA:                  -0.190
REMARK UNBOUND:                -0.102
REMARK SMILES O=C([O-])CCC(=O)[O-]
REMARK SMILES IDX 4 1 2 2 1 3 3 4 5 5 6 6 7 7 8 8
REMARK H PARENT
REMARK Flexibility Score: inf
ROOT
ATOM      1  C   UNL     1      34.625   0.107   3.250  1.00  0.00     0.059 C 
ENDROOT
BRANCH   1   2
ATOM      2  C   UNL     1      34.740   1.420   3.962  1.00  0.00     0.042 C 
ATOM      3  O   UNL     1      35.579   2.278   3.579  1.00  0.00    -0.550 OA
ATOM      4  O   UNL     1      33.894   1.711   5.025  1.00  0.00    -0.550 OA
ENDBRANCH   1   2
BRANCH   1   5
ATOM      5  C   UNL     1      34.818  -1.073   4.209  1.00  0.00     0.059 C 
BRANCH   5   6
ATOM      6  C   UNL     1      36.157  -1.026   4.879  1.00  0.00     0.042 C 
ATOM      7  O   UNL     1      37.210  -1.150   4.201  1.00  0.00    -0.550 OA
ATOM      8  O   UNL     1      36.241  -0.803   6.247  1.00  0.00    -0.550 OA
ENDBRANCH   5   6
ENDBRANCH   1   5
TORSDOF 3
ENDMDL
