MODEL 1
REMARK VINA RESULT:    -4.473      0.000      0.000
REMARK INTER + INTRA:          -9.348
REMARK INTER:                  -8.656
REMARK INTRA:                  -0.692
REMARK UNBOUND:                -0.692
REMARK SMILES CCCCCCCCCCCCCCCCCC(=O)[O-]
REMARK SMILES IDX 10 1 11 2 12 3 13 4 14 5 15 6 16 7 17 8 18 9 19 10 20 11
REMARK SMILES IDX 9 12 8 13 7 14 6 15 5 16 4 17 3 18 2 19 1 20
REMARK H PARENT
REMARK Flexibility Score: inf
ROOT
ATOM      1  C   UNL     1      -6.350 -11.020  -0.295  1.00  0.00     0.000 C 
ENDROOT
BRANCH   1   2
ATOM      2  C   UNL     1      -5.047 -11.698   0.164  1.00  0.00     0.000 C 
BRANCH   2   3
ATOM      3  C   UNL     1      -5.147 -13.235   0.182  1.00  0.00     0.000 C 
BRANCH   3   4
ATOM      4  C   UNL     1      -6.425 -13.793   0.833  1.00  0.00     0.000 C 
BRANCH   4   5
ATOM      5  C   UNL     1      -6.439 -15.321   1.035  1.00  0.00     0.000 C 
BRANCH   5   6
ATOM      6  C   UNL     1      -5.063 -15.989   0.825  1.00  0.00     0.000 C 
BRANCH   6   7
ATOM      7  C   UNL     1      -5.176 -17.504   0.589  1.00  0.00     0.006 C 
BRANCH   7   8
ATOM      8  C   UNL     1      -6.613 -18.014   0.771  1.00  0.00     0.053 C 
BRANCH   8   9
ATOM      9  C   UNL     1      -6.736 -19.460   0.400  1.00  0.00     0.041 C 
ATOM     10  O   UNL     1      -6.038 -20.327   0.989  1.00  0.00    -0.550 OA
ATOM     11  O   UNL     1      -7.643 -19.852  -0.575  1.00  0.00    -0.550 OA
ENDBRANCH   8   9
ENDBRANCH   7   8
ENDBRANCH   6   7
ENDBRANCH   5   6
ENDBRANCH   4   5
ENDBRANCH   3   4
ENDBRANCH   2   3
ENDBRANCH   1   2
BRANCH   1  12
ATOM     12  C   UNL     1      -6.477  -9.578   0.244  1.00  0.00     0.000 C 
BRANCH  12  13
ATOM     13  C   UNL     1      -7.695  -8.819  -0.309  1.00  0.00    -0.000 C 
BRANCH  13  14
ATOM     14  C   UNL     1      -7.606  -7.303  -0.085  1.00  0.00    -0.000 C 
BRANCH  14  15
ATOM     15  C   UNL     1      -6.151  -6.863   0.135  1.00  0.00    -0.000 C 
BRANCH  15  16
ATOM     16  C   UNL     1      -6.020  -5.354   0.395  1.00  0.00    -0.000 C 
BRANCH  16  17
ATOM     17  C   UNL     1      -5.131  -4.649  -0.644  1.00  0.00    -0.000 C 
BRANCH  17  18
ATOM     18  C   UNL     1      -5.079  -3.123  -0.451  1.00  0.00    -0.000 C 
BRANCH  18  19
ATOM     19  C   UNL     1      -5.278  -2.298  -1.735  1.00  0.00    -0.003 C 
ATOM     20  C   UNL     1      -4.875  -3.054  -3.001  1.00  0.00     0.004 C 
ENDBRANCH  18  19
ENDBRANCH  17  18
ENDBRANCH  16  17
ENDBRANCH  15  16
ENDBRANCH  14  15
ENDBRANCH  13  14
ENDBRANCH  12  13
ENDBRANCH   1  12
TORSDOF 16
ENDMDL
MODEL 2
REMARK VINA RESULT:    -4.391      5.366     11.456
REMARK INTER + INTRA:          -9.190
REMARK INTER:                  -8.359
REMARK INTRA:                  -0.831
REMARK UNBOUND:                -0.692
REMARK SMILES CCCCCCCCCCCCCCCCCC(=O)[O-]
REMARK SMILES IDX 10 1 11 2 12 3 13 4 14 5 15 6 16 7 17 8 18 9 19 10 20 11
REMARK SMILES IDX 9 12 8 13 7 14 6 15 5 16 4 17 3 18 2 19 1 20
REMARK H PARENT
REMARK Flexibility Score: inf
ROOT
ATOM      1  C   UNL     1      -5.765 -11.344   1.753  1.00  0.00     0.000 C 
ENDROOT
BRANCH   1   2
ATOM      2  C   UNL     1      -5.305 -11.314   0.284  1.00  0.00     0.000 C 
BRANCH   2   3
ATOM      3  C   UNL     1      -6.304 -10.596  -0.641  1.00  0.00     0.000 C 
BRANCH   3   4
ATOM      4  C   UNL     1      -7.382  -9.771   0.085  1.00  0.00     0.000 C 
BRANCH   4   5
ATOM      5  C   UNL     1      -7.418  -8.276  -0.285  1.00  0.00     0.000 C 
BRANCH   5   6
ATOM      6  C   UNL     1      -6.435  -7.410   0.530  1.00  0.00     0.000 C 
BRANCH   6   7
ATOM      7  C   UNL     1      -7.022  -6.034   0.889  1.00  0.00     0.006 C 
BRANCH   7   8
ATOM      8  C   UNL     1      -7.881  -6.084   2.160  1.00  0.00     0.053 C 
BRANCH   8   9
ATOM      9  C   UNL     1      -8.754  -4.873   2.282  1.00  0.00     0.041 C 
ATOM     10  O   UNL     1      -8.240  -3.732   2.423  1.00  0.00    -0.550 OA
ATOM     11  O   UNL     1     -10.135  -5.001   2.210  1.00  0.00    -0.550 OA
ENDBRANCH   8   9
ENDBRANCH   7   8
ENDBRANCH   6   7
ENDBRANCH   5   6
ENDBRANCH   4   5
ENDBRANCH   3   4
ENDBRANCH   2   3
ENDBRANCH   1   2
BRANCH   1  12
ATOM     12  C   UNL     1      -5.710 -12.766   2.351  1.00  0.00     0.000 C 
BRANCH  12  13
ATOM     13  C   UNL     1      -6.494 -13.809   1.536  1.00  0.00    -0.000 C 
BRANCH  13  14
ATOM     14  C   UNL     1      -5.593 -14.893   0.929  1.00  0.00    -0.000 C 
BRANCH  14  15
ATOM     15  C   UNL     1      -6.066 -16.296   1.341  1.00  0.00    -0.000 C 
BRANCH  15  16
ATOM     16  C   UNL     1      -5.173 -17.412   0.777  1.00  0.00    -0.000 C 
BRANCH  16  17
ATOM     17  C   UNL     1      -5.985 -18.571   0.173  1.00  0.00    -0.000 C 
BRANCH  17  18
ATOM     18  C   UNL     1      -5.229 -19.313  -0.944  1.00  0.00    -0.000 C 
BRANCH  18  19
ATOM     19  C   UNL     1      -6.029 -20.427  -1.643  1.00  0.00    -0.003 C 
ATOM     20  C   UNL     1      -7.467 -20.539  -1.136  1.00  0.00     0.004 C 
ENDBRANCH  18  19
ENDBRANCH  17  18
ENDBRANCH  16  17
ENDBRANCH  15  16
ENDBRANCH  14  15
ENDBRANCH  13  14
ENDBRANCH  12  13
ENDBRANCH   1  12
TORSDOF 16
ENDMDL
MODEL 3
REMARK VINA RESULT:    -4.373      5.567     10.867
REMARK INTER + INTRA:          -9.155
REMARK INTER:                  -7.954
REMARK INTRA:                  -1.201
REMARK UNBOUND:                -0.692
REMARK SMILES CCCCCCCCCCCCCCCCCC(=O)[O-]
REMARK SMILES IDX 10 1 11 2 12 3 13 4 14 5 15 6 16 7 17 8 18 9 19 10 20 11
REMARK SMILES IDX 9 12 8 13 7 14 6 15 5 16 4 17 3 18 2 19 1 20
REMARK H PARENT
REMARK Flexibility Score: inf
ROOT
ATOM      1  C   UNL     1      -7.467  -6.955   0.132  1.00  0.00     0.000 C 
ENDROOT
BRANCH   1   2
ATOM      2  C   UNL     1      -6.177  -6.163  -0.145  1.00  0.00     0.000 C 
BRANCH   2   3
ATOM      3  C   UNL     1      -5.637  -5.443   1.104  1.00  0.00     0.000 C 
BRANCH   3   4
ATOM      4  C   UNL     1      -5.817  -3.914   1.099  1.00  0.00     0.000 C 
BRANCH   4   5
ATOM      5  C   UNL     1      -6.652  -3.352   2.265  1.00  0.00     0.000 C 
BRANCH   5   6
ATOM      6  C   UNL     1      -7.534  -4.408   2.964  1.00  0.00     0.000 C 
BRANCH   6   7
ATOM      7  C   UNL     1      -9.031  -4.059   2.901  1.00  0.00     0.006 C 
BRANCH   7   8
ATOM      8  C   UNL     1      -9.828  -5.075   2.071  1.00  0.00     0.053 C 
BRANCH   8   9
ATOM      9  C   UNL     1     -11.053  -4.455   1.472  1.00  0.00     0.041 C 
ATOM     10  O   UNL     1     -11.473  -4.839   0.348  1.00  0.00    -0.550 OA
ATOM     11  O   UNL     1     -11.749  -3.476   2.168  1.00  0.00    -0.550 OA
ENDBRANCH   8   9
ENDBRANCH   7   8
ENDBRANCH   6   7
ENDBRANCH   5   6
ENDBRANCH   4   5
ENDBRANCH   3   4
ENDBRANCH   2   3
ENDBRANCH   1   2
BRANCH   1  12
ATOM     12  C   UNL     1      -7.175  -8.381   0.648  1.00  0.00     0.000 C 
BRANCH  12  13
ATOM     13  C   UNL     1      -7.498  -9.485  -0.373  1.00  0.00    -0.000 C 
BRANCH  13  14
ATOM     14  C   UNL     1      -6.485 -10.637  -0.348  1.00  0.00    -0.000 C 
BRANCH  14  15
ATOM     15  C   UNL     1      -5.645 -10.604   0.938  1.00  0.00    -0.000 C 
BRANCH  15  16
ATOM     16  C   UNL     1      -5.733 -11.914   1.737  1.00  0.00    -0.000 C 
BRANCH  16  17
ATOM     17  C   UNL     1      -5.605 -13.161   0.846  1.00  0.00    -0.000 C 
BRANCH  17  18
ATOM     18  C   UNL     1      -5.886 -14.471   1.604  1.00  0.00    -0.000 C 
BRANCH  18  19
ATOM     19  C   UNL     1      -6.812 -15.460   0.875  1.00  0.00    -0.003 C 
ATOM     20  C   UNL     1      -6.299 -16.899   0.911  1.00  0.00     0.004 C 
ENDBRANCH  18  19
ENDBRANCH  17  18
ENDBRANCH  16  17
ENDBRANCH  15  16
ENDBRANCH  14  15
ENDBRANCH  13  14
ENDBRANCH  12  13
ENDBRANCH   1  12
TORSDOF 16
ENDMDL
MODEL 4
REMARK VINA RESULT:    -4.372      2.197      3.058
REMARK INTER + INTRA:          -9.153
REMARK INTER:                  -8.428
REMARK INTRA:                  -0.725
REMARK UNBOUND:                -0.692
REMARK SMILES CCCCCCCCCCCCCCCCCC(=O)[O-]
REMARK SMILES IDX 10 1 11 2 12 3 13 4 14 5 15 6 16 7 17 8 18 9 19 10 20 11
REMARK SMILES IDX 9 12 8 13 7 14 6 15 5 16 4 17 3 18 2 19 1 20
REMARK H PARENT
REMARK Flexibility Score: inf
ROOT
ATOM      1  C   UNL     1      -6.409 -10.881  -0.509  1.00  0.00     0.000 C 
ENDROOT
BRANCH   1   2
ATOM      2  C   UNL     1      -4.989 -11.327  -0.117  1.00  0.00     0.000 C 
BRANCH   2   3
ATOM      3  C   UNL     1      -4.875 -12.848   0.092  1.00  0.00     0.000 C 
BRANCH   3   4
ATOM      4  C   UNL     1      -5.938 -13.455   1.026  1.00  0.00     0.000 C 
BRANCH   4   5
ATOM      5  C   UNL     1      -6.538 -14.791   0.549  1.00  0.00     0.000 C 
BRANCH   5   6
ATOM      6  C   UNL     1      -6.267 -15.971   1.507  1.00  0.00     0.000 C 
BRANCH   6   7
ATOM      7  C   UNL     1      -5.706 -17.203   0.778  1.00  0.00     0.006 C 
BRANCH   7   8
ATOM      8  C   UNL     1      -6.508 -18.475   1.087  1.00  0.00     0.053 C 
BRANCH   8   9
ATOM      9  C   UNL     1      -6.630 -19.356  -0.118  1.00  0.00     0.041 C 
ATOM     10  O   UNL     1      -7.691 -20.003  -0.326  1.00  0.00    -0.550 OA
ATOM     11  O   UNL     1      -5.584 -19.439  -1.027  1.00  0.00    -0.550 OA
ENDBRANCH   8   9
ENDBRANCH   7   8
ENDBRANCH   6   7
ENDBRANCH   5   6
ENDBRANCH   4   5
ENDBRANCH   3   4
ENDBRANCH   2   3
ENDBRANCH   1   2
BRANCH   1  12
ATOM     12  C   UNL     1      -6.971  -9.813   0.454  1.00  0.00     0.000 C 
BRANCH  12  13
ATOM     13  C   UNL     1      -7.543  -8.578  -0.262  1.00  0.00    -0.000 C 
BRANCH  13  14
ATOM     14  C   UNL     1      -6.854  -7.272   0.158  1.00  0.00    -0.000 C 
BRANCH  14  15
ATOM     15  C   UNL     1      -7.860  -6.298   0.791  1.00  0.00    -0.000 C 
BRANCH  15  16
ATOM     16  C   UNL     1      -7.207  -5.351   1.810  1.00  0.00    -0.000 C 
BRANCH  16  17
ATOM     17  C   UNL     1      -8.231  -4.451   2.523  1.00  0.00    -0.000 C 
BRANCH  17  18
ATOM     18  C   UNL     1      -9.596  -5.135   2.718  1.00  0.00    -0.000 C 
BRANCH  18  19
ATOM     19  C   UNL     1     -10.816  -4.275   2.342  1.00  0.00    -0.003 C 
ATOM     20  C   UNL     1     -11.359  -4.584   0.947  1.00  0.00     0.004 C 
ENDBRANCH  18  19
ENDBRANCH  17  18
ENDBRANCH  16  17
ENDBRANCH  15  16
ENDBRANCH  14  15
ENDBRANCH  13  14
ENDBRANCH  12  13
ENDBRANCH   1  12
TORSDOF 16
ENDMDL
MODEL 5
REMARK VINA RESULT:    -4.351      4.717     11.401
REMARK INTER + INTRA:          -9.113
REMARK INTER:                  -7.795
REMARK INTRA:                  -1.318
REMARK UNBOUND:                -0.692
REMARK SMILES CCCCCCCCCCCCCCCCCC(=O)[O-]
REMARK SMILES IDX 10 1 11 2 12 3 13 4 14 5 15 6 16 7 17 8 18 9 19 10 20 11
REMARK SMILES IDX 9 12 8 13 7 14 6 15 5 16 4 17 3 18 2 19 1 20
REMARK H PARENT
REMARK Flexibility Score: inf
ROOT
ATOM      1  C   UNL     1      -5.721 -14.826   1.769  1.00  0.00     0.000 C 
ENDROOT
BRANCH   1   2
ATOM      2  C   UNL     1      -6.378 -13.614   2.453  1.00  0.00     0.000 C 
BRANCH   2   3
ATOM      3  C   UNL     1      -5.458 -12.381   2.497  1.00  0.00     0.000 C 
BRANCH   3   4
ATOM      4  C   UNL     1      -6.002 -11.140   1.765  1.00  0.00     0.000 C 
BRANCH   4   5
ATOM      5  C   UNL     1      -6.395 -11.372   0.294  1.00  0.00     0.000 C 
BRANCH   5   6
ATOM      6  C   UNL     1      -6.506 -10.072  -0.532  1.00  0.00     0.000 C 
BRANCH   6   7
ATOM      7  C   UNL     1      -7.769  -9.265  -0.188  1.00  0.00     0.006 C 
BRANCH   7   8
ATOM      8  C   UNL     1      -7.534  -7.751  -0.287  1.00  0.00     0.053 C 
BRANCH   8   9
ATOM      9  C   UNL     1      -7.290  -7.142   1.060  1.00  0.00     0.041 C 
ATOM     10  O   UNL     1      -7.351  -7.852   2.098  1.00  0.00    -0.550 OA
ATOM     11  O   UNL     1      -6.967  -5.796   1.165  1.00  0.00    -0.550 OA
ENDBRANCH   8   9
ENDBRANCH   7   8
ENDBRANCH   6   7
ENDBRANCH   5   6
ENDBRANCH   4   5
ENDBRANCH   3   4
ENDBRANCH   2   3
ENDBRANCH   1   2
BRANCH   1  12
ATOM     12  C   UNL     1      -6.727 -15.629   0.915  1.00  0.00     0.000 C 
BRANCH  12  13
ATOM     13  C   UNL     1      -6.372 -17.120   0.784  1.00  0.00    -0.000 C 
BRANCH  13  14
ATOM     14  C   UNL     1      -5.710 -17.689   2.046  1.00  0.00    -0.000 C 
BRANCH  14  15
ATOM     15  C   UNL     1      -6.594 -18.764   2.695  1.00  0.00    -0.000 C 
BRANCH  15  16
ATOM     16  C   UNL     1      -5.958 -20.163   2.650  1.00  0.00    -0.000 C 
BRANCH  16  17
ATOM     17  C   UNL     1      -5.992 -20.783   1.243  1.00  0.00    -0.000 C 
BRANCH  17  18
ATOM     18  C   UNL     1      -7.396 -20.758   0.612  1.00  0.00    -0.000 C 
BRANCH  18  19
ATOM     19  C   UNL     1      -7.433 -20.375  -0.879  1.00  0.00    -0.003 C 
ATOM     20  C   UNL     1      -6.047 -20.089  -1.458  1.00  0.00     0.004 C 
ENDBRANCH  18  19
ENDBRANCH  17  18
ENDBRANCH  16  17
ENDBRANCH  15  16
ENDBRANCH  14  15
ENDBRANCH  13  14
ENDBRANCH  12  13
ENDBRANCH   1  12
TORSDOF 16
ENDMDL
MODEL 6
REMARK VINA RESULT:    -4.232      5.243     12.056
REMARK INTER + INTRA:          -8.883
REMARK INTER:                  -8.202
REMARK INTRA:                  -0.681
REMARK UNBOUND:                -0.692
REMARK SMILES CCCCCCCCCCCCCCCCCC(=O)[O-]
REMARK SMILES IDX 10 1 11 2 12 3 13 4 14 5 15 6 16 7 17 8 18 9 19 10 20 11
REMARK SMILES IDX 9 12 8 13 7 14 6 15 5 16 4 17 3 18 2 19 1 20
REMARK H PARENT
REMARK Flexibility Score: inf
ROOT
ATOM      1  C   UNL     1      -5.900 -13.940   0.170  1.00  0.00     0.000 C 
ENDROOT
BRANCH   1   2
ATOM      2  C   UNL     1      -6.091 -12.551   0.804  1.00  0.00     0.000 C 
BRANCH   2   3
ATOM      3  C   UNL     1      -5.960 -11.405  -0.215  1.00  0.00     0.000 C 
BRANCH   3   4
ATOM      4  C   UNL     1      -6.190  -9.996   0.361  1.00  0.00     0.000 C 
BRANCH   4   5
ATOM      5  C   UNL     1      -7.395  -9.239  -0.230  1.00  0.00     0.000 C 
BRANCH   5   6
ATOM      6  C   UNL     1      -7.640  -7.859   0.416  1.00  0.00     0.000 C 
BRANCH   6   7
ATOM      7  C   UNL     1      -6.676  -6.783  -0.114  1.00  0.00     0.006 C 
BRANCH   7   8
ATOM      8  C   UNL     1      -6.060  -5.949   1.018  1.00  0.00     0.053 C 
BRANCH   8   9
ATOM      9  C   UNL     1      -5.582  -4.618   0.523  1.00  0.00     0.041 C 
ATOM     10  O   UNL     1      -5.794  -3.577   1.198  1.00  0.00    -0.550 OA
ATOM     11  O   UNL     1      -4.875  -4.533  -0.669  1.00  0.00    -0.550 OA
ENDBRANCH   8   9
ENDBRANCH   7   8
ENDBRANCH   6   7
ENDBRANCH   5   6
ENDBRANCH   4   5
ENDBRANCH   3   4
ENDBRANCH   2   3
ENDBRANCH   1   2
BRANCH   1  12
ATOM     12  C   UNL     1      -6.595 -15.053   0.984  1.00  0.00     0.000 C 
BRANCH  12  13
ATOM     13  C   UNL     1      -5.654 -16.199   1.391  1.00  0.00    -0.000 C 
BRANCH  13  14
ATOM     14  C   UNL     1      -6.013 -17.533   0.724  1.00  0.00    -0.000 C 
BRANCH  14  15
ATOM     15  C   UNL     1      -6.502 -18.554   1.762  1.00  0.00    -0.000 C 
BRANCH  15  16
ATOM     16  C   UNL     1      -7.029 -19.847   1.120  1.00  0.00    -0.000 C 
BRANCH  16  17
ATOM     17  C   UNL     1      -7.321 -19.686  -0.383  1.00  0.00    -0.000 C 
BRANCH  17  18
ATOM     18  C   UNL     1      -7.178 -21.003  -1.165  1.00  0.00    -0.000 C 
BRANCH  18  19
ATOM     19  C   UNL     1      -6.275 -20.926  -2.410  1.00  0.00    -0.003 C 
ATOM     20  C   UNL     1      -4.876 -20.393  -2.102  1.00  0.00     0.004 C 
ENDBRANCH  18  19
ENDBRANCH  17  18
ENDBRANCH  16  17
ENDBRANCH  15  16
ENDBRANCH  14  15
ENDBRANCH  13  14
ENDBRANCH  12  13
ENDBRANCH   1  12
TORSDOF 16
ENDMDL
MODEL 7
REMARK VINA RESULT:    -4.226      5.538     11.375
REMARK INTER + INTRA:          -8.871
REMARK INTER:                  -8.138
REMARK INTRA:                  -0.733
REMARK UNBOUND:                -0.692
REMARK SMILES CCCCCCCCCCCCCCCCCC(=O)[O-]
REMARK SMILES IDX 10 1 11 2 12 3 13 4 14 5 15 6 16 7 17 8 18 9 19 10 20 11
REMARK SMILES IDX 9 12 8 13 7 14 6 15 5 16 4 17 3 18 2 19 1 20
REMARK H PARENT
REMARK Flexibility Score: inf
ROOT
ATOM      1  C   UNL     1      -7.530  -9.569  -0.464  1.00  0.00     0.000 C 
ENDROOT
BRANCH   1   2
ATOM      2  C   UNL     1      -7.704  -8.055  -0.254  1.00  0.00     0.000 C 
BRANCH   2   3
ATOM      3  C   UNL     1      -6.366  -7.323  -0.041  1.00  0.00     0.000 C 
BRANCH   3   4
ATOM      4  C   UNL     1      -6.478  -5.959   0.664  1.00  0.00     0.000 C 
BRANCH   4   5
ATOM      5  C   UNL     1      -7.678  -5.817   1.620  1.00  0.00     0.000 C 
BRANCH   5   6
ATOM      6  C   UNL     1      -7.609  -4.566   2.522  1.00  0.00     0.000 C 
BRANCH   6   7
ATOM      7  C   UNL     1      -8.998  -3.969   2.805  1.00  0.00     0.006 C 
BRANCH   7   8
ATOM      8  C   UNL     1     -10.117  -5.008   2.654  1.00  0.00     0.053 C 
BRANCH   8   9
ATOM      9  C   UNL     1     -11.255  -4.478   1.837  1.00  0.00     0.041 C 
ATOM     10  O   UNL     1     -12.119  -3.727   2.364  1.00  0.00    -0.550 OA
ATOM     11  O   UNL     1     -11.345  -4.788   0.486  1.00  0.00    -0.550 OA
ENDBRANCH   8   9
ENDBRANCH   7   8
ENDBRANCH   6   7
ENDBRANCH   5   6
ENDBRANCH   4   5
ENDBRANCH   3   4
ENDBRANCH   2   3
ENDBRANCH   1   2
BRANCH   1  12
ATOM     12  C   UNL     1      -6.161 -10.075   0.039  1.00  0.00     0.000 C 
BRANCH  12  13
ATOM     13  C   UNL     1      -6.245 -11.385   0.841  1.00  0.00    -0.000 C 
BRANCH  13  14
ATOM     14  C   UNL     1      -5.974 -12.628  -0.017  1.00  0.00    -0.000 C 
BRANCH  14  15
ATOM     15  C   UNL     1      -5.408 -13.774   0.837  1.00  0.00    -0.000 C 
BRANCH  15  16
ATOM     16  C   UNL     1      -6.498 -14.531   1.611  1.00  0.00    -0.000 C 
BRANCH  16  17
ATOM     17  C   UNL     1      -6.034 -15.921   2.081  1.00  0.00    -0.000 C 
BRANCH  17  18
ATOM     18  C   UNL     1      -5.808 -16.902   0.916  1.00  0.00    -0.000 C 
BRANCH  18  19
ATOM     19  C   UNL     1      -6.099 -18.377   1.243  1.00  0.00    -0.003 C 
ATOM     20  C   UNL     1      -6.809 -19.113   0.107  1.00  0.00     0.004 C 
ENDBRANCH  18  19
ENDBRANCH  17  18
ENDBRANCH  16  17
ENDBRANCH  15  16
ENDBRANCH  14  15
ENDBRANCH  13  14
ENDBRANCH  12  13
ENDBRANCH   1  12
TORSDOF 16
ENDMDL
MODEL 8
REMARK VINA RESULT:    -3.989     20.777     22.880
REMARK INTER + INTRA:          -8.412
REMARK INTER:                  -5.807
REMARK INTRA:                  -2.605
REMARK UNBOUND:                -0.692
REMARK SMILES CCCCCCCCCCCCCCCCCC(=O)[O-]
REMARK SMILES IDX 10 1 11 2 12 3 13 4 14 5 15 6 16 7 17 8 18 9 19 10 20 11
REMARK SMILES IDX 9 12 8 13 7 14 6 15 5 16 4 17 3 18 2 19 1 20
REMARK H PARENT
REMARK Flexibility Score: inf
ROOT
ATOM      1  C   UNL     1     -22.351  -7.200 -16.595  1.00  0.00     0.000 C 
ENDROOT
BRANCH   1   2
ATOM      2  C   UNL     1     -21.182  -6.337 -17.102  1.00  0.00     0.000 C 
BRANCH   2   3
ATOM      3  C   UNL     1     -21.445  -4.827 -16.956  1.00  0.00     0.000 C 
BRANCH   3   4
ATOM      4  C   UNL     1     -20.421  -4.072 -16.090  1.00  0.00     0.000 C 
BRANCH   4   5
ATOM      5  C   UNL     1     -19.642  -4.947 -15.090  1.00  0.00     0.000 C 
BRANCH   5   6
ATOM      6  C   UNL     1     -19.974  -4.647 -13.612  1.00  0.00     0.000 C 
BRANCH   6   7
ATOM      7  C   UNL     1     -20.244  -5.925 -12.800  1.00  0.00     0.006 C 
BRANCH   7   8
ATOM      8  C   UNL     1     -20.221  -7.184 -13.676  1.00  0.00     0.053 C 
BRANCH   8   9
ATOM      9  C   UNL     1     -20.417  -8.426 -12.862  1.00  0.00     0.041 C 
ATOM     10  O   UNL     1     -20.967  -8.363 -11.731  1.00  0.00    -0.550 OA
ATOM     11  O   UNL     1     -20.019  -9.658 -13.365  1.00  0.00    -0.550 OA
ENDBRANCH   8   9
ENDBRANCH   7   8
ENDBRANCH   6   7
ENDBRANCH   5   6
ENDBRANCH   4   5
ENDBRANCH   3   4
ENDBRANCH   2   3
ENDBRANCH   1   2
BRANCH   1  12
ATOM     12  C   UNL     1     -23.713  -6.705 -17.125  1.00  0.00     0.000 C 
BRANCH  12  13
ATOM     13  C   UNL     1     -24.678  -6.252 -16.016  1.00  0.00    -0.000 C 
BRANCH  13  14
ATOM     14  C   UNL     1     -25.124  -4.792 -16.171  1.00  0.00    -0.000 C 
BRANCH  14  15
ATOM     15  C   UNL     1     -24.907  -4.008 -14.868  1.00  0.00    -0.000 C 
BRANCH  15  16
ATOM     16  C   UNL     1     -23.832  -4.638 -13.969  1.00  0.00    -0.000 C 
BRANCH  16  17
ATOM     17  C   UNL     1     -23.397  -3.707 -12.824  1.00  0.00    -0.000 C 
BRANCH  17  18
ATOM     18  C   UNL     1     -22.863  -2.353 -13.324  1.00  0.00    -0.000 C 
BRANCH  18  19
ATOM     19  C   UNL     1     -22.406  -1.385 -12.218  1.00  0.00    -0.003 C 
ATOM     20  C   UNL     1     -21.897  -2.102 -10.968  1.00  0.00     0.004 C 
ENDBRANCH  18  19
ENDBRANCH  17  18
ENDBRANCH  16  17
ENDBRANCH  15  16
ENDBRANCH  14  15
ENDBRANCH  13  14
ENDBRANCH  12  13
ENDBRANCH   1  12
TORSDOF 16
ENDMDL
MODEL 9
REMARK VINA RESULT:    -3.877      3.795      6.658
REMARK INTER + INTRA:          -8.196
REMARK INTER:                  -6.424
REMARK INTRA:                  -1.771
REMARK UNBOUND:                -0.692
REMARK SMILES CCCCCCCCCCCCCCCCCC(=O)[O-]
REMARK SMILES IDX 10 1 11 2 12 3 13 4 14 5 15 6 16 7 17 8 18 9 19 10 20 11
REMARK SMILES IDX 9 12 8 13 7 14 6 15 5 16 4 17 3 18 2 19 1 20
REMARK H PARENT
REMARK Flexibility Score: inf
ROOT
ATOM      1  C   UNL     1     -10.132  -5.043   2.045  1.00  0.00     0.000 C 
ENDROOT
BRANCH   1   2
ATOM      2  C   UNL     1      -8.897  -5.323   2.920  1.00  0.00     0.000 C 
BRANCH   2   3
ATOM      3  C   UNL     1      -8.004  -6.442   2.353  1.00  0.00     0.000 C 
BRANCH   3   4
ATOM      4  C   UNL     1      -7.865  -6.446   0.820  1.00  0.00     0.000 C 
BRANCH   4   5
ATOM      5  C   UNL     1      -6.601  -7.143   0.282  1.00  0.00     0.000 C 
BRANCH   5   6
ATOM      6  C   UNL     1      -6.070  -8.265   1.201  1.00  0.00     0.000 C 
BRANCH   6   7
ATOM      7  C   UNL     1      -6.590  -9.653   0.792  1.00  0.00     0.006 C 
BRANCH   7   8
ATOM      8  C   UNL     1      -5.642 -10.778   1.227  1.00  0.00     0.053 C 
BRANCH   8   9
ATOM      9  C   UNL     1      -5.572 -11.868   0.201  1.00  0.00     0.041 C 
ATOM     10  O   UNL     1      -4.876 -11.717  -0.837  1.00  0.00    -0.550 OA
ATOM     11  O   UNL     1      -6.251 -13.061   0.408  1.00  0.00    -0.550 OA
ENDBRANCH   8   9
ENDBRANCH   7   8
ENDBRANCH   6   7
ENDBRANCH   5   6
ENDBRANCH   4   5
ENDBRANCH   3   4
ENDBRANCH   2   3
ENDBRANCH   1   2
BRANCH   1  12
ATOM     12  C   UNL     1     -10.626  -3.586   2.184  1.00  0.00     0.000 C 
BRANCH  12  13
ATOM     13  C   UNL     1      -9.761  -2.730   3.125  1.00  0.00    -0.000 C 
BRANCH  13  14
ATOM     14  C   UNL     1      -9.060  -1.571   2.402  1.00  0.00    -0.000 C 
BRANCH  14  15
ATOM     15  C   UNL     1      -7.593  -1.455   2.843  1.00  0.00    -0.000 C 
BRANCH  15  16
ATOM     16  C   UNL     1      -6.606  -1.806   1.717  1.00  0.00    -0.000 C 
BRANCH  16  17
ATOM     17  C   UNL     1      -6.249  -3.302   1.689  1.00  0.00    -0.000 C 
BRANCH  17  18
ATOM     18  C   UNL     1      -5.043  -3.612   0.784  1.00  0.00    -0.000 C 
BRANCH  18  19
ATOM     19  C   UNL     1      -5.243  -3.272  -0.704  1.00  0.00    -0.003 C 
ATOM     20  C   UNL     1      -4.938  -4.447  -1.633  1.00  0.00     0.004 C 
ENDBRANCH  18  19
ENDBRANCH  17  18
ENDBRANCH  16  17
ENDBRANCH  15  16
ENDBRANCH  14  15
ENDBRANCH  13  14
ENDBRANCH  12  13
ENDBRANCH   1  12
TORSDOF 16
ENDMDL
