MODEL 1
REMARK VINA RESULT:    -3.881      0.000      0.000
REMARK INTER + INTRA:          -4.955
REMARK INTER:                  -5.470
REMARK INTRA:                   0.515
REMARK UNBOUND:                 0.515
REMARK SMILES CC1=CCC(=C(C)C)C(=O)CC(C)=CCC1
REMARK SMILES IDX 12 1 14 2 13 3 15 4 16 5 2 6 1 7 3 8 11 10 9 11 10 12 5 13
REMARK SMILES IDX 6 14 7 15 8 16 4 17
REMARK H PARENT
REMARK Flexibility Score: 60.00
ROOT
ATOM      1  C   UNL     1       2.995   4.900  61.980  1.00  0.00    -0.070 C 
ATOM      2  C   UNL     1       3.577   6.047  61.556  1.00  0.00    -0.027 C 
ATOM      3  C   UNL     1       3.899   3.725  62.262  1.00  0.00     0.039 C 
ENDROOT
BRANCH   2   4
ATOM      4  C   UNL     1       2.861   7.303  61.118  1.00  0.00     0.032 C 
BRANCH   4   5
ATOM      5  C   UNL     1       2.674   8.309  62.269  1.00  0.00     0.034 C 
BRANCH   5   6
ATOM      6  C   UNL     1       1.229   8.747  62.416  1.00  0.00    -0.077 C 
ATOM      7  C   UNL     1       0.684   9.758  61.439  1.00  0.00     0.039 C 
ATOM      8  C   UNL     1       0.390   8.262  63.359  1.00  0.00    -0.023 CG0
ATOM      9  G   UNL     1       0.737   7.223  64.399  1.00  0.00     0.000 G0
ENDBRANCH   5   6
ENDBRANCH   4   5
ENDBRANCH   2   4
BRANCH   1  10
ATOM     10  C   UNL     1       1.494   4.717  62.122  1.00  0.00     0.111 C 
BRANCH  10  11
ATOM     11  C   UNL     1       1.056   4.824  63.563  1.00  0.00     0.163 C 
ATOM     12  O   UNL     1       1.532   4.001  64.390  1.00  0.00    -0.294 OA
BRANCH  11  13
ATOM     13  C   UNL     1       0.126   5.899  64.030  1.00  0.00    -0.002 C 
ATOM     14  C   UNL     1      -1.229   5.715  64.060  1.00  0.00    -0.069 C 
ATOM     15  C   UNL     1      -1.867   4.441  63.553  1.00  0.00     0.039 C 
ATOM     16  C   UNL     1      -2.159   6.794  64.570  1.00  0.00     0.039 C 
BRANCH  13  17
ATOM     17  C   UNL     1       0.746   7.235  64.401  1.00  0.00     0.066 CG0
ATOM     18  G   UNL     1       0.412   8.264  63.348  1.00  0.00     0.000 G0
ENDBRANCH  13  17
ENDBRANCH  11  13
ENDBRANCH  10  11
ENDBRANCH   1  10
TORSDOF 0
ENDMDL
MODEL 2
REMARK VINA RESULT:    -3.661      3.230      5.205
REMARK INTER + INTRA:          -4.644
REMARK INTER:                  -5.041
REMARK INTRA:                   0.397
REMARK UNBOUND:                 0.515
REMARK SMILES CC1=CCC(=C(C)C)C(=O)CC(C)=CCC1
REMARK SMILES IDX 12 1 14 2 13 3 15 4 16 5 2 6 1 7 3 8 11 10 9 11 10 12 5 13
REMARK SMILES IDX 6 14 7 15 8 16 4 17
REMARK H PARENT
REMARK Flexibility Score: 60.00
ROOT
ATOM      1  C   UNL     1      -2.990   5.020  64.136  1.00  0.00    -0.070 C 
ATOM      2  C   UNL     1      -1.927   4.511  63.472  1.00  0.00    -0.027 C 
ATOM      3  C   UNL     1      -4.334   4.376  63.896  1.00  0.00     0.039 C 
ENDROOT
BRANCH   2   4
ATOM      4  C   UNL     1      -0.520   5.061  63.480  1.00  0.00     0.032 C 
BRANCH   4   5
ATOM      5  C   UNL     1       0.347   4.453  64.598  1.00  0.00     0.034 C 
BRANCH   5   6
ATOM      6  C   UNL     1       1.046   5.518  65.422  1.00  0.00    -0.077 C 
ATOM      7  C   UNL     1       2.217   6.243  64.809  1.00  0.00     0.039 C 
ATOM      8  C   UNL     1       0.662   5.873  66.669  1.00  0.00    -0.023 CG0
ATOM      9  G   UNL     1      -0.502   5.291  67.434  1.00  0.00     0.000 G0
ENDBRANCH   5   6
ENDBRANCH   4   5
ENDBRANCH   2   4
BRANCH   1  10
ATOM     10  C   UNL     1      -2.915   6.234  65.047  1.00  0.00     0.111 C 
BRANCH  10  11
ATOM     11  C   UNL     1      -2.855   5.832  66.501  1.00  0.00     0.163 C 
ATOM     12  O   UNL     1      -3.783   5.110  66.956  1.00  0.00    -0.294 OA
BRANCH  11  13
ATOM     13  C   UNL     1      -1.713   6.224  67.385  1.00  0.00    -0.002 C 
ATOM     14  C   UNL     1      -1.705   7.410  68.066  1.00  0.00    -0.069 C 
ATOM     15  C   UNL     1      -2.815   8.424  67.906  1.00  0.00     0.039 C 
ATOM     16  C   UNL     1      -0.563   7.781  68.988  1.00  0.00     0.039 C 
BRANCH  13  17
ATOM     17  C   UNL     1      -0.525   5.280  67.437  1.00  0.00     0.066 CG0
ATOM     18  G   UNL     1       0.630   5.868  66.662  1.00  0.00     0.000 G0
ENDBRANCH  13  17
ENDBRANCH  11  13
ENDBRANCH  10  11
ENDBRANCH   1  10
TORSDOF 0
ENDMDL
MODEL 3
REMARK VINA RESULT:    -3.600      2.044      4.627
REMARK INTER + INTRA:          -4.558
REMARK INTER:                  -4.910
REMARK INTRA:                   0.352
REMARK UNBOUND:                 0.515
REMARK SMILES CC1=CCC(=C(C)C)C(=O)CC(C)=CCC1
REMARK SMILES IDX 12 1 14 2 13 3 15 4 16 5 2 6 1 7 3 8 11 10 9 11 10 12 5 13
REMARK SMILES IDX 6 14 7 15 8 16 4 17
REMARK H PARENT
REMARK Flexibility Score: 60.00
ROOT
ATOM      1  C   UNL     1      -0.328   5.181  64.318  1.00  0.00    -0.070 C 
ATOM      2  C   UNL     1      -0.603   6.152  65.220  1.00  0.00    -0.027 C 
ATOM      3  C   UNL     1      -1.487   4.605  63.541  1.00  0.00     0.039 C 
ENDROOT
BRANCH   2   4
ATOM      4  C   UNL     1       0.379   6.790  66.174  1.00  0.00     0.032 C 
BRANCH   4   5
ATOM      5  C   UNL     1       1.331   7.776  65.472  1.00  0.00     0.034 C 
BRANCH   5   6
ATOM      6  C   UNL     1       2.788   7.411  65.681  1.00  0.00    -0.077 C 
ATOM      7  C   UNL     1       3.320   7.362  67.091  1.00  0.00     0.039 C 
ATOM      8  C   UNL     1       3.635   7.099  64.674  1.00  0.00    -0.023 CG0
ATOM      9  G   UNL     1       3.284   7.058  63.206  1.00  0.00     0.000 G0
ENDBRANCH   5   6
ENDBRANCH   4   5
ENDBRANCH   2   4
BRANCH   1  10
ATOM     10  C   UNL     1       1.059   4.600  64.098  1.00  0.00     0.111 C 
BRANCH  10  11
ATOM     11  C   UNL     1       1.665   5.089  62.805  1.00  0.00     0.163 C 
ATOM     12  O   UNL     1       0.940   5.092  61.774  1.00  0.00    -0.294 OA
BRANCH  11  13
ATOM     13  C   UNL     1       3.067   5.607  62.734  1.00  0.00    -0.002 C 
ATOM     14  C   UNL     1       4.110   4.810  62.348  1.00  0.00    -0.069 C 
ATOM     15  C   UNL     1       3.914   3.341  62.045  1.00  0.00     0.039 C 
ATOM     16  C   UNL     1       5.518   5.352  62.242  1.00  0.00     0.039 C 
BRANCH  13  17
ATOM     17  C   UNL     1       3.296   7.040  63.179  1.00  0.00     0.066 CG0
ATOM     18  G   UNL     1       3.623   7.072  64.653  1.00  0.00     0.000 G0
ENDBRANCH  13  17
ENDBRANCH  11  13
ENDBRANCH  10  11
ENDBRANCH   1  10
TORSDOF 0
ENDMDL
MODEL 4
REMARK VINA RESULT:    -3.544      3.158      4.944
REMARK INTER + INTRA:          -4.480
REMARK INTER:                  -5.187
REMARK INTRA:                   0.707
REMARK UNBOUND:                 0.515
REMARK SMILES CC1=CCC(=C(C)C)C(=O)CC(C)=CCC1
REMARK SMILES IDX 12 1 14 2 13 3 15 4 16 5 2 6 1 7 3 8 11 10 9 11 10 12 5 13
REMARK SMILES IDX 6 14 7 15 8 16 4 17
REMARK H PARENT
REMARK Flexibility Score: 60.00
ROOT
ATOM      1  C   UNL     1      -2.329   4.026  64.833  1.00  0.00    -0.070 C 
ATOM      2  C   UNL     1      -2.014   4.524  63.614  1.00  0.00    -0.027 C 
ATOM      3  C   UNL     1      -3.794   3.892  65.171  1.00  0.00     0.039 C 
ENDROOT
BRANCH   2   4
ATOM      4  C   UNL     1      -0.625   4.841  63.111  1.00  0.00     0.032 C 
BRANCH   4   5
ATOM      5  C   UNL     1      -0.070   6.155  63.692  1.00  0.00     0.034 C 
BRANCH   5   6
ATOM      6  C   UNL     1       1.205   5.936  64.483  1.00  0.00    -0.077 C 
ATOM      7  C   UNL     1       2.456   5.551  63.733  1.00  0.00     0.039 C 
ATOM      8  C   UNL     1       1.293   6.093  65.823  1.00  0.00    -0.023 CG0
ATOM      9  G   UNL     1       0.166   6.507  66.739  1.00  0.00     0.000 G0
ENDBRANCH   5   6
ENDBRANCH   4   5
ENDBRANCH   2   4
BRANCH   1  10
ATOM     10  C   UNL     1      -1.300   3.664  65.890  1.00  0.00     0.111 C 
BRANCH  10  11
ATOM     11  C   UNL     1      -1.424   4.545  67.110  1.00  0.00     0.163 C 
ATOM     12  O   UNL     1      -2.522   4.548  67.730  1.00  0.00    -0.294 OA
BRANCH  11  13
ATOM     13  C   UNL     1      -0.277   5.361  67.617  1.00  0.00    -0.002 C 
ATOM     14  C   UNL     1       0.297   5.115  68.834  1.00  0.00    -0.069 C 
ATOM     15  C   UNL     1      -0.244   4.055  69.766  1.00  0.00     0.039 C 
ATOM     16  C   UNL     1       1.482   5.920  69.322  1.00  0.00     0.039 C 
BRANCH  13  17
ATOM     17  C   UNL     1       0.178   6.524  66.753  1.00  0.00     0.066 CG0
ATOM     18  G   UNL     1       1.294   6.076  65.840  1.00  0.00     0.000 G0
ENDBRANCH  13  17
ENDBRANCH  11  13
ENDBRANCH  10  11
ENDBRANCH   1  10
TORSDOF 0
ENDMDL
MODEL 5
REMARK VINA RESULT:    -3.525      1.451      3.983
REMARK INTER + INTRA:          -4.453
REMARK INTER:                  -5.325
REMARK INTRA:                   0.873
REMARK UNBOUND:                 0.515
REMARK SMILES CC1=CCC(=C(C)C)C(=O)CC(C)=CCC1
REMARK SMILES IDX 12 1 14 2 13 3 15 4 16 5 2 6 1 7 3 8 11 10 9 11 10 12 5 13
REMARK SMILES IDX 6 14 7 15 8 16 4 17
REMARK H PARENT
REMARK Flexibility Score: 60.00
ROOT
ATOM      1  C   UNL     1      -0.414   5.474  63.715  1.00  0.00    -0.070 C 
ATOM      2  C   UNL     1      -0.437   6.770  64.105  1.00  0.00    -0.027 C 
ATOM      3  C   UNL     1      -1.741   4.784  63.515  1.00  0.00     0.039 C 
ENDROOT
BRANCH   2   4
ATOM      4  C   UNL     1       0.761   7.617  64.463  1.00  0.00     0.032 C 
BRANCH   4   5
ATOM      5  C   UNL     1       0.793   8.953  63.697  1.00  0.00     0.034 C 
BRANCH   5   6
ATOM      6  C   UNL     1       1.177   8.767  62.241  1.00  0.00    -0.077 C 
ATOM      7  C   UNL     1       0.404   9.528  61.194  1.00  0.00     0.039 C 
ATOM      8  C   UNL     1       2.194   7.977  61.829  1.00  0.00    -0.023 CG0
ATOM      9  G   UNL     1       3.103   7.168  62.724  1.00  0.00     0.000 G0
ENDBRANCH   5   6
ENDBRANCH   4   5
ENDBRANCH   2   4
BRANCH   1  10
ATOM     10  C   UNL     1       0.862   4.668  63.535  1.00  0.00     0.111 C 
BRANCH  10  11
ATOM     11  C   UNL     1       1.627   5.108  62.310  1.00  0.00     0.163 C 
ATOM     12  O   UNL     1       1.052   5.026  61.191  1.00  0.00    -0.294 OA
BRANCH  11  13
ATOM     13  C   UNL     1       3.008   5.675  62.400  1.00  0.00    -0.002 C 
ATOM     14  C   UNL     1       4.119   4.889  62.260  1.00  0.00    -0.069 C 
ATOM     15  C   UNL     1       4.012   3.391  62.081  1.00  0.00     0.039 C 
ATOM     16  C   UNL     1       5.512   5.478  62.313  1.00  0.00     0.039 C 
BRANCH  13  17
ATOM     17  C   UNL     1       3.127   7.153  62.726  1.00  0.00     0.066 CG0
ATOM     18  G   UNL     1       2.203   7.949  61.836  1.00  0.00     0.000 G0
ENDBRANCH  13  17
ENDBRANCH  11  13
ENDBRANCH  10  11
ENDBRANCH   1  10
TORSDOF 0
ENDMDL
MODEL 6
REMARK VINA RESULT:    -3.507     14.529     16.138
REMARK INTER + INTRA:          -4.428
REMARK INTER:                  -4.769
REMARK INTRA:                   0.341
REMARK UNBOUND:                 0.515
REMARK SMILES CC1=CCC(=C(C)C)C(=O)CC(C)=CCC1
REMARK SMILES IDX 12 1 14 2 13 3 15 4 16 5 2 6 1 7 3 8 11 10 9 11 10 12 5 13
REMARK SMILES IDX 6 14 7 15 8 16 4 17
REMARK H PARENT
REMARK Flexibility Score: 60.00
ROOT
ATOM      1  C   UNL     1       5.897  19.629  74.463  1.00  0.00    -0.070 C 
ATOM      2  C   UNL     1       4.917  19.751  75.389  1.00  0.00    -0.027 C 
ATOM      3  C   UNL     1       6.709  20.860  74.144  1.00  0.00     0.039 C 
ENDROOT
BRANCH   2   4
ATOM      4  C   UNL     1       3.922  18.686  75.782  1.00  0.00     0.032 C 
BRANCH   4   5
ATOM      5  C   UNL     1       2.822  18.482  74.723  1.00  0.00     0.034 C 
BRANCH   5   6
ATOM      6  C   UNL     1       2.585  17.015  74.421  1.00  0.00    -0.077 C 
ATOM      7  C   UNL     1       2.078  16.128  75.529  1.00  0.00     0.039 C 
ATOM      8  C   UNL     1       2.777  16.460  73.203  1.00  0.00    -0.023 CG0
ATOM      9  G   UNL     1       3.243  17.187  71.964  1.00  0.00     0.000 G0
ENDBRANCH   5   6
ENDBRANCH   4   5
ENDBRANCH   2   4
BRANCH   1  10
ATOM     10  C   UNL     1       6.174  18.351  73.689  1.00  0.00     0.111 C 
BRANCH  10  11
ATOM     11  C   UNL     1       5.487  18.357  72.345  1.00  0.00     0.163 C 
ATOM     12  O   UNL     1       5.586  19.393  71.633  1.00  0.00    -0.294 OA
BRANCH  11  13
ATOM     13  C   UNL     1       4.747  17.164  71.828  1.00  0.00    -0.002 C 
ATOM     14  C   UNL     1       5.395  16.119  71.229  1.00  0.00    -0.069 C 
ATOM     15  C   UNL     1       6.888  16.146  70.989  1.00  0.00     0.039 C 
ATOM     16  C   UNL     1       4.644  14.899  70.745  1.00  0.00     0.039 C 
BRANCH  13  17
ATOM     17  C   UNL     1       3.232  17.194  71.931  1.00  0.00     0.066 CG0
ATOM     18  G   UNL     1       2.791  16.477  73.185  1.00  0.00     0.000 G0
ENDBRANCH  13  17
ENDBRANCH  11  13
ENDBRANCH  10  11
ENDBRANCH   1  10
TORSDOF 0
ENDMDL
MODEL 7
REMARK VINA RESULT:    -3.475     13.596     14.775
REMARK INTER + INTRA:          -4.382
REMARK INTER:                  -4.801
REMARK INTRA:                   0.419
REMARK UNBOUND:                 0.515
REMARK SMILES CC1=CCC(=C(C)C)C(=O)CC(C)=CCC1
REMARK SMILES IDX 12 1 14 2 13 3 15 4 16 5 2 6 1 7 3 8 11 10 9 11 10 12 5 13
REMARK SMILES IDX 6 14 7 15 8 16 4 17
REMARK H PARENT
REMARK Flexibility Score: 60.00
ROOT
ATOM      1  C   UNL     1       5.038  15.769  72.108  1.00  0.00    -0.070 C 
ATOM      2  C   UNL     1       5.749  16.882  72.402  1.00  0.00    -0.027 C 
ATOM      3  C   UNL     1       5.374  15.048  70.825  1.00  0.00     0.039 C 
ENDROOT
BRANCH   2   4
ATOM      4  C   UNL     1       5.513  17.811  73.570  1.00  0.00     0.032 C 
BRANCH   4   5
ATOM      5  C   UNL     1       4.232  18.650  73.409  1.00  0.00     0.034 C 
BRANCH   5   6
ATOM      6  C   UNL     1       3.335  18.563  74.629  1.00  0.00    -0.077 C 
ATOM      7  C   UNL     1       3.885  19.018  75.957  1.00  0.00     0.039 C 
ATOM      8  C   UNL     1       2.056  18.124  74.590  1.00  0.00    -0.023 CG0
ATOM      9  G   UNL     1       1.319  17.662  73.357  1.00  0.00     0.000 G0
ENDBRANCH   5   6
ENDBRANCH   4   5
ENDBRANCH   2   4
BRANCH   1  10
ATOM     10  C   UNL     1       3.889  15.251  72.957  1.00  0.00     0.111 C 
BRANCH  10  11
ATOM     11  C   UNL     1       2.551  15.626  72.366  1.00  0.00     0.163 C 
ATOM     12  O   UNL     1       2.378  15.447  71.130  1.00  0.00    -0.294 OA
BRANCH  11  13
ATOM     13  C   UNL     1       1.431  16.147  73.210  1.00  0.00    -0.002 C 
ATOM     14  C   UNL     1       0.512  15.311  73.782  1.00  0.00    -0.069 C 
ATOM     15  C   UNL     1       0.534  13.820  73.532  1.00  0.00     0.039 C 
ATOM     16  C   UNL     1      -0.595  15.844  74.665  1.00  0.00     0.039 C 
BRANCH  13  17
ATOM     17  C   UNL     1       1.313  17.655  73.345  1.00  0.00     0.066 CG0
ATOM     18  G   UNL     1       2.062  18.117  74.572  1.00  0.00     0.000 G0
ENDBRANCH  13  17
ENDBRANCH  11  13
ENDBRANCH  10  11
ENDBRANCH   1  10
TORSDOF 0
ENDMDL
MODEL 8
REMARK VINA RESULT:    -3.446     14.337     15.747
REMARK INTER + INTRA:          -4.341
REMARK INTER:                  -4.768
REMARK INTRA:                   0.426
REMARK UNBOUND:                 0.515
REMARK SMILES CC1=CCC(=C(C)C)C(=O)CC(C)=CCC1
REMARK SMILES IDX 12 1 14 2 13 3 15 4 16 5 2 6 1 7 3 8 11 10 9 11 10 12 5 13
REMARK SMILES IDX 6 14 7 15 8 16 4 17
REMARK H PARENT
REMARK Flexibility Score: 60.00
ROOT
ATOM      1  C   UNL     1       5.163  19.113  73.722  1.00  0.00    -0.070 C 
ATOM      2  C   UNL     1       5.804  18.174  72.987  1.00  0.00    -0.027 C 
ATOM      3  C   UNL     1       6.005  19.987  74.620  1.00  0.00     0.039 C 
ENDROOT
BRANCH   2   4
ATOM      4  C   UNL     1       5.155  17.131  72.109  1.00  0.00     0.032 C 
BRANCH   4   5
ATOM      5  C   UNL     1       4.722  15.880  72.897  1.00  0.00     0.034 C 
BRANCH   5   6
ATOM      6  C   UNL     1       3.365  15.367  72.453  1.00  0.00    -0.077 C 
ATOM      7  C   UNL     1       3.258  14.701  71.104  1.00  0.00     0.039 C 
ATOM      8  C   UNL     1       2.247  15.449  73.209  1.00  0.00    -0.023 CG0
ATOM      9  G   UNL     1       2.160  16.045  74.594  1.00  0.00     0.000 G0
ENDBRANCH   5   6
ENDBRANCH   4   5
ENDBRANCH   2   4
BRANCH   1  10
ATOM     10  C   UNL     1       3.654  19.287  73.740  1.00  0.00     0.111 C 
BRANCH  10  11
ATOM     11  C   UNL     1       3.014  18.456  74.826  1.00  0.00     0.163 C 
ATOM     12  O   UNL     1       3.437  18.592  76.005  1.00  0.00    -0.294 OA
BRANCH  11  13
ATOM     13  C   UNL     1       1.875  17.527  74.543  1.00  0.00    -0.002 C 
ATOM     14  C   UNL     1       0.611  17.992  74.300  1.00  0.00    -0.069 C 
ATOM     15  C   UNL     1       0.281  19.466  74.377  1.00  0.00     0.039 C 
ATOM     16  C   UNL     1      -0.526  17.048  73.977  1.00  0.00     0.039 C 
BRANCH  13  17
ATOM     17  C   UNL     1       2.165  16.039  74.610  1.00  0.00     0.066 CG0
ATOM     18  G   UNL     1       2.255  15.472  73.213  1.00  0.00     0.000 G0
ENDBRANCH  13  17
ENDBRANCH  11  13
ENDBRANCH  10  11
ENDBRANCH   1  10
TORSDOF 0
ENDMDL
MODEL 9
REMARK VINA RESULT:    -3.253     13.991     15.504
REMARK INTER + INTRA:          -4.070
REMARK INTER:                  -4.650
REMARK INTRA:                   0.580
REMARK UNBOUND:                 0.515
REMARK SMILES CC1=CCC(=C(C)C)C(=O)CC(C)=CCC1
REMARK SMILES IDX 12 1 14 2 13 3 15 4 16 5 2 6 1 7 3 8 11 10 9 11 10 12 5 13
REMARK SMILES IDX 6 14 7 15 8 16 4 17
REMARK H PARENT
REMARK Flexibility Score: 60.00
ROOT
ATOM      1  C   UNL     1       2.563  19.433  73.254  1.00  0.00    -0.070 C 
ATOM      2  C   UNL     1       3.724  18.999  73.799  1.00  0.00    -0.027 C 
ATOM      3  C   UNL     1       2.656  20.403  72.101  1.00  0.00     0.039 C 
ENDROOT
BRANCH   2   4
ATOM      4  C   UNL     1       3.864  18.116  75.016  1.00  0.00     0.032 C 
BRANCH   4   5
ATOM      5  C   UNL     1       4.621  16.809  74.716  1.00  0.00     0.034 C 
BRANCH   5   6
ATOM      6  C   UNL     1       4.016  16.054  73.548  1.00  0.00    -0.077 C 
ATOM      7  C   UNL     1       4.903  15.717  72.376  1.00  0.00     0.039 C 
ATOM      8  C   UNL     1       2.729  15.640  73.507  1.00  0.00    -0.023 CG0
ATOM      9  G   UNL     1       1.701  15.849  74.593  1.00  0.00     0.000 G0
ENDBRANCH   5   6
ENDBRANCH   4   5
ENDBRANCH   2   4
BRANCH   1  10
ATOM     10  C   UNL     1       1.189  19.051  73.778  1.00  0.00     0.111 C 
BRANCH  10  11
ATOM     11  C   UNL     1       0.708  17.752  73.177  1.00  0.00     0.163 C 
ATOM     12  O   UNL     1       0.553  17.698  71.927  1.00  0.00    -0.294 OA
BRANCH  11  13
ATOM     13  C   UNL     1       0.464  16.536  74.014  1.00  0.00    -0.002 C 
ATOM     14  C   UNL     1      -0.800  16.103  74.302  1.00  0.00    -0.069 C 
ATOM     15  C   UNL     1      -2.023  16.873  73.855  1.00  0.00     0.039 C 
ATOM     16  C   UNL     1      -1.038  14.850  75.116  1.00  0.00     0.039 C 
BRANCH  13  17
ATOM     17  C   UNL     1       1.684  15.840  74.592  1.00  0.00     0.066 CG0
ATOM     18  G   UNL     1       2.714  15.631  73.508  1.00  0.00     0.000 G0
ENDBRANCH  13  17
ENDBRANCH  11  13
ENDBRANCH  10  11
ENDBRANCH   1  10
TORSDOF 0
ENDMDL
