MODEL 1
REMARK VINA RESULT:    -2.618      0.000      0.000
REMARK INTER + INTRA:          -3.908
REMARK INTER:                  -3.689
REMARK INTRA:                  -0.219
REMARK UNBOUND:                -0.219
REMARK SMILES CC1=CCC(=C(C)C)C(=O)CC(C)=CCC1
REMARK SMILES IDX 12 1 14 2 13 3 15 4 16 5 2 6 1 7 3 8 11 10 9 11 10 12 5 13
REMARK SMILES IDX 6 14 7 15 8 16 4 17
REMARK H PARENT
REMARK Flexibility Score: 60.00
ROOT
ATOM      1  C   UNL     1      60.456  15.985   0.154  1.00  0.00    -0.070 C 
ATOM      2  C   UNL     1      59.519  15.015   0.272  1.00  0.00    -0.027 C 
ATOM      3  C   UNL     1      60.697  16.859   1.361  1.00  0.00     0.039 C 
ENDROOT
BRANCH   2   4
ATOM      4  C   UNL     1      59.144  14.001  -0.779  1.00  0.00     0.032 C 
BRANCH   4   5
ATOM      5  C   UNL     1      59.690  12.574  -0.541  1.00  0.00     0.034 C 
BRANCH   5   6
ATOM      6  C   UNL     1      60.969  12.226  -1.290  1.00  0.00    -0.077 C 
ATOM      7  C   UNL     1      60.833  11.464  -2.587  1.00  0.00     0.039 C 
ATOM      8  C   UNL     1      62.232  12.494  -0.856  1.00  0.00    -0.023 CG0
ATOM      9  G   UNL     1      62.701  13.351   0.310  1.00  0.00     0.000 G0
ENDBRANCH   5   6
ENDBRANCH   4   5
ENDBRANCH   2   4
BRANCH   1  10
ATOM     10  C   UNL     1      61.317  16.226  -1.081  1.00  0.00     0.111 C 
BRANCH  10  11
ATOM     11  C   UNL     1      62.631  15.485  -1.145  1.00  0.00     0.163 C 
ATOM     12  O   UNL     1      63.244  15.523  -2.247  1.00  0.00    -0.294 OA
BRANCH  11  13
ATOM     13  C   UNL     1      63.231  14.736   0.020  1.00  0.00    -0.002 C 
ATOM     14  C   UNL     1      64.189  15.294   0.827  1.00  0.00    -0.069 C 
ATOM     15  C   UNL     1      64.691  14.579   2.064  1.00  0.00     0.039 C 
ATOM     16  C   UNL     1      64.827  16.630   0.518  1.00  0.00     0.039 C 
BRANCH  13  17
ATOM     17  C   UNL     1      62.700  13.346   0.330  1.00  0.00     0.066 CG0
ATOM     18  G   UNL     1      62.219  12.516  -0.851  1.00  0.00     0.000 G0
ENDBRANCH  13  17
ENDBRANCH  11  13
ENDBRANCH  10  11
ENDBRANCH   1  10
TORSDOF 0
ENDMDL
MODEL 2
REMARK VINA RESULT:    -2.539      2.228      4.825
REMARK INTER + INTRA:          -3.798
REMARK INTER:                  -3.579
REMARK INTRA:                  -0.219
REMARK UNBOUND:                -0.219
REMARK SMILES CC1=CCC(=C(C)C)C(=O)CC(C)=CCC1
REMARK SMILES IDX 12 1 14 2 13 3 15 4 16 5 2 6 1 7 3 8 11 10 9 11 10 12 5 13
REMARK SMILES IDX 6 14 7 15 8 16 4 17
REMARK H PARENT
REMARK Flexibility Score: 60.00
ROOT
ATOM      1  C   UNL     1      61.626  18.107   2.800  1.00  0.00    -0.070 C 
ATOM      2  C   UNL     1      62.757  18.323   3.511  1.00  0.00    -0.027 C 
ATOM      3  C   UNL     1      60.582  19.198   2.819  1.00  0.00     0.039 C 
ENDROOT
BRANCH   2   4
ATOM      4  C   UNL     1      63.947  17.402   3.603  1.00  0.00     0.032 C 
BRANCH   4   5
ATOM      5  C   UNL     1      64.874  17.400   2.365  1.00  0.00     0.034 C 
BRANCH   5   6
ATOM      6  C   UNL     1      65.198  16.029   1.789  1.00  0.00    -0.077 C 
ATOM      7  C   UNL     1      66.026  15.093   2.637  1.00  0.00     0.039 C 
ATOM      8  C   UNL     1      64.853  15.597   0.544  1.00  0.00    -0.023 CG0
ATOM      9  G   UNL     1      63.921  16.225  -0.482  1.00  0.00     0.000 G0
ENDBRANCH   5   6
ENDBRANCH   4   5
ENDBRANCH   2   4
BRANCH   1  10
ATOM     10  C   UNL     1      61.351  16.874   1.946  1.00  0.00     0.111 C 
BRANCH  10  11
ATOM     11  C   UNL     1      61.632  16.999   0.467  1.00  0.00     0.163 C 
ATOM     12  O   UNL     1      61.182  18.029  -0.104  1.00  0.00    -0.294 OA
BRANCH  11  13
ATOM     13  C   UNL     1      62.415  15.983  -0.327  1.00  0.00    -0.002 C 
ATOM     14  C   UNL     1      61.812  14.907  -0.928  1.00  0.00    -0.069 C 
ATOM     15  C   UNL     1      62.591  13.966  -1.823  1.00  0.00     0.039 C 
ATOM     16  C   UNL     1      60.354  14.574  -0.709  1.00  0.00     0.039 C 
BRANCH  13  17
ATOM     17  C   UNL     1      63.908  16.208  -0.508  1.00  0.00     0.066 CG0
ATOM     18  G   UNL     1      64.826  15.596   0.540  1.00  0.00     0.000 G0
ENDBRANCH  13  17
ENDBRANCH  11  13
ENDBRANCH  10  11
ENDBRANCH   1  10
TORSDOF 0
ENDMDL
MODEL 3
REMARK VINA RESULT:    -2.512     11.870     13.365
REMARK INTER + INTRA:          -3.759
REMARK INTER:                  -3.541
REMARK INTRA:                  -0.218
REMARK UNBOUND:                -0.219
REMARK SMILES CC1=CCC(=C(C)C)C(=O)CC(C)=CCC1
REMARK SMILES IDX 12 1 14 2 13 3 15 4 16 5 2 6 1 7 3 8 11 10 9 11 10 12 5 13
REMARK SMILES IDX 6 14 7 15 8 16 4 17
REMARK H PARENT
REMARK Flexibility Score: 60.00
ROOT
ATOM      1  C   UNL     1      53.747   4.368   3.629  1.00  0.00    -0.070 C 
ATOM      2  C   UNL     1      53.778   5.696   3.884  1.00  0.00    -0.027 C 
ATOM      3  C   UNL     1      53.413   3.946   2.218  1.00  0.00     0.039 C 
ENDROOT
BRANCH   2   4
ATOM      4  C   UNL     1      54.129   6.348   5.197  1.00  0.00     0.032 C 
BRANCH   4   5
ATOM      5  C   UNL     1      55.593   6.833   5.321  1.00  0.00     0.034 C 
BRANCH   5   6
ATOM      6  C   UNL     1      56.554   5.858   5.984  1.00  0.00    -0.077 C 
ATOM      7  C   UNL     1      56.746   5.974   7.478  1.00  0.00     0.039 C 
ATOM      8  C   UNL     1      57.303   4.925   5.333  1.00  0.00    -0.023 CG0
ATOM      9  G   UNL     1      57.242   4.465   3.883  1.00  0.00     0.000 G0
ENDBRANCH   5   6
ENDBRANCH   4   5
ENDBRANCH   2   4
BRANCH   1  10
ATOM     10  C   UNL     1      54.071   3.274   4.640  1.00  0.00     0.111 C 
BRANCH  10  11
ATOM     11  C   UNL     1      55.468   2.702   4.594  1.00  0.00     0.163 C 
ATOM     12  O   UNL     1      55.732   1.797   5.431  1.00  0.00    -0.294 OA
BRANCH  11  13
ATOM     13  C   UNL     1      56.524   3.144   3.611  1.00  0.00    -0.002 C 
ATOM     14  C   UNL     1      56.790   2.440   2.464  1.00  0.00    -0.069 C 
ATOM     15  C   UNL     1      57.764   2.961   1.428  1.00  0.00     0.039 C 
ATOM     16  C   UNL     1      56.163   1.094   2.180  1.00  0.00     0.039 C 
BRANCH  13  17
ATOM     17  C   UNL     1      57.262   4.444   3.885  1.00  0.00     0.066 CG0
ATOM     18  G   UNL     1      57.295   4.922   5.330  1.00  0.00     0.000 G0
ENDBRANCH  13  17
ENDBRANCH  11  13
ENDBRANCH  10  11
ENDBRANCH   1  10
TORSDOF 0
ENDMDL
MODEL 4
REMARK VINA RESULT:    -2.488      1.961      4.509
REMARK INTER + INTRA:          -3.725
REMARK INTER:                  -3.672
REMARK INTRA:                  -0.054
REMARK UNBOUND:                -0.219
REMARK SMILES CC1=CCC(=C(C)C)C(=O)CC(C)=CCC1
REMARK SMILES IDX 12 1 14 2 13 3 15 4 16 5 2 6 1 7 3 8 11 10 9 11 10 12 5 13
REMARK SMILES IDX 6 14 7 15 8 16 4 17
REMARK H PARENT
REMARK Flexibility Score: 60.00
ROOT
ATOM      1  C   UNL     1      63.458  14.874  -1.954  1.00  0.00    -0.070 C 
ATOM      2  C   UNL     1      64.017  15.810  -1.153  1.00  0.00    -0.027 C 
ATOM      3  C   UNL     1      63.173  15.272  -3.383  1.00  0.00     0.039 C 
ENDROOT
BRANCH   2   4
ATOM      4  C   UNL     1      64.428  15.626   0.287  1.00  0.00     0.032 C 
BRANCH   4   5
ATOM      5  C   UNL     1      63.542  16.358   1.322  1.00  0.00     0.034 C 
BRANCH   5   6
ATOM      6  C   UNL     1      62.040  16.241   1.101  1.00  0.00    -0.077 C 
ATOM      7  C   UNL     1      61.310  17.469   0.610  1.00  0.00     0.039 C 
ATOM      8  C   UNL     1      61.289  15.137   1.368  1.00  0.00    -0.023 CG0
ATOM      9  G   UNL     1      61.726  13.724   1.728  1.00  0.00     0.000 G0
ENDBRANCH   5   6
ENDBRANCH   4   5
ENDBRANCH   2   4
BRANCH   1  10
ATOM     10  C   UNL     1      63.142  13.441  -1.539  1.00  0.00     0.111 C 
BRANCH  10  11
ATOM     11  C   UNL     1      61.822  13.213  -0.842  1.00  0.00     0.163 C 
ATOM     12  O   UNL     1      60.783  13.462  -1.513  1.00  0.00    -0.294 OA
BRANCH  11  13
ATOM     13  C   UNL     1      61.696  12.704   0.572  1.00  0.00    -0.002 C 
ATOM     14  C   UNL     1      61.613  11.365   0.859  1.00  0.00    -0.069 C 
ATOM     15  C   UNL     1      61.611  10.864   2.287  1.00  0.00     0.039 C 
ATOM     16  C   UNL     1      61.480  10.316  -0.222  1.00  0.00     0.039 C 
BRANCH  13  17
ATOM     17  C   UNL     1      61.727  13.716   1.706  1.00  0.00     0.066 CG0
ATOM     18  G   UNL     1      61.295  15.136   1.369  1.00  0.00     0.000 G0
ENDBRANCH  13  17
ENDBRANCH  11  13
ENDBRANCH  10  11
ENDBRANCH   1  10
TORSDOF 0
ENDMDL
MODEL 5
REMARK VINA RESULT:    -2.435      1.680      2.525
REMARK INTER + INTRA:          -3.651
REMARK INTER:                  -3.486
REMARK INTRA:                  -0.165
REMARK UNBOUND:                -0.219
REMARK SMILES CC1=CCC(=C(C)C)C(=O)CC(C)=CCC1
REMARK SMILES IDX 12 1 14 2 13 3 15 4 16 5 2 6 1 7 3 8 11 10 9 11 10 12 5 13
REMARK SMILES IDX 6 14 7 15 8 16 4 17
REMARK H PARENT
REMARK Flexibility Score: 60.00
ROOT
ATOM      1  C   UNL     1      62.508  14.470  -1.883  1.00  0.00    -0.070 C 
ATOM      2  C   UNL     1      62.016  13.210  -1.843  1.00  0.00    -0.027 C 
ATOM      3  C   UNL     1      63.835  14.669  -2.575  1.00  0.00     0.039 C 
ENDROOT
BRANCH   2   4
ATOM      4  C   UNL     1      60.698  12.782  -1.249  1.00  0.00     0.032 C 
BRANCH   4   5
ATOM      5  C   UNL     1      60.800  11.790  -0.066  1.00  0.00     0.034 C 
BRANCH   5   6
ATOM      6  C   UNL     1      62.165  11.703   0.602  1.00  0.00    -0.077 C 
ATOM      7  C   UNL     1      62.977  10.450   0.369  1.00  0.00     0.039 C 
ATOM      8  C   UNL     1      62.691  12.637   1.442  1.00  0.00    -0.023 CG0
ATOM      9  G   UNL     1      62.205  14.042   1.765  1.00  0.00     0.000 G0
ENDBRANCH   5   6
ENDBRANCH   4   5
ENDBRANCH   2   4
BRANCH   1  10
ATOM     10  C   UNL     1      61.802  15.703  -1.329  1.00  0.00     0.111 C 
BRANCH  10  11
ATOM     11  C   UNL     1      62.097  16.063   0.108  1.00  0.00     0.163 C 
ATOM     12  O   UNL     1      61.603  17.145   0.527  1.00  0.00    -0.294 OA
BRANCH  11  13
ATOM     13  C   UNL     1      62.917  15.203   1.037  1.00  0.00    -0.002 C 
ATOM     14  C   UNL     1      64.242  15.459   1.285  1.00  0.00    -0.069 C 
ATOM     15  C   UNL     1      65.018  14.663   2.313  1.00  0.00     0.039 C 
ATOM     16  C   UNL     1      65.015  16.516   0.530  1.00  0.00     0.039 C 
BRANCH  13  17
ATOM     17  C   UNL     1      62.222  14.061   1.760  1.00  0.00     0.066 CG0
ATOM     18  G   UNL     1      62.683  12.651   1.418  1.00  0.00     0.000 G0
ENDBRANCH  13  17
ENDBRANCH  11  13
ENDBRANCH  10  11
ENDBRANCH   1  10
TORSDOF 0
ENDMDL
MODEL 6
REMARK VINA RESULT:    -2.363      2.248      4.652
REMARK INTER + INTRA:          -3.550
REMARK INTER:                  -3.347
REMARK INTRA:                  -0.202
REMARK UNBOUND:                -0.219
REMARK SMILES CC1=CCC(=C(C)C)C(=O)CC(C)=CCC1
REMARK SMILES IDX 12 1 14 2 13 3 15 4 16 5 2 6 1 7 3 8 11 10 9 11 10 12 5 13
REMARK SMILES IDX 6 14 7 15 8 16 4 17
REMARK H PARENT
REMARK Flexibility Score: 60.00
ROOT
ATOM      1  C   UNL     1      59.841  13.520  -0.407  1.00  0.00    -0.070 C 
ATOM      2  C   UNL     1      60.762  13.456  -1.396  1.00  0.00    -0.027 C 
ATOM      3  C   UNL     1      58.391  13.393  -0.810  1.00  0.00     0.039 C 
ENDROOT
BRANCH   2   4
ATOM      4  C   UNL     1      62.260  13.514  -1.229  1.00  0.00     0.032 C 
BRANCH   4   5
ATOM      5  C   UNL     1      62.935  14.794  -1.775  1.00  0.00     0.034 C 
BRANCH   5   6
ATOM      6  C   UNL     1      63.347  15.818  -0.726  1.00  0.00    -0.077 C 
ATOM      7  C   UNL     1      64.815  15.915  -0.385  1.00  0.00     0.039 C 
ATOM      8  C   UNL     1      62.492  16.613  -0.025  1.00  0.00    -0.023 CG0
ATOM      9  G   UNL     1      61.002  16.856  -0.222  1.00  0.00     0.000 G0
ENDBRANCH   5   6
ENDBRANCH   4   5
ENDBRANCH   2   4
BRANCH   1  10
ATOM     10  C   UNL     1      60.158  13.658   1.077  1.00  0.00     0.111 C 
BRANCH  10  11
ATOM     11  C   UNL     1      60.491  15.046   1.572  1.00  0.00     0.163 C 
ATOM     12  O   UNL     1      61.169  15.115   2.633  1.00  0.00    -0.294 OA
BRANCH  11  13
ATOM     13  C   UNL     1      60.072  16.312   0.865  1.00  0.00    -0.002 C 
ATOM     14  C   UNL     1      58.924  16.985   1.198  1.00  0.00    -0.069 C 
ATOM     15  C   UNL     1      58.582  18.317   0.565  1.00  0.00     0.039 C 
ATOM     16  C   UNL     1      57.918  16.428   2.180  1.00  0.00     0.039 C 
BRANCH  13  17
ATOM     17  C   UNL     1      60.995  16.876  -0.203  1.00  0.00     0.066 CG0
ATOM     18  G   UNL     1      62.485  16.624  -0.025  1.00  0.00     0.000 G0
ENDBRANCH  13  17
ENDBRANCH  11  13
ENDBRANCH  10  11
ENDBRANCH   1  10
TORSDOF 0
ENDMDL
MODEL 7
REMARK VINA RESULT:    -2.321     11.121     12.895
REMARK INTER + INTRA:          -3.490
REMARK INTER:                  -3.055
REMARK INTRA:                  -0.435
REMARK UNBOUND:                -0.219
REMARK SMILES CC1=CCC(=C(C)C)C(=O)CC(C)=CCC1
REMARK SMILES IDX 12 1 14 2 13 3 15 4 16 5 2 6 1 7 3 8 11 10 9 11 10 12 5 13
REMARK SMILES IDX 6 14 7 15 8 16 4 17
REMARK H PARENT
REMARK Flexibility Score: 60.00
ROOT
ATOM      1  C   UNL     1      54.529   2.463   3.797  1.00  0.00    -0.070 C 
ATOM      2  C   UNL     1      54.022   2.412   2.544  1.00  0.00    -0.027 C 
ATOM      3  C   UNL     1      55.678   1.536   4.113  1.00  0.00     0.039 C 
ENDROOT
BRANCH   2   4
ATOM      4  C   UNL     1      52.911   3.269   1.991  1.00  0.00     0.032 C 
BRANCH   4   5
ATOM      5  C   UNL     1      53.372   4.476   1.141  1.00  0.00     0.034 C 
BRANCH   5   6
ATOM      6  C   UNL     1      54.849   4.493   0.771  1.00  0.00    -0.077 C 
ATOM      7  C   UNL     1      55.258   3.793  -0.503  1.00  0.00     0.039 C 
ATOM      8  C   UNL     1      55.842   5.039   1.527  1.00  0.00    -0.023 CG0
ATOM      9  G   UNL     1      55.754   5.920   2.764  1.00  0.00     0.000 G0
ENDBRANCH   5   6
ENDBRANCH   4   5
ENDBRANCH   2   4
BRANCH   1  10
ATOM     10  C   UNL     1      54.063   3.417   4.892  1.00  0.00     0.111 C 
BRANCH  10  11
ATOM     11  C   UNL     1      54.538   4.847   4.791  1.00  0.00     0.163 C 
ATOM     12  O   UNL     1      53.794   5.724   5.308  1.00  0.00    -0.294 OA
BRANCH  11  13
ATOM     13  C   UNL     1      55.832   5.257   4.131  1.00  0.00    -0.002 C 
ATOM     14  C   UNL     1      57.053   4.988   4.694  1.00  0.00    -0.069 C 
ATOM     15  C   UNL     1      58.343   5.296   3.963  1.00  0.00     0.039 C 
ATOM     16  C   UNL     1      57.190   4.408   6.084  1.00  0.00     0.039 C 
BRANCH  13  17
ATOM     17  C   UNL     1      55.762   5.932   2.771  1.00  0.00     0.066 CG0
ATOM     18  G   UNL     1      55.835   5.026   1.550  1.00  0.00     0.000 G0
ENDBRANCH  13  17
ENDBRANCH  11  13
ENDBRANCH  10  11
ENDBRANCH   1  10
TORSDOF 0
ENDMDL
MODEL 8
REMARK VINA RESULT:    -2.304      1.845      3.853
REMARK INTER + INTRA:          -3.466
REMARK INTER:                  -3.408
REMARK INTRA:                  -0.058
REMARK UNBOUND:                -0.219
REMARK SMILES CC1=CCC(=C(C)C)C(=O)CC(C)=CCC1
REMARK SMILES IDX 12 1 14 2 13 3 15 4 16 5 2 6 1 7 3 8 11 10 9 11 10 12 5 13
REMARK SMILES IDX 6 14 7 15 8 16 4 17
REMARK H PARENT
REMARK Flexibility Score: 60.00
ROOT
ATOM      1  C   UNL     1      63.540  15.794  -0.712  1.00  0.00    -0.070 C 
ATOM      2  C   UNL     1      63.560  14.713  -1.526  1.00  0.00    -0.027 C 
ATOM      3  C   UNL     1      64.861  16.245  -0.136  1.00  0.00     0.039 C 
ENDROOT
BRANCH   2   4
ATOM      4  C   UNL     1      62.379  14.113  -2.246  1.00  0.00     0.032 C 
BRANCH   4   5
ATOM      5  C   UNL     1      61.992  12.684  -1.799  1.00  0.00     0.034 C 
BRANCH   5   6
ATOM      6  C   UNL     1      61.688  12.519  -0.316  1.00  0.00    -0.077 C 
ATOM      7  C   UNL     1      62.522  11.528   0.461  1.00  0.00     0.039 C 
ATOM      8  C   UNL     1      60.685  13.148   0.356  1.00  0.00    -0.023 CG0
ATOM      9  G   UNL     1      59.776  14.285  -0.089  1.00  0.00     0.000 G0
ENDBRANCH   5   6
ENDBRANCH   4   5
ENDBRANCH   2   4
BRANCH   1  10
ATOM     10  C   UNL     1      62.300  16.616  -0.378  1.00  0.00     0.111 C 
BRANCH  10  11
ATOM     11  C   UNL     1      61.451  16.123   0.770  1.00  0.00     0.163 C 
ATOM     12  O   UNL     1      61.988  16.138   1.911  1.00  0.00    -0.294 OA
BRANCH  11  13
ATOM     13  C   UNL     1      60.029  15.642   0.617  1.00  0.00    -0.002 C 
ATOM     14  C   UNL     1      58.959  16.394   1.030  1.00  0.00    -0.069 C 
ATOM     15  C   UNL     1      57.536  15.954   0.758  1.00  0.00     0.039 C 
ATOM     16  C   UNL     1      59.128  17.680   1.807  1.00  0.00     0.039 C 
BRANCH  13  17
ATOM     17  C   UNL     1      59.792  14.309  -0.074  1.00  0.00     0.066 CG0
ATOM     18  G   UNL     1      60.672  13.146   0.360  1.00  0.00     0.000 G0
ENDBRANCH  13  17
ENDBRANCH  11  13
ENDBRANCH  10  11
ENDBRANCH   1  10
TORSDOF 0
ENDMDL
MODEL 9
REMARK VINA RESULT:    -2.213      2.573      4.469
REMARK INTER + INTRA:          -3.338
REMARK INTER:                  -3.226
REMARK INTRA:                  -0.112
REMARK UNBOUND:                -0.219
REMARK SMILES CC1=CCC(=C(C)C)C(=O)CC(C)=CCC1
REMARK SMILES IDX 12 1 14 2 13 3 15 4 16 5 2 6 1 7 3 8 11 10 9 11 10 12 5 13
REMARK SMILES IDX 6 14 7 15 8 16 4 17
REMARK H PARENT
REMARK Flexibility Score: 60.00
ROOT
ATOM      1  C   UNL     1      63.084  15.464   0.309  1.00  0.00    -0.070 C 
ATOM      2  C   UNL     1      62.774  14.158   0.128  1.00  0.00    -0.027 C 
ATOM      3  C   UNL     1      64.522  15.791   0.631  1.00  0.00     0.039 C 
ENDROOT
BRANCH   2   4
ATOM      4  C   UNL     1      61.422  13.602  -0.242  1.00  0.00     0.032 C 
BRANCH   4   5
ATOM      5  C   UNL     1      60.371  13.618   0.892  1.00  0.00     0.034 C 
BRANCH   5   6
ATOM      6  C   UNL     1      58.977  14.080   0.490  1.00  0.00    -0.077 C 
ATOM      7  C   UNL     1      58.189  13.192  -0.443  1.00  0.00     0.039 C 
ATOM      8  C   UNL     1      58.404  15.260   0.856  1.00  0.00    -0.023 CG0
ATOM      9  G   UNL     1      58.862  16.291   1.878  1.00  0.00     0.000 G0
ENDBRANCH   5   6
ENDBRANCH   4   5
ENDBRANCH   2   4
BRANCH   1  10
ATOM     10  C   UNL     1      62.105  16.624   0.164  1.00  0.00     0.111 C 
BRANCH  10  11
ATOM     11  C   UNL     1      61.318  17.004   1.395  1.00  0.00     0.163 C 
ATOM     12  O   UNL     1      61.959  17.040   2.481  1.00  0.00    -0.294 OA
BRANCH  11  13
ATOM     13  C   UNL     1      59.849  17.346   1.380  1.00  0.00    -0.002 C 
ATOM     14  C   UNL     1      59.384  18.539   0.887  1.00  0.00    -0.069 C 
ATOM     15  C   UNL     1      57.901  18.816   0.765  1.00  0.00     0.039 C 
ATOM     16  C   UNL     1      60.314  19.657   0.472  1.00  0.00     0.039 C 
BRANCH  13  17
ATOM     17  C   UNL     1      58.863  16.299   1.873  1.00  0.00     0.066 CG0
ATOM     18  G   UNL     1      58.386  15.273   0.856  1.00  0.00     0.000 G0
ENDBRANCH  13  17
ENDBRANCH  11  13
ENDBRANCH  10  11
ENDBRANCH   1  10
TORSDOF 0
ENDMDL
