MODEL 1
REMARK VINA RESULT:    -6.145      0.000      0.000
REMARK INTER + INTRA:          -7.911
REMARK INTER:                  -7.582
REMARK INTRA:                  -0.329
REMARK UNBOUND:                -0.329
REMARK SMILES O=c1c(O)c(-c2cc(O)c(O)c(O)c2)oc2cc(O)cc(O)c12
REMARK SMILES IDX 5 1 3 2 2 3 1 4 23 5 21 6 20 7 18 8 17 9 16 10 15 11 6 12
REMARK SMILES IDX 7 13 8 14 14 15 10 16 12 17 9 18 11 20 13 22 4 24 22 26
REMARK SMILES IDX 19 28
REMARK H PARENT 9 19 11 21 13 23 4 25 22 27 19 29
REMARK Flexibility Score: inf
ROOT
ATOM      1  C   UNL     1     171.947 174.800 175.835  1.00  0.00     0.180 A 
ATOM      2  C   UNL     1     173.290 175.014 175.480  1.00  0.00     0.208 A 
ATOM      3  C   UNL     1     174.302 174.587 176.356  1.00  0.00     0.238 A 
ATOM      4  O   UNL     1     175.500 174.830 176.058  1.00  0.00    -0.285 OA
ATOM      5  C   UNL     1     173.959 173.936 177.565  1.00  0.00     0.111 A 
ATOM      6  C   UNL     1     174.903 173.426 178.507  1.00  0.00     0.134 A 
ATOM      7  C   UNL     1     174.451 172.919 179.731  1.00  0.00     0.093 A 
ATOM      8  C   UNL     1     173.090 172.842 180.021  1.00  0.00     0.123 A 
ATOM      9  C   UNL     1     172.156 173.283 179.083  1.00  0.00     0.094 A 
ATOM     10  C   UNL     1     172.577 173.828 177.867  1.00  0.00     0.146 A 
ATOM     11  O   UNL     1     171.656 174.247 177.006  1.00  0.00    -0.452 OA
ENDROOT
BRANCH   1  12
ATOM     12  C   UNL     1     170.826 175.200 174.955  1.00  0.00     0.029 A 
ATOM     13  C   UNL     1     170.244 174.250 174.102  1.00  0.00     0.062 A 
ATOM     14  C   UNL     1     169.197 174.606 173.245  1.00  0.00     0.162 A 
ATOM     15  C   UNL     1     170.369 176.529 174.911  1.00  0.00     0.062 A 
ATOM     16  C   UNL     1     168.729 175.931 173.220  1.00  0.00     0.200 A 
ATOM     17  C   UNL     1     169.322 176.895 174.055  1.00  0.00     0.162 A 
BRANCH  14  18
ATOM     18  O   UNL     1     168.636 173.629 172.424  1.00  0.00    -0.504 OA
ATOM     19  H   UNL     1     168.941 173.488 171.468  1.00  0.00     0.293 HD
ENDBRANCH  14  18
BRANCH  16  20
ATOM     20  O   UNL     1     167.684 176.277 172.364  1.00  0.00    -0.502 OA
ATOM     21  H   UNL     1     167.846 176.671 171.445  1.00  0.00     0.293 HD
ENDBRANCH  16  20
BRANCH  17  22
ATOM     22  O   UNL     1     168.873 178.214 174.024  1.00  0.00    -0.504 OA
ATOM     23  H   UNL     1     168.243 178.577 174.730  1.00  0.00     0.293 HD
ENDBRANCH  17  22
ENDBRANCH   1  12
BRANCH   2  24
ATOM     24  O   UNL     1     173.606 175.678 174.292  1.00  0.00    -0.502 OA
ATOM     25  H   UNL     1     174.493 176.145 174.149  1.00  0.00     0.293 HD
ENDBRANCH   2  24
BRANCH   6  26
ATOM     26  O   UNL     1     176.281 173.370 178.278  1.00  0.00    -0.507 OA
ATOM     27  H   UNL     1     176.839 172.533 178.336  1.00  0.00     0.293 HD
ENDBRANCH   6  26
BRANCH   8  28
ATOM     28  O   UNL     1     172.675 172.316 181.242  1.00  0.00    -0.508 OA
ATOM     29  H   UNL     1     172.176 171.436 181.299  1.00  0.00     0.293 HD
ENDBRANCH   8  28
TORSDOF 7
ENDMDL
MODEL 2
REMARK VINA RESULT:    -6.138      0.123      1.759
REMARK INTER + INTRA:          -7.903
REMARK INTER:                  -7.566
REMARK INTRA:                  -0.336
REMARK UNBOUND:                -0.329
REMARK SMILES O=c1c(O)c(-c2cc(O)c(O)c(O)c2)oc2cc(O)cc(O)c12
REMARK SMILES IDX 5 1 3 2 2 3 1 4 23 5 21 6 20 7 18 8 17 9 16 10 15 11 6 12
REMARK SMILES IDX 7 13 8 14 14 15 10 16 12 17 9 18 11 20 13 22 4 24 22 26
REMARK SMILES IDX 19 28
REMARK H PARENT 9 19 11 21 13 23 4 25 22 27 19 29
REMARK Flexibility Score: inf
ROOT
ATOM      1  C   UNL     1     171.977 174.795 175.769  1.00  0.00     0.180 A 
ATOM      2  C   UNL     1     173.315 175.026 175.402  1.00  0.00     0.208 A 
ATOM      3  C   UNL     1     174.340 174.603 176.264  1.00  0.00     0.238 A 
ATOM      4  O   UNL     1     175.533 174.861 175.956  1.00  0.00    -0.285 OA
ATOM      5  C   UNL     1     174.016 173.941 177.472  1.00  0.00     0.111 A 
ATOM      6  C   UNL     1     174.976 173.435 178.400  1.00  0.00     0.134 A 
ATOM      7  C   UNL     1     174.542 172.914 179.626  1.00  0.00     0.093 A 
ATOM      8  C   UNL     1     173.184 172.820 179.929  1.00  0.00     0.123 A 
ATOM      9  C   UNL     1     172.236 173.258 179.003  1.00  0.00     0.094 A 
ATOM     10  C   UNL     1     172.639 173.816 177.788  1.00  0.00     0.146 A 
ATOM     11  O   UNL     1     171.705 174.231 176.939  1.00  0.00    -0.452 OA
ENDROOT
BRANCH   1  12
ATOM     12  C   UNL     1     170.844 175.189 174.903  1.00  0.00     0.029 A 
ATOM     13  C   UNL     1     170.363 176.506 174.950  1.00  0.00     0.062 A 
ATOM     14  C   UNL     1     169.280 176.901 174.158  1.00  0.00     0.162 A 
ATOM     15  C   UNL     1     170.198 174.255 174.073  1.00  0.00     0.062 A 
ATOM     16  C   UNL     1     168.651 175.969 173.314  1.00  0.00     0.200 A 
ATOM     17  C   UNL     1     169.111 174.641 173.278  1.00  0.00     0.162 A 
BRANCH  14  18
ATOM     18  O   UNL     1     168.842 178.223 174.224  1.00  0.00    -0.504 OA
ATOM     19  H   UNL     1     167.869 178.475 174.097  1.00  0.00     0.293 HD
ENDBRANCH  14  18
BRANCH  16  20
ATOM     20  O   UNL     1     167.573 176.371 172.525  1.00  0.00    -0.502 OA
ATOM     21  H   UNL     1     167.694 176.931 171.690  1.00  0.00     0.293 HD
ENDBRANCH  16  20
BRANCH  17  22
ATOM     22  O   UNL     1     168.482 173.708 172.454  1.00  0.00    -0.504 OA
ATOM     23  H   UNL     1     168.988 173.215 171.727  1.00  0.00     0.293 HD
ENDBRANCH  17  22
ENDBRANCH   1  12
BRANCH   2  24
ATOM     24  O   UNL     1     173.611 175.702 174.215  1.00  0.00    -0.502 OA
ATOM     25  H   UNL     1     173.036 176.456 173.860  1.00  0.00     0.293 HD
ENDBRANCH   2  24
BRANCH   6  26
ATOM     26  O   UNL     1     176.351 173.395 178.157  1.00  0.00    -0.507 OA
ATOM     27  H   UNL     1     176.858 174.074 177.611  1.00  0.00     0.293 HD
ENDBRANCH   6  26
BRANCH   8  28
ATOM     28  O   UNL     1     172.788 172.281 181.151  1.00  0.00    -0.508 OA
ATOM     29  H   UNL     1     173.465 171.972 181.839  1.00  0.00     0.293 HD
ENDBRANCH   8  28
TORSDOF 7
ENDMDL
MODEL 3
REMARK VINA RESULT:    -6.138      3.925      6.665
REMARK INTER + INTRA:          -7.902
REMARK INTER:                  -7.547
REMARK INTRA:                  -0.356
REMARK UNBOUND:                -0.329
REMARK SMILES O=c1c(O)c(-c2cc(O)c(O)c(O)c2)oc2cc(O)cc(O)c12
REMARK SMILES IDX 5 1 3 2 2 3 1 4 23 5 21 6 20 7 18 8 17 9 16 10 15 11 6 12
REMARK SMILES IDX 7 13 8 14 14 15 10 16 12 17 9 18 11 20 13 22 4 24 22 26
REMARK SMILES IDX 19 28
REMARK H PARENT 9 19 11 21 13 23 4 25 22 27 19 29
REMARK Flexibility Score: inf
ROOT
ATOM      1  C   UNL     1     174.537 171.646 175.719  1.00  0.00     0.180 A 
ATOM      2  C   UNL     1     173.204 171.457 175.313  1.00  0.00     0.208 A 
ATOM      3  C   UNL     1     172.167 171.852 176.174  1.00  0.00     0.238 A 
ATOM      4  O   UNL     1     170.978 171.629 175.828  1.00  0.00    -0.285 OA
ATOM      5  C   UNL     1     172.475 172.446 177.421  1.00  0.00     0.111 A 
ATOM      6  C   UNL     1     171.503 172.920 178.354  1.00  0.00     0.134 A 
ATOM      7  C   UNL     1     171.919 173.370 179.613  1.00  0.00     0.093 A 
ATOM      8  C   UNL     1     173.270 173.425 179.950  1.00  0.00     0.123 A 
ATOM      9  C   UNL     1     174.232 173.020 179.022  1.00  0.00     0.094 A 
ATOM     10  C   UNL     1     173.847 172.532 177.771  1.00  0.00     0.146 A 
ATOM     11  O   UNL     1     174.792 172.145 176.922  1.00  0.00    -0.452 OA
ENDROOT
BRANCH   1  12
ATOM     12  C   UNL     1     175.683 171.278 174.858  1.00  0.00     0.029 A 
ATOM     13  C   UNL     1     176.204 169.978 174.920  1.00  0.00     0.062 A 
ATOM     14  C   UNL     1     177.300 169.608 174.132  1.00  0.00     0.162 A 
ATOM     15  C   UNL     1     176.300 172.223 174.018  1.00  0.00     0.062 A 
ATOM     16  C   UNL     1     177.899 170.550 173.279  1.00  0.00     0.200 A 
ATOM     17  C   UNL     1     177.398 171.863 173.227  1.00  0.00     0.162 A 
BRANCH  14  18
ATOM     18  O   UNL     1     177.778 168.301 174.212  1.00  0.00    -0.504 OA
ATOM     19  H   UNL     1     178.172 167.923 175.066  1.00  0.00     0.293 HD
ENDBRANCH  14  18
BRANCH  16  20
ATOM     20  O   UNL     1     178.990 170.173 172.494  1.00  0.00    -0.502 OA
ATOM     21  H   UNL     1     179.927 170.096 172.874  1.00  0.00     0.293 HD
ENDBRANCH  16  20
BRANCH  17  22
ATOM     22  O   UNL     1     177.998 172.806 172.394  1.00  0.00    -0.504 OA
ATOM     23  H   UNL     1     177.637 173.004 171.468  1.00  0.00     0.293 HD
ENDBRANCH  17  22
ENDBRANCH   1  12
BRANCH   2  24
ATOM     24  O   UNL     1     172.923 170.848 174.087  1.00  0.00    -0.502 OA
ATOM     25  H   UNL     1     173.341 171.156 173.217  1.00  0.00     0.293 HD
ENDBRANCH   2  24
BRANCH   6  26
ATOM     26  O   UNL     1     170.134 172.994 178.085  1.00  0.00    -0.507 OA
ATOM     27  H   UNL     1     169.736 173.279 177.202  1.00  0.00     0.293 HD
ENDBRANCH   6  26
BRANCH   8  28
ATOM     28  O   UNL     1     173.648 173.894 181.205  1.00  0.00    -0.508 OA
ATOM     29  H   UNL     1     173.157 174.657 181.656  1.00  0.00     0.293 HD
ENDBRANCH   8  28
TORSDOF 7
ENDMDL
MODEL 4
REMARK VINA RESULT:    -5.871      2.807      5.074
REMARK INTER + INTRA:          -7.574
REMARK INTER:                  -7.258
REMARK INTRA:                  -0.315
REMARK UNBOUND:                -0.329
REMARK SMILES O=c1c(O)c(-c2cc(O)c(O)c(O)c2)oc2cc(O)cc(O)c12
REMARK SMILES IDX 5 1 3 2 2 3 1 4 23 5 21 6 20 7 18 8 17 9 16 10 15 11 6 12
REMARK SMILES IDX 7 13 8 14 14 15 10 16 12 17 9 18 11 20 13 22 4 24 22 26
REMARK SMILES IDX 19 28
REMARK H PARENT 9 19 11 21 13 23 4 25 22 27 19 29
REMARK Flexibility Score: inf
ROOT
ATOM      1  C   UNL     1     168.593 176.859 173.520  1.00  0.00     0.180 A 
ATOM      2  C   UNL     1     169.327 177.891 172.910  1.00  0.00     0.208 A 
ATOM      3  C   UNL     1     170.708 177.978 173.148  1.00  0.00     0.238 A 
ATOM      4  O   UNL     1     171.349 178.936 172.643  1.00  0.00    -0.285 OA
ATOM      5  C   UNL     1     171.340 177.023 173.980  1.00  0.00     0.111 A 
ATOM      6  C   UNL     1     172.741 176.993 174.258  1.00  0.00     0.134 A 
ATOM      7  C   UNL     1     173.237 176.082 175.199  1.00  0.00     0.093 A 
ATOM      8  C   UNL     1     172.398 175.159 175.822  1.00  0.00     0.123 A 
ATOM      9  C   UNL     1     171.037 175.142 175.512  1.00  0.00     0.094 A 
ATOM     10  C   UNL     1     170.505 176.062 174.605  1.00  0.00     0.146 A 
ATOM     11  O   UNL     1     169.204 176.019 174.347  1.00  0.00    -0.452 OA
ENDROOT
BRANCH   1  12
ATOM     12  C   UNL     1     167.140 176.688 173.298  1.00  0.00     0.029 A 
ATOM     13  C   UNL     1     166.690 175.729 172.378  1.00  0.00     0.062 A 
ATOM     14  C   UNL     1     165.323 175.560 172.133  1.00  0.00     0.162 A 
ATOM     15  C   UNL     1     166.199 177.507 173.947  1.00  0.00     0.062 A 
ATOM     16  C   UNL     1     164.385 176.367 172.800  1.00  0.00     0.200 A 
ATOM     17  C   UNL     1     164.828 177.346 173.706  1.00  0.00     0.162 A 
BRANCH  14  18
ATOM     18  O   UNL     1     164.916 174.586 171.221  1.00  0.00    -0.504 OA
ATOM     19  H   UNL     1     164.033 174.098 171.313  1.00  0.00     0.293 HD
ENDBRANCH  14  18
BRANCH  16  20
ATOM     20  O   UNL     1     163.023 176.191 172.552  1.00  0.00    -0.502 OA
ATOM     21  H   UNL     1     162.311 176.683 173.077  1.00  0.00     0.293 HD
ENDBRANCH  16  20
BRANCH  17  22
ATOM     22  O   UNL     1     163.904 178.160 174.360  1.00  0.00    -0.504 OA
ATOM     23  H   UNL     1     163.433 178.919 173.882  1.00  0.00     0.293 HD
ENDBRANCH  17  22
ENDBRANCH   1  12
BRANCH   2  24
ATOM     24  O   UNL     1     168.678 178.837 172.110  1.00  0.00    -0.502 OA
ATOM     25  H   UNL     1     168.621 179.816 172.363  1.00  0.00     0.293 HD
ENDBRANCH   2  24
BRANCH   6  26
ATOM     26  O   UNL     1     173.681 177.808 173.623  1.00  0.00    -0.507 OA
ATOM     27  H   UNL     1     173.613 178.812 173.547  1.00  0.00     0.293 HD
ENDBRANCH   6  26
BRANCH   8  28
ATOM     28  O   UNL     1     172.928 174.257 176.741  1.00  0.00    -0.508 OA
ATOM     29  H   UNL     1     172.513 174.126 177.656  1.00  0.00     0.293 HD
ENDBRANCH   8  28
TORSDOF 7
ENDMDL
MODEL 5
REMARK VINA RESULT:    -5.794      4.223      7.027
REMARK INTER + INTRA:          -7.478
REMARK INTER:                  -7.160
REMARK INTRA:                  -0.318
REMARK UNBOUND:                -0.329
REMARK SMILES O=c1c(O)c(-c2cc(O)c(O)c(O)c2)oc2cc(O)cc(O)c12
REMARK SMILES IDX 5 1 3 2 2 3 1 4 23 5 21 6 20 7 18 8 17 9 16 10 15 11 6 12
REMARK SMILES IDX 7 13 8 14 14 15 10 16 12 17 9 18 11 20 13 22 4 24 22 26
REMARK SMILES IDX 19 28
REMARK H PARENT 9 19 11 21 13 23 4 25 22 27 19 29
REMARK Flexibility Score: inf
ROOT
ATOM      1  C   UNL     1     174.177 171.427 176.577  1.00  0.00     0.180 A 
ATOM      2  C   UNL     1     173.999 170.070 176.255  1.00  0.00     0.208 A 
ATOM      3  C   UNL     1     174.686 169.537 175.151  1.00  0.00     0.238 A 
ATOM      4  O   UNL     1     174.480 168.336 174.835  1.00  0.00    -0.285 OA
ATOM      5  C   UNL     1     175.554 170.362 174.396  1.00  0.00     0.111 A 
ATOM      6  C   UNL     1     176.330 169.916 173.283  1.00  0.00     0.134 A 
ATOM      7  C   UNL     1     177.053 170.849 172.530  1.00  0.00     0.093 A 
ATOM      8  C   UNL     1     177.082 172.196 172.885  1.00  0.00     0.123 A 
ATOM      9  C   UNL     1     176.375 172.632 174.006  1.00  0.00     0.094 A 
ATOM     10  C   UNL     1     175.614 171.732 174.757  1.00  0.00     0.146 A 
ATOM     11  O   UNL     1     174.946 172.189 175.810  1.00  0.00    -0.452 OA
ENDROOT
BRANCH   1  12
ATOM     12  C   UNL     1     173.507 172.055 177.739  1.00  0.00     0.029 A 
ATOM     13  C   UNL     1     174.218 172.227 178.936  1.00  0.00     0.062 A 
ATOM     14  C   UNL     1     173.603 172.799 180.055  1.00  0.00     0.162 A 
ATOM     15  C   UNL     1     172.153 172.430 177.687  1.00  0.00     0.062 A 
ATOM     16  C   UNL     1     172.256 173.192 179.992  1.00  0.00     0.200 A 
ATOM     17  C   UNL     1     171.529 173.001 178.803  1.00  0.00     0.162 A 
BRANCH  14  18
ATOM     18  O   UNL     1     174.349 172.966 181.222  1.00  0.00    -0.504 OA
ATOM     19  H   UNL     1     174.476 172.218 181.892  1.00  0.00     0.293 HD
ENDBRANCH  14  18
BRANCH  16  20
ATOM     20  O   UNL     1     171.651 173.763 181.112  1.00  0.00    -0.502 OA
ATOM     21  H   UNL     1     171.097 174.609 181.054  1.00  0.00     0.293 HD
ENDBRANCH  16  20
BRANCH  17  22
ATOM     22  O   UNL     1     170.188 173.375 178.739  1.00  0.00    -0.504 OA
ATOM     23  H   UNL     1     169.884 174.309 178.988  1.00  0.00     0.293 HD
ENDBRANCH  17  22
ENDBRANCH   1  12
BRANCH   2  24
ATOM     24  O   UNL     1     173.120 169.280 177.000  1.00  0.00    -0.502 OA
ATOM     25  H   UNL     1     172.502 169.667 177.703  1.00  0.00     0.293 HD
ENDBRANCH   2  24
BRANCH   6  26
ATOM     26  O   UNL     1     176.444 168.578 172.898  1.00  0.00    -0.507 OA
ATOM     27  H   UNL     1     177.066 168.238 172.180  1.00  0.00     0.293 HD
ENDBRANCH   6  26
BRANCH   8  28
ATOM     28  O   UNL     1     177.826 173.093 172.122  1.00  0.00    -0.508 OA
ATOM     29  H   UNL     1     178.797 172.916 171.892  1.00  0.00     0.293 HD
ENDBRANCH   8  28
TORSDOF 7
ENDMDL
MODEL 6
REMARK VINA RESULT:    -5.778      1.449      7.031
REMARK INTER + INTRA:          -7.459
REMARK INTER:                  -7.106
REMARK INTRA:                  -0.352
REMARK UNBOUND:                -0.329
REMARK SMILES O=c1c(O)c(-c2cc(O)c(O)c(O)c2)oc2cc(O)cc(O)c12
REMARK SMILES IDX 5 1 3 2 2 3 1 4 23 5 21 6 20 7 18 8 17 9 16 10 15 11 6 12
REMARK SMILES IDX 7 13 8 14 14 15 10 16 12 17 9 18 11 20 13 22 4 24 22 26
REMARK SMILES IDX 19 28
REMARK H PARENT 9 19 11 21 13 23 4 25 22 27 19 29
REMARK Flexibility Score: inf
ROOT
ATOM      1  C   UNL     1     172.231 174.873 176.514  1.00  0.00     0.180 A 
ATOM      2  C   UNL     1     172.265 176.253 176.249  1.00  0.00     0.208 A 
ATOM      3  C   UNL     1     171.586 176.747 175.123  1.00  0.00     0.238 A 
ATOM      4  O   UNL     1     171.665 177.975 174.860  1.00  0.00    -0.285 OA
ATOM      5  C   UNL     1     170.870 175.858 174.286  1.00  0.00     0.111 A 
ATOM      6  C   UNL     1     170.114 176.254 173.142  1.00  0.00     0.134 A 
ATOM      7  C   UNL     1     169.554 175.275 172.312  1.00  0.00     0.093 A 
ATOM      8  C   UNL     1     169.665 173.920 172.620  1.00  0.00     0.123 A 
ATOM      9  C   UNL     1     170.352 173.525 173.769  1.00  0.00     0.094 A 
ATOM     10  C   UNL     1     170.953 174.476 174.597  1.00  0.00     0.146 A 
ATOM     11  O   UNL     1     171.606 174.058 175.674  1.00  0.00    -0.452 OA
ENDROOT
BRANCH   1  12
ATOM     12  C   UNL     1     172.901 174.282 177.695  1.00  0.00     0.029 A 
ATOM     13  C   UNL     1     172.184 174.128 178.891  1.00  0.00     0.062 A 
ATOM     14  C   UNL     1     172.798 173.590 180.027  1.00  0.00     0.162 A 
ATOM     15  C   UNL     1     174.260 173.924 177.661  1.00  0.00     0.062 A 
ATOM     16  C   UNL     1     174.151 173.214 179.983  1.00  0.00     0.200 A 
ATOM     17  C   UNL     1     174.884 173.386 178.795  1.00  0.00     0.162 A 
BRANCH  14  18
ATOM     18  O   UNL     1     172.047 173.440 181.192  1.00  0.00    -0.504 OA
ATOM     19  H   UNL     1     171.154 172.962 181.200  1.00  0.00     0.293 HD
ENDBRANCH  14  18
BRANCH  16  20
ATOM     20  O   UNL     1     174.755 172.677 181.120  1.00  0.00    -0.502 OA
ATOM     21  H   UNL     1     174.231 172.463 181.960  1.00  0.00     0.293 HD
ENDBRANCH  16  20
BRANCH  17  22
ATOM     22  O   UNL     1     176.230 173.029 178.748  1.00  0.00    -0.504 OA
ATOM     23  H   UNL     1     176.962 173.724 178.658  1.00  0.00     0.293 HD
ENDBRANCH  17  22
ENDBRANCH   1  12
BRANCH   2  24
ATOM     24  O   UNL     1     172.996 177.111 177.076  1.00  0.00    -0.502 OA
ATOM     25  H   UNL     1     172.612 177.972 177.443  1.00  0.00     0.293 HD
ENDBRANCH   2  24
BRANCH   6  26
ATOM     26  O   UNL     1     169.863 177.584 172.794  1.00  0.00    -0.507 OA
ATOM     27  H   UNL     1     169.016 177.915 172.359  1.00  0.00     0.293 HD
ENDBRANCH   6  26
BRANCH   8  28
ATOM     28  O   UNL     1     169.081 172.974 171.781  1.00  0.00    -0.508 OA
ATOM     29  H   UNL     1     168.362 173.228 171.114  1.00  0.00     0.293 HD
ENDBRANCH   8  28
TORSDOF 7
ENDMDL
MODEL 7
REMARK VINA RESULT:    -5.746      1.966      2.485
REMARK INTER + INTRA:          -7.419
REMARK INTER:                  -7.098
REMARK INTRA:                  -0.322
REMARK UNBOUND:                -0.329
REMARK SMILES O=c1c(O)c(-c2cc(O)c(O)c(O)c2)oc2cc(O)cc(O)c12
REMARK SMILES IDX 5 1 3 2 2 3 1 4 23 5 21 6 20 7 18 8 17 9 16 10 15 11 6 12
REMARK SMILES IDX 7 13 8 14 14 15 10 16 12 17 9 18 11 20 13 22 4 24 22 26
REMARK SMILES IDX 19 28
REMARK H PARENT 9 19 11 21 13 23 4 25 22 27 19 29
REMARK Flexibility Score: inf
ROOT
ATOM      1  C   UNL     1     171.926 174.876 175.674  1.00  0.00     0.180 A 
ATOM      2  C   UNL     1     172.247 173.698 174.978  1.00  0.00     0.208 A 
ATOM      3  C   UNL     1     172.812 172.622 175.683  1.00  0.00     0.238 A 
ATOM      4  O   UNL     1     173.147 171.591 175.044  1.00  0.00    -0.285 OA
ATOM      5  C   UNL     1     173.032 172.732 177.076  1.00  0.00     0.111 A 
ATOM      6  C   UNL     1     173.561 171.690 177.897  1.00  0.00     0.134 A 
ATOM      7  C   UNL     1     173.859 171.954 179.240  1.00  0.00     0.093 A 
ATOM      8  C   UNL     1     173.587 173.197 179.808  1.00  0.00     0.123 A 
ATOM      9  C   UNL     1     173.015 174.204 179.029  1.00  0.00     0.094 A 
ATOM     10  C   UNL     1     172.740 173.983 177.677  1.00  0.00     0.146 A 
ATOM     11  O   UNL     1     172.206 174.971 176.968  1.00  0.00    -0.452 OA
ENDROOT
BRANCH   1  12
ATOM     12  C   UNL     1     171.306 176.042 175.006  1.00  0.00     0.029 A 
ATOM     13  C   UNL     1     169.919 176.233 175.093  1.00  0.00     0.062 A 
ATOM     14  C   UNL     1     169.305 177.315 174.454  1.00  0.00     0.162 A 
ATOM     15  C   UNL     1     172.072 176.935 174.234  1.00  0.00     0.062 A 
ATOM     16  C   UNL     1     170.077 178.216 173.702  1.00  0.00     0.200 A 
ATOM     17  C   UNL     1     171.465 178.020 173.590  1.00  0.00     0.162 A 
BRANCH  14  18
ATOM     18  O   UNL     1     167.925 177.476 174.577  1.00  0.00    -0.504 OA
ATOM     19  H   UNL     1     167.267 176.853 174.125  1.00  0.00     0.293 HD
ENDBRANCH  14  18
BRANCH  16  20
ATOM     20  O   UNL     1     169.457 179.294 173.069  1.00  0.00    -0.502 OA
ATOM     21  H   UNL     1     169.345 179.338 172.063  1.00  0.00     0.293 HD
ENDBRANCH  16  20
BRANCH  17  22
ATOM     22  O   UNL     1     172.234 178.902 172.832  1.00  0.00    -0.504 OA
ATOM     23  H   UNL     1     172.336 178.792 171.830  1.00  0.00     0.293 HD
ENDBRANCH  17  22
ENDBRANCH   1  12
BRANCH   2  24
ATOM     24  O   UNL     1     172.042 173.619 173.597  1.00  0.00    -0.502 OA
ATOM     25  H   UNL     1     171.117 173.581 173.186  1.00  0.00     0.293 HD
ENDBRANCH   2  24
BRANCH   6  26
ATOM     26  O   UNL     1     173.784 170.384 177.453  1.00  0.00    -0.507 OA
ATOM     27  H   UNL     1     174.693 169.971 177.314  1.00  0.00     0.293 HD
ENDBRANCH   6  26
BRANCH   8  28
ATOM     28  O   UNL     1     173.882 173.419 181.151  1.00  0.00    -0.508 OA
ATOM     29  H   UNL     1     174.836 173.535 181.473  1.00  0.00     0.293 HD
ENDBRANCH   8  28
TORSDOF 7
ENDMDL
MODEL 8
REMARK VINA RESULT:    -5.744      2.639      7.812
REMARK INTER + INTRA:          -7.417
REMARK INTER:                  -7.077
REMARK INTRA:                  -0.340
REMARK UNBOUND:                -0.329
REMARK SMILES O=c1c(O)c(-c2cc(O)c(O)c(O)c2)oc2cc(O)cc(O)c12
REMARK SMILES IDX 5 1 3 2 2 3 1 4 23 5 21 6 20 7 18 8 17 9 16 10 15 11 6 12
REMARK SMILES IDX 7 13 8 14 14 15 10 16 12 17 9 18 11 20 13 22 4 24 22 26
REMARK SMILES IDX 19 28
REMARK H PARENT 9 19 11 21 13 23 4 25 22 27 19 29
REMARK Flexibility Score: inf
ROOT
ATOM      1  C   UNL     1     169.237 175.587 173.683  1.00  0.00     0.180 A 
ATOM      2  C   UNL     1     168.859 174.498 172.878  1.00  0.00     0.208 A 
ATOM      3  C   UNL     1     167.534 174.417 172.419  1.00  0.00     0.238 A 
ATOM      4  O   UNL     1     167.189 173.412 171.744  1.00  0.00    -0.285 OA
ATOM      5  C   UNL     1     166.609 175.434 172.756  1.00  0.00     0.111 A 
ATOM      6  C   UNL     1     165.252 175.474 172.313  1.00  0.00     0.134 A 
ATOM      7  C   UNL     1     164.391 176.457 172.815  1.00  0.00     0.093 A 
ATOM      8  C   UNL     1     164.851 177.439 173.691  1.00  0.00     0.123 A 
ATOM      9  C   UNL     1     166.190 177.444 174.084  1.00  0.00     0.094 A 
ATOM     10  C   UNL     1     167.065 176.455 173.629  1.00  0.00     0.146 A 
ATOM     11  O   UNL     1     168.329 176.488 174.036  1.00  0.00    -0.452 OA
ENDROOT
BRANCH   1  12
ATOM     12  C   UNL     1     170.619 175.753 174.184  1.00  0.00     0.029 A 
ATOM     13  C   UNL     1     171.014 175.092 175.357  1.00  0.00     0.062 A 
ATOM     14  C   UNL     1     172.308 175.248 175.865  1.00  0.00     0.162 A 
ATOM     15  C   UNL     1     171.532 176.609 173.542  1.00  0.00     0.062 A 
ATOM     16  C   UNL     1     173.223 176.087 175.207  1.00  0.00     0.200 A 
ATOM     17  C   UNL     1     172.830 176.772 174.044  1.00  0.00     0.162 A 
BRANCH  14  18
ATOM     18  O   UNL     1     172.664 174.562 177.025  1.00  0.00    -0.504 OA
ATOM     19  H   UNL     1     173.194 175.000 177.769  1.00  0.00     0.293 HD
ENDBRANCH  14  18
BRANCH  16  20
ATOM     20  O   UNL     1     174.513 176.236 175.719  1.00  0.00    -0.502 OA
ATOM     21  H   UNL     1     174.689 176.372 176.707  1.00  0.00     0.293 HD
ENDBRANCH  16  20
BRANCH  17  22
ATOM     22  O   UNL     1     173.728 177.618 173.395  1.00  0.00    -0.504 OA
ATOM     23  H   UNL     1     174.634 177.290 173.081  1.00  0.00     0.293 HD
ENDBRANCH  17  22
ENDBRANCH   1  12
BRANCH   2  24
ATOM     24  O   UNL     1     169.783 173.493 172.576  1.00  0.00    -0.502 OA
ATOM     25  H   UNL     1     169.518 172.630 172.118  1.00  0.00     0.293 HD
ENDBRANCH   2  24
BRANCH   6  26
ATOM     26  O   UNL     1     164.714 174.596 171.368  1.00  0.00    -0.507 OA
ATOM     27  H   UNL     1     163.943 174.813 170.756  1.00  0.00     0.293 HD
ENDBRANCH   6  26
BRANCH   8  28
ATOM     28  O   UNL     1     163.971 178.412 174.158  1.00  0.00    -0.508 OA
ATOM     29  H   UNL     1     163.555 179.094 173.534  1.00  0.00     0.293 HD
ENDBRANCH   8  28
TORSDOF 7
ENDMDL
MODEL 9
REMARK VINA RESULT:    -5.697      1.713      7.169
REMARK INTER + INTRA:          -7.358
REMARK INTER:                  -7.062
REMARK INTRA:                  -0.296
REMARK UNBOUND:                -0.329
REMARK SMILES O=c1c(O)c(-c2cc(O)c(O)c(O)c2)oc2cc(O)cc(O)c12
REMARK SMILES IDX 5 1 3 2 2 3 1 4 23 5 21 6 20 7 18 8 17 9 16 10 15 11 6 12
REMARK SMILES IDX 7 13 8 14 14 15 10 16 12 17 9 18 11 20 13 22 4 24 22 26
REMARK SMILES IDX 19 28
REMARK H PARENT 9 19 11 21 13 23 4 25 22 27 19 29
REMARK Flexibility Score: inf
ROOT
ATOM      1  C   UNL     1     172.196 174.544 176.606  1.00  0.00     0.180 A 
ATOM      2  C   UNL     1     171.320 173.692 175.912  1.00  0.00     0.208 A 
ATOM      3  C   UNL     1     170.753 174.134 174.706  1.00  0.00     0.238 A 
ATOM      4  O   UNL     1     169.927 173.388 174.117  1.00  0.00    -0.285 OA
ATOM      5  C   UNL     1     171.082 175.414 174.200  1.00  0.00     0.111 A 
ATOM      6  C   UNL     1     170.598 175.948 172.968  1.00  0.00     0.134 A 
ATOM      7  C   UNL     1     170.885 177.276 172.631  1.00  0.00     0.093 A 
ATOM      8  C   UNL     1     171.691 178.069 173.447  1.00  0.00     0.123 A 
ATOM      9  C   UNL     1     172.219 177.538 174.625  1.00  0.00     0.094 A 
ATOM     10  C   UNL     1     171.920 176.228 175.006  1.00  0.00     0.146 A 
ATOM     11  O   UNL     1     172.433 175.764 176.140  1.00  0.00    -0.452 OA
ENDROOT
BRANCH   1  12
ATOM     12  C   UNL     1     172.851 174.140 177.871  1.00  0.00     0.029 A 
ATOM     13  C   UNL     1     174.191 173.727 177.854  1.00  0.00     0.062 A 
ATOM     14  C   UNL     1     174.829 173.320 179.030  1.00  0.00     0.162 A 
ATOM     15  C   UNL     1     172.140 174.105 179.084  1.00  0.00     0.062 A 
ATOM     16  C   UNL     1     174.121 173.307 180.244  1.00  0.00     0.200 A 
ATOM     17  C   UNL     1     172.770 173.697 180.267  1.00  0.00     0.162 A 
BRANCH  14  18
ATOM     18  O   UNL     1     176.167 172.931 178.973  1.00  0.00    -0.504 OA
ATOM     19  H   UNL     1     176.501 172.249 178.303  1.00  0.00     0.293 HD
ENDBRANCH  14  18
BRANCH  16  20
ATOM     20  O   UNL     1     174.765 172.902 181.414  1.00  0.00    -0.502 OA
ATOM     21  H   UNL     1     174.324 172.287 182.087  1.00  0.00     0.293 HD
ENDBRANCH  16  20
BRANCH  17  22
ATOM     22  O   UNL     1     172.057 173.672 181.465  1.00  0.00    -0.504 OA
ATOM     23  H   UNL     1     171.186 173.163 181.554  1.00  0.00     0.293 HD
ENDBRANCH  17  22
ENDBRANCH   1  12
BRANCH   2  24
ATOM     24  O   UNL     1     170.990 172.440 176.440  1.00  0.00    -0.502 OA
ATOM     25  H   UNL     1     170.032 172.127 176.542  1.00  0.00     0.293 HD
ENDBRANCH   2  24
BRANCH   6  26
ATOM     26  O   UNL     1     169.861 175.213 172.035  1.00  0.00    -0.507 OA
ATOM     27  H   UNL     1     170.085 175.139 171.054  1.00  0.00     0.293 HD
ENDBRANCH   6  26
BRANCH   8  28
ATOM     28  O   UNL     1     171.970 179.381 173.072  1.00  0.00    -0.508 OA
ATOM     29  H   UNL     1     171.975 180.136 173.749  1.00  0.00     0.293 HD
ENDBRANCH   8  28
TORSDOF 7
ENDMDL
