MODEL 1
REMARK VINA RESULT:    -4.290      0.000      0.000
REMARK INTER + INTRA:          -5.597
REMARK INTER:                  -5.168
REMARK INTRA:                  -0.429
REMARK UNBOUND:                -0.429
REMARK SMILES CCCCc1oc(O)c2ccccc12
REMARK SMILES IDX 4 1 5 2 7 3 6 4 9 5 14 6 10 7 13 8 11 9 12 10 8 11 3 13 2 14
REMARK SMILES IDX 1 15
REMARK H PARENT 8 12
REMARK Flexibility Score: inf
ROOT
ATOM      1  C   UNL     1      25.761 -20.152  70.750  1.00  0.00     0.076 C 
ENDROOT
BRANCH   1   2
ATOM      2  C   UNL     1      25.211 -19.354  71.892  1.00  0.00     0.116 A 
ATOM      3  C   UNL     1      25.159 -18.166  73.675  1.00  0.00     0.290 A 
ATOM      4  O   UNL     1      25.956 -18.755  72.805  1.00  0.00    -0.430 OA
ATOM      5  C   UNL     1      23.846 -18.386  73.329  1.00  0.00     0.066 A 
ATOM      6  C   UNL     1      23.875 -19.147  72.191  1.00  0.00     0.027 A 
ATOM      7  C   UNL     1      22.650 -17.989  73.924  1.00  0.00     0.016 A 
ATOM      8  C   UNL     1      22.705 -19.571  71.563  1.00  0.00     0.012 A 
ATOM      9  C   UNL     1      21.451 -18.398  73.311  1.00  0.00     0.001 A 
ATOM     10  C   UNL     1      21.478 -19.185  72.137  1.00  0.00     0.001 A 
BRANCH   3  11
ATOM     11  O   UNL     1      25.598 -17.438  74.775  1.00  0.00    -0.480 OA
ATOM     12  H   UNL     1      25.514 -17.819  75.709  1.00  0.00     0.297 HD
ENDBRANCH   3  11
ENDBRANCH   1   2
BRANCH   1  13
ATOM     13  C   UNL     1      26.721 -19.300  69.914  1.00  0.00     0.008 C 
BRANCH  13  14
ATOM     14  C   UNL     1      26.010 -18.067  69.347  1.00  0.00    -0.003 C 
ATOM     15  C   UNL     1      26.589 -16.780  69.925  1.00  0.00     0.004 C 
ENDBRANCH  13  14
ENDBRANCH   1  13
TORSDOF 4
ENDMDL
MODEL 2
REMARK VINA RESULT:    -4.197      1.276      4.250
REMARK INTER + INTRA:          -5.485
REMARK INTER:                  -5.259
REMARK INTRA:                  -0.227
REMARK UNBOUND:                -0.429
REMARK SMILES CCCCc1oc(O)c2ccccc12
REMARK SMILES IDX 4 1 5 2 7 3 6 4 9 5 14 6 10 7 13 8 11 9 12 10 8 11 3 13 2 14
REMARK SMILES IDX 1 15
REMARK H PARENT 8 12
REMARK Flexibility Score: inf
ROOT
ATOM      1  C   UNL     1      22.522 -20.335  72.824  1.00  0.00     0.076 C 
ENDROOT
BRANCH   1   2
ATOM      2  C   UNL     1      23.733 -19.464  72.962  1.00  0.00     0.116 A 
ATOM      3  C   UNL     1      25.231 -18.231  73.874  1.00  0.00     0.290 A 
ATOM      4  O   UNL     1      24.166 -18.972  74.110  1.00  0.00    -0.430 OA
ATOM      5  C   UNL     1      25.509 -18.230  72.527  1.00  0.00     0.066 A 
ATOM      6  C   UNL     1      24.552 -19.014  71.940  1.00  0.00     0.027 A 
ATOM      7  C   UNL     1      26.508 -17.602  71.785  1.00  0.00     0.016 A 
ATOM      8  C   UNL     1      24.523 -19.228  70.562  1.00  0.00     0.012 A 
ATOM      9  C   UNL     1      26.507 -17.801  70.392  1.00  0.00     0.001 A 
ATOM     10  C   UNL     1      25.520 -18.609  69.784  1.00  0.00     0.001 A 
BRANCH   3  11
ATOM     11  O   UNL     1      25.951 -17.556  74.853  1.00  0.00    -0.480 OA
ATOM     12  H   UNL     1      25.599 -16.691  75.243  1.00  0.00     0.297 HD
ENDBRANCH   3  11
ENDBRANCH   1   2
BRANCH   1  13
ATOM     13  C   UNL     1      21.274 -19.484  72.578  1.00  0.00     0.008 C 
BRANCH  13  14
ATOM     14  C   UNL     1      21.098 -18.435  73.681  1.00  0.00    -0.003 C 
ATOM     15  C   UNL     1      20.774 -19.092  75.019  1.00  0.00     0.004 C 
ENDBRANCH  13  14
ENDBRANCH   1  13
TORSDOF 4
ENDMDL
MODEL 3
REMARK VINA RESULT:    -4.169      4.874      7.801
REMARK INTER + INTRA:          -5.452
REMARK INTER:                  -5.166
REMARK INTRA:                  -0.286
REMARK UNBOUND:                -0.429
REMARK SMILES CCCCc1oc(O)c2ccccc12
REMARK SMILES IDX 4 1 5 2 7 3 6 4 9 5 14 6 10 7 13 8 11 9 12 10 8 11 3 13 2 14
REMARK SMILES IDX 1 15
REMARK H PARENT 8 12
REMARK Flexibility Score: inf
ROOT
ATOM      1  C   UNL     1      19.332 -19.120  78.419  1.00  0.00     0.076 C 
ENDROOT
BRANCH   1   2
ATOM      2  C   UNL     1      19.995 -19.153  77.076  1.00  0.00     0.116 A 
ATOM      3  C   UNL     1      20.959 -18.460  75.291  1.00  0.00     0.290 A 
ATOM      4  O   UNL     1      20.466 -18.085  76.455  1.00  0.00    -0.430 OA
ATOM      5  C   UNL     1      20.806 -19.818  75.136  1.00  0.00     0.066 A 
ATOM      6  C   UNL     1      20.188 -20.264  76.273  1.00  0.00     0.027 A 
ATOM      7  C   UNL     1      21.150 -20.678  74.094  1.00  0.00     0.016 A 
ATOM      8  C   UNL     1      19.865 -21.609  76.453  1.00  0.00     0.012 A 
ATOM      9  C   UNL     1      20.839 -22.043  74.247  1.00  0.00     0.001 A 
ATOM     10  C   UNL     1      20.201 -22.506  75.420  1.00  0.00     0.001 A 
BRANCH   3  11
ATOM     11  O   UNL     1      21.540 -17.597  74.369  1.00  0.00    -0.480 OA
ATOM     12  H   UNL     1      21.331 -16.607  74.392  1.00  0.00     0.297 HD
ENDBRANCH   3  11
ENDBRANCH   1   2
BRANCH   1  13
ATOM     13  C   UNL     1      17.829 -18.871  78.268  1.00  0.00     0.008 C 
BRANCH  13  14
ATOM     14  C   UNL     1      17.525 -17.371  78.193  1.00  0.00    -0.003 C 
ATOM     15  C   UNL     1      16.106 -17.071  78.667  1.00  0.00     0.004 C 
ENDBRANCH  13  14
ENDBRANCH   1  13
TORSDOF 4
ENDMDL
MODEL 4
REMARK VINA RESULT:    -4.140     12.717     14.110
REMARK INTER + INTRA:          -5.417
REMARK INTER:                  -5.074
REMARK INTRA:                  -0.343
REMARK UNBOUND:                -0.429
REMARK SMILES CCCCc1oc(O)c2ccccc12
REMARK SMILES IDX 4 1 5 2 7 3 6 4 9 5 14 6 10 7 13 8 11 9 12 10 8 11 3 13 2 14
REMARK SMILES IDX 1 15
REMARK H PARENT 8 12
REMARK Flexibility Score: inf
ROOT
ATOM      1  C   UNL     1      13.222 -22.479  75.680  1.00  0.00     0.076 C 
ENDROOT
BRANCH   1   2
ATOM      2  C   UNL     1      12.721 -21.304  76.463  1.00  0.00     0.116 A 
ATOM      3  C   UNL     1      12.122 -19.296  76.915  1.00  0.00     0.290 A 
ATOM      4  O   UNL     1      12.546 -20.096  75.956  1.00  0.00    -0.430 OA
ATOM      5  C   UNL     1      12.016 -19.997  78.094  1.00  0.00     0.066 A 
ATOM      6  C   UNL     1      12.401 -21.280  77.810  1.00  0.00     0.027 A 
ATOM      7  C   UNL     1      11.627 -19.607  79.374  1.00  0.00     0.016 A 
ATOM      8  C   UNL     1      12.425 -22.272  78.789  1.00  0.00     0.012 A 
ATOM      9  C   UNL     1      11.638 -20.587  80.384  1.00  0.00     0.001 A 
ATOM     10  C   UNL     1      12.035 -21.912  80.094  1.00  0.00     0.001 A 
BRANCH   3  11
ATOM     11  O   UNL     1      11.833 -17.947  76.743  1.00  0.00    -0.480 OA
ATOM     12  H   UNL     1      11.413 -17.413  77.493  1.00  0.00     0.297 HD
ENDBRANCH   3  11
ENDBRANCH   1   2
BRANCH   1  13
ATOM     13  C   UNL     1      12.089 -23.478  75.429  1.00  0.00     0.008 C 
BRANCH  13  14
ATOM     14  C   UNL     1      12.401 -24.836  76.066  1.00  0.00    -0.003 C 
ATOM     15  C   UNL     1      11.272 -25.833  75.823  1.00  0.00     0.004 C 
ENDBRANCH  13  14
ENDBRANCH   1  13
TORSDOF 4
ENDMDL
MODEL 5
REMARK VINA RESULT:    -3.994      1.608      2.243
REMARK INTER + INTRA:          -5.240
REMARK INTER:                  -4.811
REMARK INTRA:                  -0.429
REMARK UNBOUND:                -0.429
REMARK SMILES CCCCc1oc(O)c2ccccc12
REMARK SMILES IDX 4 1 5 2 7 3 6 4 9 5 14 6 10 7 13 8 11 9 12 10 8 11 3 13 2 14
REMARK SMILES IDX 1 15
REMARK H PARENT 8 12
REMARK Flexibility Score: inf
ROOT
ATOM      1  C   UNL     1      26.072 -18.674  72.605  1.00  0.00     0.076 C 
ENDROOT
BRANCH   1   2
ATOM      2  C   UNL     1      24.589 -18.649  72.815  1.00  0.00     0.116 A 
ATOM      3  C   UNL     1      22.685 -18.144  73.662  1.00  0.00     0.290 A 
ATOM      4  O   UNL     1      23.982 -17.911  73.728  1.00  0.00    -0.430 OA
ATOM      5  C   UNL     1      22.428 -19.069  72.676  1.00  0.00     0.066 A 
ATOM      6  C   UNL     1      23.642 -19.396  72.135  1.00  0.00     0.027 A 
ATOM      7  C   UNL     1      21.239 -19.643  72.230  1.00  0.00     0.016 A 
ATOM      8  C   UNL     1      23.757 -20.327  71.103  1.00  0.00     0.012 A 
ATOM      9  C   UNL     1      21.322 -20.585  71.187  1.00  0.00     0.001 A 
ATOM     10  C   UNL     1      22.574 -20.925  70.627  1.00  0.00     0.001 A 
BRANCH   3  11
ATOM     11  O   UNL     1      21.736 -17.539  74.477  1.00  0.00    -0.480 OA
ATOM     12  H   UNL     1      21.064 -18.100  74.985  1.00  0.00     0.297 HD
ENDBRANCH   3  11
ENDBRANCH   1   2
BRANCH   1  13
ATOM     13  C   UNL     1      26.500 -17.540  71.670  1.00  0.00     0.008 C 
BRANCH  13  14
ATOM     14  C   UNL     1      26.620 -18.034  70.225  1.00  0.00    -0.003 C 
ATOM     15  C   UNL     1      26.184 -16.958  69.235  1.00  0.00     0.004 C 
ENDBRANCH  13  14
ENDBRANCH   1  13
TORSDOF 4
ENDMDL
MODEL 6
REMARK VINA RESULT:    -3.960      2.346      5.241
REMARK INTER + INTRA:          -5.199
REMARK INTER:                  -4.723
REMARK INTRA:                  -0.476
REMARK UNBOUND:                -0.429
REMARK SMILES CCCCc1oc(O)c2ccccc12
REMARK SMILES IDX 4 1 5 2 7 3 6 4 9 5 14 6 10 7 13 8 11 9 12 10 8 11 3 13 2 14
REMARK SMILES IDX 1 15
REMARK H PARENT 8 12
REMARK Flexibility Score: inf
ROOT
ATOM      1  C   UNL     1      20.790 -19.036  73.188  1.00  0.00     0.076 C 
ENDROOT
BRANCH   1   2
ATOM      2  C   UNL     1      21.988 -19.159  72.297  1.00  0.00     0.116 A 
ATOM      3  C   UNL     1      23.179 -19.648  70.583  1.00  0.00     0.290 A 
ATOM      4  O   UNL     1      21.955 -19.663  71.076  1.00  0.00    -0.430 OA
ATOM      5  C   UNL     1      24.048 -19.121  71.510  1.00  0.00     0.066 A 
ATOM      6  C   UNL     1      23.291 -18.809  72.607  1.00  0.00     0.027 A 
ATOM      7  C   UNL     1      25.424 -18.903  71.473  1.00  0.00     0.016 A 
ATOM      8  C   UNL     1      23.858 -18.257  73.755  1.00  0.00     0.012 A 
ATOM      9  C   UNL     1      26.025 -18.344  72.616  1.00  0.00     0.001 A 
ATOM     10  C   UNL     1      25.247 -18.023  73.751  1.00  0.00     0.001 A 
BRANCH   3  11
ATOM     11  O   UNL     1      23.521 -20.105  69.315  1.00  0.00    -0.480 OA
ATOM     12  H   UNL     1      23.871 -19.462  68.616  1.00  0.00     0.297 HD
ENDBRANCH   3  11
ENDBRANCH   1   2
BRANCH   1  13
ATOM     13  C   UNL     1      20.671 -20.261  74.099  1.00  0.00     0.008 C 
BRANCH  13  14
ATOM     14  C   UNL     1      20.406 -19.844  75.549  1.00  0.00    -0.003 C 
ATOM     15  C   UNL     1      20.761 -18.377  75.774  1.00  0.00     0.004 C 
ENDBRANCH  13  14
ENDBRANCH   1  13
TORSDOF 4
ENDMDL
MODEL 7
REMARK VINA RESULT:    -3.923      4.102      5.489
REMARK INTER + INTRA:          -5.156
REMARK INTER:                  -4.640
REMARK INTRA:                  -0.516
REMARK UNBOUND:                -0.429
REMARK SMILES CCCCc1oc(O)c2ccccc12
REMARK SMILES IDX 4 1 5 2 7 3 6 4 9 5 14 6 10 7 13 8 11 9 12 10 8 11 3 13 2 14
REMARK SMILES IDX 1 15
REMARK H PARENT 8 12
REMARK Flexibility Score: inf
ROOT
ATOM      1  C   UNL     1      21.799 -22.024  73.294  1.00  0.00     0.076 C 
ENDROOT
BRANCH   1   2
ATOM      2  C   UNL     1      21.639 -20.663  73.899  1.00  0.00     0.116 A 
ATOM      3  C   UNL     1      21.865 -18.551  74.188  1.00  0.00     0.290 A 
ATOM      4  O   UNL     1      22.181 -19.564  73.404  1.00  0.00    -0.430 OA
ATOM      5  C   UNL     1      21.095 -18.997  75.237  1.00  0.00     0.066 A 
ATOM      6  C   UNL     1      20.951 -20.346  75.057  1.00  0.00     0.027 A 
ATOM      7  C   UNL     1      20.528 -18.330  76.321  1.00  0.00     0.016 A 
ATOM      8  C   UNL     1      20.227 -21.132  75.953  1.00  0.00     0.012 A 
ATOM      9  C   UNL     1      19.789 -19.095  77.242  1.00  0.00     0.001 A 
ATOM     10  C   UNL     1      19.639 -20.489  77.060  1.00  0.00     0.001 A 
BRANCH   3  11
ATOM     11  O   UNL     1      22.265 -17.237  73.974  1.00  0.00    -0.480 OA
ATOM     12  H   UNL     1      23.161 -16.911  74.315  1.00  0.00     0.297 HD
ENDBRANCH   3  11
ENDBRANCH   1   2
BRANCH   1  13
ATOM     13  C   UNL     1      21.011 -22.125  71.985  1.00  0.00     0.008 C 
BRANCH  13  14
ATOM     14  C   UNL     1      19.512 -22.291  72.258  1.00  0.00    -0.003 C 
ATOM     15  C   UNL     1      19.234 -23.563  73.052  1.00  0.00     0.004 C 
ENDBRANCH  13  14
ENDBRANCH   1  13
TORSDOF 4
ENDMDL
MODEL 8
REMARK VINA RESULT:    -3.917      1.736      2.774
REMARK INTER + INTRA:          -5.147
REMARK INTER:                  -4.822
REMARK INTRA:                  -0.325
REMARK UNBOUND:                -0.429
REMARK SMILES CCCCc1oc(O)c2ccccc12
REMARK SMILES IDX 4 1 5 2 7 3 6 4 9 5 14 6 10 7 13 8 11 9 12 10 8 11 3 13 2 14
REMARK SMILES IDX 1 15
REMARK H PARENT 8 12
REMARK Flexibility Score: inf
ROOT
ATOM      1  C   UNL     1      25.984 -18.413  72.480  1.00  0.00     0.076 C 
ENDROOT
BRANCH   1   2
ATOM      2  C   UNL     1      24.680 -18.933  71.955  1.00  0.00     0.116 A 
ATOM      3  C   UNL     1      23.270 -19.861  70.634  1.00  0.00     0.290 A 
ATOM      4  O   UNL     1      24.545 -19.566  70.802  1.00  0.00    -0.430 OA
ATOM      5  C   UNL     1      22.541 -19.405  71.707  1.00  0.00     0.066 A 
ATOM      6  C   UNL     1      23.438 -18.809  72.552  1.00  0.00     0.027 A 
ATOM      7  C   UNL     1      21.178 -19.462  71.995  1.00  0.00     0.016 A 
ATOM      8  C   UNL     1      23.036 -18.220  73.751  1.00  0.00     0.012 A 
ATOM      9  C   UNL     1      20.742 -18.879  73.199  1.00  0.00     0.001 A 
ATOM     10  C   UNL     1      21.666 -18.261  74.072  1.00  0.00     0.001 A 
BRANCH   3  11
ATOM     11  O   UNL     1      22.759 -20.531  69.529  1.00  0.00    -0.480 OA
ATOM     12  H   UNL     1      23.042 -21.483  69.330  1.00  0.00     0.297 HD
ENDBRANCH   3  11
ENDBRANCH   1   2
BRANCH   1  13
ATOM     13  C   UNL     1      27.016 -18.319  71.352  1.00  0.00     0.008 C 
BRANCH  13  14
ATOM     14  C   UNL     1      27.004 -16.927  70.712  1.00  0.00    -0.003 C 
ATOM     15  C   UNL     1      26.399 -16.968  69.312  1.00  0.00     0.004 C 
ENDBRANCH  13  14
ENDBRANCH   1  13
TORSDOF 4
ENDMDL
MODEL 9
REMARK VINA RESULT:    -3.850     10.123     12.557
REMARK INTER + INTRA:          -5.067
REMARK INTER:                  -4.595
REMARK INTRA:                  -0.472
REMARK UNBOUND:                -0.429
REMARK SMILES CCCCc1oc(O)c2ccccc12
REMARK SMILES IDX 4 1 5 2 7 3 6 4 9 5 14 6 10 7 13 8 11 9 12 10 8 11 3 13 2 14
REMARK SMILES IDX 1 15
REMARK H PARENT 8 12
REMARK Flexibility Score: inf
ROOT
ATOM      1  C   UNL     1      15.741 -17.556  79.455  1.00  0.00     0.076 C 
ENDROOT
BRANCH   1   2
ATOM      2  C   UNL     1      14.341 -17.857  79.014  1.00  0.00     0.116 A 
ATOM      3  C   UNL     1      12.242 -17.597  78.664  1.00  0.00     0.290 A 
ATOM      4  O   UNL     1      13.332 -17.009  79.118  1.00  0.00    -0.430 OA
ATOM      5  C   UNL     1      12.539 -18.876  78.252  1.00  0.00     0.066 A 
ATOM      6  C   UNL     1      13.879 -19.047  78.477  1.00  0.00     0.027 A 
ATOM      7  C   UNL     1      11.744 -19.886  77.715  1.00  0.00     0.016 A 
ATOM      8  C   UNL     1      14.525 -20.247  78.181  1.00  0.00     0.012 A 
ATOM      9  C   UNL     1      12.367 -21.109  77.402  1.00  0.00     0.001 A 
ATOM     10  C   UNL     1      13.750 -21.288  77.634  1.00  0.00     0.001 A 
BRANCH   3  11
ATOM     11  O   UNL     1      10.988 -17.000  78.620  1.00  0.00    -0.480 OA
ATOM     12  H   UNL     1      10.714 -16.330  79.328  1.00  0.00     0.297 HD
ENDBRANCH   3  11
ENDBRANCH   1   2
BRANCH   1  13
ATOM     13  C   UNL     1      16.613 -17.184  78.252  1.00  0.00     0.008 C 
BRANCH  13  14
ATOM     14  C   UNL     1      17.905 -18.007  78.234  1.00  0.00    -0.003 C 
ATOM     15  C   UNL     1      17.847 -19.146  79.248  1.00  0.00     0.004 C 
ENDBRANCH  13  14
ENDBRANCH   1  13
TORSDOF 4
ENDMDL
