MODEL 1
REMARK VINA RESULT:    -5.299      0.000      0.000
REMARK INTER + INTRA:          -6.124
REMARK INTER:                  -6.073
REMARK INTRA:                  -0.051
REMARK UNBOUND:                -0.051
REMARK SMILES O=C([O-])c1cc(O)c(O)c(O)c1
REMARK SMILES IDX 4 1 5 2 12 3 6 4 10 5 8 6 2 7 1 8 3 9 7 10 11 12 9 14
REMARK H PARENT 7 11 11 13 9 15
REMARK Flexibility Score: inf
ROOT
ATOM      1  C   UNL     1      30.825 -90.920  37.586  1.00  0.00     0.005 A 
ATOM      2  C   UNL     1      29.522 -90.512  37.911  1.00  0.00     0.060 A 
ATOM      3  C   UNL     1      31.741 -89.963  37.124  1.00  0.00     0.060 A 
ATOM      4  C   UNL     1      29.139 -89.175  37.780  1.00  0.00     0.162 A 
ATOM      5  C   UNL     1      31.374 -88.620  36.986  1.00  0.00     0.162 A 
ATOM      6  C   UNL     1      30.058 -88.216  37.317  1.00  0.00     0.200 A 
ENDROOT
BRANCH   1   7
ATOM      7  C   UNL     1      31.230 -92.336  37.726  1.00  0.00     0.072 C 
ATOM      8  O   UNL     1      32.424 -92.638  37.992  1.00  0.00    -0.545 OA
ATOM      9  O   UNL     1      30.298 -93.354  37.567  1.00  0.00    -0.545 OA
ENDBRANCH   1   7
BRANCH   4  10
ATOM     10  O   UNL     1      27.833 -88.816  38.116  1.00  0.00    -0.504 OA
ATOM     11  H   UNL     1      27.031 -89.371  37.844  1.00  0.00     0.293 HD
ENDBRANCH   4  10
BRANCH   5  12
ATOM     12  O   UNL     1      32.342 -87.728  36.519  1.00  0.00    -0.504 OA
ATOM     13  H   UNL     1      32.344 -87.324  35.595  1.00  0.00     0.293 HD
ENDBRANCH   5  12
BRANCH   6  14
ATOM     14  O   UNL     1      29.633 -86.889  37.199  1.00  0.00    -0.502 OA
ATOM     15  H   UNL     1      30.009 -86.230  36.533  1.00  0.00     0.293 HD
ENDBRANCH   6  14
TORSDOF 4
ENDMDL
MODEL 2
REMARK VINA RESULT:    -5.274      0.061      2.445
REMARK INTER + INTRA:          -6.096
REMARK INTER:                  -6.045
REMARK INTRA:                  -0.051
REMARK UNBOUND:                -0.051
REMARK SMILES O=C([O-])c1cc(O)c(O)c(O)c1
REMARK SMILES IDX 4 1 5 2 12 3 6 4 10 5 8 6 2 7 1 8 3 9 7 10 11 12 9 14
REMARK H PARENT 7 11 11 13 9 15
REMARK Flexibility Score: inf
ROOT
ATOM      1  C   UNL     1      30.860 -90.919  37.577  1.00  0.00     0.005 A 
ATOM      2  C   UNL     1      31.781 -89.970  37.107  1.00  0.00     0.060 A 
ATOM      3  C   UNL     1      29.561 -90.501  37.905  1.00  0.00     0.060 A 
ATOM      4  C   UNL     1      31.415 -88.629  36.965  1.00  0.00     0.162 A 
ATOM      5  C   UNL     1      29.178 -89.162  37.770  1.00  0.00     0.162 A 
ATOM      6  C   UNL     1      30.113 -88.211  37.294  1.00  0.00     0.200 A 
ENDROOT
BRANCH   1   7
ATOM      7  C   UNL     1      31.249 -92.339  37.726  1.00  0.00     0.072 C 
ATOM      8  O   UNL     1      32.441 -92.653  37.989  1.00  0.00    -0.545 OA
ATOM      9  O   UNL     1      30.305 -93.347  37.577  1.00  0.00    -0.545 OA
ENDBRANCH   1   7
BRANCH   4  10
ATOM     10  O   UNL     1      32.365 -87.722  36.493  1.00  0.00    -0.504 OA
ATOM     11  H   UNL     1      32.724 -87.756  35.547  1.00  0.00     0.293 HD
ENDBRANCH   4  10
BRANCH   5  12
ATOM     12  O   UNL     1      27.869 -88.824  38.117  1.00  0.00    -0.504 OA
ATOM     13  H   UNL     1      27.575 -87.899  38.393  1.00  0.00     0.293 HD
ENDBRANCH   5  12
BRANCH   6  14
ATOM     14  O   UNL     1      29.789 -86.860  37.139  1.00  0.00    -0.502 OA
ATOM     15  H   UNL     1      28.846 -86.505  37.088  1.00  0.00     0.293 HD
ENDBRANCH   6  14
TORSDOF 4
ENDMDL
MODEL 3
REMARK VINA RESULT:    -5.015      1.002      4.007
REMARK INTER + INTRA:          -5.799
REMARK INTER:                  -5.746
REMARK INTRA:                  -0.053
REMARK UNBOUND:                -0.051
REMARK SMILES O=C([O-])c1cc(O)c(O)c(O)c1
REMARK SMILES IDX 4 1 5 2 12 3 6 4 10 5 8 6 2 7 1 8 3 9 7 10 11 12 9 14
REMARK H PARENT 7 11 11 13 9 15
REMARK Flexibility Score: inf
ROOT
ATOM      1  C   UNL     1      30.012 -89.531  37.707  1.00  0.00     0.005 A 
ATOM      2  C   UNL     1      29.686 -90.868  37.980  1.00  0.00     0.060 A 
ATOM      3  C   UNL     1      31.327 -89.214  37.330  1.00  0.00     0.060 A 
ATOM      4  C   UNL     1      30.652 -91.874  37.878  1.00  0.00     0.162 A 
ATOM      5  C   UNL     1      32.306 -90.208  37.224  1.00  0.00     0.162 A 
ATOM      6  C   UNL     1      31.969 -91.556  37.499  1.00  0.00     0.200 A 
ENDROOT
BRANCH   1   7
ATOM      7  C   UNL     1      28.989 -88.467  37.816  1.00  0.00     0.072 C 
ATOM      8  O   UNL     1      29.301 -87.258  37.648  1.00  0.00    -0.545 OA
ATOM      9  O   UNL     1      27.668 -88.787  38.104  1.00  0.00    -0.545 OA
ENDBRANCH   1   7
BRANCH   4  10
ATOM     10  O   UNL     1      30.281 -93.189  38.158  1.00  0.00    -0.504 OA
ATOM     11  H   UNL     1      29.767 -93.441  38.993  1.00  0.00     0.293 HD
ENDBRANCH   4  10
BRANCH   5  12
ATOM     12  O   UNL     1      33.590 -89.815  36.843  1.00  0.00    -0.504 OA
ATOM     13  H   UNL     1      34.225 -89.300  37.435  1.00  0.00     0.293 HD
ENDBRANCH   5  12
BRANCH   6  14
ATOM     14  O   UNL     1      32.904 -92.591  37.410  1.00  0.00    -0.502 OA
ATOM     15  H   UNL     1      33.613 -92.656  36.695  1.00  0.00     0.293 HD
ENDBRANCH   6  14
TORSDOF 4
ENDMDL
MODEL 4
REMARK VINA RESULT:    -4.946      1.007      4.600
REMARK INTER + INTRA:          -5.720
REMARK INTER:                  -5.667
REMARK INTRA:                  -0.053
REMARK UNBOUND:                -0.051
REMARK SMILES O=C([O-])c1cc(O)c(O)c(O)c1
REMARK SMILES IDX 4 1 5 2 12 3 6 4 10 5 8 6 2 7 1 8 3 9 7 10 11 12 9 14
REMARK H PARENT 7 11 11 13 9 15
REMARK Flexibility Score: inf
ROOT
ATOM      1  C   UNL     1      29.968 -89.502  37.688  1.00  0.00     0.005 A 
ATOM      2  C   UNL     1      31.286 -89.190  37.322  1.00  0.00     0.060 A 
ATOM      3  C   UNL     1      29.626 -90.844  37.920  1.00  0.00     0.060 A 
ATOM      4  C   UNL     1      32.248 -90.195  37.190  1.00  0.00     0.162 A 
ATOM      5  C   UNL     1      30.576 -91.863  37.792  1.00  0.00     0.162 A 
ATOM      6  C   UNL     1      31.905 -91.539  37.423  1.00  0.00     0.200 A 
ENDROOT
BRANCH   1   7
ATOM      7  C   UNL     1      28.950 -88.437  37.828  1.00  0.00     0.072 C 
ATOM      8  O   UNL     1      29.262 -87.227  37.662  1.00  0.00    -0.545 OA
ATOM      9  O   UNL     1      27.635 -88.756  38.145  1.00  0.00    -0.545 OA
ENDBRANCH   1   7
BRANCH   4  10
ATOM     10  O   UNL     1      33.546 -89.836  36.825  1.00  0.00    -0.504 OA
ATOM     11  H   UNL     1      34.178 -90.482  36.367  1.00  0.00     0.293 HD
ENDBRANCH   4  10
BRANCH   5  12
ATOM     12  O   UNL     1      30.160 -93.173  38.040  1.00  0.00    -0.504 OA
ATOM     13  H   UNL     1      30.108 -93.588  38.958  1.00  0.00     0.293 HD
ENDBRANCH   5  12
BRANCH   6  14
ATOM     14  O   UNL     1      32.897 -92.513  37.280  1.00  0.00    -0.502 OA
ATOM     15  H   UNL     1      33.080 -93.242  37.954  1.00  0.00     0.293 HD
ENDBRANCH   6  14
TORSDOF 4
ENDMDL
MODEL 5
REMARK VINA RESULT:    -4.683     13.353     15.645
REMARK INTER + INTRA:          -5.418
REMARK INTER:                  -5.366
REMARK INTRA:                  -0.052
REMARK UNBOUND:                -0.051
REMARK SMILES O=C([O-])c1cc(O)c(O)c(O)c1
REMARK SMILES IDX 4 1 5 2 12 3 6 4 10 5 8 6 2 7 1 8 3 9 7 10 11 12 9 14
REMARK H PARENT 7 11 11 13 9 15
REMARK Flexibility Score: inf
ROOT
ATOM      1  C   UNL     1      41.511 -78.703  40.117  1.00  0.00     0.005 A 
ATOM      2  C   UNL     1      41.983 -78.999  38.830  1.00  0.00     0.060 A 
ATOM      3  C   UNL     1      40.578 -79.565  40.714  1.00  0.00     0.060 A 
ATOM      4  C   UNL     1      41.536 -80.134  38.149  1.00  0.00     0.162 A 
ATOM      5  C   UNL     1      40.119 -80.706  40.047  1.00  0.00     0.162 A 
ATOM      6  C   UNL     1      40.602 -80.998  38.748  1.00  0.00     0.200 A 
ENDROOT
BRANCH   1   7
ATOM      7  C   UNL     1      41.985 -77.500  40.838  1.00  0.00     0.072 C 
ATOM      8  O   UNL     1      43.050 -76.924  40.490  1.00  0.00    -0.545 OA
ATOM      9  O   UNL     1      41.262 -76.990  41.909  1.00  0.00    -0.545 OA
ENDBRANCH   1   7
BRANCH   4  10
ATOM     10  O   UNL     1      42.035 -80.389  36.871  1.00  0.00    -0.504 OA
ATOM     11  H   UNL     1      41.639 -81.098  36.266  1.00  0.00     0.293 HD
ENDBRANCH   4  10
BRANCH   5  12
ATOM     12  O   UNL     1      39.191 -81.515  40.706  1.00  0.00    -0.504 OA
ATOM     13  H   UNL     1      38.945 -82.449  40.417  1.00  0.00     0.293 HD
ENDBRANCH   5  12
BRANCH   6  14
ATOM     14  O   UNL     1      40.180 -82.122  38.032  1.00  0.00    -0.502 OA
ATOM     15  H   UNL     1      39.214 -82.349  37.848  1.00  0.00     0.293 HD
ENDBRANCH   6  14
TORSDOF 4
ENDMDL
MODEL 6
REMARK VINA RESULT:    -4.675     11.673     13.714
REMARK INTER + INTRA:          -5.409
REMARK INTER:                  -5.363
REMARK INTRA:                  -0.046
REMARK UNBOUND:                -0.051
REMARK SMILES O=C([O-])c1cc(O)c(O)c(O)c1
REMARK SMILES IDX 4 1 5 2 12 3 6 4 10 5 8 6 2 7 1 8 3 9 7 10 11 12 9 14
REMARK H PARENT 7 11 11 13 9 15
REMARK Flexibility Score: inf
ROOT
ATOM      1  C   UNL     1      26.034 -79.190  42.477  1.00  0.00     0.005 A 
ATOM      2  C   UNL     1      25.145 -78.115  42.628  1.00  0.00     0.060 A 
ATOM      3  C   UNL     1      26.150 -80.128  43.516  1.00  0.00     0.060 A 
ATOM      4  C   UNL     1      24.385 -77.975  43.792  1.00  0.00     0.162 A 
ATOM      5  C   UNL     1      25.396 -80.003  44.688  1.00  0.00     0.162 A 
ATOM      6  C   UNL     1      24.501 -78.915  44.832  1.00  0.00     0.200 A 
ENDROOT
BRANCH   1   7
ATOM      7  C   UNL     1      26.838 -79.338  41.244  1.00  0.00     0.072 C 
ATOM      8  O   UNL     1      26.731 -80.370  40.529  1.00  0.00    -0.545 OA
ATOM      9  O   UNL     1      27.723 -78.339  40.857  1.00  0.00    -0.545 OA
ENDBRANCH   1   7
BRANCH   4  10
ATOM     10  O   UNL     1      23.514 -76.890  43.898  1.00  0.00    -0.504 OA
ATOM     11  H   UNL     1      22.752 -76.741  43.246  1.00  0.00     0.293 HD
ENDBRANCH   4  10
BRANCH   5  12
ATOM     12  O   UNL     1      25.567 -80.975  45.675  1.00  0.00    -0.504 OA
ATOM     13  H   UNL     1      25.580 -81.968  45.498  1.00  0.00     0.293 HD
ENDBRANCH   5  12
BRANCH   6  14
ATOM     14  O   UNL     1      23.723 -78.737  45.980  1.00  0.00    -0.502 OA
ATOM     15  H   UNL     1      23.190 -77.904  46.182  1.00  0.00     0.293 HD
ENDBRANCH   6  14
TORSDOF 4
ENDMDL
MODEL 7
REMARK VINA RESULT:    -4.630     13.332     15.467
REMARK INTER + INTRA:          -5.358
REMARK INTER:                  -5.306
REMARK INTRA:                  -0.052
REMARK UNBOUND:                -0.051
REMARK SMILES O=C([O-])c1cc(O)c(O)c(O)c1
REMARK SMILES IDX 4 1 5 2 12 3 6 4 10 5 8 6 2 7 1 8 3 9 7 10 11 12 9 14
REMARK H PARENT 7 11 11 13 9 15
REMARK Flexibility Score: inf
ROOT
ATOM      1  C   UNL     1      41.440 -78.696  40.112  1.00  0.00     0.005 A 
ATOM      2  C   UNL     1      40.571 -79.643  40.675  1.00  0.00     0.060 A 
ATOM      3  C   UNL     1      41.904 -78.892  38.802  1.00  0.00     0.060 A 
ATOM      4  C   UNL     1      40.169 -80.765  39.945  1.00  0.00     0.162 A 
ATOM      5  C   UNL     1      41.512 -80.010  38.058  1.00  0.00     0.162 A 
ATOM      6  C   UNL     1      40.634 -80.961  38.632  1.00  0.00     0.200 A 
ENDROOT
BRANCH   1   7
ATOM      7  C   UNL     1      41.865 -77.508  40.886  1.00  0.00     0.072 C 
ATOM      8  O   UNL     1      42.907 -76.875  40.567  1.00  0.00    -0.545 OA
ATOM      9  O   UNL     1      41.120 -77.073  41.975  1.00  0.00    -0.545 OA
ENDBRANCH   1   7
BRANCH   4  10
ATOM     10  O   UNL     1      39.302 -81.679  40.545  1.00  0.00    -0.504 OA
ATOM     11  H   UNL     1      38.336 -81.454  40.753  1.00  0.00     0.293 HD
ENDBRANCH   4  10
BRANCH   5  12
ATOM     12  O   UNL     1      42.016 -80.136  36.762  1.00  0.00    -0.504 OA
ATOM     13  H   UNL     1      41.824 -80.915  36.150  1.00  0.00     0.293 HD
ENDBRANCH   5  12
BRANCH   6  14
ATOM     14  O   UNL     1      40.208 -82.097  37.938  1.00  0.00    -0.502 OA
ATOM     15  H   UNL     1      39.382 -82.133  37.359  1.00  0.00     0.293 HD
ENDBRANCH   6  14
TORSDOF 4
ENDMDL
MODEL 8
REMARK VINA RESULT:    -4.614      9.561     11.997
REMARK INTER + INTRA:          -5.339
REMARK INTER:                  -5.293
REMARK INTRA:                  -0.046
REMARK UNBOUND:                -0.051
REMARK SMILES O=C([O-])c1cc(O)c(O)c(O)c1
REMARK SMILES IDX 4 1 5 2 12 3 6 4 10 5 8 6 2 7 1 8 3 9 7 10 11 12 9 14
REMARK H PARENT 7 11 11 13 9 15
REMARK Flexibility Score: inf
ROOT
ATOM      1  C   UNL     1      26.897 -79.327  41.515  1.00  0.00     0.005 A 
ATOM      2  C   UNL     1      27.985 -80.137  41.874  1.00  0.00     0.060 A 
ATOM      3  C   UNL     1      25.665 -79.933  41.223  1.00  0.00     0.060 A 
ATOM      4  C   UNL     1      27.849 -81.526  41.943  1.00  0.00     0.162 A 
ATOM      5  C   UNL     1      25.511 -81.322  41.287  1.00  0.00     0.162 A 
ATOM      6  C   UNL     1      26.614 -82.133  41.651  1.00  0.00     0.200 A 
ENDROOT
BRANCH   1   7
ATOM      7  C   UNL     1      27.042 -77.856  41.443  1.00  0.00     0.072 C 
ATOM      8  O   UNL     1      27.856 -77.331  40.637  1.00  0.00    -0.545 OA
ATOM      9  O   UNL     1      26.283 -77.032  42.264  1.00  0.00    -0.545 OA
ENDBRANCH   1   7
BRANCH   4  10
ATOM     10  O   UNL     1      28.958 -82.291  42.305  1.00  0.00    -0.504 OA
ATOM     11  H   UNL     1      29.543 -82.756  41.621  1.00  0.00     0.293 HD
ENDBRANCH   4  10
BRANCH   5  12
ATOM     12  O   UNL     1      24.255 -81.850  40.982  1.00  0.00    -0.504 OA
ATOM     13  H   UNL     1      24.045 -82.368  40.142  1.00  0.00     0.293 HD
ENDBRANCH   5  12
BRANCH   6  14
ATOM     14  O   UNL     1      26.521 -83.525  41.730  1.00  0.00    -0.502 OA
ATOM     15  H   UNL     1      26.612 -84.053  42.586  1.00  0.00     0.293 HD
ENDBRANCH   6  14
TORSDOF 4
ENDMDL
MODEL 9
REMARK VINA RESULT:    -4.528      1.454      3.645
REMARK INTER + INTRA:          -5.240
REMARK INTER:                  -5.187
REMARK INTRA:                  -0.053
REMARK UNBOUND:                -0.051
REMARK SMILES O=C([O-])c1cc(O)c(O)c(O)c1
REMARK SMILES IDX 4 1 5 2 12 3 6 4 10 5 8 6 2 7 1 8 3 9 7 10 11 12 9 14
REMARK H PARENT 7 11 11 13 9 15
REMARK Flexibility Score: inf
ROOT
ATOM      1  C   UNL     1      29.522 -89.569  37.543  1.00  0.00     0.005 A 
ATOM      2  C   UNL     1      30.216 -90.722  37.146  1.00  0.00     0.060 A 
ATOM      3  C   UNL     1      30.216 -88.352  37.628  1.00  0.00     0.060 A 
ATOM      4  C   UNL     1      31.578 -90.665  36.839  1.00  0.00     0.162 A 
ATOM      5  C   UNL     1      31.580 -88.277  37.325  1.00  0.00     0.162 A 
ATOM      6  C   UNL     1      32.274 -89.445  36.925  1.00  0.00     0.200 A 
ENDROOT
BRANCH   1   7
ATOM      7  C   UNL     1      28.079 -89.630  37.867  1.00  0.00     0.072 C 
ATOM      8  O   UNL     1      27.451 -90.720  37.791  1.00  0.00    -0.545 OA
ATOM      9  O   UNL     1      27.396 -88.486  38.261  1.00  0.00    -0.545 OA
ENDBRANCH   1   7
BRANCH   4  10
ATOM     10  O   UNL     1      32.226 -91.837  36.449  1.00  0.00    -0.504 OA
ATOM     11  H   UNL     1      32.558 -91.984  35.503  1.00  0.00     0.293 HD
ENDBRANCH   4  10
BRANCH   5  12
ATOM     12  O   UNL     1      32.201 -87.031  37.434  1.00  0.00    -0.504 OA
ATOM     13  H   UNL     1      33.085 -86.798  37.007  1.00  0.00     0.293 HD
ENDBRANCH   5  12
BRANCH   6  14
ATOM     14  O   UNL     1      33.636 -89.433  36.610  1.00  0.00    -0.502 OA
ATOM     15  H   UNL     1      34.330 -88.899  37.113  1.00  0.00     0.293 HD
ENDBRANCH   6  14
TORSDOF 4
ENDMDL
