MODEL 1
REMARK VINA RESULT:     4.690      0.000      0.000
REMARK INTER + INTRA:           7.877
REMARK INTER:                   7.295
REMARK INTRA:                   0.582
REMARK UNBOUND:                 0.582
REMARK SMILES C[C@@]12C[C@H](O)[C@H]3C[C@]1(O[C@H]1O[C@@H](CO)[C@H](O)[C@@H](O)[C@H]1O)[C@@]3(COC(=O)c1ccccc1)C(=O)O2
REMARK SMILES IDX 1 1 2 2 3 3 4 4 6 5 7 6 8 7 21 8 32 9 33 10 34 11 9 12 10 13
REMARK SMILES IDX 19 14 11 15 17 16 12 17 15 18 20 19 18 21 13 23 14 24 16 26
REMARK SMILES IDX 5 28 22 30 23 31 24 32 25 33 26 34 27 35 31 36 28 37 30 38
REMARK SMILES IDX 29 39
REMARK H PARENT 20 20 18 22 14 25 16 27 5 29
REMARK Flexibility Score: inf
ROOT
ATOM      1  C   UNL     1     -15.524  30.493 -24.577  1.00  0.00     0.060 C 
ATOM      2  C   UNL     1     -14.833  30.121 -25.956  1.00  0.00     0.142 C 
ATOM      3  C   UNL     1     -13.309  30.606 -26.005  1.00  0.00     0.083 C 
ATOM      4  C   UNL     1     -12.488  29.764 -27.078  1.00  0.00     0.123 C 
ATOM      5  C   UNL     1     -13.270  28.428 -27.326  1.00  0.00     0.045 C 
ATOM      6  C   UNL     1     -13.844  27.817 -25.941  1.00  0.00     0.049 C 
ATOM      7  C   UNL     1     -15.131  28.579 -26.273  1.00  0.00     0.131 C 
ATOM      8  C   UNL     1     -14.669  28.602 -27.793  1.00  0.00     0.140 C 
ATOM      9  C   UNL     1     -15.293  29.995 -28.155  1.00  0.00     0.319 C 
ATOM     10  O   UNL     1     -16.174  30.125 -29.124  1.00  0.00    -0.251 OA
ATOM     11  O   UNL     1     -15.383  30.841 -27.043  1.00  0.00    -0.456 OA
ENDROOT
BRANCH   7  12
ATOM     12  O   UNL     1     -16.526  28.276 -26.314  1.00  0.00    -0.338 OA
BRANCH  12  13
ATOM     13  C   UNL     1     -17.651  29.142 -26.176  1.00  0.00     0.282 C 
ATOM     14  C   UNL     1     -18.779  28.882 -25.096  1.00  0.00     0.202 C 
ATOM     15  O   UNL     1     -18.333  29.171 -27.416  1.00  0.00    -0.341 OA
ATOM     16  C   UNL     1     -19.874  27.734 -25.384  1.00  0.00     0.179 C 
ATOM     17  C   UNL     1     -19.159  28.052 -27.829  1.00  0.00     0.178 C 
ATOM     18  C   UNL     1     -20.333  27.716 -26.857  1.00  0.00     0.177 C 
BRANCH  14  19
ATOM     19  O   UNL     1     -18.362  29.101 -23.784  1.00  0.00    -0.385 OA
ATOM     20  H   UNL     1     -17.563  29.607 -23.772  1.00  0.00     0.211 HD
ENDBRANCH  14  19
BRANCH  16  21
ATOM     21  O   UNL     1     -19.604  26.398 -25.182  1.00  0.00    -0.387 OA
ATOM     22  H   UNL     1     -20.150  26.048 -24.417  1.00  0.00     0.211 HD
ENDBRANCH  16  21
BRANCH  17  23
ATOM     23  C   UNL     1     -18.329  26.827 -28.293  1.00  0.00     0.191 C 
BRANCH  23  24
ATOM     24  O   UNL     1     -18.058  25.850 -27.239  1.00  0.00    -0.394 OA
ATOM     25  H   UNL     1     -17.085  25.811 -27.043  1.00  0.00     0.210 HD
ENDBRANCH  23  24
ENDBRANCH  17  23
BRANCH  18  26
ATOM     26  O   UNL     1     -21.465  28.497 -27.142  1.00  0.00    -0.387 OA
ATOM     27  H   UNL     1     -21.263  29.421 -26.848  1.00  0.00     0.211 HD
ENDBRANCH  18  26
ENDBRANCH  12  13
ENDBRANCH   7  12
BRANCH   4  28
ATOM     28  O   UNL     1     -12.349  30.415 -28.332  1.00  0.00    -0.393 OA
ATOM     29  H   UNL     1     -11.480  30.137 -28.775  1.00  0.00     0.210 HD
ENDBRANCH   4  28
BRANCH   8  30
ATOM     30  C   UNL     1     -15.018  27.322 -28.628  1.00  0.00     0.255 C 
BRANCH  30  31
ATOM     31  O   UNL     1     -14.982  25.955 -27.973  1.00  0.00    -0.461 OA
BRANCH  31  32
ATOM     32  C   UNL     1     -13.817  25.117 -27.962  1.00  0.00     0.338 C 
ATOM     33  O   UNL     1     -12.769  25.581 -28.536  1.00  0.00    -0.246 OA
BRANCH  32  34
ATOM     34  C   UNL     1     -13.569  23.760 -27.355  1.00  0.00     0.060 A 
ATOM     35  C   UNL     1     -14.211  23.646 -26.080  1.00  0.00     0.015 A 
ATOM     36  C   UNL     1     -12.230  23.199 -27.454  1.00  0.00     0.015 A 
ATOM     37  C   UNL     1     -13.442  23.263 -24.975  1.00  0.00     0.001 A 
ATOM     38  C   UNL     1     -11.418  22.940 -26.300  1.00  0.00     0.001 A 
ATOM     39  C   UNL     1     -12.056  23.133 -25.041  1.00  0.00     0.000 A 
ENDBRANCH  32  34
ENDBRANCH  31  32
ENDBRANCH  30  31
ENDBRANCH   8  30
TORSDOF 12
ENDMDL
MODEL 2
REMARK VINA RESULT:     5.109      1.525      5.225
REMARK INTER + INTRA:           8.528
REMARK INTER:                   5.368
REMARK INTRA:                   3.160
REMARK UNBOUND:                 0.582
REMARK SMILES C[C@@]12C[C@H](O)[C@H]3C[C@]1(O[C@H]1O[C@@H](CO)[C@H](O)[C@@H](O)[C@H]1O)[C@@]3(COC(=O)c1ccccc1)C(=O)O2
REMARK SMILES IDX 1 1 2 2 3 3 4 4 6 5 7 6 8 7 21 8 32 9 33 10 34 11 9 12 10 13
REMARK SMILES IDX 19 14 11 15 17 16 12 17 15 18 20 19 18 21 13 23 14 24 16 26
REMARK SMILES IDX 5 28 22 30 23 31 24 32 25 33 26 34 27 35 31 36 28 37 30 38
REMARK SMILES IDX 29 39
REMARK H PARENT 20 20 18 22 14 25 16 27 5 29
REMARK Flexibility Score: inf
ROOT
ATOM      1  C   UNL     1     -19.036  31.124 -28.352  1.00  0.00     0.060 C 
ATOM      2  C   UNL     1     -19.383  29.788 -27.568  1.00  0.00     0.142 C 
ATOM      3  C   UNL     1     -20.920  29.380 -27.745  1.00  0.00     0.083 C 
ATOM      4  C   UNL     1     -21.121  27.824 -27.474  1.00  0.00     0.123 C 
ATOM      5  C   UNL     1     -19.726  27.131 -27.656  1.00  0.00     0.045 C 
ATOM      6  C   UNL     1     -18.933  27.732 -28.932  1.00  0.00     0.049 C 
ATOM      7  C   UNL     1     -18.278  28.687 -27.929  1.00  0.00     0.131 C 
ATOM      8  C   UNL     1     -18.649  27.656 -26.777  1.00  0.00     0.140 C 
ATOM      9  C   UNL     1     -18.895  28.719 -25.650  1.00  0.00     0.319 C 
ATOM     10  O   UNL     1     -18.217  28.696 -24.522  1.00  0.00    -0.251 OA
ATOM     11  O   UNL     1     -19.306  29.954 -26.165  1.00  0.00    -0.456 OA
ENDROOT
BRANCH   7  12
ATOM     12  O   UNL     1     -16.947  29.111 -27.629  1.00  0.00    -0.338 OA
BRANCH  12  13
ATOM     13  C   UNL     1     -15.782  28.335 -27.361  1.00  0.00     0.282 C 
ATOM     14  C   UNL     1     -14.889  28.583 -26.076  1.00  0.00     0.202 C 
ATOM     15  O   UNL     1     -14.896  28.486 -28.455  1.00  0.00    -0.341 OA
ATOM     16  C   UNL     1     -13.883  29.843 -26.066  1.00  0.00     0.179 C 
ATOM     17  C   UNL     1     -14.128  29.706 -28.618  1.00  0.00     0.178 C 
ATOM     18  C   UNL     1     -13.180  30.043 -27.425  1.00  0.00     0.177 C 
BRANCH  14  19
ATOM     19  O   UNL     1     -15.503  28.202 -24.884  1.00  0.00    -0.385 OA
ATOM     20  H   UNL     1     -14.922  28.344 -24.152  1.00  0.00     0.211 HD
ENDBRANCH  14  19
BRANCH  16  21
ATOM     21  O   UNL     1     -14.317  31.124 -25.809  1.00  0.00    -0.387 OA
ATOM     22  H   UNL     1     -14.203  31.696 -26.625  1.00  0.00     0.211 HD
ENDBRANCH  16  21
BRANCH  17  23
ATOM     23  C   UNL     1     -14.985  30.895 -29.124  1.00  0.00     0.191 C 
BRANCH  23  24
ATOM     24  O   UNL     1     -16.295  31.006 -28.485  1.00  0.00    -0.394 OA
ATOM     25  H   UNL     1     -16.913  30.310 -28.835  1.00  0.00     0.210 HD
ENDBRANCH  23  24
ENDBRANCH  17  23
BRANCH  18  26
ATOM     26  O   UNL     1     -11.943  29.393 -27.562  1.00  0.00    -0.387 OA
ATOM     27  H   UNL     1     -11.947  28.942 -28.444  1.00  0.00     0.211 HD
ENDBRANCH  18  26
ENDBRANCH  12  13
ENDBRANCH   7  12
BRANCH   4  28
ATOM     28  O   UNL     1     -21.576  27.526 -26.162  1.00  0.00    -0.393 OA
ATOM     29  H   UNL     1     -20.861  27.020 -25.651  1.00  0.00     0.210 HD
ENDBRANCH   4  28
BRANCH   8  30
ATOM     30  C   UNL     1     -17.637  26.478 -26.568  1.00  0.00     0.255 C 
BRANCH  30  31
ATOM     31  O   UNL     1     -17.227  25.611 -27.742  1.00  0.00    -0.461 OA
BRANCH  31  32
ATOM     32  C   UNL     1     -16.014  24.845 -27.770  1.00  0.00     0.338 C 
ATOM     33  O   UNL     1     -16.086  23.672 -28.282  1.00  0.00    -0.246 OA
BRANCH  32  34
ATOM     34  C   UNL     1     -14.612  25.178 -27.326  1.00  0.00     0.060 A 
ATOM     35  C   UNL     1     -13.909  25.890 -28.351  1.00  0.00     0.015 A 
ATOM     36  C   UNL     1     -13.857  24.156 -26.618  1.00  0.00     0.015 A 
ATOM     37  C   UNL     1     -12.672  25.398 -28.780  1.00  0.00     0.001 A 
ATOM     38  C   UNL     1     -12.657  23.580 -27.152  1.00  0.00     0.001 A 
ATOM     39  C   UNL     1     -12.171  24.169 -28.355  1.00  0.00     0.000 A 
ENDBRANCH  32  34
ENDBRANCH  31  32
ENDBRANCH  30  31
ENDBRANCH   8  30
TORSDOF 12
ENDMDL
MODEL 3
REMARK VINA RESULT:     5.228      1.553      5.244
REMARK INTER + INTRA:           8.714
REMARK INTER:                   8.681
REMARK INTRA:                   0.033
REMARK UNBOUND:                 0.582
REMARK SMILES C[C@@]12C[C@H](O)[C@H]3C[C@]1(O[C@H]1O[C@@H](CO)[C@H](O)[C@@H](O)[C@H]1O)[C@@]3(COC(=O)c1ccccc1)C(=O)O2
REMARK SMILES IDX 1 1 2 2 3 3 4 4 6 5 7 6 8 7 21 8 32 9 33 10 34 11 9 12 10 13
REMARK SMILES IDX 19 14 11 15 17 16 12 17 15 18 20 19 18 21 13 23 14 24 16 26
REMARK SMILES IDX 5 28 22 30 23 31 24 32 25 33 26 34 27 35 31 36 28 37 30 38
REMARK SMILES IDX 29 39
REMARK H PARENT 20 20 18 22 14 25 16 27 5 29
REMARK Flexibility Score: inf
ROOT
ATOM      1  C   UNL     1     -18.953  31.119 -25.836  1.00  0.00     0.060 C 
ATOM      2  C   UNL     1     -19.392  29.778 -26.561  1.00  0.00     0.142 C 
ATOM      3  C   UNL     1     -20.953  29.779 -26.914  1.00  0.00     0.083 C 
ATOM      4  C   UNL     1     -21.260  28.761 -28.099  1.00  0.00     0.123 C 
ATOM      5  C   UNL     1     -19.915  28.513 -28.866  1.00  0.00     0.045 C 
ATOM      6  C   UNL     1     -19.080  29.887 -29.047  1.00  0.00     0.049 C 
ATOM      7  C   UNL     1     -18.363  29.486 -27.754  1.00  0.00     0.131 C 
ATOM      8  C   UNL     1     -18.807  27.985 -28.029  1.00  0.00     0.140 C 
ATOM      9  C   UNL     1     -18.982  27.566 -26.528  1.00  0.00     0.319 C 
ATOM     10  O   UNL     1     -18.310  26.560 -26.010  1.00  0.00    -0.251 OA
ATOM     11  O   UNL     1     -19.307  28.653 -25.707  1.00  0.00    -0.456 OA
ENDROOT
BRANCH   7  12
ATOM     12  O   UNL     1     -17.008  29.396 -27.313  1.00  0.00    -0.338 OA
BRANCH  12  13
ATOM     13  C   UNL     1     -15.856  30.110 -27.757  1.00  0.00     0.282 C 
ATOM     14  C   UNL     1     -14.468  29.388 -28.006  1.00  0.00     0.202 C 
ATOM     15  O   UNL     1     -15.575  31.119 -26.804  1.00  0.00    -0.341 OA
ATOM     16  C   UNL     1     -13.562  28.995 -26.732  1.00  0.00     0.179 C 
ATOM     17  C   UNL     1     -14.961  30.783 -25.534  1.00  0.00     0.178 C 
ATOM     18  C   UNL     1     -13.567  30.092 -25.648  1.00  0.00     0.177 C 
BRANCH  14  19
ATOM     19  O   UNL     1     -14.464  28.550 -29.121  1.00  0.00    -0.385 OA
ATOM     20  H   UNL     1     -13.752  28.774 -29.700  1.00  0.00     0.211 HD
ENDBRANCH  14  19
BRANCH  16  21
ATOM     21  O   UNL     1     -13.819  27.878 -25.968  1.00  0.00    -0.387 OA
ATOM     22  H   UNL     1     -13.699  27.048 -26.520  1.00  0.00     0.211 HD
ENDBRANCH  16  21
BRANCH  17  23
ATOM     23  C   UNL     1     -15.946  30.102 -24.549  1.00  0.00     0.191 C 
BRANCH  23  24
ATOM     24  O   UNL     1     -16.299  28.728 -24.906  1.00  0.00    -0.394 OA
ATOM     25  H   UNL     1     -17.027  28.393 -24.318  1.00  0.00     0.210 HD
ENDBRANCH  23  24
ENDBRANCH  17  23
BRANCH  18  26
ATOM     26  O   UNL     1     -12.538  31.043 -25.752  1.00  0.00    -0.387 OA
ATOM     27  H   UNL     1     -12.312  31.330 -24.831  1.00  0.00     0.211 HD
ENDBRANCH  18  26
ENDBRANCH  12  13
ENDBRANCH   7  12
BRANCH   4  28
ATOM     28  O   UNL     1     -21.737  27.498 -27.658  1.00  0.00    -0.393 OA
ATOM     29  H   UNL     1     -22.628  27.607 -27.185  1.00  0.00     0.210 HD
ENDBRANCH   4  28
BRANCH   8  30
ATOM     30  C   UNL     1     -17.879  27.168 -28.991  1.00  0.00     0.255 C 
BRANCH  30  31
ATOM     31  O   UNL     1     -16.390  27.080 -28.716  1.00  0.00    -0.461 OA
BRANCH  31  32
ATOM     32  C   UNL     1     -15.760  25.921 -28.151  1.00  0.00     0.338 C 
ATOM     33  O   UNL     1     -16.417  24.822 -28.211  1.00  0.00    -0.246 OA
BRANCH  32  34
ATOM     34  C   UNL     1     -14.411  25.733 -27.504  1.00  0.00     0.060 A 
ATOM     35  C   UNL     1     -13.360  25.889 -28.465  1.00  0.00     0.015 A 
ATOM     36  C   UNL     1     -14.255  24.646 -26.549  1.00  0.00     0.015 A 
ATOM     37  C   UNL     1     -12.416  24.864 -28.596  1.00  0.00     0.001 A 
ATOM     38  C   UNL     1     -13.370  23.542 -26.780  1.00  0.00     0.001 A 
ATOM     39  C   UNL     1     -12.546  23.642 -27.939  1.00  0.00     0.000 A 
ENDBRANCH  32  34
ENDBRANCH  31  32
ENDBRANCH  30  31
ENDBRANCH   8  30
TORSDOF 12
ENDMDL
