MODEL 1
REMARK VINA RESULT:    -4.654      0.000      0.000
REMARK INTER + INTRA:          -6.179
REMARK INTER:                  -6.558
REMARK INTRA:                   0.379
REMARK UNBOUND:                 0.379
REMARK SMILES CC1=CCC(=C(C)C)C(=O)CC(C)=CCC1
REMARK SMILES IDX 12 1 14 2 13 3 15 4 16 5 2 6 1 7 3 8 11 10 9 11 10 12 5 13
REMARK SMILES IDX 6 14 7 15 8 16 4 17
REMARK H PARENT
REMARK Flexibility Score: 60.00
ROOT
ATOM      1  C   UNL     1      14.854  18.920  55.047  1.00  0.00    -0.070 C 
ATOM      2  C   UNL     1      14.258  19.078  53.837  1.00  0.00    -0.027 C 
ATOM      3  C   UNL     1      16.181  19.609  55.259  1.00  0.00     0.039 C 
ENDROOT
BRANCH   2   4
ATOM      4  C   UNL     1      12.990  18.403  53.374  1.00  0.00     0.032 C 
BRANCH   4   5
ATOM      5  C   UNL     1      11.719  19.179  53.746  1.00  0.00     0.034 C 
BRANCH   5   6
ATOM      6  C   UNL     1      10.798  18.308  54.579  1.00  0.00    -0.077 C 
ATOM      7  C   UNL     1      10.109  17.149  53.906  1.00  0.00     0.039 C 
ATOM      8  C   UNL     1      10.623  18.470  55.913  1.00  0.00    -0.023 CG0
ATOM      9  G   UNL     1      11.216  19.577  56.751  1.00  0.00     0.000 G0
ENDBRANCH   5   6
ENDBRANCH   4   5
ENDBRANCH   2   4
BRANCH   1  10
ATOM     10  C   UNL     1      14.239  18.165  56.221  1.00  0.00     0.111 C 
BRANCH  10  11
ATOM     11  C   UNL     1      13.716  19.058  57.318  1.00  0.00     0.163 C 
ATOM     12  O   UNL     1      14.529  19.861  57.853  1.00  0.00    -0.294 OA
BRANCH  11  13
ATOM     13  C   UNL     1      12.277  19.064  57.743  1.00  0.00    -0.002 C 
ATOM     14  C   UNL     1      11.906  18.563  58.964  1.00  0.00    -0.069 C 
ATOM     15  C   UNL     1      12.929  18.124  59.989  1.00  0.00     0.039 C 
ATOM     16  C   UNL     1      10.454  18.469  59.376  1.00  0.00     0.039 C 
BRANCH  13  17
ATOM     17  C   UNL     1      11.225  19.586  56.767  1.00  0.00     0.066 CG0
ATOM     18  G   UNL     1      10.611  18.479  55.944  1.00  0.00     0.000 G0
ENDBRANCH  13  17
ENDBRANCH  11  13
ENDBRANCH  10  11
ENDBRANCH   1  10
TORSDOF 0
ENDMDL
MODEL 2
REMARK VINA RESULT:    -4.654      1.500      3.772
REMARK INTER + INTRA:          -6.179
REMARK INTER:                  -6.332
REMARK INTRA:                   0.153
REMARK UNBOUND:                 0.379
REMARK SMILES CC1=CCC(=C(C)C)C(=O)CC(C)=CCC1
REMARK SMILES IDX 12 1 14 2 13 3 15 4 16 5 2 6 1 7 3 8 11 10 9 11 10 12 5 13
REMARK SMILES IDX 6 14 7 15 8 16 4 17
REMARK H PARENT
REMARK Flexibility Score: 60.00
ROOT
ATOM      1  C   UNL     1      15.077  18.968  56.158  1.00  0.00    -0.070 C 
ATOM      2  C   UNL     1      14.841  19.386  57.427  1.00  0.00    -0.027 C 
ATOM      3  C   UNL     1      16.267  19.564  55.444  1.00  0.00     0.039 C 
ENDROOT
BRANCH   2   4
ATOM      4  C   UNL     1      13.658  19.004  58.286  1.00  0.00     0.032 C 
BRANCH   4   5
ATOM      5  C   UNL     1      12.356  19.703  57.870  1.00  0.00     0.034 C 
BRANCH   5   6
ATOM      6  C   UNL     1      11.206  18.714  57.877  1.00  0.00    -0.077 C 
ATOM      7  C   UNL     1      10.778  18.125  59.196  1.00  0.00     0.039 C 
ATOM      8  C   UNL     1      10.493  18.392  56.771  1.00  0.00    -0.023 CG0
ATOM      9  G   UNL     1      10.781  18.868  55.367  1.00  0.00     0.000 G0
ENDBRANCH   5   6
ENDBRANCH   4   5
ENDBRANCH   2   4
BRANCH   1  10
ATOM     10  C   UNL     1      14.274  17.887  55.441  1.00  0.00     0.111 C 
BRANCH  10  11
ATOM     11  C   UNL     1      13.208  18.426  54.519  1.00  0.00     0.163 C 
ATOM     12  O   UNL     1      13.569  19.229  53.616  1.00  0.00    -0.294 OA
BRANCH  11  13
ATOM     13  C   UNL     1      11.772  17.998  54.602  1.00  0.00    -0.002 C 
ATOM     14  C   UNL     1      11.344  16.857  53.976  1.00  0.00    -0.069 C 
ATOM     15  C   UNL     1      12.311  15.907  53.304  1.00  0.00     0.039 C 
ATOM     16  C   UNL     1       9.885  16.457  53.963  1.00  0.00     0.039 C 
BRANCH  13  17
ATOM     17  C   UNL     1      10.783  18.889  55.352  1.00  0.00     0.066 CG0
ATOM     18  G   UNL     1      10.510  18.386  56.750  1.00  0.00     0.000 G0
ENDBRANCH  13  17
ENDBRANCH  11  13
ENDBRANCH  10  11
ENDBRANCH   1  10
TORSDOF 0
ENDMDL
MODEL 3
REMARK VINA RESULT:    -4.220      1.856      3.826
REMARK INTER + INTRA:          -5.568
REMARK INTER:                  -5.960
REMARK INTRA:                   0.392
REMARK UNBOUND:                 0.379
REMARK SMILES CC1=CCC(=C(C)C)C(=O)CC(C)=CCC1
REMARK SMILES IDX 12 1 14 2 13 3 15 4 16 5 2 6 1 7 3 8 11 10 9 11 10 12 5 13
REMARK SMILES IDX 6 14 7 15 8 16 4 17
REMARK H PARENT
REMARK Flexibility Score: 60.00
ROOT
ATOM      1  C   UNL     1      13.502  18.398  54.832  1.00  0.00    -0.070 C 
ATOM      2  C   UNL     1      14.442  18.800  55.725  1.00  0.00    -0.027 C 
ATOM      3  C   UNL     1      13.821  18.573  53.366  1.00  0.00     0.039 C 
ENDROOT
BRANCH   2   4
ATOM      4  C   UNL     1      14.295  18.813  57.228  1.00  0.00     0.032 C 
BRANCH   4   5
ATOM      5  C   UNL     1      13.110  19.659  57.714  1.00  0.00     0.034 C 
BRANCH   5   6
ATOM      6  C   UNL     1      12.211  18.833  58.614  1.00  0.00    -0.077 C 
ATOM      7  C   UNL     1      12.841  18.081  59.758  1.00  0.00     0.039 C 
ATOM      8  C   UNL     1      10.862  18.798  58.491  1.00  0.00    -0.023 CG0
ATOM      9  G   UNL     1      10.059  19.472  57.404  1.00  0.00     0.000 G0
ENDBRANCH   5   6
ENDBRANCH   4   5
ENDBRANCH   2   4
BRANCH   1  10
ATOM     10  C   UNL     1      12.191  17.714  55.207  1.00  0.00     0.111 C 
BRANCH  10  11
ATOM     11  C   UNL     1      10.984  18.616  55.127  1.00  0.00     0.163 C 
ATOM     12  O   UNL     1      10.884  19.367  54.118  1.00  0.00    -0.294 OA
BRANCH  11  13
ATOM     13  C   UNL     1       9.892  18.604  56.156  1.00  0.00    -0.002 C 
ATOM     14  C   UNL     1       8.758  17.860  55.964  1.00  0.00    -0.069 C 
ATOM     15  C   UNL     1       8.615  16.912  54.793  1.00  0.00     0.039 C 
ATOM     16  C   UNL     1       7.602  17.907  56.939  1.00  0.00     0.039 C 
BRANCH  13  17
ATOM     17  C   UNL     1      10.044  19.480  57.398  1.00  0.00     0.066 CG0
ATOM     18  G   UNL     1      10.845  18.799  58.482  1.00  0.00     0.000 G0
ENDBRANCH  13  17
ENDBRANCH  11  13
ENDBRANCH  10  11
ENDBRANCH   1  10
TORSDOF 0
ENDMDL
MODEL 4
REMARK VINA RESULT:    -4.139      1.540      2.280
REMARK INTER + INTRA:          -5.454
REMARK INTER:                  -5.557
REMARK INTRA:                   0.104
REMARK UNBOUND:                 0.379
REMARK SMILES CC1=CCC(=C(C)C)C(=O)CC(C)=CCC1
REMARK SMILES IDX 12 1 14 2 13 3 15 4 16 5 2 6 1 7 3 8 11 10 9 11 10 12 5 13
REMARK SMILES IDX 6 14 7 15 8 16 4 17
REMARK H PARENT
REMARK Flexibility Score: 60.00
ROOT
ATOM      1  C   UNL     1      13.934  18.824  56.830  1.00  0.00    -0.070 C 
ATOM      2  C   UNL     1      14.268  18.387  55.588  1.00  0.00    -0.027 C 
ATOM      3  C   UNL     1      14.875  19.801  57.494  1.00  0.00     0.039 C 
ENDROOT
BRANCH   2   4
ATOM      4  C   UNL     1      13.534  17.339  54.785  1.00  0.00     0.032 C 
BRANCH   4   5
ATOM      5  C   UNL     1      12.394  17.916  53.934  1.00  0.00     0.034 C 
BRANCH   5   6
ATOM      6  C   UNL     1      11.130  17.101  54.131  1.00  0.00    -0.077 C 
ATOM      7  C   UNL     1      11.102  15.688  53.607  1.00  0.00     0.039 C 
ATOM      8  C   UNL     1      10.053  17.550  54.820  1.00  0.00    -0.023 CG0
ATOM      9  G   UNL     1       9.894  18.934  55.402  1.00  0.00     0.000 G0
ENDBRANCH   5   6
ENDBRANCH   4   5
ENDBRANCH   2   4
BRANCH   1  10
ATOM     10  C   UNL     1      12.645  18.457  57.557  1.00  0.00     0.111 C 
BRANCH  10  11
ATOM     11  C   UNL     1      11.520  19.440  57.344  1.00  0.00     0.163 C 
ATOM     12  O   UNL     1      11.776  20.664  57.509  1.00  0.00    -0.294 OA
BRANCH  11  13
ATOM     13  C   UNL     1      10.151  19.021  56.893  1.00  0.00    -0.002 C 
ATOM     14  C   UNL     1       9.194  18.662  57.806  1.00  0.00    -0.069 C 
ATOM     15  C   UNL     1       9.417  18.810  59.294  1.00  0.00     0.039 C 
ATOM     16  C   UNL     1       7.840  18.144  57.374  1.00  0.00     0.039 C 
BRANCH  13  17
ATOM     17  C   UNL     1       9.862  18.949  55.395  1.00  0.00     0.066 CG0
ATOM     18  G   UNL     1      10.056  17.556  54.844  1.00  0.00     0.000 G0
ENDBRANCH  13  17
ENDBRANCH  11  13
ENDBRANCH  10  11
ENDBRANCH   1  10
TORSDOF 0
ENDMDL
MODEL 5
REMARK VINA RESULT:    -4.038      2.468      3.496
REMARK INTER + INTRA:          -5.311
REMARK INTER:                  -5.712
REMARK INTRA:                   0.401
REMARK UNBOUND:                 0.379
REMARK SMILES CC1=CCC(=C(C)C)C(=O)CC(C)=CCC1
REMARK SMILES IDX 12 1 14 2 13 3 15 4 16 5 2 6 1 7 3 8 11 10 9 11 10 12 5 13
REMARK SMILES IDX 6 14 7 15 8 16 4 17
REMARK H PARENT
REMARK Flexibility Score: 60.00
ROOT
ATOM      1  C   UNL     1      12.167  18.614  57.304  1.00  0.00    -0.070 C 
ATOM      2  C   UNL     1      12.122  18.294  55.985  1.00  0.00    -0.027 C 
ATOM      3  C   UNL     1      13.418  19.291  57.809  1.00  0.00     0.039 C 
ENDROOT
BRANCH   2   4
ATOM      4  C   UNL     1      11.022  17.527  55.291  1.00  0.00     0.032 C 
BRANCH   4   5
ATOM      5  C   UNL     1       9.809  18.397  54.933  1.00  0.00     0.034 C 
BRANCH   5   6
ATOM      6  C   UNL     1       8.524  17.630  55.176  1.00  0.00    -0.077 C 
ATOM      7  C   UNL     1       8.305  16.345  54.420  1.00  0.00     0.039 C 
ATOM      8  C   UNL     1       7.597  17.997  56.094  1.00  0.00    -0.023 CG0
ATOM      9  G   UNL     1       7.637  19.254  56.931  1.00  0.00     0.000 G0
ENDBRANCH   5   6
ENDBRANCH   4   5
ENDBRANCH   2   4
BRANCH   1  10
ATOM     10  C   UNL     1      11.014  18.407  58.282  1.00  0.00     0.111 C 
BRANCH  10  11
ATOM     11  C   UNL     1       9.922  19.442  58.169  1.00  0.00     0.163 C 
ATOM     12  O   UNL     1      10.271  20.641  57.990  1.00  0.00    -0.294 OA
BRANCH  11  13
ATOM     13  C   UNL     1       8.464  19.089  58.203  1.00  0.00    -0.002 C 
ATOM     14  C   UNL     1       7.895  18.573  59.338  1.00  0.00    -0.069 C 
ATOM     15  C   UNL     1       8.661  18.473  60.638  1.00  0.00     0.039 C 
ATOM     16  C   UNL     1       6.452  18.119  59.367  1.00  0.00     0.039 C 
BRANCH  13  17
ATOM     17  C   UNL     1       7.637  19.264  56.930  1.00  0.00     0.066 CG0
ATOM     18  G   UNL     1       7.584  17.999  56.107  1.00  0.00     0.000 G0
ENDBRANCH  13  17
ENDBRANCH  11  13
ENDBRANCH  10  11
ENDBRANCH   1  10
TORSDOF 0
ENDMDL
MODEL 6
REMARK VINA RESULT:    -3.906      3.656      4.794
REMARK INTER + INTRA:          -5.125
REMARK INTER:                  -5.538
REMARK INTRA:                   0.412
REMARK UNBOUND:                 0.379
REMARK SMILES CC1=CCC(=C(C)C)C(=O)CC(C)=CCC1
REMARK SMILES IDX 12 1 14 2 13 3 15 4 16 5 2 6 1 7 3 8 11 10 9 11 10 12 5 13
REMARK SMILES IDX 6 14 7 15 8 16 4 17
REMARK H PARENT
REMARK Flexibility Score: 60.00
ROOT
ATOM      1  C   UNL     1       9.829  21.318  56.828  1.00  0.00    -0.070 C 
ATOM      2  C   UNL     1       8.775  22.169  56.732  1.00  0.00    -0.027 C 
ATOM      3  C   UNL     1      10.859  21.612  57.893  1.00  0.00     0.039 C 
ENDROOT
BRANCH   2   4
ATOM      4  C   UNL     1       7.690  22.127  55.683  1.00  0.00     0.032 C 
BRANCH   4   5
ATOM      5  C   UNL     1       6.415  21.416  56.158  1.00  0.00     0.034 C 
BRANCH   5   6
ATOM      6  C   UNL     1       6.388  19.990  55.642  1.00  0.00    -0.077 C 
ATOM      7  C   UNL     1       5.953  19.752  54.219  1.00  0.00     0.039 C 
ATOM      8  C   UNL     1       6.810  18.926  56.369  1.00  0.00    -0.023 CG0
ATOM      9  G   UNL     1       7.264  18.967  57.808  1.00  0.00     0.000 G0
ENDBRANCH   5   6
ENDBRANCH   4   5
ENDBRANCH   2   4
BRANCH   1  10
ATOM     10  C   UNL     1       9.998  20.055  55.990  1.00  0.00     0.111 C 
BRANCH  10  11
ATOM     11  C   UNL     1       9.621  18.786  56.714  1.00  0.00     0.163 C 
ATOM     12  O   UNL     1      10.084  17.700  56.267  1.00  0.00    -0.294 OA
BRANCH  11  13
ATOM     13  C   UNL     1       8.780  18.779  57.956  1.00  0.00    -0.002 C 
ATOM     14  C   UNL     1       9.350  18.572  59.186  1.00  0.00    -0.069 C 
ATOM     15  C   UNL     1      10.850  18.490  59.365  1.00  0.00     0.039 C 
ATOM     16  C   UNL     1       8.513  18.464  60.441  1.00  0.00     0.039 C 
BRANCH  13  17
ATOM     17  C   UNL     1       7.268  18.952  57.822  1.00  0.00     0.066 CG0
ATOM     18  G   UNL     1       6.818  18.926  56.380  1.00  0.00     0.000 G0
ENDBRANCH  13  17
ENDBRANCH  11  13
ENDBRANCH  10  11
ENDBRANCH   1  10
TORSDOF 0
ENDMDL
MODEL 7
REMARK VINA RESULT:    -3.855      3.294      6.462
REMARK INTER + INTRA:          -5.054
REMARK INTER:                  -5.244
REMARK INTRA:                   0.190
REMARK UNBOUND:                 0.379
REMARK SMILES CC1=CCC(=C(C)C)C(=O)CC(C)=CCC1
REMARK SMILES IDX 12 1 14 2 13 3 15 4 16 5 2 6 1 7 3 8 11 10 9 11 10 12 5 13
REMARK SMILES IDX 6 14 7 15 8 16 4 17
REMARK H PARENT
REMARK Flexibility Score: 60.00
ROOT
ATOM      1  C   UNL     1       6.896  18.327  58.999  1.00  0.00    -0.070 C 
ATOM      2  C   UNL     1       7.762  18.525  60.026  1.00  0.00    -0.027 C 
ATOM      3  C   UNL     1       5.422  18.321  59.329  1.00  0.00     0.039 C 
ENDROOT
BRANCH   2   4
ATOM      4  C   UNL     1       9.268  18.467  59.945  1.00  0.00     0.032 C 
BRANCH   4   5
ATOM      5  C   UNL     1       9.886  19.698  59.267  1.00  0.00     0.034 C 
BRANCH   5   6
ATOM      6  C   UNL     1      10.867  19.267  58.193  1.00  0.00    -0.077 C 
ATOM      7  C   UNL     1      11.982  18.329  58.579  1.00  0.00     0.039 C 
ATOM      8  C   UNL     1      10.749  19.619  56.890  1.00  0.00    -0.023 CG0
ATOM      9  G   UNL     1       9.712  20.558  56.322  1.00  0.00     0.000 G0
ENDBRANCH   5   6
ENDBRANCH   4   5
ENDBRANCH   2   4
BRANCH   1  10
ATOM     10  C   UNL     1       7.307  18.189  57.537  1.00  0.00     0.111 C 
BRANCH  10  11
ATOM     11  C   UNL     1       7.379  19.500  56.795  1.00  0.00     0.163 C 
ATOM     12  O   UNL     1       6.505  20.370  57.061  1.00  0.00    -0.294 OA
BRANCH  11  13
ATOM     13  C   UNL     1       8.469  19.819  55.814  1.00  0.00    -0.002 C 
ATOM     14  C   UNL     1       8.377  19.414  54.509  1.00  0.00    -0.069 C 
ATOM     15  C   UNL     1       7.124  18.765  53.963  1.00  0.00     0.039 C 
ATOM     16  C   UNL     1       9.505  19.637  53.525  1.00  0.00     0.039 C 
BRANCH  13  17
ATOM     17  C   UNL     1       9.712  20.556  56.311  1.00  0.00     0.066 CG0
ATOM     18  G   UNL     1      10.744  19.613  56.882  1.00  0.00     0.000 G0
ENDBRANCH  13  17
ENDBRANCH  11  13
ENDBRANCH  10  11
ENDBRANCH   1  10
TORSDOF 0
ENDMDL
MODEL 8
REMARK VINA RESULT:    -3.766      7.114      8.567
REMARK INTER + INTRA:          -4.928
REMARK INTER:                  -5.362
REMARK INTRA:                   0.435
REMARK UNBOUND:                 0.379
REMARK SMILES CC1=CCC(=C(C)C)C(=O)CC(C)=CCC1
REMARK SMILES IDX 12 1 14 2 13 3 15 4 16 5 2 6 1 7 3 8 11 10 9 11 10 12 5 13
REMARK SMILES IDX 6 14 7 15 8 16 4 17
REMARK H PARENT
REMARK Flexibility Score: 60.00
ROOT
ATOM      1  C   UNL     1       8.613  23.208  55.094  1.00  0.00    -0.070 C 
ATOM      2  C   UNL     1       8.250  24.266  55.865  1.00  0.00    -0.027 C 
ATOM      3  C   UNL     1       9.296  22.052  55.785  1.00  0.00     0.039 C 
ENDROOT
BRANCH   2   4
ATOM      4  C   UNL     1       7.652  25.562  55.374  1.00  0.00     0.032 C 
BRANCH   4   5
ATOM      5  C   UNL     1       6.257  25.844  55.949  1.00  0.00     0.034 C 
BRANCH   5   6
ATOM      6  C   UNL     1       5.201  25.659  54.877  1.00  0.00    -0.077 C 
ATOM      7  C   UNL     1       4.735  26.872  54.115  1.00  0.00     0.039 C 
ATOM      8  C   UNL     1       4.710  24.449  54.515  1.00  0.00    -0.023 CG0
ATOM      9  G   UNL     1       5.045  23.130  55.170  1.00  0.00     0.000 G0
ENDBRANCH   5   6
ENDBRANCH   4   5
ENDBRANCH   2   4
BRANCH   1  10
ATOM     10  C   UNL     1       8.307  23.080  53.605  1.00  0.00     0.111 C 
BRANCH  10  11
ATOM     11  C   UNL     1       6.845  22.875  53.295  1.00  0.00     0.163 C 
ATOM     12  O   UNL     1       6.437  23.223  52.153  1.00  0.00    -0.294 OA
BRANCH  11  13
ATOM     13  C   UNL     1       5.894  22.229  54.259  1.00  0.00    -0.002 C 
ATOM     14  C   UNL     1       5.755  20.866  54.297  1.00  0.00    -0.069 C 
ATOM     15  C   UNL     1       6.648  19.951  53.488  1.00  0.00     0.039 C 
ATOM     16  C   UNL     1       4.734  20.196  55.191  1.00  0.00     0.039 C 
BRANCH  13  17
ATOM     17  C   UNL     1       5.041  23.121  55.159  1.00  0.00     0.066 CG0
ATOM     18  G   UNL     1       4.709  24.441  54.504  1.00  0.00     0.000 G0
ENDBRANCH  13  17
ENDBRANCH  11  13
ENDBRANCH  10  11
ENDBRANCH   1  10
TORSDOF 0
ENDMDL
