MODEL 1
REMARK VINA RESULT:    -1.450      0.000      0.000
REMARK INTER + INTRA:          -1.710
REMARK INTER:                  -1.662
REMARK INTRA:                  -0.047
REMARK UNBOUND:                -0.047
REMARK SMILES O=C([O-])c1cc(O)c(O)c(O)c1
REMARK SMILES IDX 4 1 5 2 12 3 6 4 10 5 8 6 2 7 1 8 3 9 7 10 11 12 9 14
REMARK H PARENT 7 11 11 13 9 15
REMARK Flexibility Score: inf
ROOT
ATOM      1  C   UNL     1     142.374 172.825 176.917  1.00  0.00     0.005 A 
ATOM      2  C   UNL     1     143.526 172.660 177.703  1.00  0.00     0.060 A 
ATOM      3  C   UNL     1     141.935 171.756 176.122  1.00  0.00     0.060 A 
ATOM      4  C   UNL     1     144.234 171.453 177.700  1.00  0.00     0.162 A 
ATOM      5  C   UNL     1     142.630 170.544 176.108  1.00  0.00     0.162 A 
ATOM      6  C   UNL     1     143.784 170.379 176.894  1.00  0.00     0.200 A 
ENDROOT
BRANCH   1   7
ATOM      7  C   UNL     1     141.632 174.105 176.926  1.00  0.00     0.072 C 
ATOM      8  O   UNL     1     141.247 174.615 178.010  1.00  0.00    -0.545 OA
ATOM      9  O   UNL     1     141.348 174.763 175.734  1.00  0.00    -0.545 OA
ENDBRANCH   1   7
BRANCH   4  10
ATOM     10  O   UNL     1     145.371 171.366 178.507  1.00  0.00    -0.504 OA
ATOM     11  H   UNL     1     146.250 170.968 178.209  1.00  0.00     0.293 HD
ENDBRANCH   4  10
BRANCH   5  12
ATOM     12  O   UNL     1     142.154 169.509 175.301  1.00  0.00    -0.504 OA
ATOM     13  H   UNL     1     142.140 168.544 175.609  1.00  0.00     0.293 HD
ENDBRANCH   5  12
BRANCH   6  14
ATOM     14  O   UNL     1     144.449 169.151 176.850  1.00  0.00    -0.502 OA
ATOM     15  H   UNL     1     144.642 168.639 176.001  1.00  0.00     0.293 HD
ENDBRANCH   6  14
TORSDOF 4
ENDMDL
MODEL 2
REMARK VINA RESULT:    -1.415      0.045      2.445
REMARK INTER + INTRA:          -1.669
REMARK INTER:                  -1.622
REMARK INTRA:                  -0.047
REMARK UNBOUND:                -0.047
REMARK SMILES O=C([O-])c1cc(O)c(O)c(O)c1
REMARK SMILES IDX 4 1 5 2 12 3 6 4 10 5 8 6 2 7 1 8 3 9 7 10 11 12 9 14
REMARK H PARENT 7 11 11 13 9 15
REMARK Flexibility Score: inf
ROOT
ATOM      1  C   UNL     1     142.353 172.816 176.896  1.00  0.00     0.005 A 
ATOM      2  C   UNL     1     141.910 171.742 176.108  1.00  0.00     0.060 A 
ATOM      3  C   UNL     1     143.509 172.658 177.673  1.00  0.00     0.060 A 
ATOM      4  C   UNL     1     142.604 170.526 176.091  1.00  0.00     0.162 A 
ATOM      5  C   UNL     1     144.214 171.451 177.668  1.00  0.00     0.162 A 
ATOM      6  C   UNL     1     143.770 170.374 176.879  1.00  0.00     0.200 A 
ENDROOT
BRANCH   1   7
ATOM      7  C   UNL     1     141.614 174.098 176.908  1.00  0.00     0.072 C 
ATOM      8  O   UNL     1     141.199 174.588 177.991  1.00  0.00    -0.545 OA
ATOM      9  O   UNL     1     141.366 174.780 175.721  1.00  0.00    -0.545 OA
ENDBRANCH   1   7
BRANCH   4  10
ATOM     10  O   UNL     1     142.101 169.504 175.282  1.00  0.00    -0.504 OA
ATOM     11  H   UNL     1     142.534 168.597 175.179  1.00  0.00     0.293 HD
ENDBRANCH   4  10
BRANCH   5  12
ATOM     12  O   UNL     1     145.359 171.341 178.458  1.00  0.00    -0.504 OA
ATOM     13  H   UNL     1     146.170 170.809 178.166  1.00  0.00     0.293 HD
ENDBRANCH   5  12
BRANCH   6  14
ATOM     14  O   UNL     1     144.504 169.185 176.903  1.00  0.00    -0.502 OA
ATOM     15  H   UNL     1     144.223 168.354 177.403  1.00  0.00     0.293 HD
ENDBRANCH   6  14
TORSDOF 4
ENDMDL
MODEL 3
REMARK VINA RESULT:    -0.963      2.213      3.622
REMARK INTER + INTRA:          -1.151
REMARK INTER:                  -1.101
REMARK INTRA:                  -0.050
REMARK UNBOUND:                -0.047
REMARK SMILES O=C([O-])c1cc(O)c(O)c(O)c1
REMARK SMILES IDX 4 1 5 2 12 3 6 4 10 5 8 6 2 7 1 8 3 9 7 10 11 12 9 14
REMARK H PARENT 7 11 11 13 9 15
REMARK Flexibility Score: inf
ROOT
ATOM      1  C   UNL     1     141.996 173.561 175.457  1.00  0.00     0.005 A 
ATOM      2  C   UNL     1     141.609 172.217 175.335  1.00  0.00     0.060 A 
ATOM      3  C   UNL     1     142.233 174.087 176.735  1.00  0.00     0.060 A 
ATOM      4  C   UNL     1     141.459 171.405 176.466  1.00  0.00     0.162 A 
ATOM      5  C   UNL     1     142.088 173.290 177.874  1.00  0.00     0.162 A 
ATOM      6  C   UNL     1     141.701 171.943 177.753  1.00  0.00     0.200 A 
ENDROOT
BRANCH   1   7
ATOM      7  C   UNL     1     142.152 174.412 174.257  1.00  0.00     0.072 C 
ATOM      8  O   UNL     1     141.382 174.276 173.270  1.00  0.00    -0.545 OA
ATOM      9  O   UNL     1     143.152 175.377 174.203  1.00  0.00    -0.545 OA
ENDBRANCH   1   7
BRANCH   4  10
ATOM     10  O   UNL     1     141.072 170.077 176.264  1.00  0.00    -0.504 OA
ATOM     11  H   UNL     1     140.387 169.784 175.582  1.00  0.00     0.293 HD
ENDBRANCH   4  10
BRANCH   5  12
ATOM     12  O   UNL     1     142.335 173.858 179.125  1.00  0.00    -0.504 OA
ATOM     13  H   UNL     1     141.798 173.611 179.948  1.00  0.00     0.293 HD
ENDBRANCH   5  12
BRANCH   6  14
ATOM     14  O   UNL     1     141.567 171.182 178.916  1.00  0.00    -0.502 OA
ATOM     15  H   UNL     1     140.902 171.378 179.651  1.00  0.00     0.293 HD
ENDBRANCH   6  14
TORSDOF 4
ENDMDL
MODEL 4
REMARK VINA RESULT:    -0.849      5.647      7.012
REMARK INTER + INTRA:          -1.021
REMARK INTER:                  -0.969
REMARK INTRA:                  -0.052
REMARK UNBOUND:                -0.047
REMARK SMILES O=C([O-])c1cc(O)c(O)c(O)c1
REMARK SMILES IDX 4 1 5 2 12 3 6 4 10 5 8 6 2 7 1 8 3 9 7 10 11 12 9 14
REMARK H PARENT 7 11 11 13 9 15
REMARK Flexibility Score: inf
ROOT
ATOM      1  C   UNL     1     142.826 175.764 171.245  1.00  0.00     0.005 A 
ATOM      2  C   UNL     1     142.411 175.696 172.585  1.00  0.00     0.060 A 
ATOM      3  C   UNL     1     144.192 175.907 170.963  1.00  0.00     0.060 A 
ATOM      4  C   UNL     1     143.338 175.770 173.631  1.00  0.00     0.162 A 
ATOM      5  C   UNL     1     145.131 175.982 171.996  1.00  0.00     0.162 A 
ATOM      6  C   UNL     1     144.715 175.914 173.338  1.00  0.00     0.200 A 
ENDROOT
BRANCH   1   7
ATOM      7  C   UNL     1     141.840 175.686 170.145  1.00  0.00     0.072 C 
ATOM      8  O   UNL     1     142.122 176.124 168.999  1.00  0.00    -0.545 OA
ATOM      9  O   UNL     1     140.585 175.127 170.362  1.00  0.00    -0.545 OA
ENDBRANCH   1   7
BRANCH   4  10
ATOM     10  O   UNL     1     142.848 175.695 174.937  1.00  0.00    -0.504 OA
ATOM     11  H   UNL     1     141.940 175.327 175.183  1.00  0.00     0.293 HD
ENDBRANCH   4  10
BRANCH   5  12
ATOM     12  O   UNL     1     146.479 176.125 171.666  1.00  0.00    -0.504 OA
ATOM     13  H   UNL     1     147.041 176.897 172.005  1.00  0.00     0.293 HD
ENDBRANCH   5  12
BRANCH   6  14
ATOM     14  O   UNL     1     145.686 175.993 174.340  1.00  0.00    -0.502 OA
ATOM     15  H   UNL     1     145.718 176.716 175.044  1.00  0.00     0.293 HD
ENDBRANCH   6  14
TORSDOF 4
ENDMDL
MODEL 5
REMARK VINA RESULT:    -0.838      1.202      3.735
REMARK INTER + INTRA:          -1.007
REMARK INTER:                  -0.956
REMARK INTRA:                  -0.052
REMARK UNBOUND:                -0.047
REMARK SMILES O=C([O-])c1cc(O)c(O)c(O)c1
REMARK SMILES IDX 4 1 5 2 12 3 6 4 10 5 8 6 2 7 1 8 3 9 7 10 11 12 9 14
REMARK H PARENT 7 11 11 13 9 15
REMARK Flexibility Score: inf
ROOT
ATOM      1  C   UNL     1     144.012 172.000 177.786  1.00  0.00     0.005 A 
ATOM      2  C   UNL     1     143.161 173.114 177.707  1.00  0.00     0.060 A 
ATOM      3  C   UNL     1     143.748 170.885 176.979  1.00  0.00     0.060 A 
ATOM      4  C   UNL     1     142.064 173.123 176.838  1.00  0.00     0.162 A 
ATOM      5  C   UNL     1     142.656 170.876 176.106  1.00  0.00     0.162 A 
ATOM      6  C   UNL     1     141.804 171.992 176.026  1.00  0.00     0.200 A 
ENDROOT
BRANCH   1   7
ATOM      7  C   UNL     1     145.170 171.999 178.707  1.00  0.00     0.072 C 
ATOM      8  O   UNL     1     145.657 173.082 179.125  1.00  0.00    -0.545 OA
ATOM      9  O   UNL     1     145.737 170.800 179.125  1.00  0.00    -0.545 OA
ENDBRANCH   1   7
BRANCH   4  10
ATOM     10  O   UNL     1     141.263 174.268 176.816  1.00  0.00    -0.504 OA
ATOM     11  H   UNL     1     141.090 174.823 175.990  1.00  0.00     0.293 HD
ENDBRANCH   4  10
BRANCH   5  12
ATOM     12  O   UNL     1     142.434 169.743 175.322  1.00  0.00    -0.504 OA
ATOM     13  H   UNL     1     143.065 169.467 174.578  1.00  0.00     0.293 HD
ENDBRANCH   5  12
BRANCH   6  14
ATOM     14  O   UNL     1     140.724 171.943 175.141  1.00  0.00    -0.502 OA
ATOM     15  H   UNL     1     140.281 171.089 174.833  1.00  0.00     0.293 HD
ENDBRANCH   6  14
TORSDOF 4
ENDMDL
MODEL 6
REMARK VINA RESULT:    -0.806      2.194      3.013
REMARK INTER + INTRA:          -0.971
REMARK INTER:                  -0.924
REMARK INTRA:                  -0.048
REMARK UNBOUND:                -0.047
REMARK SMILES O=C([O-])c1cc(O)c(O)c(O)c1
REMARK SMILES IDX 4 1 5 2 12 3 6 4 10 5 8 6 2 7 1 8 3 9 7 10 11 12 9 14
REMARK H PARENT 7 11 11 13 9 15
REMARK Flexibility Score: inf
ROOT
ATOM      1  C   UNL     1     142.136 173.781 175.162  1.00  0.00     0.005 A 
ATOM      2  C   UNL     1     142.175 174.293 176.469  1.00  0.00     0.060 A 
ATOM      3  C   UNL     1     141.871 172.417 174.973  1.00  0.00     0.060 A 
ATOM      4  C   UNL     1     141.955 173.463 177.574  1.00  0.00     0.162 A 
ATOM      5  C   UNL     1     141.649 171.575 176.066  1.00  0.00     0.162 A 
ATOM      6  C   UNL     1     141.688 172.087 177.376  1.00  0.00     0.200 A 
ENDROOT
BRANCH   1   7
ATOM      7  C   UNL     1     142.371 174.665 173.998  1.00  0.00     0.072 C 
ATOM      8  O   UNL     1     141.575 174.664 173.022  1.00  0.00    -0.545 OA
ATOM      9  O   UNL     1     143.475 175.510 173.966  1.00  0.00    -0.545 OA
ENDBRANCH   1   7
BRANCH   4  10
ATOM     10  O   UNL     1     142.011 174.046 178.843  1.00  0.00    -0.504 OA
ATOM     11  H   UNL     1     142.854 174.132 179.391  1.00  0.00     0.293 HD
ENDBRANCH   4  10
BRANCH   5  12
ATOM     12  O   UNL     1     141.389 170.224 175.829  1.00  0.00    -0.504 OA
ATOM     13  H   UNL     1     141.849 169.485 176.346  1.00  0.00     0.293 HD
ENDBRANCH   5  12
BRANCH   6  14
ATOM     14  O   UNL     1     141.461 171.211 178.440  1.00  0.00    -0.502 OA
ATOM     15  H   UNL     1     142.095 171.081 179.215  1.00  0.00     0.293 HD
ENDBRANCH   6  14
TORSDOF 4
ENDMDL
MODEL 7
REMARK VINA RESULT:    -0.782      1.273      4.072
REMARK INTER + INTRA:          -0.943
REMARK INTER:                  -0.894
REMARK INTRA:                  -0.049
REMARK UNBOUND:                -0.047
REMARK SMILES O=C([O-])c1cc(O)c(O)c(O)c1
REMARK SMILES IDX 4 1 5 2 12 3 6 4 10 5 8 6 2 7 1 8 3 9 7 10 11 12 9 14
REMARK H PARENT 7 11 11 13 9 15
REMARK Flexibility Score: inf
ROOT
ATOM      1  C   UNL     1     144.154 171.863 178.033  1.00  0.00     0.005 A 
ATOM      2  C   UNL     1     143.955 170.885 177.046  1.00  0.00     0.060 A 
ATOM      3  C   UNL     1     143.126 172.780 178.299  1.00  0.00     0.060 A 
ATOM      4  C   UNL     1     142.754 170.817 176.331  1.00  0.00     0.162 A 
ATOM      5  C   UNL     1     141.920 172.725 177.595  1.00  0.00     0.162 A 
ATOM      6  C   UNL     1     141.721 171.745 176.605  1.00  0.00     0.200 A 
ENDROOT
BRANCH   1   7
ATOM      7  C   UNL     1     145.427 171.929 178.784  1.00  0.00     0.072 C 
ATOM      8  O   UNL     1     146.026 170.876 179.125  1.00  0.00    -0.545 OA
ATOM      9  O   UNL     1     145.981 173.159 179.125  1.00  0.00    -0.545 OA
ENDBRANCH   1   7
BRANCH   4  10
ATOM     10  O   UNL     1     142.631 169.816 175.364  1.00  0.00    -0.504 OA
ATOM     11  H   UNL     1     142.529 169.992 174.375  1.00  0.00     0.293 HD
ENDBRANCH   4  10
BRANCH   5  12
ATOM     12  O   UNL     1     140.927 173.658 177.894  1.00  0.00    -0.504 OA
ATOM     13  H   UNL     1     140.273 173.528 178.658  1.00  0.00     0.293 HD
ENDBRANCH   5  12
BRANCH   6  14
ATOM     14  O   UNL     1     140.501 171.726 175.925  1.00  0.00    -0.502 OA
ATOM     15  H   UNL     1     140.375 171.354 174.995  1.00  0.00     0.293 HD
ENDBRANCH   6  14
TORSDOF 4
ENDMDL
MODEL 8
REMARK VINA RESULT:    -0.458      1.376      3.873
REMARK INTER + INTRA:          -0.573
REMARK INTER:                  -0.525
REMARK INTRA:                  -0.047
REMARK UNBOUND:                -0.047
REMARK SMILES O=C([O-])c1cc(O)c(O)c(O)c1
REMARK SMILES IDX 4 1 5 2 12 3 6 4 10 5 8 6 2 7 1 8 3 9 7 10 11 12 9 14
REMARK H PARENT 7 11 11 13 9 15
REMARK Flexibility Score: inf
ROOT
ATOM      1  C   UNL     1     142.181 170.964 176.588  1.00  0.00     0.005 A 
ATOM      2  C   UNL     1     141.627 172.152 177.089  1.00  0.00     0.060 A 
ATOM      3  C   UNL     1     143.494 170.623 176.943  1.00  0.00     0.060 A 
ATOM      4  C   UNL     1     142.364 172.992 177.932  1.00  0.00     0.162 A 
ATOM      5  C   UNL     1     144.244 171.451 177.784  1.00  0.00     0.162 A 
ATOM      6  C   UNL     1     143.689 172.641 178.287  1.00  0.00     0.200 A 
ENDROOT
BRANCH   1   7
ATOM      7  C   UNL     1     141.396 170.082 175.697  1.00  0.00     0.072 C 
ATOM      8  O   UNL     1     140.851 170.540 174.658  1.00  0.00    -0.545 OA
ATOM      9  O   UNL     1     141.247 168.731 175.995  1.00  0.00    -0.545 OA
ENDBRANCH   1   7
BRANCH   4  10
ATOM     10  O   UNL     1     141.743 174.157 178.391  1.00  0.00    -0.504 OA
ATOM     11  H   UNL     1     141.730 175.030 177.883  1.00  0.00     0.293 HD
ENDBRANCH   4  10
BRANCH   5  12
ATOM     12  O   UNL     1     145.547 171.070 178.110  1.00  0.00    -0.504 OA
ATOM     13  H   UNL     1     145.745 170.302 178.741  1.00  0.00     0.293 HD
ENDBRANCH   5  12
BRANCH   6  14
ATOM     14  O   UNL     1     144.473 173.439 179.123  1.00  0.00    -0.502 OA
ATOM     15  H   UNL     1     144.538 174.444 179.053  1.00  0.00     0.293 HD
ENDBRANCH   6  14
TORSDOF 4
ENDMDL
MODEL 9
REMARK VINA RESULT:    -0.380      5.696      6.960
REMARK INTER + INTRA:          -0.483
REMARK INTER:                  -0.430
REMARK INTRA:                  -0.053
REMARK UNBOUND:                -0.047
REMARK SMILES O=C([O-])c1cc(O)c(O)c(O)c1
REMARK SMILES IDX 4 1 5 2 12 3 6 4 10 5 8 6 2 7 1 8 3 9 7 10 11 12 9 14
REMARK H PARENT 7 11 11 13 9 15
REMARK Flexibility Score: inf
ROOT
ATOM      1  C   UNL     1     142.851 175.949 171.204  1.00  0.00     0.005 A 
ATOM      2  C   UNL     1     144.232 176.060 170.976  1.00  0.00     0.060 A 
ATOM      3  C   UNL     1     142.390 175.783 172.519  1.00  0.00     0.060 A 
ATOM      4  C   UNL     1     145.144 176.007 172.037  1.00  0.00     0.162 A 
ATOM      5  C   UNL     1     143.288 175.727 173.589  1.00  0.00     0.162 A 
ATOM      6  C   UNL     1     144.671 175.839 173.360  1.00  0.00     0.200 A 
ENDROOT
BRANCH   1   7
ATOM      7  C   UNL     1     141.893 176.006 170.078  1.00  0.00     0.072 C 
ATOM      8  O   UNL     1     140.653 175.949 170.288  1.00  0.00    -0.545 OA
ATOM      9  O   UNL     1     142.350 176.125 168.770  1.00  0.00    -0.545 OA
ENDBRANCH   1   7
BRANCH   4  10
ATOM     10  O   UNL     1     146.502 176.125 171.730  1.00  0.00    -0.504 OA
ATOM     11  H   UNL     1     146.880 176.793 171.074  1.00  0.00     0.293 HD
ENDBRANCH   4  10
BRANCH   5  12
ATOM     12  O   UNL     1     142.782 175.561 174.878  1.00  0.00    -0.504 OA
ATOM     13  H   UNL     1     142.961 174.728 175.427  1.00  0.00     0.293 HD
ENDBRANCH   5  12
BRANCH   6  14
ATOM     14  O   UNL     1     145.533 175.778 174.458  1.00  0.00    -0.502 OA
ATOM     15  H   UNL     1     145.969 174.931 174.792  1.00  0.00     0.293 HD
ENDBRANCH   6  14
TORSDOF 4
ENDMDL
