MODEL 1
REMARK VINA RESULT:    -6.553      0.000      0.000
REMARK INTER + INTRA:          -7.107
REMARK INTER:                  -7.127
REMARK INTRA:                   0.020
REMARK UNBOUND:                 0.020
REMARK SMILES C[C@@H]1[C@@H](C)CC[C@@]2(C(=O)[O-])CC[C@]3(C)C(=CC[C@@H]4[C@@]5(C)CC[C@H](O)C(C)(C)[C@H]5CC[C@]43C)[C@@H]12
REMARK SMILES IDX 7 1 6 2 11 3 33 4 5 5 12 6 15 7 2 8 3 9 13 10 16 11 1 12
REMARK SMILES IDX 4 13 14 14 31 15 17 16 18 17 30 18 32 19 19 20 29 21 28 22
REMARK SMILES IDX 21 23 20 24 25 25 22 26 23 27 26 28 27 29 8 30 9 31 10 32
REMARK SMILES IDX 24 33
REMARK H PARENT 24 34
REMARK Flexibility Score: inf
ROOT
ATOM      1  C   UNL     1      20.097 -14.043  29.489  1.00  0.00     0.017 C 
ATOM      2  C   UNL     1      20.950 -12.737  29.487  1.00  0.00     0.014 C 
ATOM      3  C   UNL     1      18.907 -13.859  28.519  1.00  0.00     0.014 C 
ATOM      4  C   UNL     1      20.996 -15.292  29.101  1.00  0.00     0.030 C 
ATOM      5  C   UNL     1      22.168 -12.815  30.409  1.00  0.00     0.004 C 
ATOM      6  C   UNL     1      19.311 -13.842  27.048  1.00  0.00     0.013 C 
ATOM      7  C   UNL     1      21.188 -15.477  27.561  1.00  0.00    -0.063 C 
ATOM      8  C   UNL     1      22.341 -15.328  29.954  1.00  0.00    -0.003 C 
ATOM      9  C   UNL     1      23.100 -13.975  30.024  1.00  0.00    -0.011 C 
ATOM     10  C   UNL     1      20.034 -15.142  26.592  1.00  0.00    -0.006 C 
ATOM     11  C   UNL     1      22.108 -16.367  27.109  1.00  0.00    -0.027 C 
ATOM     12  C   UNL     1      22.123 -15.906  31.368  1.00  0.00     0.008 C 
ATOM     13  C   UNL     1      23.880 -13.680  28.730  1.00  0.00     0.008 C 
ATOM     14  C   UNL     1      18.998 -16.316  26.746  1.00  0.00     0.017 C 
ATOM     15  C   UNL     1      20.574 -14.966  25.070  1.00  0.00    -0.020 C 
ATOM     16  C   UNL     1      22.532 -16.473  25.670  1.00  0.00     0.032 C 
ATOM     17  C   UNL     1      21.403 -16.222  24.639  1.00  0.00     0.006 C 
ATOM     18  C   UNL     1      19.368 -14.811  24.091  1.00  0.00     0.008 C 
ATOM     19  C   UNL     1      21.472 -13.686  24.988  1.00  0.00     0.012 C 
ATOM     20  C   UNL     1      21.857 -16.308  23.086  1.00  0.00    -0.025 C 
ATOM     21  C   UNL     1      19.620 -15.113  22.603  1.00  0.00     0.005 C 
ATOM     22  C   UNL     1      21.102 -15.256  22.159  1.00  0.00     0.003 C 
ATOM     23  C   UNL     1      21.508 -17.752  22.589  1.00  0.00     0.010 C 
ATOM     24  C   UNL     1      23.406 -16.119  22.963  1.00  0.00     0.012 C 
ATOM     25  C   UNL     1      21.216 -15.519  20.576  1.00  0.00    -0.006 C 
ATOM     26  C   UNL     1      21.733 -17.990  21.096  1.00  0.00     0.033 C 
ATOM     27  C   UNL     1      20.918 -17.015  20.241  1.00  0.00     0.120 C 
ATOM     28  C   UNL     1      20.190 -14.650  19.789  1.00  0.00     0.014 C 
ATOM     29  C   UNL     1      22.619 -15.101  20.023  1.00  0.00     0.014 C 
ENDROOT
BRANCH   1  30
ATOM     30  C   UNL     1      19.444 -14.254  30.855  1.00  0.00     0.048 C 
ATOM     31  O   UNL     1      19.307 -13.299  31.668  1.00  0.00    -0.550 OA
ATOM     32  O   UNL     1      18.887 -15.486  31.183  1.00  0.00    -0.550 OA
ENDBRANCH   1  30
BRANCH  27  33
ATOM     33  O   UNL     1      21.183 -17.291  18.886  1.00  0.00    -0.393 OA
ATOM     34  H   UNL     1      20.414 -16.949  18.357  1.00  0.00     0.210 HD
ENDBRANCH  27  33
TORSDOF 2
ENDMDL
MODEL 2
REMARK VINA RESULT:    -6.359      1.547      8.146
REMARK INTER + INTRA:          -6.896
REMARK INTER:                  -7.421
REMARK INTRA:                   0.524
REMARK UNBOUND:                 0.020
REMARK SMILES C[C@@H]1[C@@H](C)CC[C@@]2(C(=O)[O-])CC[C@]3(C)C(=CC[C@@H]4[C@@]5(C)CC[C@H](O)C(C)(C)[C@H]5CC[C@]43C)[C@@H]12
REMARK SMILES IDX 7 1 6 2 11 3 33 4 5 5 12 6 15 7 2 8 3 9 13 10 16 11 1 12
REMARK SMILES IDX 4 13 14 14 31 15 17 16 18 17 30 18 32 19 19 20 29 21 28 22
REMARK SMILES IDX 21 23 20 24 25 25 22 26 23 27 26 28 27 29 8 30 9 31 10 32
REMARK SMILES IDX 24 33
REMARK H PARENT 24 34
REMARK Flexibility Score: inf
ROOT
ATOM      1  C   UNL     1      20.420 -15.115  21.364  1.00  0.00     0.017 C 
ATOM      2  C   UNL     1      20.495 -16.663  21.183  1.00  0.00     0.014 C 
ATOM      3  C   UNL     1      19.135 -14.771  22.153  1.00  0.00     0.014 C 
ATOM      4  C   UNL     1      21.726 -14.578  22.088  1.00  0.00     0.030 C 
ATOM      5  C   UNL     1      21.741 -17.117  20.422  1.00  0.00     0.004 C 
ATOM      6  C   UNL     1      19.188 -15.179  23.622  1.00  0.00     0.013 C 
ATOM      7  C   UNL     1      21.686 -14.715  23.644  1.00  0.00    -0.063 C 
ATOM      8  C   UNL     1      23.047 -15.143  21.399  1.00  0.00    -0.003 C 
ATOM      9  C   UNL     1      23.033 -16.673  21.128  1.00  0.00    -0.011 C 
ATOM     10  C   UNL     1      20.357 -14.516  24.405  1.00  0.00    -0.006 C 
ATOM     11  C   UNL     1      22.821 -14.500  24.359  1.00  0.00    -0.027 C 
ATOM     12  C   UNL     1      23.419 -14.366  20.119  1.00  0.00     0.008 C 
ATOM     13  C   UNL     1      23.300 -17.491  22.405  1.00  0.00     0.008 C 
ATOM     14  C   UNL     1      20.091 -12.966  24.393  1.00  0.00     0.017 C 
ATOM     15  C   UNL     1      20.437 -15.137  25.904  1.00  0.00    -0.020 C 
ATOM     16  C   UNL     1      22.957 -14.812  25.825  1.00  0.00     0.032 C 
ATOM     17  C   UNL     1      21.679 -14.563  26.664  1.00  0.00     0.006 C 
ATOM     18  C   UNL     1      19.151 -14.760  26.705  1.00  0.00     0.008 C 
ATOM     19  C   UNL     1      20.547 -16.696  25.810  1.00  0.00     0.012 C 
ATOM     20  C   UNL     1      21.810 -14.921  28.239  1.00  0.00    -0.025 C 
ATOM     21  C   UNL     1      19.230 -14.823  28.242  1.00  0.00     0.005 C 
ATOM     22  C   UNL     1      20.471 -15.531  28.851  1.00  0.00     0.003 C 
ATOM     23  C   UNL     1      22.135 -13.583  28.985  1.00  0.00     0.010 C 
ATOM     24  C   UNL     1      23.005 -15.904  28.474  1.00  0.00     0.012 C 
ATOM     25  C   UNL     1      20.395 -15.566  30.457  1.00  0.00    -0.006 C 
ATOM     26  C   UNL     1      22.157 -13.686  30.510  1.00  0.00     0.033 C 
ATOM     27  C   UNL     1      20.821 -14.190  31.061  1.00  0.00     0.120 C 
ATOM     28  C   UNL     1      18.945 -15.862  30.943  1.00  0.00     0.014 C 
ATOM     29  C   UNL     1      21.270 -16.720  31.049  1.00  0.00     0.014 C 
ENDROOT
BRANCH   1  30
ATOM     30  C   UNL     1      20.232 -14.426  20.013  1.00  0.00     0.048 C 
ATOM     31  O   UNL     1      20.632 -14.964  18.944  1.00  0.00    -0.550 OA
ATOM     32  O   UNL     1      19.514 -13.237  19.926  1.00  0.00    -0.550 OA
ENDBRANCH   1  30
BRANCH  27  33
ATOM     33  O   UNL     1      20.923 -14.264  32.463  1.00  0.00    -0.393 OA
ATOM     34  H   UNL     1      21.817 -13.911  32.715  1.00  0.00     0.210 HD
ENDBRANCH  27  33
TORSDOF 2
ENDMDL
MODEL 3
REMARK VINA RESULT:    -5.895      2.285      8.569
REMARK INTER + INTRA:          -6.391
REMARK INTER:                  -6.571
REMARK INTRA:                   0.180
REMARK UNBOUND:                 0.020
REMARK SMILES C[C@@H]1[C@@H](C)CC[C@@]2(C(=O)[O-])CC[C@]3(C)C(=CC[C@@H]4[C@@]5(C)CC[C@H](O)C(C)(C)[C@H]5CC[C@]43C)[C@@H]12
REMARK SMILES IDX 7 1 6 2 11 3 33 4 5 5 12 6 15 7 2 8 3 9 13 10 16 11 1 12
REMARK SMILES IDX 4 13 14 14 31 15 17 16 18 17 30 18 32 19 19 20 29 21 28 22
REMARK SMILES IDX 21 23 20 24 25 25 22 26 23 27 26 28 27 29 8 30 9 31 10 32
REMARK SMILES IDX 24 33
REMARK H PARENT 24 34
REMARK Flexibility Score: inf
ROOT
ATOM      1  C   UNL     1      19.710 -16.910  24.968  1.00  0.00     0.017 C 
ATOM      2  C   UNL     1      21.191 -16.763  24.500  1.00  0.00     0.014 C 
ATOM      3  C   UNL     1      19.683 -17.733  26.276  1.00  0.00     0.014 C 
ATOM      4  C   UNL     1      19.041 -15.482  25.148  1.00  0.00     0.030 C 
ATOM      5  C   UNL     1      21.335 -15.949  23.214  1.00  0.00     0.004 C 
ATOM      6  C   UNL     1      20.240 -16.986  27.484  1.00  0.00     0.013 C 
ATOM      7  C   UNL     1      19.359 -14.806  26.521  1.00  0.00    -0.063 C 
ATOM      8  C   UNL     1      19.289 -14.558  23.873  1.00  0.00    -0.003 C 
ATOM      9  C   UNL     1      20.758 -14.533  23.368  1.00  0.00    -0.011 C 
ATOM     10  C   UNL     1      19.478 -15.666  27.798  1.00  0.00    -0.006 C 
ATOM     11  C   UNL     1      19.034 -13.501  26.710  1.00  0.00    -0.027 C 
ATOM     12  C   UNL     1      18.320 -14.883  22.718  1.00  0.00     0.008 C 
ATOM     13  C   UNL     1      21.657 -13.638  24.241  1.00  0.00     0.008 C 
ATOM     14  C   UNL     1      18.005 -16.069  28.176  1.00  0.00     0.017 C 
ATOM     15  C   UNL     1      20.241 -14.859  28.983  1.00  0.00    -0.020 C 
ATOM     16  C   UNL     1      19.481 -12.691  27.896  1.00  0.00     0.032 C 
ATOM     17  C   UNL     1      19.552 -13.476  29.230  1.00  0.00     0.006 C 
ATOM     18  C   UNL     1      20.185 -15.682  30.309  1.00  0.00     0.008 C 
ATOM     19  C   UNL     1      21.738 -14.640  28.576  1.00  0.00     0.012 C 
ATOM     20  C   UNL     1      20.058 -12.617  30.507  1.00  0.00    -0.025 C 
ATOM     21  C   UNL     1      20.406 -14.917  31.627  1.00  0.00     0.005 C 
ATOM     22  C   UNL     1      20.954 -13.467  31.512  1.00  0.00     0.003 C 
ATOM     23  C   UNL     1      18.777 -12.134  31.267  1.00  0.00     0.010 C 
ATOM     24  C   UNL     1      20.841 -11.347  30.031  1.00  0.00     0.012 C 
ATOM     25  C   UNL     1      21.184 -12.812  32.963  1.00  0.00    -0.006 C 
ATOM     26  C   UNL     1      19.046 -11.420  32.592  1.00  0.00     0.033 C 
ATOM     27  C   UNL     1      19.832 -12.307  33.561  1.00  0.00     0.120 C 
ATOM     28  C   UNL     1      21.778 -13.851  33.960  1.00  0.00     0.014 C 
ATOM     29  C   UNL     1      22.229 -11.649  32.910  1.00  0.00     0.014 C 
ENDROOT
BRANCH   1  30
ATOM     30  C   UNL     1      18.915 -17.754  23.972  1.00  0.00     0.048 C 
ATOM     31  O   UNL     1      17.706 -18.045  24.181  1.00  0.00    -0.550 OA
ATOM     32  O   UNL     1      19.483 -18.125  22.757  1.00  0.00    -0.550 OA
ENDBRANCH   1  30
BRANCH  27  33
ATOM     33  O   UNL     1      20.045 -11.581  34.748  1.00  0.00    -0.393 OA
ATOM     34  H   UNL     1      20.597 -10.787  34.515  1.00  0.00     0.210 HD
ENDBRANCH  27  33
TORSDOF 2
ENDMDL
MODEL 4
REMARK VINA RESULT:    -5.540      1.510      8.325
REMARK INTER + INTRA:          -6.005
REMARK INTER:                  -6.066
REMARK INTRA:                   0.061
REMARK UNBOUND:                 0.020
REMARK SMILES C[C@@H]1[C@@H](C)CC[C@@]2(C(=O)[O-])CC[C@]3(C)C(=CC[C@@H]4[C@@]5(C)CC[C@H](O)C(C)(C)[C@H]5CC[C@]43C)[C@@H]12
REMARK SMILES IDX 7 1 6 2 11 3 33 4 5 5 12 6 15 7 2 8 3 9 13 10 16 11 1 12
REMARK SMILES IDX 4 13 14 14 31 15 17 16 18 17 30 18 32 19 19 20 29 21 28 22
REMARK SMILES IDX 21 23 20 24 25 25 22 26 23 27 26 28 27 29 8 30 9 31 10 32
REMARK SMILES IDX 24 33
REMARK H PARENT 24 34
REMARK Flexibility Score: inf
ROOT
ATOM      1  C   UNL     1      23.085 -16.046  21.832  1.00  0.00     0.017 C 
ATOM      2  C   UNL     1      22.580 -14.728  21.169  1.00  0.00     0.014 C 
ATOM      3  C   UNL     1      24.176 -15.693  22.869  1.00  0.00     0.014 C 
ATOM      4  C   UNL     1      21.875 -16.838  22.485  1.00  0.00     0.030 C 
ATOM      5  C   UNL     1      21.483 -14.962  20.129  1.00  0.00     0.004 C 
ATOM      6  C   UNL     1      23.637 -14.994  24.113  1.00  0.00     0.013 C 
ATOM      7  C   UNL     1      21.483 -16.327  23.909  1.00  0.00    -0.063 C 
ATOM      8  C   UNL     1      20.658 -16.983  21.467  1.00  0.00    -0.003 C 
ATOM      9  C   UNL     1      20.262 -15.670  20.739  1.00  0.00    -0.011 C 
ATOM     10  C   UNL     1      22.576 -15.833  24.882  1.00  0.00    -0.006 C 
ATOM     11  C   UNL     1      20.332 -16.768  24.480  1.00  0.00    -0.027 C 
ATOM     12  C   UNL     1      20.876 -18.125  20.453  1.00  0.00     0.008 C 
ATOM     13  C   UNL     1      19.446 -14.728  21.643  1.00  0.00     0.008 C 
ATOM     14  C   UNL     1      23.306 -17.130  25.393  1.00  0.00     0.017 C 
ATOM     15  C   UNL     1      21.939 -14.946  26.084  1.00  0.00    -0.020 C 
ATOM     16  C   UNL     1      19.747 -16.188  25.738  1.00  0.00     0.032 C 
ATOM     17  C   UNL     1      20.789 -15.738  26.793  1.00  0.00     0.006 C 
ATOM     18  C   UNL     1      23.037 -14.618  27.144  1.00  0.00     0.008 C 
ATOM     19  C   UNL     1      21.375 -13.610  25.494  1.00  0.00     0.012 C 
ATOM     20  C   UNL     1      20.168 -15.088  28.140  1.00  0.00    -0.025 C 
ATOM     21  C   UNL     1      22.564 -14.223  28.555  1.00  0.00     0.005 C 
ATOM     22  C   UNL     1      21.054 -13.900  28.723  1.00  0.00     0.003 C 
ATOM     23  C   UNL     1      20.101 -16.231  29.209  1.00  0.00     0.010 C 
ATOM     24  C   UNL     1      18.706 -14.590  27.878  1.00  0.00     0.012 C 
ATOM     25  C   UNL     1      20.715 -13.455  30.231  1.00  0.00    -0.006 C 
ATOM     26  C   UNL     1      19.670 -15.782  30.605  1.00  0.00     0.033 C 
ATOM     27  C   UNL     1      20.603 -14.703  31.163  1.00  0.00     0.120 C 
ATOM     28  C   UNL     1      21.833 -12.538  30.809  1.00  0.00     0.014 C 
ATOM     29  C   UNL     1      19.406 -12.601  30.298  1.00  0.00     0.014 C 
ENDROOT
BRANCH   1  30
ATOM     30  C   UNL     1      23.807 -16.919  20.806  1.00  0.00     0.048 C 
ATOM     31  O   UNL     1      23.979 -16.527  19.619  1.00  0.00    -0.550 OA
ATOM     32  O   UNL     1      24.387 -18.123  21.193  1.00  0.00    -0.550 OA
ENDBRANCH   1  30
BRANCH  27  33
ATOM     33  O   UNL     1      20.139 -14.339  32.441  1.00  0.00    -0.393 OA
ATOM     34  H   UNL     1      20.149 -13.346  32.489  1.00  0.00     0.210 HD
ENDBRANCH  27  33
TORSDOF 2
ENDMDL
MODEL 5
REMARK VINA RESULT:    -5.242      1.889      2.589
REMARK INTER + INTRA:          -5.682
REMARK INTER:                  -7.197
REMARK INTRA:                   1.515
REMARK UNBOUND:                 0.020
REMARK SMILES C[C@@H]1[C@@H](C)CC[C@@]2(C(=O)[O-])CC[C@]3(C)C(=CC[C@@H]4[C@@]5(C)CC[C@H](O)C(C)(C)[C@H]5CC[C@]43C)[C@@H]12
REMARK SMILES IDX 7 1 6 2 11 3 33 4 5 5 12 6 15 7 2 8 3 9 13 10 16 11 1 12
REMARK SMILES IDX 4 13 14 14 31 15 17 16 18 17 30 18 32 19 19 20 29 21 28 22
REMARK SMILES IDX 21 23 20 24 25 25 22 26 23 27 26 28 27 29 8 30 9 31 10 32
REMARK SMILES IDX 24 33
REMARK H PARENT 24 34
REMARK Flexibility Score: inf
ROOT
ATOM      1  C   UNL     1      19.470 -16.596  29.364  1.00  0.00     0.017 C 
ATOM      2  C   UNL     1      19.356 -15.182  30.013  1.00  0.00     0.014 C 
ATOM      3  C   UNL     1      18.199 -16.858  28.522  1.00  0.00     0.014 C 
ATOM      4  C   UNL     1      20.794 -16.704  28.496  1.00  0.00     0.030 C 
ATOM      5  C   UNL     1      20.574 -14.814  30.863  1.00  0.00     0.004 C 
ATOM      6  C   UNL     1      18.123 -16.019  27.250  1.00  0.00     0.013 C 
ATOM      7  C   UNL     1      20.655 -16.107  27.058  1.00  0.00    -0.063 C 
ATOM      8  C   UNL     1      22.066 -16.199  29.311  1.00  0.00    -0.003 C 
ATOM      9  C   UNL     1      21.872 -14.841  30.040  1.00  0.00    -0.011 C 
ATOM     10  C   UNL     1      19.324 -16.246  26.288  1.00  0.00    -0.006 C 
ATOM     11  C   UNL     1      21.768 -15.937  26.299  1.00  0.00    -0.027 C 
ATOM     12  C   UNL     1      22.601 -17.270  30.285  1.00  0.00     0.008 C 
ATOM     13  C   UNL     1      21.966 -13.645  29.075  1.00  0.00     0.008 C 
ATOM     14  C   UNL     1      19.258 -17.748  25.824  1.00  0.00     0.017 C 
ATOM     15  C   UNL     1      19.245 -15.194  25.052  1.00  0.00    -0.020 C 
ATOM     16  C   UNL     1      21.787 -15.180  25.000  1.00  0.00     0.032 C 
ATOM     17  C   UNL     1      20.508 -15.334  24.139  1.00  0.00     0.006 C 
ATOM     18  C   UNL     1      17.977 -15.482  24.188  1.00  0.00     0.008 C 
ATOM     19  C   UNL     1      19.162 -13.738  25.621  1.00  0.00     0.012 C 
ATOM     20  C   UNL     1      20.510 -14.501  22.750  1.00  0.00    -0.025 C 
ATOM     21  C   UNL     1      17.967 -14.946  22.745  1.00  0.00     0.005 C 
ATOM     22  C   UNL     1      19.075 -13.923  22.370  1.00  0.00     0.003 C 
ATOM     23  C   UNL     1      20.963 -15.491  21.624  1.00  0.00     0.010 C 
ATOM     24  C   UNL     1      21.557 -13.338  22.816  1.00  0.00     0.012 C 
ATOM     25  C   UNL     1      18.910 -13.412  20.854  1.00  0.00    -0.006 C 
ATOM     26  C   UNL     1      20.892 -14.927  20.205  1.00  0.00     0.033 C 
ATOM     27  C   UNL     1      19.475 -14.468  19.851  1.00  0.00     0.120 C 
ATOM     28  C   UNL     1      17.411 -13.184  20.499  1.00  0.00     0.014 C 
ATOM     29  C   UNL     1      19.600 -12.024  20.636  1.00  0.00     0.014 C 
ENDROOT
BRANCH   1  30
ATOM     30  C   UNL     1      19.442 -17.682  30.439  1.00  0.00     0.048 C 
ATOM     31  O   UNL     1      20.508 -18.125  30.948  1.00  0.00    -0.550 OA
ATOM     32  O   UNL     1      18.229 -18.125  30.958  1.00  0.00    -0.550 OA
ENDBRANCH   1  30
BRANCH  27  33
ATOM     33  O   UNL     1      19.493 -13.958  18.538  1.00  0.00    -0.393 OA
ATOM     34  H   UNL     1      18.583 -13.609  18.343  1.00  0.00     0.210 HD
ENDBRANCH  27  33
TORSDOF 2
ENDMDL
MODEL 6
REMARK VINA RESULT:    -5.217      1.924      8.332
REMARK INTER + INTRA:          -5.654
REMARK INTER:                  -5.678
REMARK INTRA:                   0.024
REMARK UNBOUND:                 0.020
REMARK SMILES C[C@@H]1[C@@H](C)CC[C@@]2(C(=O)[O-])CC[C@]3(C)C(=CC[C@@H]4[C@@]5(C)CC[C@H](O)C(C)(C)[C@H]5CC[C@]43C)[C@@H]12
REMARK SMILES IDX 7 1 6 2 11 3 33 4 5 5 12 6 15 7 2 8 3 9 13 10 16 11 1 12
REMARK SMILES IDX 4 13 14 14 31 15 17 16 18 17 30 18 32 19 19 20 29 21 28 22
REMARK SMILES IDX 21 23 20 24 25 25 22 26 23 27 26 28 27 29 8 30 9 31 10 32
REMARK SMILES IDX 24 33
REMARK H PARENT 24 34
REMARK Flexibility Score: inf
ROOT
ATOM      1  C   UNL     1      20.380 -16.282  23.667  1.00  0.00     0.017 C 
ATOM      2  C   UNL     1      21.211 -15.176  22.947  1.00  0.00     0.014 C 
ATOM      3  C   UNL     1      21.341 -17.156  24.506  1.00  0.00     0.014 C 
ATOM      4  C   UNL     1      19.240 -15.628  24.557  1.00  0.00     0.030 C 
ATOM      5  C   UNL     1      20.352 -14.240  22.095  1.00  0.00     0.004 C 
ATOM      6  C   UNL     1      21.904 -16.446  25.733  1.00  0.00     0.013 C 
ATOM      7  C   UNL     1      19.732 -15.149  25.961  1.00  0.00    -0.063 C 
ATOM      8  C   UNL     1      18.408 -14.547  23.733  1.00  0.00    -0.003 C 
ATOM      9  C   UNL     1      19.274 -13.535  22.934  1.00  0.00    -0.011 C 
ATOM     10  C   UNL     1      20.807 -15.955  26.720  1.00  0.00    -0.006 C 
ATOM     11  C   UNL     1      18.913 -14.379  26.724  1.00  0.00    -0.027 C 
ATOM     12  C   UNL     1      17.346 -15.195  22.821  1.00  0.00     0.008 C 
ATOM     13  C   UNL     1      19.874 -12.443  23.839  1.00  0.00     0.008 C 
ATOM     14  C   UNL     1      20.073 -17.238  27.258  1.00  0.00     0.017 C 
ATOM     15  C   UNL     1      21.485 -15.068  27.900  1.00  0.00    -0.020 C 
ATOM     16  C   UNL     1      19.354 -13.685  27.983  1.00  0.00     0.032 C 
ATOM     17  C   UNL     1      20.381 -14.473  28.835  1.00  0.00     0.006 C 
ATOM     18  C   UNL     1      22.431 -15.963  28.762  1.00  0.00     0.008 C 
ATOM     19  C   UNL     1      22.317 -13.908  27.257  1.00  0.00     0.012 C 
ATOM     20  C   UNL     1      20.880 -13.721  30.180  1.00  0.00    -0.025 C 
ATOM     21  C   UNL     1      22.783 -15.465  30.176  1.00  0.00     0.005 C 
ATOM     22  C   UNL     1      22.413 -13.994  30.512  1.00  0.00     0.003 C 
ATOM     23  C   UNL     1      20.008 -14.270  31.360  1.00  0.00     0.010 C 
ATOM     24  C   UNL     1      20.620 -12.180  30.069  1.00  0.00     0.012 C 
ATOM     25  C   UNL     1      22.884 -13.598  31.999  1.00  0.00    -0.006 C 
ATOM     26  C   UNL     1      20.424 -13.783  32.748  1.00  0.00     0.033 C 
ATOM     27  C   UNL     1      21.878 -14.147  33.061  1.00  0.00     0.120 C 
ATOM     28  C   UNL     1      24.283 -14.201  32.323  1.00  0.00     0.014 C 
ATOM     29  C   UNL     1      23.057 -12.051  32.155  1.00  0.00     0.014 C 
ENDROOT
BRANCH   1  30
ATOM     30  C   UNL     1      19.779 -17.249  22.648  1.00  0.00     0.048 C 
ATOM     31  O   UNL     1      20.250 -17.346  21.482  1.00  0.00    -0.550 OA
ATOM     32  O   UNL     1      18.765 -18.125  23.025  1.00  0.00    -0.550 OA
ENDBRANCH   1  30
BRANCH  27  33
ATOM     33  O   UNL     1      22.187 -13.661  34.346  1.00  0.00    -0.393 OA
ATOM     34  H   UNL     1      23.083 -13.235  34.295  1.00  0.00     0.210 HD
ENDBRANCH  27  33
TORSDOF 2
ENDMDL
MODEL 7
REMARK VINA RESULT:    -4.383      1.467      1.890
REMARK INTER + INTRA:          -4.746
REMARK INTER:                  -4.759
REMARK INTRA:                   0.013
REMARK UNBOUND:                 0.020
REMARK SMILES C[C@@H]1[C@@H](C)CC[C@@]2(C(=O)[O-])CC[C@]3(C)C(=CC[C@@H]4[C@@]5(C)CC[C@H](O)C(C)(C)[C@H]5CC[C@]43C)[C@@H]12
REMARK SMILES IDX 7 1 6 2 11 3 33 4 5 5 12 6 15 7 2 8 3 9 13 10 16 11 1 12
REMARK SMILES IDX 4 13 14 14 31 15 17 16 18 17 30 18 32 19 19 20 29 21 28 22
REMARK SMILES IDX 21 23 20 24 25 25 22 26 23 27 26 28 27 29 8 30 9 31 10 32
REMARK SMILES IDX 24 33
REMARK H PARENT 24 34
REMARK Flexibility Score: inf
ROOT
ATOM      1  C   UNL     1      20.859 -12.974  30.939  1.00  0.00     0.017 C 
ATOM      2  C   UNL     1      21.785 -11.762  30.611  1.00  0.00     0.014 C 
ATOM      3  C   UNL     1      19.536 -12.813  30.156  1.00  0.00     0.014 C 
ATOM      4  C   UNL     1      21.592 -14.340  30.598  1.00  0.00     0.030 C 
ATOM      5  C   UNL     1      23.134 -11.828  31.328  1.00  0.00     0.004 C 
ATOM      6  C   UNL     1      19.682 -13.027  28.653  1.00  0.00     0.013 C 
ATOM      7  C   UNL     1      21.505 -14.742  29.090  1.00  0.00    -0.063 C 
ATOM      8  C   UNL     1      23.058 -14.385  31.220  1.00  0.00    -0.003 C 
ATOM      9  C   UNL     1      23.907 -13.108  30.971  1.00  0.00    -0.011 C 
ATOM     10  C   UNL     1      20.227 -14.435  28.280  1.00  0.00    -0.006 C 
ATOM     11  C   UNL     1      22.272 -15.764  28.630  1.00  0.00    -0.027 C 
ATOM     12  C   UNL     1      23.047 -14.749  32.719  1.00  0.00     0.008 C 
ATOM     13  C   UNL     1      24.472 -13.058  29.539  1.00  0.00     0.008 C 
ATOM     14  C   UNL     1      19.157 -15.481  28.766  1.00  0.00     0.017 C 
ATOM     15  C   UNL     1      20.509 -14.511  26.682  1.00  0.00    -0.020 C 
ATOM     16  C   UNL     1      22.435 -16.096  27.172  1.00  0.00     0.032 C 
ATOM     17  C   UNL     1      21.166 -15.882  26.310  1.00  0.00     0.006 C 
ATOM     18  C   UNL     1      19.166 -14.378  25.897  1.00  0.00     0.008 C 
ATOM     19  C   UNL     1      21.464 -13.339  26.273  1.00  0.00     0.012 C 
ATOM     20  C   UNL     1      21.340 -16.214  24.734  1.00  0.00    -0.025 C 
ATOM     21  C   UNL     1      19.139 -14.896  24.447  1.00  0.00     0.005 C 
ATOM     22  C   UNL     1      20.511 -15.229  23.797  1.00  0.00     0.003 C 
ATOM     23  C   UNL     1      20.816 -17.673  24.514  1.00  0.00     0.010 C 
ATOM     24  C   UNL     1      22.855 -16.183  24.338  1.00  0.00     0.012 C 
ATOM     25  C   UNL     1      20.334 -15.707  22.271  1.00  0.00    -0.006 C 
ATOM     26  C   UNL     1      20.765 -18.124  23.054  1.00  0.00     0.033 C 
ATOM     27  C   UNL     1      19.883 -17.201  22.209  1.00  0.00     0.120 C 
ATOM     28  C   UNL     1      19.249 -14.860  21.541  1.00  0.00     0.014 C 
ATOM     29  C   UNL     1      21.646 -15.494  21.446  1.00  0.00     0.014 C 
ENDROOT
BRANCH   1  30
ATOM     30  C   UNL     1      20.437 -12.943  32.408  1.00  0.00     0.048 C 
ATOM     31  O   UNL     1      20.540 -11.891  33.095  1.00  0.00    -0.550 OA
ATOM     32  O   UNL     1      19.825 -14.052  32.985  1.00  0.00    -0.550 OA
ENDBRANCH   1  30
BRANCH  27  33
ATOM     33  O   UNL     1      19.893 -17.676  20.884  1.00  0.00    -0.393 OA
ATOM     34  H   UNL     1      19.071 -18.221  20.757  1.00  0.00     0.210 HD
ENDBRANCH  27  33
TORSDOF 2
ENDMDL
