MODEL 1
REMARK VINA RESULT:     7.676      0.000      0.000
REMARK INTER + INTRA:          13.062
REMARK INTER:                  13.959
REMARK INTRA:                  -0.896
REMARK UNBOUND:                -0.896
REMARK SMILES CCCCCCCCCCCCCCCC(=O)[O-]
REMARK SMILES IDX 9 1 10 2 11 3 12 4 13 5 14 6 15 7 16 8 17 9 18 10 8 11 7 12
REMARK SMILES IDX 6 13 5 14 4 15 3 16 2 17 1 18
REMARK H PARENT
REMARK Flexibility Score: inf
ROOT
ATOM      1  C   UNL     1     -35.437  23.418   5.945  1.00  0.00     0.000 C 
ENDROOT
BRANCH   1   2
ATOM      2  C   UNL     1     -35.751  23.417   7.453  1.00  0.00     0.000 C 
BRANCH   2   3
ATOM      3  C   UNL     1     -36.222  22.042   7.953  1.00  0.00     0.000 C 
BRANCH   3   4
ATOM      4  C   UNL     1     -37.750  21.962   8.118  1.00  0.00     0.000 C 
BRANCH   4   5
ATOM      5  C   UNL     1     -38.405  20.974   7.136  1.00  0.00     0.000 C 
BRANCH   5   6
ATOM      6  C   UNL     1     -39.095  21.628   5.925  1.00  0.00     0.006 C 
BRANCH   6   7
ATOM      7  C   UNL     1     -39.125  23.159   6.008  1.00  0.00     0.053 C 
BRANCH   7   8
ATOM      8  C   UNL     1     -39.014  23.758   4.642  1.00  0.00     0.041 C 
ATOM      9  O   UNL     1     -39.024  25.009   4.496  1.00  0.00    -0.550 OA
ATOM     10  O   UNL     1     -38.847  22.937   3.534  1.00  0.00    -0.550 OA
ENDBRANCH   7   8
ENDBRANCH   6   7
ENDBRANCH   5   6
ENDBRANCH   4   5
ENDBRANCH   3   4
ENDBRANCH   2   3
ENDBRANCH   1   2
BRANCH   1  11
ATOM     11  C   UNL     1     -33.932  23.523   5.654  1.00  0.00     0.000 C 
BRANCH  11  12
ATOM     12  C   UNL     1     -33.522  24.918   5.148  1.00  0.00    -0.000 C 
BRANCH  12  13
ATOM     13  C   UNL     1     -32.812  25.750   6.227  1.00  0.00    -0.000 C 
BRANCH  13  14
ATOM     14  C   UNL     1     -32.199  24.878   7.338  1.00  0.00    -0.000 C 
BRANCH  14  15
ATOM     15  C   UNL     1     -30.944  24.116   6.876  1.00  0.00    -0.000 C 
BRANCH  15  16
ATOM     16  C   UNL     1     -29.699  24.314   7.759  1.00  0.00    -0.000 C 
BRANCH  16  17
ATOM     17  C   UNL     1     -28.390  24.333   6.955  1.00  0.00    -0.003 C 
ATOM     18  C   UNL     1     -27.700  25.690   7.061  1.00  0.00     0.004 C 
ENDBRANCH  16  17
ENDBRANCH  15  16
ENDBRANCH  14  15
ENDBRANCH  13  14
ENDBRANCH  12  13
ENDBRANCH  11  12
ENDBRANCH   1  11
TORSDOF 14
ENDMDL
MODEL 2
REMARK VINA RESULT:     9.357     12.987     14.934
REMARK INTER + INTRA:          16.119
REMARK INTER:                  16.690
REMARK INTRA:                  -0.570
REMARK UNBOUND:                -0.896
REMARK SMILES CCCCCCCCCCCCCCCC(=O)[O-]
REMARK SMILES IDX 9 1 10 2 11 3 12 4 13 5 14 6 15 7 16 8 17 9 18 10 8 11 7 12
REMARK SMILES IDX 6 13 5 14 4 15 3 16 2 17 1 18
REMARK H PARENT
REMARK Flexibility Score: inf
ROOT
ATOM      1  C   UNL     1     -27.573  31.279  -3.030  1.00  0.00     0.000 C 
ENDROOT
BRANCH   1   2
ATOM      2  C   UNL     1     -28.800  32.190  -3.217  1.00  0.00     0.000 C 
BRANCH   2   3
ATOM      3  C   UNL     1     -29.857  31.984  -2.120  1.00  0.00     0.000 C 
BRANCH   3   4
ATOM      4  C   UNL     1     -31.235  31.599  -2.687  1.00  0.00     0.000 C 
BRANCH   4   5
ATOM      5  C   UNL     1     -31.910  30.465  -1.894  1.00  0.00     0.000 C 
BRANCH   5   6
ATOM      6  C   UNL     1     -32.820  29.545  -2.730  1.00  0.00     0.006 C 
BRANCH   6   7
ATOM      7  C   UNL     1     -33.923  30.310  -3.473  1.00  0.00     0.053 C 
BRANCH   7   8
ATOM      8  C   UNL     1     -35.227  30.175  -2.753  1.00  0.00     0.041 C 
ATOM      9  O   UNL     1     -35.325  30.525  -1.548  1.00  0.00    -0.550 OA
ATOM     10  O   UNL     1     -36.349  29.710  -3.428  1.00  0.00    -0.550 OA
ENDBRANCH   7   8
ENDBRANCH   6   7
ENDBRANCH   5   6
ENDBRANCH   4   5
ENDBRANCH   3   4
ENDBRANCH   2   3
ENDBRANCH   1   2
BRANCH   1  11
ATOM     11  C   UNL     1     -26.427  31.625  -3.994  1.00  0.00     0.000 C 
BRANCH  11  12
ATOM     12  C   UNL     1     -26.405  30.718  -5.238  1.00  0.00    -0.000 C 
BRANCH  12  13
ATOM     13  C   UNL     1     -27.186  31.319  -6.418  1.00  0.00    -0.000 C 
BRANCH  13  14
ATOM     14  C   UNL     1     -27.196  30.396  -7.650  1.00  0.00    -0.000 C 
BRANCH  14  15
ATOM     15  C   UNL     1     -26.291  30.905  -8.787  1.00  0.00    -0.000 C 
BRANCH  15  16
ATOM     16  C   UNL     1     -24.816  31.117  -8.402  1.00  0.00    -0.000 C 
BRANCH  16  17
ATOM     17  C   UNL     1     -24.161  32.284  -9.155  1.00  0.00    -0.003 C 
ATOM     18  C   UNL     1     -22.652  32.086  -9.273  1.00  0.00     0.004 C 
ENDBRANCH  16  17
ENDBRANCH  15  16
ENDBRANCH  14  15
ENDBRANCH  13  14
ENDBRANCH  12  13
ENDBRANCH  11  12
ENDBRANCH   1  11
TORSDOF 14
ENDMDL
MODEL 3
REMARK VINA RESULT:     9.436     17.231     19.688
REMARK INTER + INTRA:          16.262
REMARK INTER:                  17.044
REMARK INTRA:                  -0.782
REMARK UNBOUND:                -0.896
REMARK SMILES CCCCCCCCCCCCCCCC(=O)[O-]
REMARK SMILES IDX 9 1 10 2 11 3 12 4 13 5 14 6 15 7 16 8 17 9 18 10 8 11 7 12
REMARK SMILES IDX 6 13 5 14 4 15 3 16 2 17 1 18
REMARK H PARENT
REMARK Flexibility Score: inf
ROOT
ATOM      1  C   UNL     1     -25.118  27.933  -7.967  1.00  0.00     0.000 C 
ENDROOT
BRANCH   1   2
ATOM      2  C   UNL     1     -23.922  27.048  -7.571  1.00  0.00     0.000 C 
BRANCH   2   3
ATOM      3  C   UNL     1     -22.787  27.851  -6.917  1.00  0.00     0.000 C 
BRANCH   3   4
ATOM      4  C   UNL     1     -21.448  27.093  -6.914  1.00  0.00     0.000 C 
BRANCH   4   5
ATOM      5  C   UNL     1     -21.193  26.334  -5.599  1.00  0.00     0.000 C 
BRANCH   5   6
ATOM      6  C   UNL     1     -19.755  25.814  -5.421  1.00  0.00     0.006 C 
BRANCH   6   7
ATOM      7  C   UNL     1     -19.213  25.113  -6.674  1.00  0.00     0.053 C 
BRANCH   7   8
ATOM      8  C   UNL     1     -19.514  23.648  -6.624  1.00  0.00     0.041 C 
ATOM      9  O   UNL     1     -20.168  23.168  -5.661  1.00  0.00    -0.550 OA
ATOM     10  O   UNL     1     -19.117  22.822  -7.667  1.00  0.00    -0.550 OA
ENDBRANCH   7   8
ENDBRANCH   6   7
ENDBRANCH   5   6
ENDBRANCH   4   5
ENDBRANCH   3   4
ENDBRANCH   2   3
ENDBRANCH   1   2
BRANCH   1  11
ATOM     11  C   UNL     1     -26.465  27.345  -7.517  1.00  0.00     0.000 C 
BRANCH  11  12
ATOM     12  C   UNL     1     -27.514  28.430  -7.214  1.00  0.00    -0.000 C 
BRANCH  12  13
ATOM     13  C   UNL     1     -26.879  29.746  -6.740  1.00  0.00    -0.000 C 
BRANCH  13  14
ATOM     14  C   UNL     1     -27.338  30.957  -7.573  1.00  0.00    -0.000 C 
BRANCH  14  15
ATOM     15  C   UNL     1     -26.417  31.241  -8.774  1.00  0.00    -0.000 C 
BRANCH  15  16
ATOM     16  C   UNL     1     -24.912  31.256  -8.453  1.00  0.00    -0.000 C 
BRANCH  16  17
ATOM     17  C   UNL     1     -24.153  32.370  -9.189  1.00  0.00    -0.003 C 
ATOM     18  C   UNL     1     -22.652  32.093  -9.209  1.00  0.00     0.004 C 
ENDBRANCH  16  17
ENDBRANCH  15  16
ENDBRANCH  14  15
ENDBRANCH  13  14
ENDBRANCH  12  13
ENDBRANCH  11  12
ENDBRANCH   1  11
TORSDOF 14
ENDMDL
MODEL 4
REMARK VINA RESULT:     9.789      3.030      6.831
REMARK INTER + INTRA:          16.905
REMARK INTER:                  14.169
REMARK INTRA:                   2.736
REMARK UNBOUND:                -0.896
REMARK SMILES CCCCCCCCCCCCCCCC(=O)[O-]
REMARK SMILES IDX 9 1 10 2 11 3 12 4 13 5 14 6 15 7 16 8 17 9 18 10 8 11 7 12
REMARK SMILES IDX 6 13 5 14 4 15 3 16 2 17 1 18
REMARK H PARENT
REMARK Flexibility Score: inf
ROOT
ATOM      1  C   UNL     1     -36.782  21.201   7.106  1.00  0.00     0.000 C 
ENDROOT
BRANCH   1   2
ATOM      2  C   UNL     1     -36.041  22.089   8.122  1.00  0.00     0.000 C 
BRANCH   2   3
ATOM      3  C   UNL     1     -34.822  22.795   7.507  1.00  0.00     0.000 C 
BRANCH   3   4
ATOM      4  C   UNL     1     -35.214  23.850   6.457  1.00  0.00     0.000 C 
BRANCH   4   5
ATOM      5  C   UNL     1     -34.526  23.624   5.098  1.00  0.00     0.000 C 
BRANCH   5   6
ATOM      6  C   UNL     1     -33.129  24.257   4.967  1.00  0.00     0.006 C 
BRANCH   6   7
ATOM      7  C   UNL     1     -32.747  25.118   6.178  1.00  0.00     0.053 C 
BRANCH   7   8
ATOM      8  C   UNL     1     -33.101  26.551   5.933  1.00  0.00     0.041 C 
ATOM      9  O   UNL     1     -33.776  27.191   6.781  1.00  0.00    -0.550 OA
ATOM     10  O   UNL     1     -32.643  27.194   4.790  1.00  0.00    -0.550 OA
ENDBRANCH   7   8
ENDBRANCH   6   7
ENDBRANCH   5   6
ENDBRANCH   4   5
ENDBRANCH   3   4
ENDBRANCH   2   3
ENDBRANCH   1   2
BRANCH   1  11
ATOM     11  C   UNL     1     -38.230  20.903   7.526  1.00  0.00     0.000 C 
BRANCH  11  12
ATOM     12  C   UNL     1     -39.054  22.181   7.760  1.00  0.00    -0.000 C 
BRANCH  12  13
ATOM     13  C   UNL     1     -39.120  23.075   6.512  1.00  0.00    -0.000 C 
BRANCH  13  14
ATOM     14  C   UNL     1     -38.976  22.277   5.204  1.00  0.00    -0.000 C 
BRANCH  14  15
ATOM     15  C   UNL     1     -38.388  23.114   4.053  1.00  0.00    -0.000 C 
BRANCH  15  16
ATOM     16  C   UNL     1     -38.709  24.617   4.110  1.00  0.00    -0.000 C 
BRANCH  16  17
ATOM     17  C   UNL     1     -39.122  25.090   5.512  1.00  0.00    -0.003 C 
ATOM     18  C   UNL     1     -37.907  25.230   6.425  1.00  0.00     0.004 C 
ENDBRANCH  16  17
ENDBRANCH  15  16
ENDBRANCH  14  15
ENDBRANCH  13  14
ENDBRANCH  12  13
ENDBRANCH  11  12
ENDBRANCH   1  11
TORSDOF 14
ENDMDL
MODEL 5
REMARK VINA RESULT:     9.852     14.008     16.966
REMARK INTER + INTRA:          17.019
REMARK INTER:                  17.771
REMARK INTRA:                  -0.752
REMARK UNBOUND:                -0.896
REMARK SMILES CCCCCCCCCCCCCCCC(=O)[O-]
REMARK SMILES IDX 9 1 10 2 11 3 12 4 13 5 14 6 15 7 16 8 17 9 18 10 8 11 7 12
REMARK SMILES IDX 6 13 5 14 4 15 3 16 2 17 1 18
REMARK H PARENT
REMARK Flexibility Score: inf
ROOT
ATOM      1  C   UNL     1     -27.746  31.260  -2.911  1.00  0.00     0.000 C 
ENDROOT
BRANCH   1   2
ATOM      2  C   UNL     1     -26.523  31.441  -3.828  1.00  0.00     0.000 C 
BRANCH   2   3
ATOM      3  C   UNL     1     -26.620  30.598  -5.110  1.00  0.00     0.000 C 
BRANCH   3   4
ATOM      4  C   UNL     1     -26.898  31.450  -6.361  1.00  0.00     0.000 C 
BRANCH   4   5
ATOM      5  C   UNL     1     -27.397  30.614  -7.554  1.00  0.00     0.000 C 
BRANCH   5   6
ATOM      6  C   UNL     1     -26.361  30.400  -8.672  1.00  0.00     0.006 C 
BRANCH   6   7
ATOM      7  C   UNL     1     -24.929  30.733  -8.233  1.00  0.00     0.053 C 
BRANCH   7   8
ATOM      8  C   UNL     1     -24.364  31.829  -9.079  1.00  0.00     0.041 C 
ATOM      9  O   UNL     1     -25.125  32.537  -9.790  1.00  0.00    -0.550 OA
ATOM     10  O   UNL     1     -23.004  32.104  -9.043  1.00  0.00    -0.550 OA
ENDBRANCH   7   8
ENDBRANCH   6   7
ENDBRANCH   5   6
ENDBRANCH   4   5
ENDBRANCH   3   4
ENDBRANCH   2   3
ENDBRANCH   1   2
BRANCH   1  11
ATOM     11  C   UNL     1     -28.862  32.275  -3.207  1.00  0.00     0.000 C 
BRANCH  11  12
ATOM     12  C   UNL     1     -30.018  32.196  -2.193  1.00  0.00    -0.000 C 
BRANCH  12  13
ATOM     13  C   UNL     1     -31.223  31.411  -2.735  1.00  0.00    -0.000 C 
BRANCH  13  14
ATOM     14  C   UNL     1     -31.859  30.498  -1.671  1.00  0.00    -0.000 C 
BRANCH  14  15
ATOM     15  C   UNL     1     -33.073  29.715  -2.203  1.00  0.00    -0.000 C 
BRANCH  15  16
ATOM     16  C   UNL     1     -33.513  30.083  -3.631  1.00  0.00    -0.000 C 
BRANCH  16  17
ATOM     17  C   UNL     1     -35.011  30.407  -3.733  1.00  0.00    -0.003 C 
ATOM     18  C   UNL     1     -35.676  30.373  -2.360  1.00  0.00     0.004 C 
ENDBRANCH  16  17
ENDBRANCH  15  16
ENDBRANCH  14  15
ENDBRANCH  13  14
ENDBRANCH  12  13
ENDBRANCH  11  12
ENDBRANCH   1  11
TORSDOF 14
ENDMDL
MODEL 6
REMARK VINA RESULT:    10.267     17.132     18.844
REMARK INTER + INTRA:          17.775
REMARK INTER:                  18.370
REMARK INTRA:                  -0.596
REMARK UNBOUND:                -0.896
REMARK SMILES CCCCCCCCCCCCCCCC(=O)[O-]
REMARK SMILES IDX 9 1 10 2 11 3 12 4 13 5 14 6 15 7 16 8 17 9 18 10 8 11 7 12
REMARK SMILES IDX 6 13 5 14 4 15 3 16 2 17 1 18
REMARK H PARENT
REMARK Flexibility Score: inf
ROOT
ATOM      1  C   UNL     1     -24.161  26.978  -7.396  1.00  0.00     0.000 C 
ENDROOT
BRANCH   1   2
ATOM      2  C   UNL     1     -25.424  27.611  -8.007  1.00  0.00     0.000 C 
BRANCH   2   3
ATOM      3  C   UNL     1     -26.708  27.169  -7.289  1.00  0.00     0.000 C 
BRANCH   3   4
ATOM      4  C   UNL     1     -27.799  28.255  -7.300  1.00  0.00     0.000 C 
BRANCH   4   5
ATOM      5  C   UNL     1     -27.253  29.653  -6.956  1.00  0.00     0.000 C 
BRANCH   5   6
ATOM      6  C   UNL     1     -26.766  30.472  -8.166  1.00  0.00     0.006 C 
BRANCH   6   7
ATOM      7  C   UNL     1     -25.508  31.295  -7.863  1.00  0.00     0.053 C 
BRANCH   7   8
ATOM      8  C   UNL     1     -24.809  31.669  -9.132  1.00  0.00     0.041 C 
ATOM      9  O   UNL     1     -25.436  31.666 -10.224  1.00  0.00    -0.550 OA
ATOM     10  O   UNL     1     -23.480  32.069  -9.102  1.00  0.00    -0.550 OA
ENDBRANCH   7   8
ENDBRANCH   6   7
ENDBRANCH   5   6
ENDBRANCH   4   5
ENDBRANCH   3   4
ENDBRANCH   2   3
ENDBRANCH   1   2
BRANCH   1  11
ATOM     11  C   UNL     1     -23.084  28.019  -7.052  1.00  0.00     0.000 C 
BRANCH  11  12
ATOM     12  C   UNL     1     -21.662  27.429  -7.069  1.00  0.00    -0.000 C 
BRANCH  12  13
ATOM     13  C   UNL     1     -21.507  26.239  -6.109  1.00  0.00    -0.000 C 
BRANCH  13  14
ATOM     14  C   UNL     1     -20.390  26.458  -5.073  1.00  0.00    -0.000 C 
BRANCH  14  15
ATOM     15  C   UNL     1     -19.355  25.318  -5.059  1.00  0.00    -0.000 C 
BRANCH  15  16
ATOM     16  C   UNL     1     -19.067  24.683  -6.430  1.00  0.00    -0.000 C 
BRANCH  16  17
ATOM     17  C   UNL     1     -19.205  23.153  -6.423  1.00  0.00    -0.003 C 
ATOM     18  C   UNL     1     -19.054  22.580  -7.830  1.00  0.00     0.004 C 
ENDBRANCH  16  17
ENDBRANCH  15  16
ENDBRANCH  14  15
ENDBRANCH  13  14
ENDBRANCH  12  13
ENDBRANCH  11  12
ENDBRANCH   1  11
TORSDOF 14
ENDMDL
MODEL 7
REMARK VINA RESULT:    10.312     16.575     20.083
REMARK INTER + INTRA:          17.855
REMARK INTER:                  18.421
REMARK INTRA:                  -0.567
REMARK UNBOUND:                -0.896
REMARK SMILES CCCCCCCCCCCCCCCC(=O)[O-]
REMARK SMILES IDX 9 1 10 2 11 3 12 4 13 5 14 6 15 7 16 8 17 9 18 10 8 11 7 12
REMARK SMILES IDX 6 13 5 14 4 15 3 16 2 17 1 18
REMARK H PARENT
REMARK Flexibility Score: inf
ROOT
ATOM      1  C   UNL     1     -23.114  29.765  -7.729  1.00  0.00     0.000 C 
ENDROOT
BRANCH   1   2
ATOM      2  C   UNL     1     -22.172  28.549  -7.672  1.00  0.00     0.000 C 
BRANCH   2   3
ATOM      3  C   UNL     1     -22.508  27.599  -6.513  1.00  0.00     0.000 C 
BRANCH   3   4
ATOM      4  C   UNL     1     -21.312  26.726  -6.093  1.00  0.00     0.000 C 
BRANCH   4   5
ATOM      5  C   UNL     1     -20.157  26.766  -7.110  1.00  0.00     0.000 C 
BRANCH   5   6
ATOM      6  C   UNL     1     -19.002  25.792  -6.815  1.00  0.00     0.006 C 
BRANCH   6   7
ATOM      7  C   UNL     1     -19.229  24.961  -5.546  1.00  0.00     0.053 C 
BRANCH   7   8
ATOM      8  C   UNL     1     -19.564  23.547  -5.901  1.00  0.00     0.041 C 
ATOM      9  O   UNL     1     -20.181  22.817  -5.081  1.00  0.00    -0.550 OA
ATOM     10  O   UNL     1     -19.242  23.051  -7.157  1.00  0.00    -0.550 OA
ENDBRANCH   7   8
ENDBRANCH   6   7
ENDBRANCH   5   6
ENDBRANCH   4   5
ENDBRANCH   3   4
ENDBRANCH   2   3
ENDBRANCH   1   2
BRANCH   1  11
ATOM     11  C   UNL     1     -22.738  30.754  -8.844  1.00  0.00     0.000 C 
BRANCH  11  12
ATOM     12  C   UNL     1     -23.583  32.040  -8.806  1.00  0.00    -0.000 C 
BRANCH  12  13
ATOM     13  C   UNL     1     -24.911  31.894  -9.564  1.00  0.00    -0.000 C 
BRANCH  13  14
ATOM     14  C   UNL     1     -25.798  30.773  -8.993  1.00  0.00    -0.000 C 
BRANCH  14  15
ATOM     15  C   UNL     1     -26.847  31.291  -7.992  1.00  0.00    -0.000 C 
BRANCH  15  16
ATOM     16  C   UNL     1     -27.269  30.282  -6.909  1.00  0.00    -0.000 C 
BRANCH  16  17
ATOM     17  C   UNL     1     -27.112  28.821  -7.356  1.00  0.00    -0.003 C 
ATOM     18  C   UNL     1     -28.209  27.943  -6.762  1.00  0.00     0.004 C 
ENDBRANCH  16  17
ENDBRANCH  15  16
ENDBRANCH  14  15
ENDBRANCH  13  14
ENDBRANCH  12  13
ENDBRANCH  11  12
ENDBRANCH   1  11
TORSDOF 14
ENDMDL
MODEL 8
REMARK VINA RESULT:    10.559      4.001      8.701
REMARK INTER + INTRA:          18.305
REMARK INTER:                  19.127
REMARK INTRA:                  -0.822
REMARK UNBOUND:                -0.896
REMARK SMILES CCCCCCCCCCCCCCCC(=O)[O-]
REMARK SMILES IDX 9 1 10 2 11 3 12 4 13 5 14 6 15 7 16 8 17 9 18 10 8 11 7 12
REMARK SMILES IDX 6 13 5 14 4 15 3 16 2 17 1 18
REMARK H PARENT
REMARK Flexibility Score: inf
ROOT
ATOM      1  C   UNL     1     -33.755  24.633   5.477  1.00  0.00     0.000 C 
ENDROOT
BRANCH   1   2
ATOM      2  C   UNL     1     -33.186  25.549   6.575  1.00  0.00     0.000 C 
BRANCH   2   3
ATOM      3  C   UNL     1     -32.204  24.815   7.502  1.00  0.00     0.000 C 
BRANCH   3   4
ATOM      4  C   UNL     1     -30.974  24.271   6.754  1.00  0.00     0.000 C 
BRANCH   4   5
ATOM      5  C   UNL     1     -29.797  23.952   7.693  1.00  0.00     0.000 C 
BRANCH   5   6
ATOM      6  C   UNL     1     -28.408  24.316   7.135  1.00  0.00     0.006 C 
BRANCH   6   7
ATOM      7  C   UNL     1     -27.976  25.744   7.493  1.00  0.00     0.053 C 
BRANCH   7   8
ATOM      8  C   UNL     1     -27.569  26.490   6.263  1.00  0.00     0.041 C 
ATOM      9  O   UNL     1     -26.600  26.086   5.567  1.00  0.00    -0.550 OA
ATOM     10  O   UNL     1     -28.292  27.604   5.855  1.00  0.00    -0.550 OA
ENDBRANCH   7   8
ENDBRANCH   6   7
ENDBRANCH   5   6
ENDBRANCH   4   5
ENDBRANCH   3   4
ENDBRANCH   2   3
ENDBRANCH   1   2
BRANCH   1  11
ATOM     11  C   UNL     1     -34.460  23.392   6.048  1.00  0.00     0.000 C 
BRANCH  11  12
ATOM     12  C   UNL     1     -35.892  23.691   6.526  1.00  0.00    -0.000 C 
BRANCH  12  13
ATOM     13  C   UNL     1     -36.449  22.590   7.442  1.00  0.00    -0.000 C 
BRANCH  13  14
ATOM     14  C   UNL     1     -37.984  22.624   7.540  1.00  0.00    -0.000 C 
BRANCH  14  15
ATOM     15  C   UNL     1     -38.667  21.627   6.586  1.00  0.00    -0.000 C 
BRANCH  15  16
ATOM     16  C   UNL     1     -38.878  22.138   5.150  1.00  0.00    -0.000 C 
BRANCH  16  17
ATOM     17  C   UNL     1     -39.123  23.654   5.082  1.00  0.00    -0.003 C 
ATOM     18  C   UNL     1     -38.932  24.179   3.662  1.00  0.00     0.004 C 
ENDBRANCH  16  17
ENDBRANCH  15  16
ENDBRANCH  14  15
ENDBRANCH  13  14
ENDBRANCH  12  13
ENDBRANCH  11  12
ENDBRANCH   1  11
TORSDOF 14
ENDMDL
