MODEL 1
REMARK VINA RESULT:    -6.738      0.000      0.000
REMARK INTER + INTRA:         -13.643
REMARK INTER:                 -11.662
REMARK INTRA:                  -1.981
REMARK UNBOUND:                -1.981
REMARK SMILES OC[C@@H]1O[C@@H](O[C@@H]2[C@H](O)[C@@H](O)[C@@H](O)O[C@@H]2CO)[C@@H](O)[C@H](O)[C@H]1O[C@H]1O[C@H](CO)[C@@H](O)[C@@H](O)[C@H]1O
REMARK SMILES IDX 22 1 3 2 4 3 5 4 18 5 20 6 23 7 24 8 26 9 29 10 25 11 31 12
REMARK SMILES IDX 33 13 27 14 28 15 30 17 32 19 34 21 2 23 1 24 21 26 19 28
REMARK SMILES IDX 6 30 7 31 15 32 8 33 14 34 10 35 12 36 16 37 17 38 9 40
REMARK SMILES IDX 11 42 13 44
REMARK H PARENT 28 16 30 18 32 20 34 22 1 25 21 27 19 29 17 39 9 41 11 43
REMARK H PARENT 13 45
REMARK Flexibility Score: inf
ROOT
ATOM      1  C   UNL     1      56.343   1.066  16.389  1.00  0.00     0.184 C 
ATOM      2  C   UNL     1      56.749   0.572  14.964  1.00  0.00     0.178 C 
ATOM      3  O   UNL     1      55.977  -0.512  14.439  1.00  0.00    -0.341 OA
ATOM      4  C   UNL     1      54.590  -0.259  14.486  1.00  0.00     0.282 C 
ATOM      5  C   UNL     1      54.131  -0.152  15.950  1.00  0.00     0.202 C 
ATOM      6  C   UNL     1      54.808   1.028  16.647  1.00  0.00     0.180 C 
ENDROOT
BRANCH   1   7
ATOM      7  O   UNL     1      57.037   0.290  17.378  1.00  0.00    -0.341 OA
BRANCH   7   8
ATOM      8  C   UNL     1      56.365   0.302  18.637  1.00  0.00     0.282 C 
ATOM      9  C   UNL     1      57.158  -1.712  19.746  1.00  0.00     0.178 C 
ATOM     10  C   UNL     1      58.558  -1.043  19.667  1.00  0.00     0.177 C 
ATOM     11  O   UNL     1      56.100  -1.022  19.071  1.00  0.00    -0.341 OA
ATOM     12  C   UNL     1      58.499   0.461  20.047  1.00  0.00     0.179 C 
ATOM     13  C   UNL     1      57.152   1.112  19.675  1.00  0.00     0.202 C 
BRANCH   9  14
ATOM     14  C   UNL     1      56.750  -1.985  21.196  1.00  0.00     0.191 C 
BRANCH  14  15
ATOM     15  O   UNL     1      55.397  -1.625  21.386  1.00  0.00    -0.394 OA
ATOM     16  H   UNL     1      54.840  -2.401  21.140  1.00  0.00     0.210 HD
ENDBRANCH  14  15
ENDBRANCH   9  14
BRANCH  10  17
ATOM     17  O   UNL     1      59.093  -1.211  18.381  1.00  0.00    -0.387 OA
ATOM     18  H   UNL     1      59.178  -2.191  18.219  1.00  0.00     0.211 HD
ENDBRANCH  10  17
BRANCH  12  19
ATOM     19  O   UNL     1      59.592   1.141  19.463  1.00  0.00    -0.387 OA
ATOM     20  H   UNL     1      59.260   1.618  18.664  1.00  0.00     0.211 HD
ENDBRANCH  12  19
BRANCH  13  21
ATOM     21  O   UNL     1      57.349   2.421  19.195  1.00  0.00    -0.385 OA
ATOM     22  H   UNL     1      57.947   2.357  18.420  1.00  0.00     0.211 HD
ENDBRANCH  13  21
ENDBRANCH   7   8
ENDBRANCH   1   7
BRANCH   2  23
ATOM     23  C   UNL     1      56.919   1.725  13.946  1.00  0.00     0.191 C 
BRANCH  23  24
ATOM     24  O   UNL     1      58.131   2.399  14.174  1.00  0.00    -0.394 OA
ATOM     25  H   UNL     1      58.616   2.448  13.328  1.00  0.00     0.210 HD
ENDBRANCH  23  24
ENDBRANCH   2  23
BRANCH   6  26
ATOM     26  O   UNL     1      54.210   2.229  16.198  1.00  0.00    -0.387 OA
ATOM     27  H   UNL     1      54.646   2.455  15.342  1.00  0.00     0.211 HD
ENDBRANCH   6  26
BRANCH   5  28
ATOM     28  O   UNL     1      54.349  -1.350  16.660  1.00  0.00    -0.385 OA
ATOM     29  H   UNL     1      55.304  -1.393  16.937  1.00  0.00     0.211 HD
ENDBRANCH   5  28
BRANCH   4  30
ATOM     30  O   UNL     1      53.768  -1.246  13.862  1.00  0.00    -0.341 OA
BRANCH  30  31
ATOM     31  C   UNL     1      54.007  -1.539  12.496  1.00  0.00     0.184 C 
ATOM     32  C   UNL     1      54.210  -3.070  12.368  1.00  0.00     0.178 C 
ATOM     33  C   UNL     1      52.777  -1.208  11.619  1.00  0.00     0.180 C 
ATOM     34  O   UNL     1      53.113  -3.871  12.835  1.00  0.00    -0.342 OA
ATOM     35  C   UNL     1      51.581  -2.171  11.856  1.00  0.00     0.201 C 
ATOM     36  C   UNL     1      51.861  -3.199  12.976  1.00  0.00     0.279 C 
BRANCH  32  37
ATOM     37  C   UNL     1      55.477  -3.544  13.089  1.00  0.00     0.191 C 
BRANCH  37  38
ATOM     38  O   UNL     1      55.317  -3.459  14.477  1.00  0.00    -0.394 OA
ATOM     39  H   UNL     1      54.480  -3.942  14.712  1.00  0.00     0.210 HD
ENDBRANCH  37  38
ENDBRANCH  32  37
BRANCH  33  40
ATOM     40  O   UNL     1      52.385   0.134  11.811  1.00  0.00    -0.387 OA
ATOM     41  H   UNL     1      52.433   0.341  12.776  1.00  0.00     0.211 HD
ENDBRANCH  33  40
BRANCH  35  42
ATOM     42  O   UNL     1      51.267  -2.824  10.648  1.00  0.00    -0.385 OA
ATOM     43  H   UNL     1      50.434  -2.407  10.294  1.00  0.00     0.211 HD
ENDBRANCH  35  42
BRANCH  36  44
ATOM     44  O   UNL     1      50.829  -4.162  13.019  1.00  0.00    -0.366 OA
ATOM     45  H   UNL     1      50.292  -3.993  13.842  1.00  0.00     0.213 HD
ENDBRANCH  36  44
ENDBRANCH  30  31
ENDBRANCH   4  30
TORSDOF 18
ENDMDL
MODEL 2
REMARK VINA RESULT:    -6.431      3.672      7.324
REMARK INTER + INTRA:         -13.111
REMARK INTER:                 -11.329
REMARK INTRA:                  -1.782
REMARK UNBOUND:                -1.981
REMARK SMILES OC[C@@H]1O[C@@H](O[C@@H]2[C@H](O)[C@@H](O)[C@@H](O)O[C@@H]2CO)[C@@H](O)[C@H](O)[C@H]1O[C@H]1O[C@H](CO)[C@@H](O)[C@@H](O)[C@H]1O
REMARK SMILES IDX 22 1 3 2 4 3 5 4 18 5 20 6 23 7 24 8 26 9 29 10 25 11 31 12
REMARK SMILES IDX 33 13 27 14 28 15 30 17 32 19 34 21 2 23 1 24 21 26 19 28
REMARK SMILES IDX 6 30 7 31 15 32 8 33 14 34 10 35 12 36 16 37 17 38 9 40
REMARK SMILES IDX 11 42 13 44
REMARK H PARENT 28 16 30 18 32 20 34 22 1 25 21 27 19 29 17 39 9 41 11 43
REMARK H PARENT 13 45
REMARK Flexibility Score: inf
ROOT
ATOM      1  C   UNL     1      58.587  -2.554  21.961  1.00  0.00     0.184 C 
ATOM      2  C   UNL     1      58.077  -1.078  22.004  1.00  0.00     0.178 C 
ATOM      3  O   UNL     1      58.115  -0.371  20.760  1.00  0.00    -0.341 OA
ATOM      4  C   UNL     1      57.471  -1.075  19.721  1.00  0.00     0.282 C 
ATOM      5  C   UNL     1      58.231  -2.381  19.429  1.00  0.00     0.202 C 
ATOM      6  C   UNL     1      58.214  -3.303  20.647  1.00  0.00     0.180 C 
ENDROOT
BRANCH   1   7
ATOM      7  O   UNL     1      60.007  -2.574  22.164  1.00  0.00    -0.341 OA
BRANCH   7   8
ATOM      8  C   UNL     1      60.592  -3.806  21.744  1.00  0.00     0.282 C 
ATOM      9  C   UNL     1      62.943  -3.267  21.435  1.00  0.00     0.178 C 
ATOM     10  C   UNL     1      62.933  -2.954  22.956  1.00  0.00     0.177 C 
ATOM     11  O   UNL     1      61.669  -3.566  20.853  1.00  0.00    -0.341 OA
ATOM     12  C   UNL     1      62.157  -4.031  23.761  1.00  0.00     0.179 C 
ATOM     13  C   UNL     1      61.007  -4.660  22.949  1.00  0.00     0.202 C 
BRANCH   9  14
ATOM     14  C   UNL     1      63.935  -4.384  21.100  1.00  0.00     0.191 C 
BRANCH  14  15
ATOM     15  O   UNL     1      65.130  -3.824  20.594  1.00  0.00    -0.394 OA
ATOM     16  H   UNL     1      64.924  -3.412  19.722  1.00  0.00     0.210 HD
ENDBRANCH  14  15
ENDBRANCH   9  14
BRANCH  10  17
ATOM     17  O   UNL     1      62.387  -1.679  23.176  1.00  0.00    -0.387 OA
ATOM     18  H   UNL     1      61.654  -1.550  22.514  1.00  0.00     0.211 HD
ENDBRANCH  10  17
BRANCH  12  19
ATOM     19  O   UNL     1      61.701  -3.478  24.978  1.00  0.00    -0.387 OA
ATOM     20  H   UNL     1      60.970  -4.050  25.316  1.00  0.00     0.211 HD
ENDBRANCH  12  19
BRANCH  13  21
ATOM     21  O   UNL     1      59.886  -4.887  23.770  1.00  0.00    -0.385 OA
ATOM     22  H   UNL     1      60.121  -4.576  24.670  1.00  0.00     0.211 HD
ENDBRANCH  13  21
ENDBRANCH   7   8
ENDBRANCH   1   7
BRANCH   2  23
ATOM     23  C   UNL     1      56.721  -0.923  22.731  1.00  0.00     0.191 C 
BRANCH  23  24
ATOM     24  O   UNL     1      56.928  -0.555  24.072  1.00  0.00    -0.394 OA
ATOM     25  H   UNL     1      57.885  -0.602  24.256  1.00  0.00     0.210 HD
ENDBRANCH  23  24
ENDBRANCH   2  23
BRANCH   6  26
ATOM     26  O   UNL     1      56.929  -3.882  20.765  1.00  0.00    -0.387 OA
ATOM     27  H   UNL     1      56.715  -4.268  19.883  1.00  0.00     0.211 HD
ENDBRANCH   6  26
BRANCH   5  28
ATOM     28  O   UNL     1      59.550  -2.137  18.998  1.00  0.00    -0.385 OA
ATOM     29  H   UNL     1      59.859  -2.906  18.446  1.00  0.00     0.211 HD
ENDBRANCH   5  28
BRANCH   4  30
ATOM     30  O   UNL     1      57.362  -0.370  18.483  1.00  0.00    -0.341 OA
BRANCH  30  31
ATOM     31  C   UNL     1      56.303   0.562  18.344  1.00  0.00     0.184 C 
ATOM     32  C   UNL     1      56.901   1.879  17.789  1.00  0.00     0.178 C 
ATOM     33  C   UNL     1      55.271   0.097  17.289  1.00  0.00     0.180 C 
ATOM     34  O   UNL     1      57.586   1.755  16.533  1.00  0.00    -0.342 OA
ATOM     35  C   UNL     1      55.818   0.149  15.836  1.00  0.00     0.201 C 
ATOM     36  C   UNL     1      57.301   0.579  15.776  1.00  0.00     0.279 C 
BRANCH  32  37
ATOM     37  C   UNL     1      57.863   2.538  18.785  1.00  0.00     0.191 C 
BRANCH  37  38
ATOM     38  O   UNL     1      59.103   1.889  18.777  1.00  0.00    -0.394 OA
ATOM     39  H   UNL     1      59.007   1.053  19.307  1.00  0.00     0.210 HD
ENDBRANCH  37  38
ENDBRANCH  32  37
BRANCH  33  40
ATOM     40  O   UNL     1      54.800  -1.196  17.602  1.00  0.00    -0.387 OA
ATOM     41  H   UNL     1      54.205  -1.132  18.389  1.00  0.00     0.211 HD
ENDBRANCH  33  40
BRANCH  35  42
ATOM     42  O   UNL     1      55.016   1.019  15.072  1.00  0.00    -0.385 OA
ATOM     43  H   UNL     1      55.610   1.739  14.722  1.00  0.00     0.211 HD
ENDBRANCH  35  42
BRANCH  36  44
ATOM     44  O   UNL     1      57.689   0.794  14.435  1.00  0.00    -0.366 OA
ATOM     45  H   UNL     1      57.150   1.555  14.083  1.00  0.00     0.213 HD
ENDBRANCH  36  44
ENDBRANCH  30  31
ENDBRANCH   4  30
TORSDOF 18
ENDMDL
MODEL 3
REMARK VINA RESULT:    -6.402      3.026      8.954
REMARK INTER + INTRA:         -13.061
REMARK INTER:                 -11.131
REMARK INTRA:                  -1.929
REMARK UNBOUND:                -1.981
REMARK SMILES OC[C@@H]1O[C@@H](O[C@@H]2[C@H](O)[C@@H](O)[C@@H](O)O[C@@H]2CO)[C@@H](O)[C@H](O)[C@H]1O[C@H]1O[C@H](CO)[C@@H](O)[C@@H](O)[C@H]1O
REMARK SMILES IDX 22 1 3 2 4 3 5 4 18 5 20 6 23 7 24 8 26 9 29 10 25 11 31 12
REMARK SMILES IDX 33 13 27 14 28 15 30 17 32 19 34 21 2 23 1 24 21 26 19 28
REMARK SMILES IDX 6 30 7 31 15 32 8 33 14 34 10 35 12 36 16 37 17 38 9 40
REMARK SMILES IDX 11 42 13 44
REMARK H PARENT 28 16 30 18 32 20 34 22 1 25 21 27 19 29 17 39 9 41 11 43
REMARK H PARENT 13 45
REMARK Flexibility Score: inf
ROOT
ATOM      1  C   UNL     1      56.378   0.624  20.006  1.00  0.00     0.184 C 
ATOM      2  C   UNL     1      56.145  -0.518  21.046  1.00  0.00     0.178 C 
ATOM      3  O   UNL     1      57.210  -1.465  21.178  1.00  0.00    -0.341 OA
ATOM      4  C   UNL     1      58.456  -0.845  21.411  1.00  0.00     0.282 C 
ATOM      5  C   UNL     1      58.856  -0.005  20.186  1.00  0.00     0.202 C 
ATOM      6  C   UNL     1      57.852   1.123  19.948  1.00  0.00     0.180 C 
ENDROOT
BRANCH   1   7
ATOM      7  O   UNL     1      55.947   0.183  18.710  1.00  0.00    -0.341 OA
BRANCH   7   8
ATOM      8  C   UNL     1      55.571   1.274  17.870  1.00  0.00     0.282 C 
ATOM      9  C   UNL     1      57.149   1.164  16.022  1.00  0.00     0.178 C 
ATOM     10  C   UNL     1      56.511  -0.222  15.735  1.00  0.00     0.177 C 
ATOM     11  O   UNL     1      56.710   1.815  17.219  1.00  0.00    -0.341 OA
ATOM     12  C   UNL     1      54.963  -0.178  15.848  1.00  0.00     0.179 C 
ATOM     13  C   UNL     1      54.475   0.857  16.880  1.00  0.00     0.202 C 
BRANCH   9  14
ATOM     14  C   UNL     1      56.984   2.113  14.832  1.00  0.00     0.191 C 
BRANCH  14  15
ATOM     15  O   UNL     1      57.890   1.756  13.808  1.00  0.00    -0.394 OA
ATOM     16  H   UNL     1      58.803   1.901  14.150  1.00  0.00     0.210 HD
ENDBRANCH  14  15
ENDBRANCH   9  14
BRANCH  10  17
ATOM     17  O   UNL     1      57.046  -1.182  16.608  1.00  0.00    -0.387 OA
ATOM     18  H   UNL     1      56.653  -1.019  17.508  1.00  0.00     0.211 HD
ENDBRANCH  10  17
BRANCH  12  19
ATOM     19  O   UNL     1      54.470  -1.473  16.125  1.00  0.00    -0.387 OA
ATOM     20  H   UNL     1      53.526  -1.506  15.838  1.00  0.00     0.211 HD
ENDBRANCH  12  19
BRANCH  13  21
ATOM     21  O   UNL     1      53.366   0.362  17.593  1.00  0.00    -0.385 OA
ATOM     22  H   UNL     1      53.628   0.314  18.536  1.00  0.00     0.211 HD
ENDBRANCH  13  21
ENDBRANCH   7   8
ENDBRANCH   1   7
BRANCH   2  23
ATOM     23  C   UNL     1      55.639  -0.002  22.413  1.00  0.00     0.191 C 
BRANCH  23  24
ATOM     24  O   UNL     1      54.268  -0.276  22.559  1.00  0.00    -0.394 OA
ATOM     25  H   UNL     1      53.825   0.540  22.862  1.00  0.00     0.210 HD
ENDBRANCH  23  24
ENDBRANCH   2  23
BRANCH   6  26
ATOM     26  O   UNL     1      58.062   2.132  20.916  1.00  0.00    -0.387 OA
ATOM     27  H   UNL     1      58.760   2.727  20.554  1.00  0.00     0.211 HD
ENDBRANCH   6  26
BRANCH   5  28
ATOM     28  O   UNL     1      59.007  -0.799  19.031  1.00  0.00    -0.385 OA
ATOM     29  H   UNL     1      59.300  -0.219  18.275  1.00  0.00     0.211 HD
ENDBRANCH   5  28
BRANCH   4  30
ATOM     30  O   UNL     1      59.540  -1.736  21.679  1.00  0.00    -0.341 OA
BRANCH  30  31
ATOM     31  C   UNL     1      59.273  -2.885  22.465  1.00  0.00     0.184 C 
ATOM     32  C   UNL     1      59.704  -4.129  21.649  1.00  0.00     0.178 C 
ATOM     33  C   UNL     1      60.138  -2.909  23.748  1.00  0.00     0.180 C 
ATOM     34  O   UNL     1      61.082  -4.145  21.245  1.00  0.00    -0.342 OA
ATOM     35  C   UNL     1      61.643  -3.168  23.464  1.00  0.00     0.201 C 
ATOM     36  C   UNL     1      61.954  -3.263  21.953  1.00  0.00     0.279 C 
BRANCH  32  37
ATOM     37  C   UNL     1      58.846  -4.317  20.392  1.00  0.00     0.191 C 
BRANCH  37  38
ATOM     38  O   UNL     1      59.379  -3.597  19.317  1.00  0.00    -0.394 OA
ATOM     39  H   UNL     1      58.946  -3.933  18.487  1.00  0.00     0.210 HD
ENDBRANCH  37  38
ENDBRANCH  32  37
BRANCH  33  40
ATOM     40  O   UNL     1      59.963  -1.716  24.480  1.00  0.00    -0.387 OA
ATOM     41  H   UNL     1      60.849  -1.307  24.633  1.00  0.00     0.211 HD
ENDBRANCH  33  40
BRANCH  35  42
ATOM     42  O   UNL     1      62.044  -4.343  24.130  1.00  0.00    -0.385 OA
ATOM     43  H   UNL     1      62.982  -4.534  23.853  1.00  0.00     0.211 HD
ENDBRANCH  35  42
BRANCH  36  44
ATOM     44  O   UNL     1      63.287  -3.685  21.758  1.00  0.00    -0.366 OA
ATOM     45  H   UNL     1      63.884  -2.995  22.160  1.00  0.00     0.213 HD
ENDBRANCH  36  44
ENDBRANCH  30  31
ENDBRANCH   4  30
TORSDOF 18
ENDMDL
MODEL 4
REMARK VINA RESULT:    -6.363      0.823      2.001
REMARK INTER + INTRA:         -12.993
REMARK INTER:                 -11.053
REMARK INTRA:                  -1.941
REMARK UNBOUND:                -1.981
REMARK SMILES OC[C@@H]1O[C@@H](O[C@@H]2[C@H](O)[C@@H](O)[C@@H](O)O[C@@H]2CO)[C@@H](O)[C@H](O)[C@H]1O[C@H]1O[C@H](CO)[C@@H](O)[C@@H](O)[C@H]1O
REMARK SMILES IDX 22 1 3 2 4 3 5 4 18 5 20 6 23 7 24 8 26 9 29 10 25 11 31 12
REMARK SMILES IDX 33 13 27 14 28 15 30 17 32 19 34 21 2 23 1 24 21 26 19 28
REMARK SMILES IDX 6 30 7 31 15 32 8 33 14 34 10 35 12 36 16 37 17 38 9 40
REMARK SMILES IDX 11 42 13 44
REMARK H PARENT 28 16 30 18 32 20 34 22 1 25 21 27 19 29 17 39 9 41 11 43
REMARK H PARENT 13 45
REMARK Flexibility Score: inf
ROOT
ATOM      1  C   UNL     1      56.504   0.850  16.446  1.00  0.00     0.184 C 
ATOM      2  C   UNL     1      56.899   0.314  15.034  1.00  0.00     0.178 C 
ATOM      3  O   UNL     1      56.041  -0.694  14.489  1.00  0.00    -0.341 OA
ATOM      4  C   UNL     1      54.684  -0.308  14.498  1.00  0.00     0.282 C 
ATOM      5  C   UNL     1      54.197  -0.151  15.949  1.00  0.00     0.202 C 
ATOM      6  C   UNL     1      54.965   0.961  16.662  1.00  0.00     0.180 C 
ENDROOT
BRANCH   1   7
ATOM      7  O   UNL     1      57.092   0.017  17.455  1.00  0.00    -0.341 OA
BRANCH   7   8
ATOM      8  C   UNL     1      57.988   0.743  18.296  1.00  0.00     0.282 C 
ATOM      9  C   UNL     1      56.581   1.524  20.118  1.00  0.00     0.178 C 
ATOM     10  C   UNL     1      56.367   0.016  20.422  1.00  0.00     0.177 C 
ATOM     11  O   UNL     1      57.315   1.821  18.925  1.00  0.00    -0.341 OA
ATOM     12  C   UNL     1      57.695  -0.783  20.334  1.00  0.00     0.179 C 
ATOM     13  C   UNL     1      58.675  -0.188  19.304  1.00  0.00     0.202 C 
BRANCH   9  14
ATOM     14  C   UNL     1      57.219   2.249  21.307  1.00  0.00     0.191 C 
BRANCH  14  15
ATOM     15  O   UNL     1      57.787   3.468  20.873  1.00  0.00    -0.394 OA
ATOM     16  H   UNL     1      58.754   3.322  20.747  1.00  0.00     0.210 HD
ENDBRANCH  14  15
ENDBRANCH   9  14
BRANCH  10  17
ATOM     17  O   UNL     1      55.407  -0.514  19.545  1.00  0.00    -0.387 OA
ATOM     18  H   UNL     1      55.733  -1.408  19.251  1.00  0.00     0.211 HD
ENDBRANCH  10  17
BRANCH  12  19
ATOM     19  O   UNL     1      57.414  -2.142  20.070  1.00  0.00    -0.387 OA
ATOM     20  H   UNL     1      57.397  -2.621  20.934  1.00  0.00     0.211 HD
ENDBRANCH  12  19
BRANCH  13  21
ATOM     21  O   UNL     1      59.350  -1.212  18.612  1.00  0.00    -0.385 OA
ATOM     22  H   UNL     1      60.247  -1.280  19.001  1.00  0.00     0.211 HD
ENDBRANCH  13  21
ENDBRANCH   7   8
ENDBRANCH   1   7
BRANCH   2  23
ATOM     23  C   UNL     1      57.206   1.440  14.019  1.00  0.00     0.191 C 
BRANCH  23  24
ATOM     24  O   UNL     1      57.967   2.451  14.631  1.00  0.00    -0.394 OA
ATOM     25  H   UNL     1      58.790   2.049  14.970  1.00  0.00     0.210 HD
ENDBRANCH  23  24
ENDBRANCH   2  23
BRANCH   6  26
ATOM     26  O   UNL     1      54.497   2.211  16.194  1.00  0.00    -0.387 OA
ATOM     27  H   UNL     1      54.903   2.897  16.776  1.00  0.00     0.211 HD
ENDBRANCH   6  26
BRANCH   5  28
ATOM     28  O   UNL     1      54.280  -1.362  16.666  1.00  0.00    -0.385 OA
ATOM     29  H   UNL     1      53.981  -2.108  16.078  1.00  0.00     0.211 HD
ENDBRANCH   5  28
BRANCH   4  30
ATOM     30  O   UNL     1      53.788  -1.216  13.853  1.00  0.00    -0.341 OA
BRANCH  30  31
ATOM     31  C   UNL     1      54.007  -1.500  12.482  1.00  0.00     0.184 C 
ATOM     32  C   UNL     1      54.215  -3.028  12.342  1.00  0.00     0.178 C 
ATOM     33  C   UNL     1      52.762  -1.169  11.627  1.00  0.00     0.180 C 
ATOM     34  O   UNL     1      53.129  -3.837  12.822  1.00  0.00    -0.342 OA
ATOM     35  C   UNL     1      51.575  -2.139  11.876  1.00  0.00     0.201 C 
ATOM     36  C   UNL     1      51.877  -3.172  12.986  1.00  0.00     0.279 C 
BRANCH  32  37
ATOM     37  C   UNL     1      55.495  -3.501  13.042  1.00  0.00     0.191 C 
BRANCH  37  38
ATOM     38  O   UNL     1      55.314  -3.546  14.428  1.00  0.00    -0.394 OA
ATOM     39  H   UNL     1      55.781  -4.357  14.766  1.00  0.00     0.210 HD
ENDBRANCH  37  38
ENDBRANCH  32  37
BRANCH  33  40
ATOM     40  O   UNL     1      52.368   0.170  11.832  1.00  0.00    -0.387 OA
ATOM     41  H   UNL     1      51.403   0.249  11.630  1.00  0.00     0.211 HD
ENDBRANCH  33  40
BRANCH  35  42
ATOM     42  O   UNL     1      51.245  -2.787  10.669  1.00  0.00    -0.385 OA
ATOM     43  H   UNL     1      51.106  -3.752  10.880  1.00  0.00     0.211 HD
ENDBRANCH  35  42
BRANCH  36  44
ATOM     44  O   UNL     1      50.850  -4.140  13.039  1.00  0.00    -0.366 OA
ATOM     45  H   UNL     1      50.207  -3.939  12.304  1.00  0.00     0.213 HD
ENDBRANCH  36  44
ENDBRANCH  30  31
ENDBRANCH   4  30
TORSDOF 18
ENDMDL
MODEL 5
REMARK VINA RESULT:    -6.241      2.072      3.190
REMARK INTER + INTRA:         -12.782
REMARK INTER:                 -10.753
REMARK INTRA:                  -2.029
REMARK UNBOUND:                -1.981
REMARK SMILES OC[C@@H]1O[C@@H](O[C@@H]2[C@H](O)[C@@H](O)[C@@H](O)O[C@@H]2CO)[C@@H](O)[C@H](O)[C@H]1O[C@H]1O[C@H](CO)[C@@H](O)[C@@H](O)[C@H]1O
REMARK SMILES IDX 22 1 3 2 4 3 5 4 18 5 20 6 23 7 24 8 26 9 29 10 25 11 31 12
REMARK SMILES IDX 33 13 27 14 28 15 30 17 32 19 34 21 2 23 1 24 21 26 19 28
REMARK SMILES IDX 6 30 7 31 15 32 8 33 14 34 10 35 12 36 16 37 17 38 9 40
REMARK SMILES IDX 11 42 13 44
REMARK H PARENT 28 16 30 18 32 20 34 22 1 25 21 27 19 29 17 39 9 41 11 43
REMARK H PARENT 13 45
REMARK Flexibility Score: inf
ROOT
ATOM      1  C   UNL     1      55.923   1.515  15.462  1.00  0.00     0.184 C 
ATOM      2  C   UNL     1      56.002  -0.039  15.596  1.00  0.00     0.178 C 
ATOM      3  O   UNL     1      54.875  -0.765  15.094  1.00  0.00    -0.341 OA
ATOM      4  C   UNL     1      54.554  -0.409  13.767  1.00  0.00     0.282 C 
ATOM      5  C   UNL     1      54.101   1.060  13.717  1.00  0.00     0.202 C 
ATOM      6  C   UNL     1      55.233   1.992  14.150  1.00  0.00     0.180 C 
ENDROOT
BRANCH   1   7
ATOM      7  O   UNL     1      55.252   2.059  16.608  1.00  0.00    -0.341 OA
BRANCH   7   8
ATOM      8  C   UNL     1      55.585   1.359  17.807  1.00  0.00     0.282 C 
ATOM      9  C   UNL     1      56.770   3.011  19.141  1.00  0.00     0.178 C 
ATOM     10  C   UNL     1      55.432   3.799  19.112  1.00  0.00     0.177 C 
ATOM     11  O   UNL     1      56.815   1.831  18.331  1.00  0.00    -0.341 OA
ATOM     12  C   UNL     1      54.212   2.870  19.356  1.00  0.00     0.179 C 
ATOM     13  C   UNL     1      54.443   1.441  18.828  1.00  0.00     0.202 C 
BRANCH   9  14
ATOM     14  C   UNL     1      57.185   2.666  20.574  1.00  0.00     0.191 C 
BRANCH  14  15
ATOM     15  O   UNL     1      58.386   1.923  20.557  1.00  0.00    -0.394 OA
ATOM     16  H   UNL     1      59.064   2.457  20.081  1.00  0.00     0.210 HD
ENDBRANCH  14  15
ENDBRANCH   9  14
BRANCH  10  17
ATOM     17  O   UNL     1      55.305   4.477  17.889  1.00  0.00    -0.387 OA
ATOM     18  H   UNL     1      54.340   4.474  17.645  1.00  0.00     0.211 HD
ENDBRANCH  10  17
BRANCH  12  19
ATOM     19  O   UNL     1      53.052   3.456  18.801  1.00  0.00    -0.387 OA
ATOM     20  H   UNL     1      52.267   2.999  19.190  1.00  0.00     0.211 HD
ENDBRANCH  12  19
BRANCH  13  21
ATOM     21  O   UNL     1      53.264   0.927  18.254  1.00  0.00    -0.385 OA
ATOM     22  H   UNL     1      53.459   0.748  17.310  1.00  0.00     0.211 HD
ENDBRANCH  13  21
ENDBRANCH   7   8
ENDBRANCH   1   7
BRANCH   2  23
ATOM     23  C   UNL     1      57.348  -0.625  15.107  1.00  0.00     0.191 C 
BRANCH  23  24
ATOM     24  O   UNL     1      57.339  -2.025  15.223  1.00  0.00    -0.394 OA
ATOM     25  H   UNL     1      56.690  -2.270  15.910  1.00  0.00     0.210 HD
ENDBRANCH  23  24
ENDBRANCH   2  23
BRANCH   6  26
ATOM     26  O   UNL     1      56.181   2.075  13.104  1.00  0.00    -0.387 OA
ATOM     27  H   UNL     1      56.021   2.935  12.649  1.00  0.00     0.211 HD
ENDBRANCH   6  26
BRANCH   5  28
ATOM     28  O   UNL     1      52.943   1.280  14.489  1.00  0.00    -0.385 OA
ATOM     29  H   UNL     1      53.196   1.317  15.451  1.00  0.00     0.211 HD
ENDBRANCH   5  28
BRANCH   4  30
ATOM     30  O   UNL     1      53.519  -1.186  13.162  1.00  0.00    -0.341 OA
BRANCH  30  31
ATOM     31  C   UNL     1      53.767  -1.735  11.879  1.00  0.00     0.184 C 
ATOM     32  C   UNL     1      53.996  -3.257  12.051  1.00  0.00     0.178 C 
ATOM     33  C   UNL     1      52.533  -1.602  10.955  1.00  0.00     0.180 C 
ATOM     34  O   UNL     1      52.912  -3.971  12.666  1.00  0.00    -0.342 OA
ATOM     35  C   UNL     1      51.354  -2.522  11.376  1.00  0.00     0.201 C 
ATOM     36  C   UNL     1      51.648  -3.307  12.674  1.00  0.00     0.279 C 
BRANCH  32  37
ATOM     37  C   UNL     1      55.269  -3.560  12.851  1.00  0.00     0.191 C 
BRANCH  37  38
ATOM     38  O   UNL     1      54.985  -3.645  14.218  1.00  0.00    -0.394 OA
ATOM     39  H   UNL     1      55.456  -2.894  14.670  1.00  0.00     0.210 HD
ENDBRANCH  37  38
ENDBRANCH  32  37
BRANCH  33  40
ATOM     40  O   UNL     1      52.118  -0.256  10.882  1.00  0.00    -0.387 OA
ATOM     41  H   UNL     1      51.253  -0.218  10.407  1.00  0.00     0.211 HD
ENDBRANCH  33  40
BRANCH  35  42
ATOM     42  O   UNL     1      51.055  -3.403  10.318  1.00  0.00    -0.385 OA
ATOM     43  H   UNL     1      50.323  -4.003  10.631  1.00  0.00     0.211 HD
ENDBRANCH  35  42
BRANCH  36  44
ATOM     44  O   UNL     1      50.633  -4.261  12.904  1.00  0.00    -0.366 OA
ATOM     45  H   UNL     1      49.940  -4.141  12.197  1.00  0.00     0.213 HD
ENDBRANCH  36  44
ENDBRANCH  30  31
ENDBRANCH   4  30
TORSDOF 18
ENDMDL
MODEL 6
REMARK VINA RESULT:    -6.146      2.393      3.754
REMARK INTER + INTRA:         -12.617
REMARK INTER:                  -9.625
REMARK INTRA:                  -2.992
REMARK UNBOUND:                -1.981
REMARK SMILES OC[C@@H]1O[C@@H](O[C@@H]2[C@H](O)[C@@H](O)[C@@H](O)O[C@@H]2CO)[C@@H](O)[C@H](O)[C@H]1O[C@H]1O[C@H](CO)[C@@H](O)[C@@H](O)[C@H]1O
REMARK SMILES IDX 22 1 3 2 4 3 5 4 18 5 20 6 23 7 24 8 26 9 29 10 25 11 31 12
REMARK SMILES IDX 33 13 27 14 28 15 30 17 32 19 34 21 2 23 1 24 21 26 19 28
REMARK SMILES IDX 6 30 7 31 15 32 8 33 14 34 10 35 12 36 16 37 17 38 9 40
REMARK SMILES IDX 11 42 13 44
REMARK H PARENT 28 16 30 18 32 20 34 22 1 25 21 27 19 29 17 39 9 41 11 43
REMARK H PARENT 13 45
REMARK Flexibility Score: inf
ROOT
ATOM      1  C   UNL     1      54.879   3.099  13.942  1.00  0.00     0.184 C 
ATOM      2  C   UNL     1      55.585   2.070  13.002  1.00  0.00     0.178 C 
ATOM      3  O   UNL     1      55.053   0.742  13.023  1.00  0.00    -0.341 OA
ATOM      4  C   UNL     1      53.658   0.717  12.808  1.00  0.00     0.282 C 
ATOM      5  C   UNL     1      52.939   1.423  13.970  1.00  0.00     0.202 C 
ATOM      6  C   UNL     1      53.337   2.897  14.040  1.00  0.00     0.180 C 
ENDROOT
BRANCH   1   7
ATOM      7  O   UNL     1      55.475   3.041  15.246  1.00  0.00    -0.341 OA
BRANCH   7   8
ATOM      8  C   UNL     1      56.821   2.566  15.199  1.00  0.00     0.282 C 
ATOM      9  C   UNL     1      57.991   3.955  16.816  1.00  0.00     0.178 C 
ATOM     10  C   UNL     1      57.034   3.315  17.859  1.00  0.00     0.177 C 
ATOM     11  O   UNL     1      57.730   3.626  15.448  1.00  0.00    -0.341 OA
ATOM     12  C   UNL     1      56.884   1.785  17.640  1.00  0.00     0.179 C 
ATOM     13  C   UNL     1      57.022   1.385  16.158  1.00  0.00     0.202 C 
BRANCH   9  14
ATOM     14  C   UNL     1      59.456   3.657  17.146  1.00  0.00     0.191 C 
BRANCH  14  15
ATOM     15  O   UNL     1      60.226   3.683  15.961  1.00  0.00    -0.394 OA
ATOM     16  H   UNL     1      61.174   3.593  16.216  1.00  0.00     0.210 HD
ENDBRANCH  14  15
ENDBRANCH   9  14
BRANCH  10  17
ATOM     17  O   UNL     1      55.783   3.950  17.809  1.00  0.00    -0.387 OA
ATOM     18  H   UNL     1      55.738   4.453  16.950  1.00  0.00     0.211 HD
ENDBRANCH  10  17
BRANCH  12  19
ATOM     19  O   UNL     1      55.661   1.344  18.193  1.00  0.00    -0.387 OA
ATOM     20  H   UNL     1      55.406   1.978  18.907  1.00  0.00     0.211 HD
ENDBRANCH  12  19
BRANCH  13  21
ATOM     21  O   UNL     1      56.112   0.359  15.834  1.00  0.00    -0.385 OA
ATOM     22  H   UNL     1      56.532  -0.489  16.090  1.00  0.00     0.211 HD
ENDBRANCH  13  21
ENDBRANCH   7   8
ENDBRANCH   1   7
BRANCH   2  23
ATOM     23  C   UNL     1      55.792   2.602  11.564  1.00  0.00     0.191 C 
BRANCH  23  24
ATOM     24  O   UNL     1      55.359   3.936  11.473  1.00  0.00    -0.394 OA
ATOM     25  H   UNL     1      55.635   4.287  10.604  1.00  0.00     0.210 HD
ENDBRANCH  23  24
ENDBRANCH   2  23
BRANCH   6  26
ATOM     26  O   UNL     1      52.688   3.595  12.995  1.00  0.00    -0.387 OA
ATOM     27  H   UNL     1      51.842   3.936  13.370  1.00  0.00     0.211 HD
ENDBRANCH   6  26
BRANCH   5  28
ATOM     28  O   UNL     1      53.172   0.778  15.202  1.00  0.00    -0.385 OA
ATOM     29  H   UNL     1      53.972   0.191  15.115  1.00  0.00     0.211 HD
ENDBRANCH   5  28
BRANCH   4  30
ATOM     30  O   UNL     1      53.083  -0.586  12.690  1.00  0.00    -0.341 OA
BRANCH  30  31
ATOM     31  C   UNL     1      53.681  -1.494  11.780  1.00  0.00     0.184 C 
ATOM     32  C   UNL     1      53.917  -2.829  12.529  1.00  0.00     0.178 C 
ATOM     33  C   UNL     1      52.728  -1.836  10.610  1.00  0.00     0.180 C 
ATOM     34  O   UNL     1      52.739  -3.431  13.088  1.00  0.00    -0.342 OA
ATOM     35  C   UNL     1      51.518  -2.707  11.044  1.00  0.00     0.201 C 
ATOM     36  C   UNL     1      51.492  -2.971  12.567  1.00  0.00     0.279 C 
BRANCH  32  37
ATOM     37  C   UNL     1      54.947  -2.681  13.655  1.00  0.00     0.191 C 
BRANCH  37  38
ATOM     38  O   UNL     1      54.433  -1.899  14.696  1.00  0.00    -0.394 OA
ATOM     39  H   UNL     1      54.740  -2.302  15.553  1.00  0.00     0.210 HD
ENDBRANCH  37  38
ENDBRANCH  32  37
BRANCH  33  40
ATOM     40  O   UNL     1      52.294  -0.656   9.971  1.00  0.00    -0.387 OA
ATOM     41  H   UNL     1      52.552  -0.701   9.018  1.00  0.00     0.211 HD
ENDBRANCH  33  40
BRANCH  35  42
ATOM     42  O   UNL     1      51.541  -3.921  10.329  1.00  0.00    -0.385 OA
ATOM     43  H   UNL     1      50.636  -4.329  10.410  1.00  0.00     0.211 HD
ENDBRANCH  35  42
BRANCH  36  44
ATOM     44  O   UNL     1      50.490  -3.916  12.878  1.00  0.00    -0.366 OA
ATOM     45  H   UNL     1      49.607  -3.494  12.688  1.00  0.00     0.213 HD
ENDBRANCH  36  44
ENDBRANCH  30  31
ENDBRANCH   4  30
TORSDOF 18
ENDMDL
MODEL 7
REMARK VINA RESULT:    -6.040      2.002      3.699
REMARK INTER + INTRA:         -12.435
REMARK INTER:                 -10.212
REMARK INTRA:                  -2.223
REMARK UNBOUND:                -1.981
REMARK SMILES OC[C@@H]1O[C@@H](O[C@@H]2[C@H](O)[C@@H](O)[C@@H](O)O[C@@H]2CO)[C@@H](O)[C@H](O)[C@H]1O[C@H]1O[C@H](CO)[C@@H](O)[C@@H](O)[C@H]1O
REMARK SMILES IDX 22 1 3 2 4 3 5 4 18 5 20 6 23 7 24 8 26 9 29 10 25 11 31 12
REMARK SMILES IDX 33 13 27 14 28 15 30 17 32 19 34 21 2 23 1 24 21 26 19 28
REMARK SMILES IDX 6 30 7 31 15 32 8 33 14 34 10 35 12 36 16 37 17 38 9 40
REMARK SMILES IDX 11 42 13 44
REMARK H PARENT 28 16 30 18 32 20 34 22 1 25 21 27 19 29 17 39 9 41 11 43
REMARK H PARENT 13 45
REMARK Flexibility Score: inf
ROOT
ATOM      1  C   UNL     1      56.945   0.423  18.892  1.00  0.00     0.184 C 
ATOM      2  C   UNL     1      57.487   0.845  17.490  1.00  0.00     0.178 C 
ATOM      3  O   UNL     1      56.700   0.432  16.369  1.00  0.00    -0.341 OA
ATOM      4  C   UNL     1      55.345   0.803  16.496  1.00  0.00     0.282 C 
ATOM      5  C   UNL     1      54.712   0.064  17.687  1.00  0.00     0.202 C 
ATOM      6  C   UNL     1      55.392   0.461  18.997  1.00  0.00     0.180 C 
ENDROOT
BRANCH   1   7
ATOM      7  O   UNL     1      57.437  -0.885  19.219  1.00  0.00    -0.341 OA
BRANCH   7   8
ATOM      8  C   UNL     1      58.753  -0.841  19.772  1.00  0.00     0.282 C 
ATOM      9  C   UNL     1      58.382  -0.453  22.143  1.00  0.00     0.178 C 
ATOM     10  C   UNL     1      57.655  -1.825  22.118  1.00  0.00     0.177 C 
ATOM     11  O   UNL     1      58.800   0.054  20.871  1.00  0.00    -0.341 OA
ATOM     12  C   UNL     1      58.443  -2.879  21.294  1.00  0.00     0.179 C 
ATOM     13  C   UNL     1      59.245  -2.247  20.139  1.00  0.00     0.202 C 
BRANCH   9  14
ATOM     14  C   UNL     1      59.573  -0.469  23.106  1.00  0.00     0.191 C 
BRANCH  14  15
ATOM     15  O   UNL     1      60.615   0.333  22.589  1.00  0.00    -0.394 OA
ATOM     16  H   UNL     1      60.357   1.277  22.709  1.00  0.00     0.210 HD
ENDBRANCH  14  15
ENDBRANCH   9  14
BRANCH  10  17
ATOM     17  O   UNL     1      56.356  -1.665  21.609  1.00  0.00    -0.387 OA
ATOM     18  H   UNL     1      56.352  -2.030  20.682  1.00  0.00     0.211 HD
ENDBRANCH  10  17
BRANCH  12  19
ATOM     19  O   UNL     1      57.559  -3.881  20.836  1.00  0.00    -0.387 OA
ATOM     20  H   UNL     1      56.987  -3.482  20.135  1.00  0.00     0.211 HD
ENDBRANCH  12  19
BRANCH  13  21
ATOM     21  O   UNL     1      59.203  -3.070  18.998  1.00  0.00    -0.385 OA
ATOM     22  H   UNL     1      59.909  -2.758  18.392  1.00  0.00     0.211 HD
ENDBRANCH  13  21
ENDBRANCH   7   8
ENDBRANCH   1   7
BRANCH   2  23
ATOM     23  C   UNL     1      57.884   2.338  17.415  1.00  0.00     0.191 C 
BRANCH  23  24
ATOM     24  O   UNL     1      58.310   2.663  16.116  1.00  0.00    -0.394 OA
ATOM     25  H   UNL     1      59.239   2.960  16.165  1.00  0.00     0.210 HD
ENDBRANCH  23  24
ENDBRANCH   2  23
BRANCH   6  26
ATOM     26  O   UNL     1      54.961   1.758  19.360  1.00  0.00    -0.387 OA
ATOM     27  H   UNL     1      55.179   1.868  20.316  1.00  0.00     0.211 HD
ENDBRANCH   6  26
BRANCH   5  28
ATOM     28  O   UNL     1      54.734  -1.335  17.511  1.00  0.00    -0.385 OA
ATOM     29  H   UNL     1      55.342  -1.737  18.189  1.00  0.00     0.211 HD
ENDBRANCH   5  28
BRANCH   4  30
ATOM     30  O   UNL     1      54.528   0.533  15.355  1.00  0.00    -0.341 OA
BRANCH  30  31
ATOM     31  C   UNL     1      55.176   0.328  14.111  1.00  0.00     0.184 C 
ATOM     32  C   UNL     1      54.258  -0.564  13.240  1.00  0.00     0.178 C 
ATOM     33  C   UNL     1      55.336   1.652  13.328  1.00  0.00     0.180 C 
ATOM     34  O   UNL     1      52.943  -0.036  13.003  1.00  0.00    -0.342 OA
ATOM     35  C   UNL     1      53.989   2.212  12.796  1.00  0.00     0.201 C 
ATOM     36  C   UNL     1      52.776   1.361  13.239  1.00  0.00     0.279 C 
BRANCH  32  37
ATOM     37  C   UNL     1      54.099  -1.972  13.826  1.00  0.00     0.191 C 
BRANCH  37  38
ATOM     38  O   UNL     1      55.083  -2.221  14.789  1.00  0.00    -0.394 OA
ATOM     39  H   UNL     1      54.693  -2.008  15.679  1.00  0.00     0.210 HD
ENDBRANCH  37  38
ENDBRANCH  32  37
BRANCH  33  40
ATOM     40  O   UNL     1      56.002   2.612  14.118  1.00  0.00    -0.387 OA
ATOM     41  H   UNL     1      56.332   2.171  14.938  1.00  0.00     0.211 HD
ENDBRANCH  33  40
BRANCH  35  42
ATOM     42  O   UNL     1      54.047   2.302  11.391  1.00  0.00    -0.385 OA
ATOM     43  H   UNL     1      54.495   3.165  11.168  1.00  0.00     0.211 HD
ENDBRANCH  35  42
BRANCH  36  44
ATOM     44  O   UNL     1      51.609   1.800  12.577  1.00  0.00    -0.366 OA
ATOM     45  H   UNL     1      50.959   1.044  12.577  1.00  0.00     0.213 HD
ENDBRANCH  36  44
ENDBRANCH  30  31
ENDBRANCH   4  30
TORSDOF 18
ENDMDL
MODEL 8
REMARK VINA RESULT:    -5.996      2.697      8.488
REMARK INTER + INTRA:         -12.358
REMARK INTER:                 -10.139
REMARK INTRA:                  -2.219
REMARK UNBOUND:                -1.981
REMARK SMILES OC[C@@H]1O[C@@H](O[C@@H]2[C@H](O)[C@@H](O)[C@@H](O)O[C@@H]2CO)[C@@H](O)[C@H](O)[C@H]1O[C@H]1O[C@H](CO)[C@@H](O)[C@@H](O)[C@H]1O
REMARK SMILES IDX 22 1 3 2 4 3 5 4 18 5 20 6 23 7 24 8 26 9 29 10 25 11 31 12
REMARK SMILES IDX 33 13 27 14 28 15 30 17 32 19 34 21 2 23 1 24 21 26 19 28
REMARK SMILES IDX 6 30 7 31 15 32 8 33 14 34 10 35 12 36 16 37 17 38 9 40
REMARK SMILES IDX 11 42 13 44
REMARK H PARENT 28 16 30 18 32 20 34 22 1 25 21 27 19 29 17 39 9 41 11 43
REMARK H PARENT 13 45
REMARK Flexibility Score: inf
ROOT
ATOM      1  C   UNL     1      57.081   1.583  19.121  1.00  0.00     0.184 C 
ATOM      2  C   UNL     1      56.885   1.133  20.604  1.00  0.00     0.178 C 
ATOM      3  O   UNL     1      57.405  -0.159  20.935  1.00  0.00    -0.341 OA
ATOM      4  C   UNL     1      58.756  -0.309  20.558  1.00  0.00     0.282 C 
ATOM      5  C   UNL     1      58.880  -0.241  19.026  1.00  0.00     0.202 C 
ATOM      6  C   UNL     1      58.438   1.127  18.506  1.00  0.00     0.180 C 
ENDROOT
BRANCH   1   7
ATOM      7  O   UNL     1      55.985   1.105  18.329  1.00  0.00    -0.341 OA
BRANCH   7   8
ATOM      8  C   UNL     1      56.347   0.935  16.959  1.00  0.00     0.282 C 
ATOM      9  C   UNL     1      54.637  -0.553  16.078  1.00  0.00     0.178 C 
ATOM     10  C   UNL     1      53.649   0.593  16.427  1.00  0.00     0.177 C 
ATOM     11  O   UNL     1      55.990  -0.362  16.508  1.00  0.00    -0.341 OA
ATOM     12  C   UNL     1      54.208   1.981  16.012  1.00  0.00     0.179 C 
ATOM     13  C   UNL     1      55.746   2.045  16.087  1.00  0.00     0.202 C 
BRANCH   9  14
ATOM     14  C   UNL     1      54.615  -0.875  14.581  1.00  0.00     0.191 C 
BRANCH  14  15
ATOM     15  O   UNL     1      54.582  -2.275  14.394  1.00  0.00    -0.394 OA
ATOM     16  H   UNL     1      53.637  -2.555  14.380  1.00  0.00     0.210 HD
ENDBRANCH  14  15
ENDBRANCH   9  14
BRANCH  10  17
ATOM     17  O   UNL     1      53.355   0.565  17.800  1.00  0.00    -0.387 OA
ATOM     18  H   UNL     1      52.798  -0.244  17.969  1.00  0.00     0.211 HD
ENDBRANCH  10  17
BRANCH  12  19
ATOM     19  O   UNL     1      53.600   2.990  16.792  1.00  0.00    -0.387 OA
ATOM     20  H   UNL     1      53.973   2.932  17.705  1.00  0.00     0.211 HD
ENDBRANCH  12  19
BRANCH  13  21
ATOM     21  O   UNL     1      56.168   3.299  16.569  1.00  0.00    -0.385 OA
ATOM     22  H   UNL     1      55.703   3.451  17.419  1.00  0.00     0.211 HD
ENDBRANCH  13  21
ENDBRANCH   7   8
ENDBRANCH   1   7
BRANCH   2  23
ATOM     23  C   UNL     1      57.297   2.216  21.629  1.00  0.00     0.191 C 
BRANCH  23  24
ATOM     24  O   UNL     1      57.673   3.396  20.964  1.00  0.00    -0.394 OA
ATOM     25  H   UNL     1      56.861   3.858  20.682  1.00  0.00     0.210 HD
ENDBRANCH  23  24
ENDBRANCH   2  23
BRANCH   6  26
ATOM     26  O   UNL     1      59.447   2.074  18.796  1.00  0.00    -0.387 OA
ATOM     27  H   UNL     1      59.431   2.733  18.062  1.00  0.00     0.211 HD
ENDBRANCH   6  26
BRANCH   5  28
ATOM     28  O   UNL     1      58.164  -1.277  18.393  1.00  0.00    -0.385 OA
ATOM     29  H   UNL     1      57.885  -1.944  19.079  1.00  0.00     0.211 HD
ENDBRANCH   5  28
BRANCH   4  30
ATOM     30  O   UNL     1      59.373  -1.529  20.973  1.00  0.00    -0.341 OA
BRANCH  30  31
ATOM     31  C   UNL     1      58.859  -2.171  22.127  1.00  0.00     0.184 C 
ATOM     32  C   UNL     1      58.714  -3.679  21.806  1.00  0.00     0.178 C 
ATOM     33  C   UNL     1      59.852  -2.092  23.311  1.00  0.00     0.180 C 
ATOM     34  O   UNL     1      59.926  -4.336  21.403  1.00  0.00    -0.342 OA
ATOM     35  C   UNL     1      61.118  -2.967  23.105  1.00  0.00     0.201 C 
ATOM     36  C   UNL     1      61.141  -3.661  21.723  1.00  0.00     0.279 C 
BRANCH  32  37
ATOM     37  C   UNL     1      57.659  -3.937  20.722  1.00  0.00     0.191 C 
BRANCH  37  38
ATOM     38  O   UNL     1      56.700  -2.918  20.714  1.00  0.00    -0.394 OA
ATOM     39  H   UNL     1      55.841  -3.313  21.025  1.00  0.00     0.210 HD
ENDBRANCH  37  38
ENDBRANCH  32  37
BRANCH  33  40
ATOM     40  O   UNL     1      60.204  -0.751  23.566  1.00  0.00    -0.387 OA
ATOM     41  H   UNL     1      61.153  -0.622  23.321  1.00  0.00     0.211 HD
ENDBRANCH  33  40
BRANCH  35  42
ATOM     42  O   UNL     1      61.197  -3.919  24.141  1.00  0.00    -0.385 OA
ATOM     43  H   UNL     1      60.295  -3.972  24.562  1.00  0.00     0.211 HD
ENDBRANCH  35  42
BRANCH  36  44
ATOM     44  O   UNL     1      62.207  -4.585  21.663  1.00  0.00    -0.366 OA
ATOM     45  H   UNL     1      61.861  -5.467  21.973  1.00  0.00     0.213 HD
ENDBRANCH  36  44
ENDBRANCH  30  31
ENDBRANCH   4  30
TORSDOF 18
ENDMDL
MODEL 9
REMARK VINA RESULT:    -5.917      3.093      9.143
REMARK INTER + INTRA:         -12.222
REMARK INTER:                 -10.743
REMARK INTRA:                  -1.479
REMARK UNBOUND:                -1.981
REMARK SMILES OC[C@@H]1O[C@@H](O[C@@H]2[C@H](O)[C@@H](O)[C@@H](O)O[C@@H]2CO)[C@@H](O)[C@H](O)[C@H]1O[C@H]1O[C@H](CO)[C@@H](O)[C@@H](O)[C@H]1O
REMARK SMILES IDX 22 1 3 2 4 3 5 4 18 5 20 6 23 7 24 8 26 9 29 10 25 11 31 12
REMARK SMILES IDX 33 13 27 14 28 15 30 17 32 19 34 21 2 23 1 24 21 26 19 28
REMARK SMILES IDX 6 30 7 31 15 32 8 33 14 34 10 35 12 36 16 37 17 38 9 40
REMARK SMILES IDX 11 42 13 44
REMARK H PARENT 28 16 30 18 32 20 34 22 1 25 21 27 19 29 17 39 9 41 11 43
REMARK H PARENT 13 45
REMARK Flexibility Score: inf
ROOT
ATOM      1  C   UNL     1      56.915   0.116  19.167  1.00  0.00     0.184 C 
ATOM      2  C   UNL     1      56.268  -0.755  20.290  1.00  0.00     0.178 C 
ATOM      3  O   UNL     1      57.038  -1.879  20.727  1.00  0.00    -0.341 OA
ATOM      4  C   UNL     1      58.354  -1.523  21.089  1.00  0.00     0.282 C 
ATOM      5  C   UNL     1      59.113  -1.010  19.853  1.00  0.00     0.202 C 
ATOM      6  C   UNL     1      58.460   0.257  19.301  1.00  0.00     0.180 C 
ENDROOT
BRANCH   1   7
ATOM      7  O   UNL     1      56.571  -0.428  17.885  1.00  0.00    -0.341 OA
BRANCH   7   8
ATOM      8  C   UNL     1      55.754   0.464  17.126  1.00  0.00     0.282 C 
ATOM      9  C   UNL     1      57.155   1.080  15.237  1.00  0.00     0.178 C 
ATOM     10  C   UNL     1      57.104  -0.429  14.877  1.00  0.00     0.177 C 
ATOM     11  O   UNL     1      56.553   1.444  16.483  1.00  0.00    -0.341 OA
ATOM     12  C   UNL     1      55.672  -1.010  15.030  1.00  0.00     0.179 C 
ATOM     13  C   UNL     1      54.866  -0.306  16.139  1.00  0.00     0.202 C 
BRANCH   9  14
ATOM     14  C   UNL     1      56.571   1.943  14.114  1.00  0.00     0.191 C 
BRANCH  14  15
ATOM     15  O   UNL     1      57.619   2.523  13.364  1.00  0.00    -0.394 OA
ATOM     16  H   UNL     1      57.538   3.502  13.439  1.00  0.00     0.210 HD
ENDBRANCH  14  15
ENDBRANCH   9  14
BRANCH  10  17
ATOM     17  O   UNL     1      58.017  -1.139  15.673  1.00  0.00    -0.387 OA
ATOM     18  H   UNL     1      57.570  -1.328  16.543  1.00  0.00     0.211 HD
ENDBRANCH  10  17
BRANCH  12  19
ATOM     19  O   UNL     1      55.746  -2.405  15.237  1.00  0.00    -0.387 OA
ATOM     20  H   UNL     1      55.262  -2.614  16.072  1.00  0.00     0.211 HD
ENDBRANCH  12  19
BRANCH  13  21
ATOM     21  O   UNL     1      54.078  -1.235  16.846  1.00  0.00    -0.385 OA
ATOM     22  H   UNL     1      53.480  -1.659  16.195  1.00  0.00     0.211 HD
ENDBRANCH  13  21
ENDBRANCH   7   8
ENDBRANCH   1   7
BRANCH   2  23
ATOM     23  C   UNL     1      55.722   0.082  21.472  1.00  0.00     0.191 C 
BRANCH  23  24
ATOM     24  O   UNL     1      54.620  -0.564  22.056  1.00  0.00    -0.394 OA
ATOM     25  H   UNL     1      54.902  -0.930  22.916  1.00  0.00     0.210 HD
ENDBRANCH  23  24
ENDBRANCH   2  23
BRANCH   6  26
ATOM     26  O   UNL     1      58.778   1.341  20.152  1.00  0.00    -0.387 OA
ATOM     27  H   UNL     1      59.761   1.422  20.148  1.00  0.00     0.211 HD
ENDBRANCH   6  26
BRANCH   5  28
ATOM     28  O   UNL     1      59.220  -1.999  18.854  1.00  0.00    -0.385 OA
ATOM     29  H   UNL     1      58.329  -2.423  18.721  1.00  0.00     0.211 HD
ENDBRANCH   5  28
BRANCH   4  30
ATOM     30  O   UNL     1      59.138  -2.576  21.653  1.00  0.00    -0.341 OA
BRANCH  30  31
ATOM     31  C   UNL     1      60.521  -2.339  21.850  1.00  0.00     0.184 C 
ATOM     32  C   UNL     1      60.745  -2.061  23.357  1.00  0.00     0.178 C 
ATOM     33  C   UNL     1      61.365  -3.596  21.529  1.00  0.00     0.180 C 
ATOM     34  O   UNL     1      60.318  -3.110  24.240  1.00  0.00    -0.342 OA
ATOM     35  C   UNL     1      61.176  -4.738  22.565  1.00  0.00     0.201 C 
ATOM     36  C   UNL     1      60.124  -4.392  23.644  1.00  0.00     0.279 C 
BRANCH  32  37
ATOM     37  C   UNL     1      60.066  -0.762  23.808  1.00  0.00     0.191 C 
BRANCH  37  38
ATOM     38  O   UNL     1      60.243   0.246  22.855  1.00  0.00    -0.394 OA
ATOM     39  H   UNL     1      59.734  -0.018  22.041  1.00  0.00     0.210 HD
ENDBRANCH  37  38
ENDBRANCH  32  37
BRANCH  33  40
ATOM     40  O   UNL     1      61.087  -4.052  20.223  1.00  0.00    -0.387 OA
ATOM     41  H   UNL     1      60.112  -4.004  20.073  1.00  0.00     0.211 HD
ENDBRANCH  33  40
BRANCH  35  42
ATOM     42  O   UNL     1      62.419  -5.033  23.159  1.00  0.00    -0.385 OA
ATOM     43  H   UNL     1      63.112  -4.966  22.445  1.00  0.00     0.211 HD
ENDBRANCH  35  42
BRANCH  36  44
ATOM     44  O   UNL     1      60.130  -5.373  24.659  1.00  0.00    -0.366 OA
ATOM     45  H   UNL     1      60.726  -6.114  24.359  1.00  0.00     0.213 HD
ENDBRANCH  36  44
ENDBRANCH  30  31
ENDBRANCH   4  30
TORSDOF 18
ENDMDL
