MODEL 1
REMARK VINA RESULT:    -4.863      0.000      0.000
REMARK INTER + INTRA:         -11.656
REMARK INTER:                  -9.127
REMARK INTRA:                  -2.530
REMARK UNBOUND:                -2.530
REMARK SMILES CCCCCCCCC=CCCCCCCCC(=O)[O-]
REMARK SMILES IDX 10 1 9 2 11 3 12 4 13 5 14 6 15 7 16 8 17 9 18 10 19 11
REMARK SMILES IDX 20 12 8 13 7 14 6 15 5 16 4 17 3 18 2 19 1 20
REMARK H PARENT
REMARK Flexibility Score: inf
ROOT
ATOM      1  C   UNL     1      -1.330 -24.946  48.831  1.00  0.00    -0.031 C 
ATOM      2  C   UNL     1      -1.533 -24.364  50.022  1.00  0.00    -0.031 C 
ENDROOT
BRANCH   1   3
ATOM      3  C   UNL     1      -2.446 -25.622  48.080  1.00  0.00     0.027 C 
BRANCH   3   4
ATOM      4  C   UNL     1      -2.887 -24.801  46.858  1.00  0.00     0.004 C 
BRANCH   4   5
ATOM      5  C   UNL     1      -4.142 -23.941  47.096  1.00  0.00     0.000 C 
BRANCH   5   6
ATOM      6  C   UNL     1      -5.070 -24.523  48.172  1.00  0.00     0.000 C 
BRANCH   6   7
ATOM      7  C   UNL     1      -5.062 -23.647  49.434  1.00  0.00     0.000 C 
BRANCH   7   8
ATOM      8  C   UNL     1      -4.496 -22.241  49.176  1.00  0.00     0.006 C 
BRANCH   8   9
ATOM      9  C   UNL     1      -4.221 -21.469  50.472  1.00  0.00     0.053 C 
BRANCH   9  10
ATOM     10  C   UNL     1      -4.713 -20.060  50.353  1.00  0.00     0.041 C 
ATOM     11  O   UNL     1      -4.448 -19.218  51.251  1.00  0.00    -0.550 OA
ATOM     12  O   UNL     1      -5.416 -19.663  49.224  1.00  0.00    -0.550 OA
ENDBRANCH   9  10
ENDBRANCH   8   9
ENDBRANCH   7   8
ENDBRANCH   6   7
ENDBRANCH   5   6
ENDBRANCH   4   5
ENDBRANCH   3   4
ENDBRANCH   1   3
BRANCH   2  13
ATOM     13  C   UNL     1      -0.416 -23.693  50.773  1.00  0.00     0.027 C 
BRANCH  13  14
ATOM     14  C   UNL     1      -0.420 -22.175  50.556  1.00  0.00     0.004 C 
BRANCH  14  15
ATOM     15  C   UNL     1       0.388 -21.764  49.312  1.00  0.00     0.000 C 
BRANCH  15  16
ATOM     16  C   UNL     1      -0.491 -21.627  48.059  1.00  0.00     0.000 C 
BRANCH  16  17
ATOM     17  C   UNL     1       0.170 -22.235  46.808  1.00  0.00    -0.000 C 
BRANCH  17  18
ATOM     18  C   UNL     1      -0.749 -22.193  45.578  1.00  0.00    -0.000 C 
BRANCH  18  19
ATOM     19  C   UNL     1      -1.531 -20.875  45.471  1.00  0.00    -0.003 C 
ATOM     20  C   UNL     1      -3.019 -21.136  45.256  1.00  0.00     0.004 C 
ENDBRANCH  18  19
ENDBRANCH  17  18
ENDBRANCH  16  17
ENDBRANCH  15  16
ENDBRANCH  14  15
ENDBRANCH  13  14
ENDBRANCH   2  13
TORSDOF 15
ENDMDL
MODEL 2
REMARK VINA RESULT:    -4.823      2.952      5.697
REMARK INTER + INTRA:         -11.581
REMARK INTER:                  -9.879
REMARK INTRA:                  -1.703
REMARK UNBOUND:                -2.530
REMARK SMILES CCCCCCCCC=CCCCCCCCC(=O)[O-]
REMARK SMILES IDX 10 1 9 2 11 3 12 4 13 5 14 6 15 7 16 8 17 9 18 10 19 11
REMARK SMILES IDX 20 12 8 13 7 14 6 15 5 16 4 17 3 18 2 19 1 20
REMARK H PARENT
REMARK Flexibility Score: inf
ROOT
ATOM      1  C   UNL     1      -5.278 -22.082  47.645  1.00  0.00    -0.031 C 
ATOM      2  C   UNL     1      -5.646 -22.991  48.559  1.00  0.00    -0.031 C 
ENDROOT
BRANCH   1   3
ATOM      3  C   UNL     1      -5.483 -20.607  47.867  1.00  0.00     0.027 C 
BRANCH   3   4
ATOM      4  C   UNL     1      -6.089 -20.319  49.249  1.00  0.00     0.004 C 
BRANCH   4   5
ATOM      5  C   UNL     1      -5.097 -19.718  50.262  1.00  0.00     0.000 C 
BRANCH   5   6
ATOM      6  C   UNL     1      -4.516 -20.767  51.222  1.00  0.00     0.000 C 
BRANCH   6   7
ATOM      7  C   UNL     1      -3.033 -21.025  50.918  1.00  0.00     0.000 C 
BRANCH   7   8
ATOM      8  C   UNL     1      -2.749 -22.490  50.549  1.00  0.00     0.006 C 
BRANCH   8   9
ATOM      9  C   UNL     1      -1.422 -22.665  49.801  1.00  0.00     0.053 C 
BRANCH   9  10
ATOM     10  C   UNL     1      -0.313 -22.944  50.767  1.00  0.00     0.041 C 
ATOM     11  O   UNL     1       0.429 -22.008  51.167  1.00  0.00    -0.550 OA
ATOM     12  O   UNL     1      -0.133 -24.226  51.268  1.00  0.00    -0.550 OA
ENDBRANCH   9  10
ENDBRANCH   8   9
ENDBRANCH   7   8
ENDBRANCH   6   7
ENDBRANCH   5   6
ENDBRANCH   4   5
ENDBRANCH   3   4
ENDBRANCH   1   3
BRANCH   2  13
ATOM     13  C   UNL     1      -5.444 -24.465  48.334  1.00  0.00     0.027 C 
BRANCH  13  14
ATOM     14  C   UNL     1      -4.077 -24.758  47.703  1.00  0.00     0.004 C 
BRANCH  14  15
ATOM     15  C   UNL     1      -4.203 -25.284  46.262  1.00  0.00     0.000 C 
BRANCH  15  16
ATOM     16  C   UNL     1      -2.879 -25.200  45.488  1.00  0.00     0.000 C 
BRANCH  16  17
ATOM     17  C   UNL     1      -2.598 -26.469  44.664  1.00  0.00    -0.000 C 
BRANCH  17  18
ATOM     18  C   UNL     1      -2.939 -27.756  45.431  1.00  0.00    -0.000 C 
BRANCH  18  19
ATOM     19  C   UNL     1      -4.047 -28.572  44.749  1.00  0.00    -0.003 C 
ATOM     20  C   UNL     1      -3.619 -30.024  44.557  1.00  0.00     0.004 C 
ENDBRANCH  18  19
ENDBRANCH  17  18
ENDBRANCH  16  17
ENDBRANCH  15  16
ENDBRANCH  14  15
ENDBRANCH  13  14
ENDBRANCH   2  13
TORSDOF 15
ENDMDL
MODEL 3
REMARK VINA RESULT:    -4.818      1.541      3.995
REMARK INTER + INTRA:         -11.573
REMARK INTER:                  -8.979
REMARK INTRA:                  -2.593
REMARK UNBOUND:                -2.530
REMARK SMILES CCCCCCCCC=CCCCCCCCC(=O)[O-]
REMARK SMILES IDX 10 1 9 2 11 3 12 4 13 5 14 6 15 7 16 8 17 9 18 10 19 11
REMARK SMILES IDX 20 12 8 13 7 14 6 15 5 16 4 17 3 18 2 19 1 20
REMARK H PARENT
REMARK Flexibility Score: inf
ROOT
ATOM      1  C   UNL     1      -1.987 -21.532  45.967  1.00  0.00    -0.031 C 
ATOM      2  C   UNL     1      -1.906 -21.738  47.289  1.00  0.00    -0.031 C 
ENDROOT
BRANCH   1   3
ATOM      3  C   UNL     1      -3.047 -20.649  45.366  1.00  0.00     0.027 C 
BRANCH   3   4
ATOM      4  C   UNL     1      -4.304 -21.447  44.986  1.00  0.00     0.004 C 
BRANCH   4   5
ATOM      5  C   UNL     1      -5.557 -21.076  45.800  1.00  0.00     0.000 C 
BRANCH   5   6
ATOM      6  C   UNL     1      -5.459 -19.686  46.446  1.00  0.00     0.000 C 
BRANCH   6   7
ATOM      7  C   UNL     1      -5.910 -19.731  47.914  1.00  0.00     0.000 C 
BRANCH   7   8
ATOM      8  C   UNL     1      -5.095 -20.728  48.754  1.00  0.00     0.006 C 
BRANCH   8   9
ATOM      9  C   UNL     1      -5.540 -20.766  50.221  1.00  0.00     0.053 C 
BRANCH   9  10
ATOM     10  C   UNL     1      -4.573 -20.009  51.078  1.00  0.00     0.041 C 
ATOM     11  O   UNL     1      -3.490 -20.543  51.435  1.00  0.00    -0.550 OA
ATOM     12  O   UNL     1      -4.843 -18.695  51.436  1.00  0.00    -0.550 OA
ENDBRANCH   9  10
ENDBRANCH   8   9
ENDBRANCH   7   8
ENDBRANCH   6   7
ENDBRANCH   5   6
ENDBRANCH   4   5
ENDBRANCH   3   4
ENDBRANCH   1   3
BRANCH   2  13
ATOM     13  C   UNL     1      -0.848 -22.624  47.888  1.00  0.00     0.027 C 
BRANCH  13  14
ATOM     14  C   UNL     1      -1.071 -24.097  47.524  1.00  0.00     0.004 C 
BRANCH  14  15
ATOM     15  C   UNL     1      -1.524 -24.932  48.736  1.00  0.00     0.000 C 
BRANCH  15  16
ATOM     16  C   UNL     1      -1.765 -24.071  49.986  1.00  0.00     0.000 C 
BRANCH  16  17
ATOM     17  C   UNL     1      -3.242 -23.670  50.148  1.00  0.00    -0.000 C 
BRANCH  17  18
ATOM     18  C   UNL     1      -4.206 -24.802  49.758  1.00  0.00    -0.000 C 
BRANCH  18  19
ATOM     19  C   UNL     1      -5.308 -24.333  48.797  1.00  0.00    -0.003 C 
ATOM     20  C   UNL     1      -4.783 -24.234  47.367  1.00  0.00     0.004 C 
ENDBRANCH  18  19
ENDBRANCH  17  18
ENDBRANCH  16  17
ENDBRANCH  15  16
ENDBRANCH  14  15
ENDBRANCH  13  14
ENDBRANCH   2  13
TORSDOF 15
ENDMDL
MODEL 4
REMARK VINA RESULT:    -4.807      2.517      4.648
REMARK INTER + INTRA:         -11.551
REMARK INTER:                  -8.919
REMARK INTRA:                  -2.632
REMARK UNBOUND:                -2.530
REMARK SMILES CCCCCCCCC=CCCCCCCCC(=O)[O-]
REMARK SMILES IDX 10 1 9 2 11 3 12 4 13 5 14 6 15 7 16 8 17 9 18 10 19 11
REMARK SMILES IDX 20 12 8 13 7 14 6 15 5 16 4 17 3 18 2 19 1 20
REMARK H PARENT
REMARK Flexibility Score: inf
ROOT
ATOM      1  C   UNL     1      -5.606 -23.026  48.649  1.00  0.00    -0.031 C 
ATOM      2  C   UNL     1      -5.036 -22.192  49.531  1.00  0.00    -0.031 C 
ENDROOT
BRANCH   1   3
ATOM      3  C   UNL     1      -5.114 -24.435  48.460  1.00  0.00     0.027 C 
BRANCH   3   4
ATOM      4  C   UNL     1      -4.468 -24.632  47.080  1.00  0.00     0.004 C 
BRANCH   4   5
ATOM      5  C   UNL     1      -3.029 -25.179  47.129  1.00  0.00     0.000 C 
BRANCH   5   6
ATOM      6  C   UNL     1      -1.971 -24.100  46.860  1.00  0.00     0.000 C 
BRANCH   6   7
ATOM      7  C   UNL     1      -1.122 -23.840  48.114  1.00  0.00     0.000 C 
BRANCH   7   8
ATOM      8  C   UNL     1      -1.395 -22.463  48.740  1.00  0.00     0.006 C 
BRANCH   8   9
ATOM      9  C   UNL     1      -1.551 -22.527  50.264  1.00  0.00     0.053 C 
BRANCH   9  10
ATOM     10  C   UNL     1      -0.235 -22.834  50.909  1.00  0.00     0.041 C 
ATOM     11  O   UNL     1       0.016 -24.000  51.312  1.00  0.00    -0.550 OA
ATOM     12  O   UNL     1       0.734 -21.846  51.015  1.00  0.00    -0.550 OA
ENDBRANCH   9  10
ENDBRANCH   8   9
ENDBRANCH   7   8
ENDBRANCH   6   7
ENDBRANCH   5   6
ENDBRANCH   4   5
ENDBRANCH   3   4
ENDBRANCH   1   3
BRANCH   2  13
ATOM     13  C   UNL     1      -5.527 -20.782  49.716  1.00  0.00     0.027 C 
BRANCH  13  14
ATOM     14  C   UNL     1      -6.550 -20.393  48.641  1.00  0.00     0.004 C 
BRANCH  14  15
ATOM     15  C   UNL     1      -5.885 -19.737  47.417  1.00  0.00     0.000 C 
BRANCH  15  16
ATOM     16  C   UNL     1      -6.342 -20.367  46.092  1.00  0.00     0.000 C 
BRANCH  16  17
ATOM     17  C   UNL     1      -5.191 -21.065  45.345  1.00  0.00    -0.000 C 
BRANCH  17  18
ATOM     18  C   UNL     1      -3.888 -21.084  46.159  1.00  0.00    -0.000 C 
BRANCH  18  19
ATOM     19  C   UNL     1      -2.661 -20.709  45.314  1.00  0.00    -0.003 C 
ATOM     20  C   UNL     1      -2.982 -19.564  44.358  1.00  0.00     0.004 C 
ENDBRANCH  18  19
ENDBRANCH  17  18
ENDBRANCH  16  17
ENDBRANCH  15  16
ENDBRANCH  14  15
ENDBRANCH  13  14
ENDBRANCH   2  13
TORSDOF 15
ENDMDL
MODEL 5
REMARK VINA RESULT:    -4.781      3.228      5.607
REMARK INTER + INTRA:         -11.504
REMARK INTER:                  -8.426
REMARK INTRA:                  -3.077
REMARK UNBOUND:                -2.530
REMARK SMILES CCCCCCCCC=CCCCCCCCC(=O)[O-]
REMARK SMILES IDX 10 1 9 2 11 3 12 4 13 5 14 6 15 7 16 8 17 9 18 10 19 11
REMARK SMILES IDX 20 12 8 13 7 14 6 15 5 16 4 17 3 18 2 19 1 20
REMARK H PARENT
REMARK Flexibility Score: inf
ROOT
ATOM      1  C   UNL     1      -1.767 -21.664  48.896  1.00  0.00    -0.031 C 
ATOM      2  C   UNL     1      -1.227 -22.031  47.725  1.00  0.00    -0.031 C 
ENDROOT
BRANCH   1   3
ATOM      3  C   UNL     1      -1.281 -22.231  50.203  1.00  0.00     0.027 C 
BRANCH   3   4
ATOM      4  C   UNL     1      -1.808 -23.655  50.436  1.00  0.00     0.004 C 
BRANCH   4   5
ATOM      5  C   UNL     1      -3.309 -23.829  50.140  1.00  0.00     0.000 C 
BRANCH   5   6
ATOM      6  C   UNL     1      -3.579 -24.799  48.980  1.00  0.00     0.000 C 
BRANCH   6   7
ATOM      7  C   UNL     1      -2.266 -25.390  48.444  1.00  0.00     0.000 C 
BRANCH   7   8
ATOM      8  C   UNL     1      -2.277 -25.569  46.917  1.00  0.00     0.006 C 
BRANCH   8   9
ATOM      9  C   UNL     1      -3.688 -25.485  46.322  1.00  0.00     0.053 C 
BRANCH   9  10
ATOM     10  C   UNL     1      -3.786 -26.336  45.095  1.00  0.00     0.041 C 
ATOM     11  O   UNL     1      -4.806 -27.049  44.898  1.00  0.00    -0.550 OA
ATOM     12  O   UNL     1      -2.777 -26.301  44.142  1.00  0.00    -0.550 OA
ENDBRANCH   9  10
ENDBRANCH   8   9
ENDBRANCH   7   8
ENDBRANCH   6   7
ENDBRANCH   5   6
ENDBRANCH   4   5
ENDBRANCH   3   4
ENDBRANCH   1   3
BRANCH   2  13
ATOM     13  C   UNL     1      -1.716 -21.467  46.418  1.00  0.00     0.027 C 
BRANCH  13  14
ATOM     14  C   UNL     1      -3.138 -21.941  46.094  1.00  0.00     0.004 C 
BRANCH  14  15
ATOM     15  C   UNL     1      -4.069 -20.773  45.720  1.00  0.00     0.000 C 
BRANCH  15  16
ATOM     16  C   UNL     1      -5.238 -20.615  46.704  1.00  0.00     0.000 C 
BRANCH  16  17
ATOM     17  C   UNL     1      -5.325 -21.780  47.706  1.00  0.00    -0.000 C 
BRANCH  17  18
ATOM     18  C   UNL     1      -5.841 -21.334  49.083  1.00  0.00    -0.000 C 
BRANCH  18  19
ATOM     19  C   UNL     1      -5.161 -20.049  49.579  1.00  0.00    -0.003 C 
ATOM     20  C   UNL     1      -4.510 -20.264  50.942  1.00  0.00     0.004 C 
ENDBRANCH  18  19
ENDBRANCH  17  18
ENDBRANCH  16  17
ENDBRANCH  15  16
ENDBRANCH  14  15
ENDBRANCH  13  14
ENDBRANCH   2  13
TORSDOF 15
ENDMDL
MODEL 6
REMARK VINA RESULT:    -4.772      2.686      5.036
REMARK INTER + INTRA:         -11.486
REMARK INTER:                  -9.476
REMARK INTRA:                  -2.010
REMARK UNBOUND:                -2.530
REMARK SMILES CCCCCCCCC=CCCCCCCCC(=O)[O-]
REMARK SMILES IDX 10 1 9 2 11 3 12 4 13 5 14 6 15 7 16 8 17 9 18 10 19 11
REMARK SMILES IDX 20 12 8 13 7 14 6 15 5 16 4 17 3 18 2 19 1 20
REMARK H PARENT
REMARK Flexibility Score: inf
ROOT
ATOM      1  C   UNL     1      -1.664 -25.078  47.517  1.00  0.00    -0.031 C 
ATOM      2  C   UNL     1      -1.820 -23.951  46.807  1.00  0.00    -0.031 C 
ENDROOT
BRANCH   1   3
ATOM      3  C   UNL     1      -1.733 -25.082  49.020  1.00  0.00     0.027 C 
BRANCH   3   4
ATOM      4  C   UNL     1      -2.143 -23.709  49.575  1.00  0.00     0.004 C 
BRANCH   4   5
ATOM      5  C   UNL     1      -3.581 -23.654  50.123  1.00  0.00     0.000 C 
BRANCH   5   6
ATOM      6  C   UNL     1      -4.522 -24.651  49.432  1.00  0.00     0.000 C 
BRANCH   6   7
ATOM      7  C   UNL     1      -5.631 -23.916  48.664  1.00  0.00     0.000 C 
BRANCH   7   8
ATOM      8  C   UNL     1      -5.477 -22.388  48.718  1.00  0.00     0.006 C 
BRANCH   8   9
ATOM      9  C   UNL     1      -5.222 -21.770  47.337  1.00  0.00     0.053 C 
BRANCH   9  10
ATOM     10  C   UNL     1      -6.127 -20.599  47.117  1.00  0.00     0.041 C 
ATOM     11  O   UNL     1      -6.699 -20.440  46.006  1.00  0.00    -0.550 OA
ATOM     12  O   UNL     1      -6.383 -19.712  48.154  1.00  0.00    -0.550 OA
ENDBRANCH   9  10
ENDBRANCH   8   9
ENDBRANCH   7   8
ENDBRANCH   6   7
ENDBRANCH   5   6
ENDBRANCH   4   5
ENDBRANCH   3   4
ENDBRANCH   1   3
BRANCH   2  13
ATOM     13  C   UNL     1      -1.747 -23.948  45.304  1.00  0.00     0.027 C 
BRANCH  13  14
ATOM     14  C   UNL     1      -3.129 -23.744  44.671  1.00  0.00     0.004 C 
BRANCH  14  15
ATOM     15  C   UNL     1      -4.169 -24.740  45.215  1.00  0.00     0.000 C 
BRANCH  15  16
ATOM     16  C   UNL     1      -4.482 -25.866  44.218  1.00  0.00     0.000 C 
BRANCH  16  17
ATOM     17  C   UNL     1      -4.449 -27.258  44.873  1.00  0.00    -0.000 C 
BRANCH  17  18
ATOM     18  C   UNL     1      -3.017 -27.761  45.115  1.00  0.00    -0.000 C 
BRANCH  18  19
ATOM     19  C   UNL     1      -2.942 -29.290  45.235  1.00  0.00    -0.003 C 
ATOM     20  C   UNL     1      -3.861 -29.966  44.221  1.00  0.00     0.004 C 
ENDBRANCH  18  19
ENDBRANCH  17  18
ENDBRANCH  16  17
ENDBRANCH  15  16
ENDBRANCH  14  15
ENDBRANCH  13  14
ENDBRANCH   2  13
TORSDOF 15
ENDMDL
MODEL 7
REMARK VINA RESULT:    -4.731      2.416      4.874
REMARK INTER + INTRA:         -11.409
REMARK INTER:                  -8.773
REMARK INTRA:                  -2.636
REMARK UNBOUND:                -2.530
REMARK SMILES CCCCCCCCC=CCCCCCCCC(=O)[O-]
REMARK SMILES IDX 10 1 9 2 11 3 12 4 13 5 14 6 15 7 16 8 17 9 18 10 19 11
REMARK SMILES IDX 20 12 8 13 7 14 6 15 5 16 4 17 3 18 2 19 1 20
REMARK H PARENT
REMARK Flexibility Score: inf
ROOT
ATOM      1  C   UNL     1      -4.241 -23.918  46.245  1.00  0.00    -0.031 C 
ATOM      2  C   UNL     1      -4.490 -24.793  47.230  1.00  0.00    -0.031 C 
ENDROOT
BRANCH   1   3
ATOM      3  C   UNL     1      -3.328 -24.257  45.098  1.00  0.00     0.027 C 
BRANCH   3   4
ATOM      4  C   UNL     1      -2.233 -23.195  44.910  1.00  0.00     0.004 C 
BRANCH   4   5
ATOM      5  C   UNL     1      -2.559 -21.832  45.548  1.00  0.00     0.000 C 
BRANCH   5   6
ATOM      6  C   UNL     1      -1.650 -21.498  46.739  1.00  0.00     0.000 C 
BRANCH   6   7
ATOM      7  C   UNL     1      -0.456 -22.463  46.804  1.00  0.00     0.000 C 
BRANCH   7   8
ATOM      8  C   UNL     1       0.499 -22.147  47.967  1.00  0.00     0.006 C 
BRANCH   8   9
ATOM      9  C   UNL     1      -0.237 -21.655  49.219  1.00  0.00     0.053 C 
BRANCH   9  10
ATOM     10  C   UNL     1       0.170 -22.461  50.412  1.00  0.00     0.041 C 
ATOM     11  O   UNL     1       0.007 -23.710  50.419  1.00  0.00    -0.550 OA
ATOM     12  O   UNL     1       0.780 -21.841  51.495  1.00  0.00    -0.550 OA
ENDBRANCH   9  10
ENDBRANCH   8   9
ENDBRANCH   7   8
ENDBRANCH   6   7
ENDBRANCH   5   6
ENDBRANCH   4   5
ENDBRANCH   3   4
ENDBRANCH   1   3
BRANCH   2  13
ATOM     13  C   UNL     1      -5.400 -24.452  48.379  1.00  0.00     0.027 C 
BRANCH  13  14
ATOM     14  C   UNL     1      -4.665 -24.517  49.723  1.00  0.00     0.004 C 
BRANCH  14  15
ATOM     15  C   UNL     1      -3.526 -23.485  49.812  1.00  0.00     0.000 C 
BRANCH  15  16
ATOM     16  C   UNL     1      -3.971 -22.176  50.482  1.00  0.00     0.000 C 
BRANCH  16  17
ATOM     17  C   UNL     1      -3.827 -20.959  49.550  1.00  0.00    -0.000 C 
BRANCH  17  18
ATOM     18  C   UNL     1      -5.099 -20.098  49.505  1.00  0.00    -0.000 C 
BRANCH  18  19
ATOM     19  C   UNL     1      -6.209 -20.731  48.653  1.00  0.00    -0.003 C 
ATOM     20  C   UNL     1      -5.799 -20.803  47.184  1.00  0.00     0.004 C 
ENDBRANCH  18  19
ENDBRANCH  17  18
ENDBRANCH  16  17
ENDBRANCH  15  16
ENDBRANCH  14  15
ENDBRANCH  13  14
ENDBRANCH   2  13
TORSDOF 15
ENDMDL
MODEL 8
REMARK VINA RESULT:    -4.693      2.378      3.762
REMARK INTER + INTRA:         -11.339
REMARK INTER:                  -8.935
REMARK INTRA:                  -2.404
REMARK UNBOUND:                -2.530
REMARK SMILES CCCCCCCCC=CCCCCCCCC(=O)[O-]
REMARK SMILES IDX 10 1 9 2 11 3 12 4 13 5 14 6 15 7 16 8 17 9 18 10 19 11
REMARK SMILES IDX 20 12 8 13 7 14 6 15 5 16 4 17 3 18 2 19 1 20
REMARK H PARENT
REMARK Flexibility Score: inf
ROOT
ATOM      1  C   UNL     1      -3.483 -23.705  50.106  1.00  0.00    -0.031 C 
ATOM      2  C   UNL     1      -2.199 -24.087  50.042  1.00  0.00    -0.031 C 
ENDROOT
BRANCH   1   3
ATOM      3  C   UNL     1      -4.582 -24.512  49.468  1.00  0.00     0.027 C 
BRANCH   3   4
ATOM      4  C   UNL     1      -5.585 -23.619  48.724  1.00  0.00     0.004 C 
BRANCH   4   5
ATOM      5  C   UNL     1      -5.315 -22.109  48.868  1.00  0.00     0.000 C 
BRANCH   5   6
ATOM      6  C   UNL     1      -5.143 -21.403  47.515  1.00  0.00     0.000 C 
BRANCH   6   7
ATOM      7  C   UNL     1      -6.304 -20.430  47.255  1.00  0.00     0.000 C 
BRANCH   7   8
ATOM      8  C   UNL     1      -6.125 -19.628  45.956  1.00  0.00     0.006 C 
BRANCH   8   9
ATOM      9  C   UNL     1      -4.984 -20.165  45.082  1.00  0.00     0.053 C 
BRANCH   9  10
ATOM     10  C   UNL     1      -4.086 -19.046  44.655  1.00  0.00     0.041 C 
ATOM     11  O   UNL     1      -4.546 -17.883  44.513  1.00  0.00    -0.550 OA
ATOM     12  O   UNL     1      -2.730 -19.278  44.466  1.00  0.00    -0.550 OA
ENDBRANCH   9  10
ENDBRANCH   8   9
ENDBRANCH   7   8
ENDBRANCH   6   7
ENDBRANCH   5   6
ENDBRANCH   4   5
ENDBRANCH   3   4
ENDBRANCH   1   3
BRANCH   2  13
ATOM     13  C   UNL     1      -1.102 -23.277  50.677  1.00  0.00     0.027 C 
BRANCH  13  14
ATOM     14  C   UNL     1      -0.115 -22.744  49.631  1.00  0.00     0.004 C 
BRANCH  14  15
ATOM     15  C   UNL     1      -0.804 -21.844  48.588  1.00  0.00     0.000 C 
BRANCH  15  16
ATOM     16  C   UNL     1      -0.398 -22.195  47.149  1.00  0.00     0.000 C 
BRANCH  16  17
ATOM     17  C   UNL     1      -0.959 -23.555  46.695  1.00  0.00    -0.000 C 
BRANCH  17  18
ATOM     18  C   UNL     1      -2.434 -23.472  46.272  1.00  0.00    -0.000 C 
BRANCH  18  19
ATOM     19  C   UNL     1      -3.107 -24.851  46.213  1.00  0.00    -0.003 C 
ATOM     20  C   UNL     1      -2.191 -25.934  46.775  1.00  0.00     0.004 C 
ENDBRANCH  18  19
ENDBRANCH  17  18
ENDBRANCH  16  17
ENDBRANCH  15  16
ENDBRANCH  14  15
ENDBRANCH  13  14
ENDBRANCH   2  13
TORSDOF 15
ENDMDL
MODEL 9
REMARK VINA RESULT:    -4.692      2.306      4.920
REMARK INTER + INTRA:         -11.336
REMARK INTER:                  -8.666
REMARK INTRA:                  -2.670
REMARK UNBOUND:                -2.530
REMARK SMILES CCCCCCCCC=CCCCCCCCC(=O)[O-]
REMARK SMILES IDX 10 1 9 2 11 3 12 4 13 5 14 6 15 7 16 8 17 9 18 10 19 11
REMARK SMILES IDX 20 12 8 13 7 14 6 15 5 16 4 17 3 18 2 19 1 20
REMARK H PARENT
REMARK Flexibility Score: inf
ROOT
ATOM      1  C   UNL     1      -5.122 -21.271  47.696  1.00  0.00    -0.031 C 
ATOM      2  C   UNL     1      -5.237 -22.493  48.237  1.00  0.00    -0.031 C 
ENDROOT
BRANCH   1   3
ATOM      3  C   UNL     1      -5.608 -20.973  46.304  1.00  0.00     0.027 C 
BRANCH   3   4
ATOM      4  C   UNL     1      -4.559 -21.342  45.244  1.00  0.00     0.004 C 
BRANCH   4   5
ATOM      5  C   UNL     1      -3.119 -20.943  45.614  1.00  0.00     0.000 C 
BRANCH   5   6
ATOM      6  C   UNL     1      -2.162 -22.143  45.664  1.00  0.00     0.000 C 
BRANCH   6   7
ATOM      7  C   UNL     1      -0.980 -21.863  46.605  1.00  0.00     0.000 C 
BRANCH   7   8
ATOM      8  C   UNL     1      -1.399 -21.812  48.083  1.00  0.00     0.006 C 
BRANCH   8   9
ATOM      9  C   UNL     1      -0.253 -22.180  49.034  1.00  0.00     0.053 C 
BRANCH   9  10
ATOM     10  C   UNL     1      -0.796 -22.605  50.363  1.00  0.00     0.041 C 
ATOM     11  O   UNL     1      -1.656 -21.898  50.952  1.00  0.00    -0.550 OA
ATOM     12  O   UNL     1      -0.393 -23.809  50.925  1.00  0.00    -0.550 OA
ENDBRANCH   9  10
ENDBRANCH   8   9
ENDBRANCH   7   8
ENDBRANCH   6   7
ENDBRANCH   5   6
ENDBRANCH   4   5
ENDBRANCH   3   4
ENDBRANCH   1   3
BRANCH   2  13
ATOM     13  C   UNL     1      -4.747 -22.790  49.628  1.00  0.00     0.027 C 
BRANCH  13  14
ATOM     14  C   UNL     1      -4.065 -24.162  49.706  1.00  0.00     0.004 C 
BRANCH  14  15
ATOM     15  C   UNL     1      -3.865 -24.791  48.315  1.00  0.00     0.000 C 
BRANCH  15  16
ATOM     16  C   UNL     1      -2.427 -25.287  48.096  1.00  0.00     0.000 C 
BRANCH  16  17
ATOM     17  C   UNL     1      -2.149 -25.654  46.628  1.00  0.00    -0.000 C 
BRANCH  17  18
ATOM     18  C   UNL     1      -3.439 -25.851  45.816  1.00  0.00    -0.000 C 
BRANCH  18  19
ATOM     19  C   UNL     1      -3.552 -27.263  45.223  1.00  0.00    -0.003 C 
ATOM     20  C   UNL     1      -4.825 -27.411  44.395  1.00  0.00     0.004 C 
ENDBRANCH  18  19
ENDBRANCH  17  18
ENDBRANCH  16  17
ENDBRANCH  15  16
ENDBRANCH  14  15
ENDBRANCH  13  14
ENDBRANCH   2  13
TORSDOF 15
ENDMDL
