MODEL 1
REMARK VINA RESULT:    -3.555      0.000      0.000
REMARK INTER + INTRA:          -4.612
REMARK INTER:                  -4.386
REMARK INTRA:                  -0.227
REMARK UNBOUND:                -0.227
REMARK SMILES CCCCCC(=O)[O-]
REMARK SMILES IDX 4 1 5 2 6 3 7 4 8 5 3 6 2 7 1 8
REMARK H PARENT
REMARK Flexibility Score: inf
ROOT
ATOM      1  C   UNL     1      15.389 -21.005  21.647  1.00  0.00     0.006 C 
ENDROOT
BRANCH   1   2
ATOM      2  C   UNL     1      14.692 -21.977  20.688  1.00  0.00     0.053 C 
BRANCH   2   3
ATOM      3  C   UNL     1      13.768 -22.880  21.441  1.00  0.00     0.041 C 
ATOM      4  O   UNL     1      13.955 -24.125  21.435  1.00  0.00    -0.550 OA
ATOM      5  O   UNL     1      12.671 -22.351  22.109  1.00  0.00    -0.550 OA
ENDBRANCH   2   3
ENDBRANCH   1   2
BRANCH   1   6
ATOM      6  C   UNL     1      16.624 -21.651  22.284  1.00  0.00     0.000 C 
BRANCH   6   7
ATOM      7  C   UNL     1      16.744 -21.266  23.763  1.00  0.00    -0.003 C 
ATOM      8  C   UNL     1      15.369 -21.136  24.412  1.00  0.00     0.004 C 
ENDBRANCH   6   7
ENDBRANCH   1   6
TORSDOF 4
ENDMDL
MODEL 2
REMARK VINA RESULT:    -3.548      2.166      3.717
REMARK INTER + INTRA:          -4.604
REMARK INTER:                  -4.429
REMARK INTRA:                  -0.175
REMARK UNBOUND:                -0.227
REMARK SMILES CCCCCC(=O)[O-]
REMARK SMILES IDX 4 1 5 2 6 3 7 4 8 5 3 6 2 7 1 8
REMARK H PARENT
REMARK Flexibility Score: inf
ROOT
ATOM      1  C   UNL     1      16.327 -21.968  22.217  1.00  0.00     0.006 C 
ENDROOT
BRANCH   1   2
ATOM      2  C   UNL     1      16.694 -21.012  23.357  1.00  0.00     0.053 C 
BRANCH   2   3
ATOM      3  C   UNL     1      15.690 -21.106  24.461  1.00  0.00     0.041 C 
ATOM      4  O   UNL     1      14.578 -20.525  24.358  1.00  0.00    -0.550 OA
ATOM      5  O   UNL     1      16.001 -21.796  25.626  1.00  0.00    -0.550 OA
ENDBRANCH   2   3
ENDBRANCH   1   2
BRANCH   1   6
ATOM      6  C   UNL     1      15.543 -21.239  21.118  1.00  0.00     0.000 C 
BRANCH   6   7
ATOM      7  C   UNL     1      14.194 -21.920  20.862  1.00  0.00    -0.003 C 
ATOM      8  C   UNL     1      14.254 -23.406  21.205  1.00  0.00     0.004 C 
ENDBRANCH   6   7
ENDBRANCH   1   6
TORSDOF 4
ENDMDL
MODEL 3
REMARK VINA RESULT:    -3.392      1.409      1.630
REMARK INTER + INTRA:          -4.412
REMARK INTER:                  -4.254
REMARK INTRA:                  -0.158
REMARK UNBOUND:                -0.227
REMARK SMILES CCCCCC(=O)[O-]
REMARK SMILES IDX 4 1 5 2 6 3 7 4 8 5 3 6 2 7 1 8
REMARK H PARENT
REMARK Flexibility Score: inf
ROOT
ATOM      1  C   UNL     1      15.130 -22.281  21.754  1.00  0.00     0.006 C 
ENDROOT
BRANCH   1   2
ATOM      2  C   UNL     1      13.883 -21.773  21.023  1.00  0.00     0.053 C 
BRANCH   2   3
ATOM      3  C   UNL     1      12.778 -21.510  21.995  1.00  0.00     0.041 C 
ATOM      4  O   UNL     1      11.642 -22.022  21.816  1.00  0.00    -0.550 OA
ATOM      5  O   UNL     1      12.989 -20.662  23.075  1.00  0.00    -0.550 OA
ENDBRANCH   2   3
ENDBRANCH   1   2
BRANCH   1   6
ATOM      6  C   UNL     1      16.201 -21.187  21.842  1.00  0.00     0.000 C 
BRANCH   6   7
ATOM      7  C   UNL     1      17.036 -21.336  23.118  1.00  0.00    -0.003 C 
ATOM      8  C   UNL     1      16.185 -21.106  24.364  1.00  0.00     0.004 C 
ENDBRANCH   6   7
ENDBRANCH   1   6
TORSDOF 4
ENDMDL
MODEL 4
REMARK VINA RESULT:    -3.327      2.311      3.713
REMARK INTER + INTRA:          -4.331
REMARK INTER:                  -4.082
REMARK INTRA:                  -0.249
REMARK UNBOUND:                -0.227
REMARK SMILES CCCCCC(=O)[O-]
REMARK SMILES IDX 4 1 5 2 6 3 7 4 8 5 3 6 2 7 1 8
REMARK H PARENT
REMARK Flexibility Score: inf
ROOT
ATOM      1  C   UNL     1      15.452 -22.117  21.924  1.00  0.00     0.006 C 
ENDROOT
BRANCH   1   2
ATOM      2  C   UNL     1      15.425 -20.727  22.568  1.00  0.00     0.053 C 
BRANCH   2   3
ATOM      3  C   UNL     1      15.031 -20.827  24.008  1.00  0.00     0.041 C 
ATOM      4  O   UNL     1      13.942 -20.333  24.402  1.00  0.00    -0.550 OA
ATOM      5  O   UNL     1      15.888 -21.423  24.923  1.00  0.00    -0.550 OA
ENDBRANCH   2   3
ENDBRANCH   1   2
BRANCH   1   6
ATOM      6  C   UNL     1      14.047 -22.728  21.872  1.00  0.00     0.000 C 
BRANCH   6   7
ATOM      7  C   UNL     1      13.091 -21.840  21.068  1.00  0.00    -0.003 C 
ATOM      8  C   UNL     1      11.789 -21.601  21.829  1.00  0.00     0.004 C 
ENDBRANCH   6   7
ENDBRANCH   1   6
TORSDOF 4
ENDMDL
MODEL 5
REMARK VINA RESULT:    -3.302      1.521      2.282
REMARK INTER + INTRA:          -4.300
REMARK INTER:                  -4.142
REMARK INTRA:                  -0.159
REMARK UNBOUND:                -0.227
REMARK SMILES CCCCCC(=O)[O-]
REMARK SMILES IDX 4 1 5 2 6 3 7 4 8 5 3 6 2 7 1 8
REMARK H PARENT
REMARK Flexibility Score: inf
ROOT
ATOM      1  C   UNL     1      14.516 -20.290  22.855  1.00  0.00     0.006 C 
ENDROOT
BRANCH   1   2
ATOM      2  C   UNL     1      12.991 -20.405  22.750  1.00  0.00     0.053 C 
BRANCH   2   3
ATOM      3  C   UNL     1      12.613 -21.532  21.843  1.00  0.00     0.041 C 
ATOM      4  O   UNL     1      11.414 -21.906  21.764  1.00  0.00    -0.550 OA
ATOM      5  O   UNL     1      13.592 -22.200  21.119  1.00  0.00    -0.550 OA
ENDBRANCH   2   3
ENDBRANCH   1   2
BRANCH   1   6
ATOM      6  C   UNL     1      15.024 -20.891  24.170  1.00  0.00     0.000 C 
BRANCH   6   7
ATOM      7  C   UNL     1      16.518 -21.221  24.082  1.00  0.00    -0.003 C 
ATOM      8  C   UNL     1      16.993 -21.241  22.632  1.00  0.00     0.004 C 
ENDBRANCH   6   7
ENDBRANCH   1   6
TORSDOF 4
ENDMDL
MODEL 6
REMARK VINA RESULT:    -3.298      2.578      3.096
REMARK INTER + INTRA:          -4.295
REMARK INTER:                  -4.042
REMARK INTRA:                  -0.254
REMARK UNBOUND:                -0.227
REMARK SMILES CCCCCC(=O)[O-]
REMARK SMILES IDX 4 1 5 2 6 3 7 4 8 5 3 6 2 7 1 8
REMARK H PARENT
REMARK Flexibility Score: inf
ROOT
ATOM      1  C   UNL     1      15.630 -21.816  21.897  1.00  0.00     0.006 C 
ENDROOT
BRANCH   1   2
ATOM      2  C   UNL     1      15.529 -21.047  20.576  1.00  0.00     0.053 C 
BRANCH   2   3
ATOM      3  C   UNL     1      15.637 -19.575  20.818  1.00  0.00     0.041 C 
ATOM      4  O   UNL     1      14.727 -18.968  21.440  1.00  0.00    -0.550 OA
ATOM      5  O   UNL     1      16.720 -18.866  20.315  1.00  0.00    -0.550 OA
ENDBRANCH   2   3
ENDBRANCH   1   2
BRANCH   1   6
ATOM      6  C   UNL     1      16.895 -21.422  22.669  1.00  0.00     0.000 C 
BRANCH   6   7
ATOM      7  C   UNL     1      16.584 -21.188  24.151  1.00  0.00    -0.003 C 
ATOM      8  C   UNL     1      15.087 -20.997  24.377  1.00  0.00     0.004 C 
ENDBRANCH   6   7
ENDBRANCH   1   6
TORSDOF 4
ENDMDL
MODEL 7
REMARK VINA RESULT:    -3.229      1.690      1.795
REMARK INTER + INTRA:          -4.210
REMARK INTER:                  -4.049
REMARK INTRA:                  -0.161
REMARK UNBOUND:                -0.227
REMARK SMILES CCCCCC(=O)[O-]
REMARK SMILES IDX 4 1 5 2 6 3 7 4 8 5 3 6 2 7 1 8
REMARK H PARENT
REMARK Flexibility Score: inf
ROOT
ATOM      1  C   UNL     1      15.353 -22.376  21.736  1.00  0.00     0.006 C 
ENDROOT
BRANCH   1   2
ATOM      2  C   UNL     1      13.844 -22.130  21.635  1.00  0.00     0.053 C 
BRANCH   2   3
ATOM      3  C   UNL     1      13.518 -21.389  20.377  1.00  0.00     0.041 C 
ATOM      4  O   UNL     1      13.872 -21.850  19.261  1.00  0.00    -0.550 OA
ATOM      5  O   UNL     1      12.863 -20.166  20.442  1.00  0.00    -0.550 OA
ENDBRANCH   2   3
ENDBRANCH   1   2
BRANCH   1   6
ATOM      6  C   UNL     1      16.098 -21.085  22.092  1.00  0.00     0.000 C 
BRANCH   6   7
ATOM      7  C   UNL     1      16.925 -21.263  23.371  1.00  0.00    -0.003 C 
ATOM      8  C   UNL     1      16.049 -21.137  24.615  1.00  0.00     0.004 C 
ENDBRANCH   6   7
ENDBRANCH   1   6
TORSDOF 4
ENDMDL
MODEL 8
REMARK VINA RESULT:    -3.167      2.518      3.808
REMARK INTER + INTRA:          -4.134
REMARK INTER:                  -4.003
REMARK INTRA:                  -0.131
REMARK UNBOUND:                -0.227
REMARK SMILES CCCCCC(=O)[O-]
REMARK SMILES IDX 4 1 5 2 6 3 7 4 8 5 3 6 2 7 1 8
REMARK H PARENT
REMARK Flexibility Score: inf
ROOT
ATOM      1  C   UNL     1      16.248 -21.344  22.024  1.00  0.00     0.006 C 
ENDROOT
BRANCH   1   2
ATOM      2  C   UNL     1      15.026 -21.679  22.885  1.00  0.00     0.053 C 
BRANCH   2   3
ATOM      3  C   UNL     1      15.103 -20.972  24.200  1.00  0.00     0.041 C 
ATOM      4  O   UNL     1      14.537 -19.859  24.355  1.00  0.00    -0.550 OA
ATOM      5  O   UNL     1      15.840 -21.521  25.242  1.00  0.00    -0.550 OA
ENDBRANCH   2   3
ENDBRANCH   1   2
BRANCH   1   6
ATOM      6  C   UNL     1      15.870 -20.402  20.874  1.00  0.00     0.000 C 
BRANCH   6   7
ATOM      7  C   UNL     1      15.074 -21.145  19.795  1.00  0.00    -0.003 C 
ATOM      8  C   UNL     1      13.716 -20.487  19.563  1.00  0.00     0.004 C 
ENDBRANCH   6   7
ENDBRANCH   1   6
TORSDOF 4
ENDMDL
MODEL 9
REMARK VINA RESULT:    -2.978      2.579      3.562
REMARK INTER + INTRA:          -3.901
REMARK INTER:                  -3.660
REMARK INTRA:                  -0.241
REMARK UNBOUND:                -0.227
REMARK SMILES CCCCCC(=O)[O-]
REMARK SMILES IDX 4 1 5 2 6 3 7 4 8 5 3 6 2 7 1 8
REMARK H PARENT
REMARK Flexibility Score: inf
ROOT
ATOM      1  C   UNL     1      13.536 -22.710  21.648  1.00  0.00     0.006 C 
ENDROOT
BRANCH   1   2
ATOM      2  C   UNL     1      15.061 -22.638  21.509  1.00  0.00     0.053 C 
BRANCH   2   3
ATOM      3  C   UNL     1      15.613 -21.550  22.373  1.00  0.00     0.041 C 
ATOM      4  O   UNL     1      16.498 -20.775  21.927  1.00  0.00    -0.550 OA
ATOM      5  O   UNL     1      15.185 -21.422  23.688  1.00  0.00    -0.550 OA
ENDBRANCH   2   3
ENDBRANCH   1   2
BRANCH   1   6
ATOM      6  C   UNL     1      12.868 -21.481  21.021  1.00  0.00     0.000 C 
BRANCH   6   7
ATOM      7  C   UNL     1      11.807 -20.894  21.960  1.00  0.00    -0.003 C 
ATOM      8  C   UNL     1      12.192 -19.490  22.416  1.00  0.00     0.004 C 
ENDBRANCH   6   7
ENDBRANCH   1   6
TORSDOF 4
ENDMDL
