MODEL 1
REMARK VINA RESULT:    -7.318      0.000      0.000
REMARK INTER + INTRA:         -14.451
REMARK INTER:                 -12.023
REMARK INTRA:                  -2.428
REMARK UNBOUND:                -2.428
REMARK SMILES C[C@@H]1O[C@H](OC[C@@H]2O[C@@H](Oc3c(-c4ccc(O)c(O)c4)oc4cc(O)cc(O)c4c3=O)[C@@H](O)[C@H](O)[C@H]2O)[C@H](O)[C@H](O)[C@@H]1O
REMARK SMILES IDX 7 1 36 2 34 3 32 4 9 5 8 6 6 7 5 8 4 9 1 10 2 11 42 12 3 13
REMARK SMILES IDX 40 14 38 15 43 16 41 18 39 20 37 22 35 24 10 26 11 27 12 28
REMARK SMILES IDX 30 29 21 30 29 31 31 32 22 33 27 34 23 35 26 36 24 37 13 38
REMARK SMILES IDX 20 39 14 40 18 41 15 42 16 43 19 44 17 46 28 48 25 50 33 52
REMARK H PARENT 43 17 41 19 39 21 37 23 35 25 19 45 17 47 28 49 25 51 33 53
REMARK Flexibility Score: inf
ROOT
ATOM      1  C   UNL     1     -38.880   7.776  82.128  1.00  0.00     0.180 C 
ATOM      2  C   UNL     1     -37.691   8.342  82.948  1.00  0.00     0.177 C 
ATOM      3  C   UNL     1     -36.884   7.196  83.584  1.00  0.00     0.180 C 
ATOM      4  C   UNL     1     -37.833   6.225  84.323  1.00  0.00     0.214 C 
ATOM      5  C   UNL     1     -39.013   5.813  83.417  1.00  0.00     0.339 C 
ATOM      6  O   UNL     1     -39.702   6.961  82.946  1.00  0.00    -0.332 OA
ENDROOT
BRANCH   1   7
ATOM      7  C   UNL     1     -39.749   8.908  81.558  1.00  0.00     0.198 C 
BRANCH   7   8
ATOM      8  O   UNL     1     -39.510   9.053  80.167  1.00  0.00    -0.347 OA
BRANCH   8   9
ATOM      9  C   UNL     1     -39.146   7.818  79.573  1.00  0.00     0.281 C 
ATOM     10  C   UNL     1     -41.733   8.997  78.294  1.00  0.00     0.041 C 
ATOM     11  C   UNL     1     -40.855   7.794  77.907  1.00  0.00     0.150 C 
ATOM     12  C   UNL     1     -39.828   8.078  76.780  1.00  0.00     0.174 C 
ATOM     13  O   UNL     1     -40.281   7.147  79.036  1.00  0.00    -0.344 OA
ATOM     14  C   UNL     1     -38.569   8.789  77.305  1.00  0.00     0.179 C 
ATOM     15  C   UNL     1     -38.038   8.028  78.521  1.00  0.00     0.202 C 
BRANCH  12  16
ATOM     16  O   UNL     1     -40.428   8.820  75.749  1.00  0.00    -0.388 OA
ATOM     17  H   UNL     1     -41.320   9.106  76.079  1.00  0.00     0.211 HD
ENDBRANCH  12  16
BRANCH  14  18
ATOM     18  O   UNL     1     -38.838  10.125  77.646  1.00  0.00    -0.387 OA
ATOM     19  H   UNL     1     -38.408  10.694  76.957  1.00  0.00     0.211 HD
ENDBRANCH  14  18
BRANCH  15  20
ATOM     20  O   UNL     1     -36.957   8.728  79.080  1.00  0.00    -0.385 OA
ATOM     21  H   UNL     1     -36.141   8.236  78.818  1.00  0.00     0.211 HD
ENDBRANCH  15  20
ENDBRANCH   8   9
ENDBRANCH   7   8
ENDBRANCH   1   7
BRANCH   2  22
ATOM     22  O   UNL     1     -36.853   9.148  82.162  1.00  0.00    -0.387 OA
ATOM     23  H   UNL     1     -37.034   8.936  81.208  1.00  0.00     0.211 HD
ENDBRANCH   2  22
BRANCH   3  24
ATOM     24  O   UNL     1     -35.950   7.729  84.486  1.00  0.00    -0.387 OA
ATOM     25  H   UNL     1     -36.348   8.564  84.848  1.00  0.00     0.211 HD
ENDBRANCH   3  24
BRANCH   5  26
ATOM     26  O   UNL     1     -38.560   5.014  82.311  1.00  0.00    -0.454 OA
BRANCH  26  27
ATOM     27  C   UNL     1     -39.282   4.402  81.260  1.00  0.00     0.214 A 
ATOM     28  C   UNL     1     -38.592   4.188  80.050  1.00  0.00     0.180 A 
ATOM     29  C   UNL     1     -40.652   4.034  81.315  1.00  0.00     0.239 A 
ATOM     30  O   UNL     1     -39.230   3.743  78.975  1.00  0.00    -0.452 OA
ATOM     31  C   UNL     1     -41.292   3.562  80.147  1.00  0.00     0.111 A 
ATOM     32  O   UNL     1     -41.306   4.119  82.388  1.00  0.00    -0.285 OA
ATOM     33  C   UNL     1     -40.520   3.441  78.970  1.00  0.00     0.146 A 
ATOM     34  C   UNL     1     -42.668   3.224  80.102  1.00  0.00     0.134 A 
ATOM     35  C   UNL     1     -41.109   2.992  77.784  1.00  0.00     0.094 A 
ATOM     36  C   UNL     1     -43.240   2.777  78.903  1.00  0.00     0.093 A 
ATOM     37  C   UNL     1     -42.467   2.660  77.749  1.00  0.00     0.123 A 
BRANCH  28  38
ATOM     38  C   UNL     1     -37.144   4.438  79.943  1.00  0.00     0.025 A 
ATOM     39  C   UNL     1     -36.301   4.160  81.026  1.00  0.00     0.062 A 
ATOM     40  C   UNL     1     -36.605   5.004  78.779  1.00  0.00     0.016 A 
ATOM     41  C   UNL     1     -34.928   4.425  80.941  1.00  0.00     0.158 A 
ATOM     42  C   UNL     1     -35.238   5.262  78.686  1.00  0.00     0.051 A 
ATOM     43  C   UNL     1     -34.393   4.978  79.762  1.00  0.00     0.157 A 
BRANCH  41  44
ATOM     44  O   UNL     1     -34.090   4.131  82.014  1.00  0.00    -0.504 OA
ATOM     45  H   UNL     1     -34.441   3.692  82.855  1.00  0.00     0.293 HD
ENDBRANCH  41  44
BRANCH  43  46
ATOM     46  O   UNL     1     -33.031   5.246  79.641  1.00  0.00    -0.504 OA
ATOM     47  H   UNL     1     -32.505   5.716  80.372  1.00  0.00     0.293 HD
ENDBRANCH  43  46
ENDBRANCH  28  38
BRANCH  34  48
ATOM     48  O   UNL     1     -43.473   3.339  81.235  1.00  0.00    -0.507 OA
ATOM     49  H   UNL     1     -43.567   4.216  81.732  1.00  0.00     0.293 HD
ENDBRANCH  34  48
BRANCH  37  50
ATOM     50  O   UNL     1     -43.059   2.212  76.572  1.00  0.00    -0.508 OA
ATOM     51  H   UNL     1     -42.606   2.337  75.672  1.00  0.00     0.293 HD
ENDBRANCH  37  50
ENDBRANCH  26  27
ENDBRANCH   5  26
BRANCH   4  52
ATOM     52  O   UNL     1     -37.147   5.096  84.809  1.00  0.00    -0.384 OA
ATOM     53  H   UNL     1     -37.817   4.416  85.075  1.00  0.00     0.211 HD
ENDBRANCH   4  52
TORSDOF 16
ENDMDL
MODEL 2
REMARK VINA RESULT:    -7.198      2.436      4.576
REMARK INTER + INTRA:         -14.254
REMARK INTER:                 -11.894
REMARK INTRA:                  -2.360
REMARK UNBOUND:                -2.428
REMARK SMILES C[C@@H]1O[C@H](OC[C@@H]2O[C@@H](Oc3c(-c4ccc(O)c(O)c4)oc4cc(O)cc(O)c4c3=O)[C@@H](O)[C@H](O)[C@H]2O)[C@H](O)[C@H](O)[C@@H]1O
REMARK SMILES IDX 7 1 36 2 34 3 32 4 9 5 8 6 6 7 5 8 4 9 1 10 2 11 42 12 3 13
REMARK SMILES IDX 40 14 38 15 43 16 41 18 39 20 37 22 35 24 10 26 11 27 12 28
REMARK SMILES IDX 30 29 21 30 29 31 31 32 22 33 27 34 23 35 26 36 24 37 13 38
REMARK SMILES IDX 20 39 14 40 18 41 15 42 16 43 19 44 17 46 28 48 25 50 33 52
REMARK H PARENT 43 17 41 19 39 21 37 23 35 25 19 45 17 47 28 49 25 51 33 53
REMARK Flexibility Score: inf
ROOT
ATOM      1  C   UNL     1     -36.239   6.638  83.266  1.00  0.00     0.180 C 
ATOM      2  C   UNL     1     -35.502   5.376  83.785  1.00  0.00     0.177 C 
ATOM      3  C   UNL     1     -36.241   4.101  83.342  1.00  0.00     0.180 C 
ATOM      4  C   UNL     1     -37.744   4.213  83.685  1.00  0.00     0.214 C 
ATOM      5  C   UNL     1     -38.324   5.553  83.183  1.00  0.00     0.339 C 
ATOM      6  O   UNL     1     -37.584   6.643  83.711  1.00  0.00    -0.332 OA
ENDROOT
BRANCH   1   7
ATOM      7  C   UNL     1     -35.565   7.923  83.771  1.00  0.00     0.198 C 
BRANCH   7   8
ATOM      8  O   UNL     1     -34.333   8.126  83.098  1.00  0.00    -0.347 OA
BRANCH   8   9
ATOM      9  C   UNL     1     -34.176   9.479  82.705  1.00  0.00     0.281 C 
ATOM     10  C   UNL     1     -31.510   8.269  83.776  1.00  0.00     0.041 C 
ATOM     11  C   UNL     1     -31.824   9.610  83.091  1.00  0.00     0.150 C 
ATOM     12  C   UNL     1     -31.527   9.645  81.569  1.00  0.00     0.174 C 
ATOM     13  O   UNL     1     -33.117  10.105  83.419  1.00  0.00    -0.344 OA
ATOM     14  C   UNL     1     -32.649   8.996  80.741  1.00  0.00     0.179 C 
ATOM     15  C   UNL     1     -33.993   9.582  81.177  1.00  0.00     0.202 C 
BRANCH  12  16
ATOM     16  O   UNL     1     -30.289   9.037  81.300  1.00  0.00    -0.388 OA
ATOM     17  H   UNL     1     -29.821   8.936  82.170  1.00  0.00     0.211 HD
ENDBRANCH  12  16
BRANCH  14  18
ATOM     18  O   UNL     1     -32.655   7.599  80.893  1.00  0.00    -0.387 OA
ATOM     19  H   UNL     1     -33.048   7.217  80.066  1.00  0.00     0.211 HD
ENDBRANCH  14  18
BRANCH  15  20
ATOM     20  O   UNL     1     -35.035   8.916  80.512  1.00  0.00    -0.385 OA
ATOM     21  H   UNL     1     -34.842   7.950  80.590  1.00  0.00     0.211 HD
ENDBRANCH  15  20
ENDBRANCH   8   9
ENDBRANCH   7   8
ENDBRANCH   1   7
BRANCH   2  22
ATOM     22  O   UNL     1     -34.167   5.338  83.353  1.00  0.00    -0.387 OA
ATOM     23  H   UNL     1     -33.835   4.408  83.470  1.00  0.00     0.211 HD
ENDBRANCH   2  22
BRANCH   3  24
ATOM     24  O   UNL     1     -35.684   2.990  83.994  1.00  0.00    -0.387 OA
ATOM     25  H   UNL     1     -34.849   2.763  83.507  1.00  0.00     0.211 HD
ENDBRANCH   3  24
BRANCH   5  26
ATOM     26  O   UNL     1     -38.335   5.605  81.746  1.00  0.00    -0.454 OA
BRANCH  26  27
ATOM     27  C   UNL     1     -39.092   4.871  80.804  1.00  0.00     0.214 A 
ATOM     28  C   UNL     1     -38.522   4.690  79.528  1.00  0.00     0.180 A 
ATOM     29  C   UNL     1     -40.392   4.348  81.028  1.00  0.00     0.239 A 
ATOM     30  O   UNL     1     -39.218   4.131  78.547  1.00  0.00    -0.452 OA
ATOM     31  C   UNL     1     -41.098   3.758  79.956  1.00  0.00     0.111 A 
ATOM     32  O   UNL     1     -40.927   4.400  82.167  1.00  0.00    -0.285 OA
ATOM     33  C   UNL     1     -40.456   3.680  78.700  1.00  0.00     0.146 A 
ATOM     34  C   UNL     1     -42.419   3.260  80.081  1.00  0.00     0.134 A 
ATOM     35  C   UNL     1     -41.115   3.118  77.604  1.00  0.00     0.094 A 
ATOM     36  C   UNL     1     -43.065   2.701  78.969  1.00  0.00     0.093 A 
ATOM     37  C   UNL     1     -42.419   2.629  77.737  1.00  0.00     0.123 A 
BRANCH  28  38
ATOM     38  C   UNL     1     -37.136   5.103  79.245  1.00  0.00     0.025 A 
ATOM     39  C   UNL     1     -36.083   4.607  80.024  1.00  0.00     0.062 A 
ATOM     40  C   UNL     1     -36.865   6.034  78.233  1.00  0.00     0.016 A 
ATOM     41  C   UNL     1     -34.766   5.020  79.780  1.00  0.00     0.158 A 
ATOM     42  C   UNL     1     -35.555   6.442  77.981  1.00  0.00     0.051 A 
ATOM     43  C   UNL     1     -34.501   5.942  78.751  1.00  0.00     0.157 A 
BRANCH  41  44
ATOM     44  O   UNL     1     -33.720   4.510  80.545  1.00  0.00    -0.504 OA
ATOM     45  H   UNL     1     -33.445   4.941  81.418  1.00  0.00     0.293 HD
ENDBRANCH  41  44
BRANCH  43  46
ATOM     46  O   UNL     1     -33.203   6.367  78.475  1.00  0.00    -0.504 OA
ATOM     47  H   UNL     1     -32.931   7.344  78.532  1.00  0.00     0.293 HD
ENDBRANCH  43  46
ENDBRANCH  28  38
BRANCH  34  48
ATOM     48  O   UNL     1     -43.100   3.326  81.297  1.00  0.00    -0.507 OA
ATOM     49  H   UNL     1     -43.519   2.506  81.715  1.00  0.00     0.293 HD
ENDBRANCH  34  48
BRANCH  37  50
ATOM     50  O   UNL     1     -43.081   2.068  76.650  1.00  0.00    -0.508 OA
ATOM     51  H   UNL     1     -43.292   1.075  76.613  1.00  0.00     0.293 HD
ENDBRANCH  37  50
ENDBRANCH  26  27
ENDBRANCH   5  26
BRANCH   4  52
ATOM     52  O   UNL     1     -38.476   3.122  83.181  1.00  0.00    -0.384 OA
ATOM     53  H   UNL     1     -39.427   3.389  83.113  1.00  0.00     0.211 HD
ENDBRANCH   4  52
TORSDOF 16
ENDMDL
MODEL 3
REMARK VINA RESULT:    -6.761      2.228      6.558
REMARK INTER + INTRA:         -13.536
REMARK INTER:                 -11.224
REMARK INTRA:                  -2.312
REMARK UNBOUND:                -2.428
REMARK SMILES C[C@@H]1O[C@H](OC[C@@H]2O[C@@H](Oc3c(-c4ccc(O)c(O)c4)oc4cc(O)cc(O)c4c3=O)[C@@H](O)[C@H](O)[C@H]2O)[C@H](O)[C@H](O)[C@@H]1O
REMARK SMILES IDX 7 1 36 2 34 3 32 4 9 5 8 6 6 7 5 8 4 9 1 10 2 11 42 12 3 13
REMARK SMILES IDX 40 14 38 15 43 16 41 18 39 20 37 22 35 24 10 26 11 27 12 28
REMARK SMILES IDX 30 29 21 30 29 31 31 32 22 33 27 34 23 35 26 36 24 37 13 38
REMARK SMILES IDX 20 39 14 40 18 41 15 42 16 43 19 44 17 46 28 48 25 50 33 52
REMARK H PARENT 43 17 41 19 39 21 37 23 35 25 19 45 17 47 28 49 25 51 33 53
REMARK Flexibility Score: inf
ROOT
ATOM      1  C   UNL     1     -39.585   5.682  79.701  1.00  0.00     0.180 C 
ATOM      2  C   UNL     1     -40.740   4.650  79.623  1.00  0.00     0.177 C 
ATOM      3  C   UNL     1     -40.181   3.216  79.652  1.00  0.00     0.180 C 
ATOM      4  C   UNL     1     -39.050   3.066  78.610  1.00  0.00     0.214 C 
ATOM      5  C   UNL     1     -38.019   4.207  78.749  1.00  0.00     0.339 C 
ATOM      6  O   UNL     1     -38.659   5.470  78.648  1.00  0.00    -0.332 OA
ENDROOT
BRANCH   1   7
ATOM      7  C   UNL     1     -40.116   7.120  79.585  1.00  0.00     0.198 C 
BRANCH   7   8
ATOM      8  O   UNL     1     -39.767   7.669  78.324  1.00  0.00    -0.347 OA
BRANCH   8   9
ATOM      9  C   UNL     1     -39.951   9.075  78.304  1.00  0.00     0.281 C 
ATOM     10  C   UNL     1     -36.941   8.306  78.564  1.00  0.00     0.041 C 
ATOM     11  C   UNL     1     -37.636   9.659  78.338  1.00  0.00     0.150 C 
ATOM     12  C   UNL     1     -37.682  10.124  76.859  1.00  0.00     0.174 C 
ATOM     13  O   UNL     1     -38.899   9.744  78.989  1.00  0.00    -0.344 OA
ATOM     14  C   UNL     1     -38.815   9.445  76.069  1.00  0.00     0.179 C 
ATOM     15  C   UNL     1     -40.120   9.578  76.856  1.00  0.00     0.202 C 
BRANCH  12  16
ATOM     16  O   UNL     1     -36.440   9.906  76.241  1.00  0.00    -0.388 OA
ATOM     17  H   UNL     1     -36.128   9.008  76.527  1.00  0.00     0.211 HD
ENDBRANCH  12  16
BRANCH  14  18
ATOM     18  O   UNL     1     -38.529   8.091  75.825  1.00  0.00    -0.387 OA
ATOM     19  H   UNL     1     -39.294   7.719  75.315  1.00  0.00     0.211 HD
ENDBRANCH  14  18
BRANCH  15  20
ATOM     20  O   UNL     1     -41.137   8.864  76.203  1.00  0.00    -0.385 OA
ATOM     21  H   UNL     1     -41.950   9.424  76.260  1.00  0.00     0.211 HD
ENDBRANCH  15  20
ENDBRANCH   8   9
ENDBRANCH   7   8
ENDBRANCH   1   7
BRANCH   2  22
ATOM     22  O   UNL     1     -41.670   4.830  80.659  1.00  0.00    -0.387 OA
ATOM     23  H   UNL     1     -41.856   5.804  80.735  1.00  0.00     0.211 HD
ENDBRANCH   2  22
BRANCH   3  24
ATOM     24  O   UNL     1     -41.214   2.309  79.369  1.00  0.00    -0.387 OA
ATOM     25  H   UNL     1     -40.784   1.495  78.996  1.00  0.00     0.211 HD
ENDBRANCH   3  24
BRANCH   5  26
ATOM     26  O   UNL     1     -37.303   4.108  79.993  1.00  0.00    -0.454 OA
BRANCH  26  27
ATOM     27  C   UNL     1     -36.300   4.936  80.546  1.00  0.00     0.214 A 
ATOM     28  C   UNL     1     -36.436   5.284  81.905  1.00  0.00     0.180 A 
ATOM     29  C   UNL     1     -35.200   5.477  79.831  1.00  0.00     0.239 A 
ATOM     30  O   UNL     1     -35.614   6.161  82.466  1.00  0.00    -0.452 OA
ATOM     31  C   UNL     1     -34.347   6.407  80.468  1.00  0.00     0.111 A 
ATOM     32  O   UNL     1     -34.970   5.142  78.639  1.00  0.00    -0.285 OA
ATOM     33  C   UNL     1     -34.609   6.733  81.817  1.00  0.00     0.146 A 
ATOM     34  C   UNL     1     -33.260   7.035  79.810  1.00  0.00     0.134 A 
ATOM     35  C   UNL     1     -33.803   7.656  82.489  1.00  0.00     0.094 A 
ATOM     36  C   UNL     1     -32.464   7.960  80.500  1.00  0.00     0.093 A 
ATOM     37  C   UNL     1     -32.732   8.270  81.832  1.00  0.00     0.123 A 
BRANCH  28  38
ATOM     38  C   UNL     1     -37.483   4.679  82.747  1.00  0.00     0.025 A 
ATOM     39  C   UNL     1     -37.348   3.359  83.195  1.00  0.00     0.062 A 
ATOM     40  C   UNL     1     -38.644   5.398  83.063  1.00  0.00     0.016 A 
ATOM     41  C   UNL     1     -38.355   2.768  83.970  1.00  0.00     0.158 A 
ATOM     42  C   UNL     1     -39.645   4.817  83.841  1.00  0.00     0.051 A 
ATOM     43  C   UNL     1     -39.510   3.503  84.296  1.00  0.00     0.157 A 
BRANCH  41  44
ATOM     44  O   UNL     1     -38.209   1.460  84.428  1.00  0.00    -0.504 OA
ATOM     45  H   UNL     1     -38.295   0.669  83.804  1.00  0.00     0.293 HD
ENDBRANCH  41  44
BRANCH  43  46
ATOM     46  O   UNL     1     -40.526   2.949  85.072  1.00  0.00    -0.504 OA
ATOM     47  H   UNL     1     -40.844   1.992  84.944  1.00  0.00     0.293 HD
ENDBRANCH  43  46
ENDBRANCH  28  38
BRANCH  34  48
ATOM     48  O   UNL     1     -32.970   6.755  78.474  1.00  0.00    -0.507 OA
ATOM     49  H   UNL     1     -33.659   6.883  77.745  1.00  0.00     0.293 HD
ENDBRANCH  34  48
BRANCH  37  50
ATOM     50  O   UNL     1     -31.926   9.191  82.495  1.00  0.00    -0.508 OA
ATOM     51  H   UNL     1     -32.135  10.185  82.478  1.00  0.00     0.293 HD
ENDBRANCH  37  50
ENDBRANCH  26  27
ENDBRANCH   5  26
BRANCH   4  52
ATOM     52  O   UNL     1     -38.427   1.807  78.695  1.00  0.00    -0.384 OA
ATOM     53  H   UNL     1     -39.103   1.145  78.988  1.00  0.00     0.211 HD
ENDBRANCH   4  52
TORSDOF 16
ENDMDL
MODEL 4
REMARK VINA RESULT:    -6.199      2.360      4.682
REMARK INTER + INTRA:         -12.612
REMARK INTER:                 -10.611
REMARK INTRA:                  -2.001
REMARK UNBOUND:                -2.428
REMARK SMILES C[C@@H]1O[C@H](OC[C@@H]2O[C@@H](Oc3c(-c4ccc(O)c(O)c4)oc4cc(O)cc(O)c4c3=O)[C@@H](O)[C@H](O)[C@H]2O)[C@H](O)[C@H](O)[C@@H]1O
REMARK SMILES IDX 7 1 36 2 34 3 32 4 9 5 8 6 6 7 5 8 4 9 1 10 2 11 42 12 3 13
REMARK SMILES IDX 40 14 38 15 43 16 41 18 39 20 37 22 35 24 10 26 11 27 12 28
REMARK SMILES IDX 30 29 21 30 29 31 31 32 22 33 27 34 23 35 26 36 24 37 13 38
REMARK SMILES IDX 20 39 14 40 18 41 15 42 16 43 19 44 17 46 28 48 25 50 33 52
REMARK H PARENT 43 17 41 19 39 21 37 23 35 25 19 45 17 47 28 49 25 51 33 53
REMARK Flexibility Score: inf
ROOT
ATOM      1  C   UNL     1     -37.099   7.679  83.206  1.00  0.00     0.180 C 
ATOM      2  C   UNL     1     -38.040   8.843  83.614  1.00  0.00     0.177 C 
ATOM      3  C   UNL     1     -39.355   8.774  82.819  1.00  0.00     0.180 C 
ATOM      4  C   UNL     1     -39.057   8.624  81.310  1.00  0.00     0.214 C 
ATOM      5  C   UNL     1     -38.044   7.486  81.061  1.00  0.00     0.339 C 
ATOM      6  O   UNL     1     -36.858   7.704  81.810  1.00  0.00    -0.332 OA
ENDROOT
BRANCH   1   7
ATOM      7  C   UNL     1     -35.745   7.781  83.925  1.00  0.00     0.198 C 
BRANCH   7   8
ATOM      8  O   UNL     1     -34.705   7.980  82.980  1.00  0.00    -0.347 OA
BRANCH   8   9
ATOM      9  C   UNL     1     -34.366   9.352  82.866  1.00  0.00     0.281 C 
ATOM     10  C   UNL     1     -31.989   7.662  83.968  1.00  0.00     0.041 C 
ATOM     11  C   UNL     1     -32.080   9.129  83.517  1.00  0.00     0.150 C 
ATOM     12  C   UNL     1     -31.592   9.393  82.069  1.00  0.00     0.174 C 
ATOM     13  O   UNL     1     -33.348   9.712  83.793  1.00  0.00    -0.344 OA
ATOM     14  C   UNL     1     -32.660   9.037  81.020  1.00  0.00     0.179 C 
ATOM     15  C   UNL     1     -33.983   9.697  81.413  1.00  0.00     0.202 C 
BRANCH  12  16
ATOM     16  O   UNL     1     -30.397   8.696  81.823  1.00  0.00    -0.388 OA
ATOM     17  H   UNL     1     -30.191   8.176  82.643  1.00  0.00     0.211 HD
ENDBRANCH  12  16
BRANCH  14  18
ATOM     18  O   UNL     1     -32.823   7.647  80.906  1.00  0.00    -0.387 OA
ATOM     19  H   UNL     1     -32.337   7.232  81.664  1.00  0.00     0.211 HD
ENDBRANCH  14  18
BRANCH  15  20
ATOM     20  O   UNL     1     -34.993   9.287  80.529  1.00  0.00    -0.385 OA
ATOM     21  H   UNL     1     -35.751   9.907  80.666  1.00  0.00     0.211 HD
ENDBRANCH  15  20
ENDBRANCH   8   9
ENDBRANCH   7   8
ENDBRANCH   1   7
BRANCH   2  22
ATOM     22  O   UNL     1     -38.304   8.840  84.992  1.00  0.00    -0.387 OA
ATOM     23  H   UNL     1     -39.022   9.505  85.166  1.00  0.00     0.211 HD
ENDBRANCH   2  22
BRANCH   3  24
ATOM     24  O   UNL     1     -40.097   9.944  83.045  1.00  0.00    -0.387 OA
ATOM     25  H   UNL     1     -40.110  10.088  84.027  1.00  0.00     0.211 HD
ENDBRANCH   3  24
BRANCH   5  26
ATOM     26  O   UNL     1     -38.614   6.206  81.388  1.00  0.00    -0.454 OA
BRANCH  26  27
ATOM     27  C   UNL     1     -39.279   5.260  80.575  1.00  0.00     0.214 A 
ATOM     28  C   UNL     1     -38.688   4.957  79.332  1.00  0.00     0.180 A 
ATOM     29  C   UNL     1     -40.512   4.632  80.893  1.00  0.00     0.239 A 
ATOM     30  O   UNL     1     -39.313   4.182  78.455  1.00  0.00    -0.452 OA
ATOM     31  C   UNL     1     -41.142   3.812  79.930  1.00  0.00     0.111 A 
ATOM     32  O   UNL     1     -41.052   4.791  82.019  1.00  0.00    -0.285 OA
ATOM     33  C   UNL     1     -40.491   3.622  78.690  1.00  0.00     0.146 A 
ATOM     34  C   UNL     1     -42.398   3.192  80.146  1.00  0.00     0.134 A 
ATOM     35  C   UNL     1     -41.079   2.832  77.699  1.00  0.00     0.094 A 
ATOM     36  C   UNL     1     -42.973   2.404  79.138  1.00  0.00     0.093 A 
ATOM     37  C   UNL     1     -42.318   2.223  77.921  1.00  0.00     0.123 A 
BRANCH  28  38
ATOM     38  C   UNL     1     -37.357   5.478  78.972  1.00  0.00     0.025 A 
ATOM     39  C   UNL     1     -36.206   4.903  79.524  1.00  0.00     0.062 A 
ATOM     40  C   UNL     1     -37.235   6.583  78.119  1.00  0.00     0.016 A 
ATOM     41  C   UNL     1     -34.940   5.414  79.210  1.00  0.00     0.158 A 
ATOM     42  C   UNL     1     -35.976   7.090  77.797  1.00  0.00     0.051 A 
ATOM     43  C   UNL     1     -34.825   6.513  78.339  1.00  0.00     0.157 A 
BRANCH  41  44
ATOM     44  O   UNL     1     -33.795   4.828  79.748  1.00  0.00    -0.504 OA
ATOM     45  H   UNL     1     -32.910   5.316  79.763  1.00  0.00     0.293 HD
ENDBRANCH  41  44
BRANCH  43  46
ATOM     46  O   UNL     1     -33.580   7.041  77.999  1.00  0.00    -0.504 OA
ATOM     47  H   UNL     1     -32.801   6.451  77.721  1.00  0.00     0.293 HD
ENDBRANCH  43  46
ENDBRANCH  28  38
BRANCH  34  48
ATOM     48  O   UNL     1     -43.086   3.361  81.348  1.00  0.00    -0.507 OA
ATOM     49  H   UNL     1     -43.248   4.278  81.741  1.00  0.00     0.293 HD
ENDBRANCH  34  48
BRANCH  37  50
ATOM     50  O   UNL     1     -42.909   1.435  76.938  1.00  0.00    -0.508 OA
ATOM     51  H   UNL     1     -43.872   1.123  77.018  1.00  0.00     0.293 HD
ENDBRANCH  37  50
ENDBRANCH  26  27
ENDBRANCH   5  26
BRANCH   4  52
ATOM     52  O   UNL     1     -40.234   8.429  80.564  1.00  0.00    -0.384 OA
ATOM     53  H   UNL     1     -41.010   8.610  81.153  1.00  0.00     0.211 HD
ENDBRANCH   4  52
TORSDOF 16
ENDMDL
MODEL 5
REMARK VINA RESULT:    -6.145      1.847      6.449
REMARK INTER + INTRA:         -12.525
REMARK INTER:                 -10.034
REMARK INTRA:                  -2.490
REMARK UNBOUND:                -2.428
REMARK SMILES C[C@@H]1O[C@H](OC[C@@H]2O[C@@H](Oc3c(-c4ccc(O)c(O)c4)oc4cc(O)cc(O)c4c3=O)[C@@H](O)[C@H](O)[C@H]2O)[C@H](O)[C@H](O)[C@@H]1O
REMARK SMILES IDX 7 1 36 2 34 3 32 4 9 5 8 6 6 7 5 8 4 9 1 10 2 11 42 12 3 13
REMARK SMILES IDX 40 14 38 15 43 16 41 18 39 20 37 22 35 24 10 26 11 27 12 28
REMARK SMILES IDX 30 29 21 30 29 31 31 32 22 33 27 34 23 35 26 36 24 37 13 38
REMARK SMILES IDX 20 39 14 40 18 41 15 42 16 43 19 44 17 46 28 48 25 50 33 52
REMARK H PARENT 43 17 41 19 39 21 37 23 35 25 19 45 17 47 28 49 25 51 33 53
REMARK Flexibility Score: inf
ROOT
ATOM      1  C   UNL     1     -37.928   4.288  83.193  1.00  0.00     0.180 C 
ATOM      2  C   UNL     1     -38.604   3.012  83.761  1.00  0.00     0.177 C 
ATOM      3  C   UNL     1     -39.891   2.693  82.980  1.00  0.00     0.180 C 
ATOM      4  C   UNL     1     -40.776   3.955  82.877  1.00  0.00     0.214 C 
ATOM      5  C   UNL     1     -39.954   5.164  82.380  1.00  0.00     0.339 C 
ATOM      6  O   UNL     1     -38.831   5.380  83.221  1.00  0.00    -0.332 OA
ENDROOT
BRANCH   1   7
ATOM      7  C   UNL     1     -36.689   4.673  84.015  1.00  0.00     0.198 C 
BRANCH   7   8
ATOM      8  O   UNL     1     -35.980   5.719  83.369  1.00  0.00    -0.347 OA
BRANCH   8   9
ATOM      9  C   UNL     1     -34.585   5.463  83.349  1.00  0.00     0.281 C 
ATOM     10  C   UNL     1     -35.924   4.782  80.617  1.00  0.00     0.041 C 
ATOM     11  C   UNL     1     -34.448   4.837  81.050  1.00  0.00     0.150 C 
ATOM     12  C   UNL     1     -33.715   6.154  80.685  1.00  0.00     0.174 C 
ATOM     13  O   UNL     1     -34.259   4.449  82.406  1.00  0.00    -0.344 OA
ATOM     14  C   UNL     1     -34.018   7.285  81.683  1.00  0.00     0.179 C 
ATOM     15  C   UNL     1     -33.799   6.766  83.105  1.00  0.00     0.202 C 
BRANCH  12  16
ATOM     16  O   UNL     1     -34.037   6.544  79.374  1.00  0.00    -0.388 OA
ATOM     17  H   UNL     1     -34.730   5.914  79.047  1.00  0.00     0.211 HD
ENDBRANCH  12  16
BRANCH  14  18
ATOM     18  O   UNL     1     -35.331   7.762  81.536  1.00  0.00    -0.387 OA
ATOM     19  H   UNL     1     -35.652   8.017  82.439  1.00  0.00     0.211 HD
ENDBRANCH  14  18
BRANCH  15  20
ATOM     20  O   UNL     1     -34.181   7.751  84.030  1.00  0.00    -0.385 OA
ATOM     21  H   UNL     1     -33.451   8.418  84.044  1.00  0.00     0.211 HD
ENDBRANCH  15  20
ENDBRANCH   8   9
ENDBRANCH   7   8
ENDBRANCH   1   7
BRANCH   2  22
ATOM     22  O   UNL     1     -37.736   1.910  83.739  1.00  0.00    -0.387 OA
ATOM     23  H   UNL     1     -38.282   1.089  83.870  1.00  0.00     0.211 HD
ENDBRANCH   2  22
BRANCH   3  24
ATOM     24  O   UNL     1     -40.592   1.670  83.638  1.00  0.00    -0.387 OA
ATOM     25  H   UNL     1     -40.545   1.871  84.609  1.00  0.00     0.211 HD
ENDBRANCH   3  24
BRANCH   5  26
ATOM     26  O   UNL     1     -39.531   4.977  81.019  1.00  0.00    -0.454 OA
BRANCH  26  27
ATOM     27  C   UNL     1     -39.345   5.912  79.975  1.00  0.00     0.214 A 
ATOM     28  C   UNL     1     -39.809   5.545  78.697  1.00  0.00     0.180 A 
ATOM     29  C   UNL     1     -38.688   7.164  80.107  1.00  0.00     0.239 A 
ATOM     30  O   UNL     1     -39.557   6.306  77.639  1.00  0.00    -0.452 OA
ATOM     31  C   UNL     1     -38.441   7.944  78.954  1.00  0.00     0.111 A 
ATOM     32  O   UNL     1     -38.323   7.593  81.234  1.00  0.00    -0.285 OA
ATOM     33  C   UNL     1     -38.898   7.453  77.711  1.00  0.00     0.146 A 
ATOM     34  C   UNL     1     -37.745   9.178  78.991  1.00  0.00     0.134 A 
ATOM     35  C   UNL     1     -38.667   8.180  76.539  1.00  0.00     0.094 A 
ATOM     36  C   UNL     1     -37.523   9.891  77.804  1.00  0.00     0.093 A 
ATOM     37  C   UNL     1     -37.981   9.397  76.584  1.00  0.00     0.123 A 
BRANCH  28  38
ATOM     38  C   UNL     1     -40.598   4.317  78.494  1.00  0.00     0.025 A 
ATOM     39  C   UNL     1     -41.980   4.325  78.720  1.00  0.00     0.062 A 
ATOM     40  C   UNL     1     -39.966   3.120  78.128  1.00  0.00     0.016 A 
ATOM     41  C   UNL     1     -42.730   3.152  78.560  1.00  0.00     0.158 A 
ATOM     42  C   UNL     1     -40.710   1.952  77.959  1.00  0.00     0.051 A 
ATOM     43  C   UNL     1     -42.090   1.959  78.175  1.00  0.00     0.157 A 
BRANCH  41  44
ATOM     44  O   UNL     1     -44.107   3.168  78.769  1.00  0.00    -0.504 OA
ATOM     45  H   UNL     1     -44.504   3.015  79.686  1.00  0.00     0.293 HD
ENDBRANCH  41  44
BRANCH  43  46
ATOM     46  O   UNL     1     -42.808   0.777  77.998  1.00  0.00    -0.504 OA
ATOM     47  H   UNL     1     -42.602  -0.064  78.529  1.00  0.00     0.293 HD
ENDBRANCH  43  46
ENDBRANCH  28  38
BRANCH  34  48
ATOM     48  O   UNL     1     -37.264   9.697  80.193  1.00  0.00    -0.507 OA
ATOM     49  H   UNL     1     -37.868  10.193  80.835  1.00  0.00     0.293 HD
ENDBRANCH  34  48
BRANCH  37  50
ATOM     50  O   UNL     1     -37.748  10.125  75.421  1.00  0.00    -0.508 OA
ATOM     51  H   UNL     1     -36.977   9.898  74.800  1.00  0.00     0.293 HD
ENDBRANCH  37  50
ENDBRANCH  26  27
ENDBRANCH   5  26
BRANCH   4  52
ATOM     52  O   UNL     1     -41.902   3.737  82.061  1.00  0.00    -0.384 OA
ATOM     53  H   UNL     1     -42.188   2.795  82.171  1.00  0.00     0.211 HD
ENDBRANCH   4  52
TORSDOF 16
ENDMDL
MODEL 6
REMARK VINA RESULT:    -5.899     10.938     14.234
REMARK INTER + INTRA:         -12.119
REMARK INTER:                 -10.551
REMARK INTRA:                  -1.569
REMARK UNBOUND:                -2.428
REMARK SMILES C[C@@H]1O[C@H](OC[C@@H]2O[C@@H](Oc3c(-c4ccc(O)c(O)c4)oc4cc(O)cc(O)c4c3=O)[C@@H](O)[C@H](O)[C@H]2O)[C@H](O)[C@H](O)[C@@H]1O
REMARK SMILES IDX 7 1 36 2 34 3 32 4 9 5 8 6 6 7 5 8 4 9 1 10 2 11 42 12 3 13
REMARK SMILES IDX 40 14 38 15 43 16 41 18 39 20 37 22 35 24 10 26 11 27 12 28
REMARK SMILES IDX 30 29 21 30 29 31 31 32 22 33 27 34 23 35 26 36 24 37 13 38
REMARK SMILES IDX 20 39 14 40 18 41 15 42 16 43 19 44 17 46 28 48 25 50 33 52
REMARK H PARENT 43 17 41 19 39 21 37 23 35 25 19 45 17 47 28 49 25 51 33 53
REMARK Flexibility Score: inf
ROOT
ATOM      1  C   UNL     1     -41.800  -6.811  81.302  1.00  0.00     0.180 C 
ATOM      2  C   UNL     1     -42.590  -6.558  82.612  1.00  0.00     0.177 C 
ATOM      3  C   UNL     1     -43.912  -5.831  82.309  1.00  0.00     0.180 C 
ATOM      4  C   UNL     1     -43.648  -4.600  81.414  1.00  0.00     0.214 C 
ATOM      5  C   UNL     1     -42.781  -4.982  80.195  1.00  0.00     0.339 C 
ATOM      6  O   UNL     1     -41.570  -5.590  80.618  1.00  0.00    -0.332 OA
ENDROOT
BRANCH   1   7
ATOM      7  C   UNL     1     -40.436  -7.457  81.591  1.00  0.00     0.198 C 
BRANCH   7   8
ATOM      8  O   UNL     1     -39.519  -6.477  82.049  1.00  0.00    -0.347 OA
BRANCH   8   9
ATOM      9  C   UNL     1     -39.633  -6.276  83.448  1.00  0.00     0.281 C 
ATOM     10  C   UNL     1     -36.830  -7.395  82.667  1.00  0.00     0.041 C 
ATOM     11  C   UNL     1     -37.386  -6.865  84.000  1.00  0.00     0.150 C 
ATOM     12  C   UNL     1     -37.024  -5.390  84.312  1.00  0.00     0.174 C 
ATOM     13  O   UNL     1     -38.771  -7.148  84.169  1.00  0.00    -0.344 OA
ATOM     14  C   UNL     1     -37.937  -4.397  83.572  1.00  0.00     0.179 C 
ATOM     15  C   UNL     1     -39.396  -4.794  83.804  1.00  0.00     0.202 C 
BRANCH  12  16
ATOM     16  O   UNL     1     -35.673  -5.146  84.014  1.00  0.00    -0.388 OA
ATOM     17  H   UNL     1     -35.189  -6.002  84.149  1.00  0.00     0.211 HD
ENDBRANCH  12  16
BRANCH  14  18
ATOM     18  O   UNL     1     -37.653  -4.367  82.196  1.00  0.00    -0.387 OA
ATOM     19  H   UNL     1     -36.822  -4.890  82.058  1.00  0.00     0.211 HD
ENDBRANCH  14  18
BRANCH  15  20
ATOM     20  O   UNL     1     -40.236  -3.966  83.041  1.00  0.00    -0.385 OA
ATOM     21  H   UNL     1     -41.086  -3.895  83.542  1.00  0.00     0.211 HD
ENDBRANCH  15  20
ENDBRANCH   8   9
ENDBRANCH   7   8
ENDBRANCH   1   7
BRANCH   2  22
ATOM     22  O   UNL     1     -42.840  -7.751  83.308  1.00  0.00    -0.387 OA
ATOM     23  H   UNL     1     -43.681  -8.142  82.950  1.00  0.00     0.211 HD
ENDBRANCH   2  22
BRANCH   3  24
ATOM     24  O   UNL     1     -44.507  -5.426  83.515  1.00  0.00    -0.387 OA
ATOM     25  H   UNL     1     -43.959  -4.676  83.865  1.00  0.00     0.211 HD
ENDBRANCH   3  24
BRANCH   5  26
ATOM     26  O   UNL     1     -43.496  -5.858  79.306  1.00  0.00    -0.454 OA
BRANCH  26  27
ATOM     27  C   UNL     1     -44.325  -5.568  78.198  1.00  0.00     0.214 A 
ATOM     28  C   UNL     1     -45.615  -6.135  78.199  1.00  0.00     0.180 A 
ATOM     29  C   UNL     1     -43.943  -4.794  77.071  1.00  0.00     0.239 A 
ATOM     30  O   UNL     1     -46.406  -6.023  77.140  1.00  0.00    -0.452 OA
ATOM     31  C   UNL     1     -44.817  -4.700  75.965  1.00  0.00     0.111 A 
ATOM     32  O   UNL     1     -42.838  -4.190  77.040  1.00  0.00    -0.285 OA
ATOM     33  C   UNL     1     -46.065  -5.357  76.046  1.00  0.00     0.146 A 
ATOM     34  C   UNL     1     -44.490  -3.993  74.780  1.00  0.00     0.134 A 
ATOM     35  C   UNL     1     -46.960  -5.305  74.974  1.00  0.00     0.094 A 
ATOM     36  C   UNL     1     -45.401  -3.955  73.715  1.00  0.00     0.093 A 
ATOM     37  C   UNL     1     -46.630  -4.605  73.809  1.00  0.00     0.123 A 
BRANCH  28  38
ATOM     38  C   UNL     1     -46.131  -6.857  79.376  1.00  0.00     0.025 A 
ATOM     39  C   UNL     1     -47.287  -6.405  80.026  1.00  0.00     0.062 A 
ATOM     40  C   UNL     1     -45.443  -7.966  79.886  1.00  0.00     0.016 A 
ATOM     41  C   UNL     1     -47.764  -7.069  81.163  1.00  0.00     0.158 A 
ATOM     42  C   UNL     1     -45.920  -8.635  81.014  1.00  0.00     0.051 A 
ATOM     43  C   UNL     1     -47.077  -8.192  81.658  1.00  0.00     0.157 A 
BRANCH  41  44
ATOM     44  O   UNL     1     -48.924  -6.626  81.796  1.00  0.00    -0.504 OA
ATOM     45  H   UNL     1     -49.104  -6.828  82.771  1.00  0.00     0.293 HD
ENDBRANCH  41  44
BRANCH  43  46
ATOM     46  O   UNL     1     -47.530  -8.881  82.783  1.00  0.00    -0.504 OA
ATOM     47  H   UNL     1     -47.491  -8.479  83.715  1.00  0.00     0.293 HD
ENDBRANCH  43  46
ENDBRANCH  28  38
BRANCH  34  48
ATOM     48  O   UNL     1     -43.266  -3.339  74.648  1.00  0.00    -0.507 OA
ATOM     49  H   UNL     1     -42.595  -3.312  75.405  1.00  0.00     0.293 HD
ENDBRANCH  34  48
BRANCH  37  50
ATOM     50  O   UNL     1     -47.517  -4.550  72.738  1.00  0.00    -0.508 OA
ATOM     51  H   UNL     1     -48.428  -4.996  72.782  1.00  0.00     0.293 HD
ENDBRANCH  37  50
ENDBRANCH  26  27
ENDBRANCH   5  26
BRANCH   4  52
ATOM     52  O   UNL     1     -44.847  -3.983  81.010  1.00  0.00    -0.384 OA
ATOM     53  H   UNL     1     -44.682  -3.010  80.922  1.00  0.00     0.211 HD
ENDBRANCH   4  52
TORSDOF 16
ENDMDL
MODEL 7
REMARK VINA RESULT:    -5.865      1.913      4.812
REMARK INTER + INTRA:         -12.064
REMARK INTER:                 -10.435
REMARK INTRA:                  -1.629
REMARK UNBOUND:                -2.428
REMARK SMILES C[C@@H]1O[C@H](OC[C@@H]2O[C@@H](Oc3c(-c4ccc(O)c(O)c4)oc4cc(O)cc(O)c4c3=O)[C@@H](O)[C@H](O)[C@H]2O)[C@H](O)[C@H](O)[C@@H]1O
REMARK SMILES IDX 7 1 36 2 34 3 32 4 9 5 8 6 6 7 5 8 4 9 1 10 2 11 42 12 3 13
REMARK SMILES IDX 40 14 38 15 43 16 41 18 39 20 37 22 35 24 10 26 11 27 12 28
REMARK SMILES IDX 30 29 21 30 29 31 31 32 22 33 27 34 23 35 26 36 24 37 13 38
REMARK SMILES IDX 20 39 14 40 18 41 15 42 16 43 19 44 17 46 28 48 25 50 33 52
REMARK H PARENT 43 17 41 19 39 21 37 23 35 25 19 45 17 47 28 49 25 51 33 53
REMARK Flexibility Score: inf
ROOT
ATOM      1  C   UNL     1     -36.867   8.167  82.563  1.00  0.00     0.180 C 
ATOM      2  C   UNL     1     -37.790   9.229  83.216  1.00  0.00     0.177 C 
ATOM      3  C   UNL     1     -39.248   9.017  82.774  1.00  0.00     0.180 C 
ATOM      4  C   UNL     1     -39.323   8.890  81.236  1.00  0.00     0.214 C 
ATOM      5  C   UNL     1     -38.294   7.863  80.718  1.00  0.00     0.339 C 
ATOM      6  O   UNL     1     -36.987   8.209  81.151  1.00  0.00    -0.332 OA
ENDROOT
BRANCH   1   7
ATOM      7  C   UNL     1     -35.393   8.415  82.922  1.00  0.00     0.198 C 
BRANCH   7   8
ATOM      8  O   UNL     1     -34.745   7.185  83.202  1.00  0.00    -0.347 OA
BRANCH   8   9
ATOM      9  C   UNL     1     -34.693   6.934  84.597  1.00  0.00     0.281 C 
ATOM     10  C   UNL     1     -36.867   5.198  83.191  1.00  0.00     0.041 C 
ATOM     11  C   UNL     1     -36.315   5.183  84.626  1.00  0.00     0.150 C 
ATOM     12  C   UNL     1     -35.225   4.112  84.889  1.00  0.00     0.174 C 
ATOM     13  O   UNL     1     -35.948   6.478  85.088  1.00  0.00    -0.344 OA
ATOM     14  C   UNL     1     -33.838   4.558  84.393  1.00  0.00     0.179 C 
ATOM     15  C   UNL     1     -33.545   5.960  84.930  1.00  0.00     0.202 C 
BRANCH  12  16
ATOM     16  O   UNL     1     -35.594   2.887  84.308  1.00  0.00    -0.388 OA
ATOM     17  H   UNL     1     -35.796   2.263  85.053  1.00  0.00     0.211 HD
ENDBRANCH  12  16
BRANCH  14  18
ATOM     18  O   UNL     1     -33.767   4.548  82.990  1.00  0.00    -0.387 OA
ATOM     19  H   UNL     1     -33.966   3.622  82.694  1.00  0.00     0.211 HD
ENDBRANCH  14  18
BRANCH  15  20
ATOM     20  O   UNL     1     -32.334   6.426  84.392  1.00  0.00    -0.385 OA
ATOM     21  H   UNL     1     -32.419   6.352  83.410  1.00  0.00     0.211 HD
ENDBRANCH  15  20
ENDBRANCH   8   9
ENDBRANCH   7   8
ENDBRANCH   1   7
BRANCH   2  22
ATOM     22  O   UNL     1     -37.698   9.207  84.616  1.00  0.00    -0.387 OA
ATOM     23  H   UNL     1     -36.738   9.293  84.861  1.00  0.00     0.211 HD
ENDBRANCH   2  22
BRANCH   3  24
ATOM     24  O   UNL     1     -40.026  10.104  83.202  1.00  0.00    -0.387 OA
ATOM     25  H   UNL     1     -40.970   9.881  82.989  1.00  0.00     0.211 HD
ENDBRANCH   3  24
BRANCH   5  26
ATOM     26  O   UNL     1     -38.628   6.533  81.150  1.00  0.00    -0.454 OA
BRANCH  26  27
ATOM     27  C   UNL     1     -39.245   5.467  80.456  1.00  0.00     0.214 A 
ATOM     28  C   UNL     1     -38.583   4.982  79.311  1.00  0.00     0.180 A 
ATOM     29  C   UNL     1     -40.494   4.884  80.796  1.00  0.00     0.239 A 
ATOM     30  O   UNL     1     -39.156   4.076  78.529  1.00  0.00    -0.452 OA
ATOM     31  C   UNL     1     -41.068   3.921  79.936  1.00  0.00     0.111 A 
ATOM     32  O   UNL     1     -41.099   5.210  81.851  1.00  0.00    -0.285 OA
ATOM     33  C   UNL     1     -40.346   3.548  78.780  1.00  0.00     0.146 A 
ATOM     34  C   UNL     1     -42.334   3.330  80.173  1.00  0.00     0.134 A 
ATOM     35  C   UNL     1     -40.875   2.609  77.890  1.00  0.00     0.094 A 
ATOM     36  C   UNL     1     -42.849   2.392  79.267  1.00  0.00     0.093 A 
ATOM     37  C   UNL     1     -42.125   2.031  78.132  1.00  0.00     0.123 A 
BRANCH  28  38
ATOM     38  C   UNL     1     -37.233   5.452  78.952  1.00  0.00     0.025 A 
ATOM     39  C   UNL     1     -36.111   4.938  79.613  1.00  0.00     0.062 A 
ATOM     40  C   UNL     1     -37.065   6.455  77.987  1.00  0.00     0.016 A 
ATOM     41  C   UNL     1     -34.828   5.404  79.298  1.00  0.00     0.158 A 
ATOM     42  C   UNL     1     -35.789   6.917  77.664  1.00  0.00     0.051 A 
ATOM     43  C   UNL     1     -34.667   6.398  78.316  1.00  0.00     0.157 A 
BRANCH  41  44
ATOM     44  O   UNL     1     -33.713   4.877  79.946  1.00  0.00    -0.504 OA
ATOM     45  H   UNL     1     -33.779   4.478  80.872  1.00  0.00     0.293 HD
ENDBRANCH  41  44
BRANCH  43  46
ATOM     46  O   UNL     1     -33.404   6.879  77.972  1.00  0.00    -0.504 OA
ATOM     47  H   UNL     1     -33.279   7.691  77.375  1.00  0.00     0.293 HD
ENDBRANCH  43  46
ENDBRANCH  28  38
BRANCH  34  48
ATOM     48  O   UNL     1     -43.090   3.676  81.293  1.00  0.00    -0.507 OA
ATOM     49  H   UNL     1     -43.560   2.975  81.852  1.00  0.00     0.293 HD
ENDBRANCH  34  48
BRANCH  37  50
ATOM     50  O   UNL     1     -42.658   1.096  77.250  1.00  0.00    -0.508 OA
ATOM     51  H   UNL     1     -43.581   1.218  76.844  1.00  0.00     0.293 HD
ENDBRANCH  37  50
ENDBRANCH  26  27
ENDBRANCH   5  26
BRANCH   4  52
ATOM     52  O   UNL     1     -40.624   8.568  80.803  1.00  0.00    -0.384 OA
ATOM     53  H   UNL     1     -41.211   9.347  80.976  1.00  0.00     0.211 HD
ENDBRANCH   4  52
TORSDOF 16
ENDMDL
MODEL 8
REMARK VINA RESULT:    -5.803      2.317      6.209
REMARK INTER + INTRA:         -11.962
REMARK INTER:                  -9.667
REMARK INTRA:                  -2.295
REMARK UNBOUND:                -2.428
REMARK SMILES C[C@@H]1O[C@H](OC[C@@H]2O[C@@H](Oc3c(-c4ccc(O)c(O)c4)oc4cc(O)cc(O)c4c3=O)[C@@H](O)[C@H](O)[C@H]2O)[C@H](O)[C@H](O)[C@@H]1O
REMARK SMILES IDX 7 1 36 2 34 3 32 4 9 5 8 6 6 7 5 8 4 9 1 10 2 11 42 12 3 13
REMARK SMILES IDX 40 14 38 15 43 16 41 18 39 20 37 22 35 24 10 26 11 27 12 28
REMARK SMILES IDX 30 29 21 30 29 31 31 32 22 33 27 34 23 35 26 36 24 37 13 38
REMARK SMILES IDX 20 39 14 40 18 41 15 42 16 43 19 44 17 46 28 48 25 50 33 52
REMARK H PARENT 43 17 41 19 39 21 37 23 35 25 19 45 17 47 28 49 25 51 33 53
REMARK Flexibility Score: inf
ROOT
ATOM      1  C   UNL     1     -36.458   7.874  80.415  1.00  0.00     0.180 C 
ATOM      2  C   UNL     1     -35.797   8.871  79.427  1.00  0.00     0.177 C 
ATOM      3  C   UNL     1     -35.809   8.298  77.999  1.00  0.00     0.180 C 
ATOM      4  C   UNL     1     -35.253   6.857  78.000  1.00  0.00     0.214 C 
ATOM      5  C   UNL     1     -35.940   6.003  79.087  1.00  0.00     0.339 C 
ATOM      6  O   UNL     1     -35.805   6.617  80.360  1.00  0.00    -0.332 OA
ENDROOT
BRANCH   1   7
ATOM      7  C   UNL     1     -36.377   8.389  81.861  1.00  0.00     0.198 C 
BRANCH   7   8
ATOM      8  O   UNL     1     -36.495   7.307  82.771  1.00  0.00    -0.347 OA
BRANCH   8   9
ATOM      9  C   UNL     1     -35.582   7.436  83.849  1.00  0.00     0.281 C 
ATOM     10  C   UNL     1     -37.662   5.170  84.360  1.00  0.00     0.041 C 
ATOM     11  C   UNL     1     -36.395   5.589  85.125  1.00  0.00     0.150 C 
ATOM     12  C   UNL     1     -35.134   4.747  84.800  1.00  0.00     0.174 C 
ATOM     13  O   UNL     1     -36.159   6.992  85.071  1.00  0.00    -0.344 OA
ATOM     14  C   UNL     1     -34.456   5.194  83.493  1.00  0.00     0.179 C 
ATOM     15  C   UNL     1     -34.259   6.711  83.527  1.00  0.00     0.202 C 
BRANCH  12  16
ATOM     16  O   UNL     1     -35.459   3.381  84.753  1.00  0.00    -0.388 OA
ATOM     17  H   UNL     1     -36.400   3.298  85.056  1.00  0.00     0.211 HD
ENDBRANCH  12  16
BRANCH  14  18
ATOM     18  O   UNL     1     -35.215   4.827  82.369  1.00  0.00    -0.387 OA
ATOM     19  H   UNL     1     -35.452   3.870  82.478  1.00  0.00     0.211 HD
ENDBRANCH  14  18
BRANCH  15  20
ATOM     20  O   UNL     1     -33.747   7.147  82.295  1.00  0.00    -0.385 OA
ATOM     21  H   UNL     1     -34.340   7.878  81.990  1.00  0.00     0.211 HD
ENDBRANCH  15  20
ENDBRANCH   8   9
ENDBRANCH   7   8
ENDBRANCH   1   7
BRANCH   2  22
ATOM     22  O   UNL     1     -36.428  10.125  79.454  1.00  0.00    -0.387 OA
ATOM     23  H   UNL     1     -37.005  10.158  80.262  1.00  0.00     0.211 HD
ENDBRANCH   2  22
BRANCH   3  24
ATOM     24  O   UNL     1     -35.026   9.112  77.165  1.00  0.00    -0.387 OA
ATOM     25  H   UNL     1     -35.585   9.896  76.924  1.00  0.00     0.211 HD
ENDBRANCH   3  24
BRANCH   5  26
ATOM     26  O   UNL     1     -37.329   5.794  78.778  1.00  0.00    -0.454 OA
BRANCH  26  27
ATOM     27  C   UNL     1     -38.366   5.215  79.545  1.00  0.00     0.214 A 
ATOM     28  C   UNL     1     -39.650   5.780  79.413  1.00  0.00     0.180 A 
ATOM     29  C   UNL     1     -38.203   4.148  80.467  1.00  0.00     0.239 A 
ATOM     30  O   UNL     1     -40.648   5.385  80.192  1.00  0.00    -0.452 OA
ATOM     31  C   UNL     1     -39.294   3.758  81.277  1.00  0.00     0.111 A 
ATOM     32  O   UNL     1     -37.105   3.543  80.575  1.00  0.00    -0.285 OA
ATOM     33  C   UNL     1     -40.524   4.431  81.104  1.00  0.00     0.146 A 
ATOM     34  C   UNL     1     -39.202   2.740  82.259  1.00  0.00     0.134 A 
ATOM     35  C   UNL     1     -41.629   4.093  81.890  1.00  0.00     0.094 A 
ATOM     36  C   UNL     1     -40.322   2.416  83.038  1.00  0.00     0.093 A 
ATOM     37  C   UNL     1     -41.530   3.086  82.856  1.00  0.00     0.123 A 
BRANCH  28  38
ATOM     38  C   UNL     1     -39.929   6.814  78.400  1.00  0.00     0.025 A 
ATOM     39  C   UNL     1     -40.798   7.871  78.698  1.00  0.00     0.062 A 
ATOM     40  C   UNL     1     -39.373   6.720  77.117  1.00  0.00     0.016 A 
ATOM     41  C   UNL     1     -41.092   8.839  77.729  1.00  0.00     0.158 A 
ATOM     42  C   UNL     1     -39.656   7.686  76.152  1.00  0.00     0.051 A 
ATOM     43  C   UNL     1     -40.516   8.747  76.449  1.00  0.00     0.157 A 
BRANCH  41  44
ATOM     44  O   UNL     1     -41.944   9.899  78.034  1.00  0.00    -0.504 OA
ATOM     45  H   UNL     1     -41.607  10.852  78.078  1.00  0.00     0.293 HD
ENDBRANCH  41  44
BRANCH  43  46
ATOM     46  O   UNL     1     -40.780   9.698  75.464  1.00  0.00    -0.504 OA
ATOM     47  H   UNL     1     -40.099   9.941  74.751  1.00  0.00     0.293 HD
ENDBRANCH  43  46
ENDBRANCH  28  38
BRANCH  34  48
ATOM     48  O   UNL     1     -38.006   2.056  82.475  1.00  0.00    -0.507 OA
ATOM     49  H   UNL     1     -37.198   2.201  81.883  1.00  0.00     0.293 HD
ENDBRANCH  34  48
BRANCH  37  50
ATOM     50  O   UNL     1     -42.627   2.744  83.641  1.00  0.00    -0.508 OA
ATOM     51  H   UNL     1     -43.508   3.244  83.565  1.00  0.00     0.293 HD
ENDBRANCH  37  50
ENDBRANCH  26  27
ENDBRANCH   5  26
BRANCH   4  52
ATOM     52  O   UNL     1     -35.366   6.254  76.733  1.00  0.00    -0.384 OA
ATOM     53  H   UNL     1     -35.482   6.969  76.057  1.00  0.00     0.211 HD
ENDBRANCH   4  52
TORSDOF 16
ENDMDL
MODEL 9
REMARK VINA RESULT:    -5.727     11.532     15.028
REMARK INTER + INTRA:         -11.837
REMARK INTER:                 -10.497
REMARK INTRA:                  -1.340
REMARK UNBOUND:                -2.428
REMARK SMILES C[C@@H]1O[C@H](OC[C@@H]2O[C@@H](Oc3c(-c4ccc(O)c(O)c4)oc4cc(O)cc(O)c4c3=O)[C@@H](O)[C@H](O)[C@H]2O)[C@H](O)[C@H](O)[C@@H]1O
REMARK SMILES IDX 7 1 36 2 34 3 32 4 9 5 8 6 6 7 5 8 4 9 1 10 2 11 42 12 3 13
REMARK SMILES IDX 40 14 38 15 43 16 41 18 39 20 37 22 35 24 10 26 11 27 12 28
REMARK SMILES IDX 30 29 21 30 29 31 31 32 22 33 27 34 23 35 26 36 24 37 13 38
REMARK SMILES IDX 20 39 14 40 18 41 15 42 16 43 19 44 17 46 28 48 25 50 33 52
REMARK H PARENT 43 17 41 19 39 21 37 23 35 25 19 45 17 47 28 49 25 51 33 53
REMARK Flexibility Score: inf
ROOT
ATOM      1  C   UNL     1     -42.655  -6.887  82.710  1.00  0.00     0.180 C 
ATOM      2  C   UNL     1     -43.146  -5.863  83.766  1.00  0.00     0.177 C 
ATOM      3  C   UNL     1     -43.993  -4.766  83.097  1.00  0.00     0.180 C 
ATOM      4  C   UNL     1     -43.245  -4.190  81.874  1.00  0.00     0.214 C 
ATOM      5  C   UNL     1     -42.741  -5.323  80.955  1.00  0.00     0.339 C 
ATOM      6  O   UNL     1     -41.929  -6.230  81.685  1.00  0.00    -0.332 OA
ENDROOT
BRANCH   1   7
ATOM      7  C   UNL     1     -41.735  -7.941  83.344  1.00  0.00     0.198 C 
BRANCH   7   8
ATOM      8  O   UNL     1     -40.670  -8.254  82.461  1.00  0.00    -0.347 OA
BRANCH   8   9
ATOM      9  C   UNL     1     -40.562  -9.653  82.255  1.00  0.00     0.281 C 
ATOM     10  C   UNL     1     -40.501  -8.082  79.563  1.00  0.00     0.041 C 
ATOM     11  C   UNL     1     -40.258  -9.566  79.889  1.00  0.00     0.150 C 
ATOM     12  C   UNL     1     -38.765  -9.965  80.018  1.00  0.00     0.174 C 
ATOM     13  O   UNL     1     -41.055 -10.028  80.974  1.00  0.00    -0.344 OA
ATOM     14  C   UNL     1     -38.180  -9.599  81.393  1.00  0.00     0.179 C 
ATOM     15  C   UNL     1     -39.112 -10.125  82.486  1.00  0.00     0.202 C 
BRANCH  12  16
ATOM     16  O   UNL     1     -38.014  -9.382  78.983  1.00  0.00    -0.388 OA
ATOM     17  H   UNL     1     -38.659  -9.085  78.289  1.00  0.00     0.211 HD
ENDBRANCH  12  16
BRANCH  14  18
ATOM     18  O   UNL     1     -38.009  -8.211  81.525  1.00  0.00    -0.387 OA
ATOM     19  H   UNL     1     -37.531  -7.897  80.715  1.00  0.00     0.211 HD
ENDBRANCH  14  18
BRANCH  15  20
ATOM     20  O   UNL     1     -38.651  -9.699  83.742  1.00  0.00    -0.385 OA
ATOM     21  H   UNL     1     -39.239  -8.953  84.016  1.00  0.00     0.211 HD
ENDBRANCH  15  20
ENDBRANCH   8   9
ENDBRANCH   7   8
ENDBRANCH   1   7
BRANCH   2  22
ATOM     22  O   UNL     1     -43.877  -6.483  84.792  1.00  0.00    -0.387 OA
ATOM     23  H   UNL     1     -44.837  -6.262  84.659  1.00  0.00     0.211 HD
ENDBRANCH   2  22
BRANCH   3  24
ATOM     24  O   UNL     1     -44.247  -3.744  84.026  1.00  0.00    -0.387 OA
ATOM     25  H   UNL     1     -44.909  -4.104  84.673  1.00  0.00     0.211 HD
ENDBRANCH   3  24
BRANCH   5  26
ATOM     26  O   UNL     1     -43.840  -6.018  80.341  1.00  0.00    -0.454 OA
BRANCH  26  27
ATOM     27  C   UNL     1     -44.531  -5.765  79.134  1.00  0.00     0.214 A 
ATOM     28  C   UNL     1     -45.774  -6.405  78.962  1.00  0.00     0.180 A 
ATOM     29  C   UNL     1     -44.049  -4.959  78.069  1.00  0.00     0.239 A 
ATOM     30  O   UNL     1     -46.424  -6.328  77.808  1.00  0.00    -0.452 OA
ATOM     31  C   UNL     1     -44.773  -4.902  76.857  1.00  0.00     0.111 A 
ATOM     32  O   UNL     1     -42.987  -4.291  78.187  1.00  0.00    -0.285 OA
ATOM     33  C   UNL     1     -45.980  -5.632  76.771  1.00  0.00     0.146 A 
ATOM     34  C   UNL     1     -44.335  -4.166  75.729  1.00  0.00     0.134 A 
ATOM     35  C   UNL     1     -46.728  -5.620  75.590  1.00  0.00     0.094 A 
ATOM     36  C   UNL     1     -45.098  -4.168  74.552  1.00  0.00     0.093 A 
ATOM     37  C   UNL     1     -46.288  -4.890  74.481  1.00  0.00     0.123 A 
BRANCH  28  38
ATOM     38  C   UNL     1     -46.398  -7.168  80.058  1.00  0.00     0.025 A 
ATOM     39  C   UNL     1     -45.671  -8.165  80.721  1.00  0.00     0.062 A 
ATOM     40  C   UNL     1     -47.736  -6.942  80.409  1.00  0.00     0.016 A 
ATOM     41  C   UNL     1     -46.269  -8.916  81.742  1.00  0.00     0.158 A 
ATOM     42  C   UNL     1     -48.332  -7.681  81.431  1.00  0.00     0.051 A 
ATOM     43  C   UNL     1     -47.607  -8.670  82.100  1.00  0.00     0.157 A 
BRANCH  41  44
ATOM     44  O   UNL     1     -45.537  -9.895  82.411  1.00  0.00    -0.504 OA
ATOM     45  H   UNL     1     -44.528  -9.858  82.463  1.00  0.00     0.293 HD
ENDBRANCH  41  44
BRANCH  43  46
ATOM     46  O   UNL     1     -48.229  -9.392  83.117  1.00  0.00    -0.504 OA
ATOM     47  H   UNL     1     -48.716 -10.266  82.940  1.00  0.00     0.293 HD
ENDBRANCH  43  46
ENDBRANCH  28  38
BRANCH  34  48
ATOM     48  O   UNL     1     -43.144  -3.441  75.762  1.00  0.00    -0.507 OA
ATOM     49  H   UNL     1     -42.277  -3.831  75.417  1.00  0.00     0.293 HD
ENDBRANCH  34  48
BRANCH  37  50
ATOM     50  O   UNL     1     -47.027  -4.874  73.302  1.00  0.00    -0.508 OA
ATOM     51  H   UNL     1     -47.899  -4.358  73.231  1.00  0.00     0.293 HD
ENDBRANCH  37  50
ENDBRANCH  26  27
ENDBRANCH   5  26
BRANCH   4  52
ATOM     52  O   UNL     1     -44.041  -3.274  81.161  1.00  0.00    -0.384 OA
ATOM     53  H   UNL     1     -43.998  -3.507  80.199  1.00  0.00     0.211 HD
ENDBRANCH   4  52
TORSDOF 16
ENDMDL
