MODEL 1
REMARK VINA RESULT:    -5.818      0.000      0.000
REMARK INTER + INTRA:         -17.355
REMARK INTER:                 -14.661
REMARK INTRA:                  -2.694
REMARK UNBOUND:                -2.694
REMARK SMILES CCCCCCCCCCCCCCCCCCCCCCCCCCCC(=O)[O-]
REMARK SMILES IDX 15 1 16 2 17 3 18 4 19 5 20 6 21 7 22 8 23 9 24 10 25 11
REMARK SMILES IDX 26 12 27 13 28 14 29 15 30 16 14 17 13 18 12 19 11 20 10 21
REMARK SMILES IDX 9 22 8 23 7 24 6 25 5 26 4 27 3 28 2 29 1 30
REMARK H PARENT
REMARK Flexibility Score: inf
ROOT
ATOM      1  C   UNL     1     -27.368   0.587  23.891  1.00  0.00     0.000 C 
ENDROOT
BRANCH   1   2
ATOM      2  C   UNL     1     -28.337   1.110  22.809  1.00  0.00     0.000 C 
BRANCH   2   3
ATOM      3  C   UNL     1     -29.760   1.334  23.351  1.00  0.00     0.000 C 
BRANCH   3   4
ATOM      4  C   UNL     1     -30.772   0.308  22.818  1.00  0.00     0.000 C 
BRANCH   4   5
ATOM      5  C   UNL     1     -30.843  -0.986  23.659  1.00  0.00     0.000 C 
BRANCH   5   6
ATOM      6  C   UNL     1     -30.470  -2.232  22.838  1.00  0.00     0.000 C 
BRANCH   6   7
ATOM      7  C   UNL     1     -28.981  -2.237  22.429  1.00  0.00     0.000 C 
BRANCH   7   8
ATOM      8  C   UNL     1     -28.759  -2.421  20.914  1.00  0.00     0.000 C 
BRANCH   8   9
ATOM      9  C   UNL     1     -28.209  -1.180  20.192  1.00  0.00     0.000 C 
BRANCH   9  10
ATOM     10  C   UNL     1     -27.978  -1.419  18.690  1.00  0.00     0.000 C 
BRANCH  10  11
ATOM     11  C   UNL     1     -28.694  -2.687  18.178  1.00  0.00     0.000 C 
BRANCH  11  12
ATOM     12  C   UNL     1     -28.709  -2.818  16.642  1.00  0.00     0.006 C 
BRANCH  12  13
ATOM     13  C   UNL     1     -28.854  -4.259  16.129  1.00  0.00     0.053 C 
BRANCH  13  14
ATOM     14  C   UNL     1     -29.258  -4.307  14.686  1.00  0.00     0.041 C 
ATOM     15  O   UNL     1     -29.988  -3.402  14.202  1.00  0.00    -0.550 OA
ATOM     16  O   UNL     1     -28.829  -5.351  13.875  1.00  0.00    -0.550 OA
ENDBRANCH  13  14
ENDBRANCH  12  13
ENDBRANCH  11  12
ENDBRANCH  10  11
ENDBRANCH   9  10
ENDBRANCH   8   9
ENDBRANCH   7   8
ENDBRANCH   6   7
ENDBRANCH   5   6
ENDBRANCH   4   5
ENDBRANCH   3   4
ENDBRANCH   2   3
ENDBRANCH   1   2
BRANCH   1  17
ATOM     17  C   UNL     1     -27.880   0.773  25.329  1.00  0.00     0.000 C 
BRANCH  17  18
ATOM     18  C   UNL     1     -28.080  -0.557  26.074  1.00  0.00     0.000 C 
BRANCH  18  19
ATOM     19  C   UNL     1     -29.090  -0.428  27.234  1.00  0.00     0.000 C 
BRANCH  19  20
ATOM     20  C   UNL     1     -29.818   0.927  27.268  1.00  0.00     0.000 C 
BRANCH  20  21
ATOM     21  C   UNL     1     -30.149   1.393  28.694  1.00  0.00     0.000 C 
BRANCH  21  22
ATOM     22  C   UNL     1     -29.144   0.829  29.707  1.00  0.00    -0.000 C 
BRANCH  22  23
ATOM     23  C   UNL     1     -29.562   1.177  31.143  1.00  0.00    -0.000 C 
BRANCH  23  24
ATOM     24  C   UNL     1     -28.365   1.255  32.103  1.00  0.00    -0.000 C 
BRANCH  24  25
ATOM     25  C   UNL     1     -27.797   2.680  32.228  1.00  0.00    -0.000 C 
BRANCH  25  26
ATOM     26  C   UNL     1     -28.738   3.637  32.983  1.00  0.00    -0.000 C 
BRANCH  26  27
ATOM     27  C   UNL     1     -29.605   2.976  34.072  1.00  0.00    -0.000 C 
BRANCH  27  28
ATOM     28  C   UNL     1     -31.056   3.485  34.070  1.00  0.00    -0.000 C 
BRANCH  28  29
ATOM     29  C   UNL     1     -31.870   2.937  32.888  1.00  0.00    -0.003 C 
ATOM     30  C   UNL     1     -32.652   1.671  33.236  1.00  0.00     0.004 C 
ENDBRANCH  28  29
ENDBRANCH  27  28
ENDBRANCH  26  27
ENDBRANCH  25  26
ENDBRANCH  24  25
ENDBRANCH  23  24
ENDBRANCH  22  23
ENDBRANCH  21  22
ENDBRANCH  20  21
ENDBRANCH  19  20
ENDBRANCH  18  19
ENDBRANCH  17  18
ENDBRANCH   1  17
TORSDOF 26
ENDMDL
MODEL 2
REMARK VINA RESULT:    -5.760      5.237     13.395
REMARK INTER + INTRA:         -17.209
REMARK INTER:                 -15.003
REMARK INTRA:                  -2.206
REMARK UNBOUND:                -2.694
REMARK SMILES CCCCCCCCCCCCCCCCCCCCCCCCCCCC(=O)[O-]
REMARK SMILES IDX 15 1 16 2 17 3 18 4 19 5 20 6 21 7 22 8 23 9 24 10 25 11
REMARK SMILES IDX 26 12 27 13 28 14 29 15 30 16 14 17 13 18 12 19 11 20 10 21
REMARK SMILES IDX 9 22 8 23 7 24 6 25 5 26 4 27 3 28 2 29 1 30
REMARK H PARENT
REMARK Flexibility Score: inf
ROOT
ATOM      1  C   UNL     1     -27.557   0.769  22.880  1.00  0.00     0.000 C 
ENDROOT
BRANCH   1   2
ATOM      2  C   UNL     1     -26.780  -0.325  23.642  1.00  0.00     0.000 C 
BRANCH   2   3
ATOM      3  C   UNL     1     -27.584  -0.911  24.816  1.00  0.00     0.000 C 
BRANCH   3   4
ATOM      4  C   UNL     1     -27.610   0.014  26.044  1.00  0.00     0.000 C 
BRANCH   4   5
ATOM      5  C   UNL     1     -28.610  -0.434  27.133  1.00  0.00     0.000 C 
BRANCH   5   6
ATOM      6  C   UNL     1     -29.972   0.268  26.994  1.00  0.00     0.000 C 
BRANCH   6   7
ATOM      7  C   UNL     1     -30.112   1.466  27.959  1.00  0.00     0.000 C 
BRANCH   7   8
ATOM      8  C   UNL     1     -29.927   1.087  29.442  1.00  0.00     0.000 C 
BRANCH   8   9
ATOM      9  C   UNL     1     -30.435   2.140  30.440  1.00  0.00     0.000 C 
BRANCH   9  10
ATOM     10  C   UNL     1     -31.034   1.515  31.711  1.00  0.00     0.000 C 
BRANCH  10  11
ATOM     11  C   UNL     1     -31.165   2.533  32.864  1.00  0.00     0.000 C 
BRANCH  11  12
ATOM     12  C   UNL     1     -29.929   2.598  33.783  1.00  0.00     0.006 C 
BRANCH  12  13
ATOM     13  C   UNL     1     -28.720   3.318  33.169  1.00  0.00     0.053 C 
BRANCH  13  14
ATOM     14  C   UNL     1     -27.538   2.407  33.016  1.00  0.00     0.041 C 
ATOM     15  O   UNL     1     -26.369   2.878  33.032  1.00  0.00    -0.550 OA
ATOM     16  O   UNL     1     -27.726   1.039  32.857  1.00  0.00    -0.550 OA
ENDBRANCH  13  14
ENDBRANCH  12  13
ENDBRANCH  11  12
ENDBRANCH  10  11
ENDBRANCH   9  10
ENDBRANCH   8   9
ENDBRANCH   7   8
ENDBRANCH   6   7
ENDBRANCH   5   6
ENDBRANCH   4   5
ENDBRANCH   3   4
ENDBRANCH   2   3
ENDBRANCH   1   2
BRANCH   1  17
ATOM     17  C   UNL     1     -28.905   1.138  23.521  1.00  0.00     0.000 C 
BRANCH  17  18
ATOM     18  C   UNL     1     -30.113   0.632  22.717  1.00  0.00     0.000 C 
BRANCH  18  19
ATOM     19  C   UNL     1     -30.745  -0.628  23.345  1.00  0.00     0.000 C 
BRANCH  19  20
ATOM     20  C   UNL     1     -30.542  -1.901  22.507  1.00  0.00     0.000 C 
BRANCH  20  21
ATOM     21  C   UNL     1     -30.165  -1.603  21.047  1.00  0.00     0.000 C 
BRANCH  21  22
ATOM     22  C   UNL     1     -28.759  -2.125  20.721  1.00  0.00    -0.000 C 
BRANCH  22  23
ATOM     23  C   UNL     1     -28.016  -1.153  19.794  1.00  0.00    -0.000 C 
BRANCH  23  24
ATOM     24  C   UNL     1     -27.936  -1.663  18.347  1.00  0.00    -0.000 C 
BRANCH  24  25
ATOM     25  C   UNL     1     -28.912  -2.819  18.070  1.00  0.00    -0.000 C 
BRANCH  25  26
ATOM     26  C   UNL     1     -28.812  -3.355  16.629  1.00  0.00    -0.000 C 
BRANCH  26  27
ATOM     27  C   UNL     1     -28.459  -2.302  15.562  1.00  0.00    -0.000 C 
BRANCH  27  28
ATOM     28  C   UNL     1     -28.033  -2.926  14.224  1.00  0.00    -0.000 C 
BRANCH  28  29
ATOM     29  C   UNL     1     -26.779  -3.804  14.356  1.00  0.00    -0.003 C 
ATOM     30  C   UNL     1     -25.589  -3.059  14.959  1.00  0.00     0.004 C 
ENDBRANCH  28  29
ENDBRANCH  27  28
ENDBRANCH  26  27
ENDBRANCH  25  26
ENDBRANCH  24  25
ENDBRANCH  23  24
ENDBRANCH  22  23
ENDBRANCH  21  22
ENDBRANCH  20  21
ENDBRANCH  19  20
ENDBRANCH  18  19
ENDBRANCH  17  18
ENDBRANCH   1  17
TORSDOF 26
ENDMDL
MODEL 3
REMARK VINA RESULT:    -5.677      5.142     12.988
REMARK INTER + INTRA:         -17.000
REMARK INTER:                 -13.932
REMARK INTRA:                  -3.067
REMARK UNBOUND:                -2.694
REMARK SMILES CCCCCCCCCCCCCCCCCCCCCCCCCCCC(=O)[O-]
REMARK SMILES IDX 15 1 16 2 17 3 18 4 19 5 20 6 21 7 22 8 23 9 24 10 25 11
REMARK SMILES IDX 26 12 27 13 28 14 29 15 30 16 14 17 13 18 12 19 11 20 10 21
REMARK SMILES IDX 9 22 8 23 7 24 6 25 5 26 4 27 3 28 2 29 1 30
REMARK H PARENT
REMARK Flexibility Score: inf
ROOT
ATOM      1  C   UNL     1     -27.333   0.894  24.632  1.00  0.00     0.000 C 
ENDROOT
BRANCH   1   2
ATOM      2  C   UNL     1     -27.422  -0.438  25.408  1.00  0.00     0.000 C 
BRANCH   2   3
ATOM      3  C   UNL     1     -28.638  -0.493  26.348  1.00  0.00     0.000 C 
BRANCH   3   4
ATOM      4  C   UNL     1     -29.042   0.890  26.886  1.00  0.00     0.000 C 
BRANCH   4   5
ATOM      5  C   UNL     1     -30.026   0.828  28.074  1.00  0.00     0.000 C 
BRANCH   5   6
ATOM      6  C   UNL     1     -29.319   1.048  29.423  1.00  0.00     0.000 C 
BRANCH   6   7
ATOM      7  C   UNL     1     -30.166   1.901  30.393  1.00  0.00     0.000 C 
BRANCH   7   8
ATOM      8  C   UNL     1     -31.182   1.078  31.209  1.00  0.00     0.000 C 
BRANCH   8   9
ATOM      9  C   UNL     1     -31.482   1.638  32.610  1.00  0.00     0.000 C 
BRANCH   9  10
ATOM     10  C   UNL     1     -31.204   3.146  32.720  1.00  0.00     0.000 C 
BRANCH  10  11
ATOM     11  C   UNL     1     -30.367   3.503  33.967  1.00  0.00     0.000 C 
BRANCH  11  12
ATOM     12  C   UNL     1     -28.921   3.931  33.646  1.00  0.00     0.006 C 
BRANCH  12  13
ATOM     13  C   UNL     1     -27.846   2.943  34.124  1.00  0.00     0.053 C 
BRANCH  13  14
ATOM     14  C   UNL     1     -27.362   2.055  33.017  1.00  0.00     0.041 C 
ATOM     15  O   UNL     1     -27.890   0.926  32.833  1.00  0.00    -0.550 OA
ATOM     16  O   UNL     1     -26.328   2.474  32.187  1.00  0.00    -0.550 OA
ENDBRANCH  13  14
ENDBRANCH  12  13
ENDBRANCH  11  12
ENDBRANCH  10  11
ENDBRANCH   9  10
ENDBRANCH   8   9
ENDBRANCH   7   8
ENDBRANCH   6   7
ENDBRANCH   5   6
ENDBRANCH   4   5
ENDBRANCH   3   4
ENDBRANCH   2   3
ENDBRANCH   1   2
BRANCH   1  17
ATOM     17  C   UNL     1     -27.267   0.723  23.106  1.00  0.00     0.000 C 
BRANCH  17  18
ATOM     18  C   UNL     1     -28.441   1.393  22.373  1.00  0.00     0.000 C 
BRANCH  18  19
ATOM     19  C   UNL     1     -29.735   1.383  23.215  1.00  0.00     0.000 C 
BRANCH  19  20
ATOM     20  C   UNL     1     -30.799   0.400  22.697  1.00  0.00     0.000 C 
BRANCH  20  21
ATOM     21  C   UNL     1     -30.917  -0.864  23.563  1.00  0.00     0.000 C 
BRANCH  21  22
ATOM     22  C   UNL     1     -30.488  -2.112  22.781  1.00  0.00    -0.000 C 
BRANCH  22  23
ATOM     23  C   UNL     1     -28.958  -2.215  22.712  1.00  0.00    -0.000 C 
BRANCH  23  24
ATOM     24  C   UNL     1     -28.456  -2.634  21.321  1.00  0.00    -0.000 C 
BRANCH  24  25
ATOM     25  C   UNL     1     -29.166  -1.881  20.182  1.00  0.00    -0.000 C 
BRANCH  25  26
ATOM     26  C   UNL     1     -29.056  -2.603  18.827  1.00  0.00    -0.000 C 
BRANCH  26  27
ATOM     27  C   UNL     1     -28.314  -1.821  17.727  1.00  0.00    -0.000 C 
BRANCH  27  28
ATOM     28  C   UNL     1     -27.976  -2.687  16.502  1.00  0.00    -0.000 C 
BRANCH  28  29
ATOM     29  C   UNL     1     -29.051  -2.604  15.409  1.00  0.00    -0.003 C 
ATOM     30  C   UNL     1     -28.652  -3.326  14.122  1.00  0.00     0.004 C 
ENDBRANCH  28  29
ENDBRANCH  27  28
ENDBRANCH  26  27
ENDBRANCH  25  26
ENDBRANCH  24  25
ENDBRANCH  23  24
ENDBRANCH  22  23
ENDBRANCH  21  22
ENDBRANCH  20  21
ENDBRANCH  19  20
ENDBRANCH  18  19
ENDBRANCH  17  18
ENDBRANCH   1  17
TORSDOF 26
ENDMDL
MODEL 4
REMARK VINA RESULT:    -5.661      5.478     13.860
REMARK INTER + INTRA:         -16.960
REMARK INTER:                 -14.724
REMARK INTRA:                  -2.236
REMARK UNBOUND:                -2.694
REMARK SMILES CCCCCCCCCCCCCCCCCCCCCCCCCCCC(=O)[O-]
REMARK SMILES IDX 15 1 16 2 17 3 18 4 19 5 20 6 21 7 22 8 23 9 24 10 25 11
REMARK SMILES IDX 26 12 27 13 28 14 29 15 30 16 14 17 13 18 12 19 11 20 10 21
REMARK SMILES IDX 9 22 8 23 7 24 6 25 5 26 4 27 3 28 2 29 1 30
REMARK H PARENT
REMARK Flexibility Score: inf
ROOT
ATOM      1  C   UNL     1     -30.716   0.506  22.816  1.00  0.00     0.000 C 
ENDROOT
BRANCH   1   2
ATOM      2  C   UNL     1     -29.612   1.281  23.566  1.00  0.00     0.000 C 
BRANCH   2   3
ATOM      3  C   UNL     1     -28.230   1.121  22.908  1.00  0.00     0.000 C 
BRANCH   3   4
ATOM      4  C   UNL     1     -27.117   0.805  23.922  1.00  0.00     0.000 C 
BRANCH   4   5
ATOM      5  C   UNL     1     -27.533  -0.226  24.994  1.00  0.00     0.000 C 
BRANCH   5   6
ATOM      6  C   UNL     1     -27.616   0.399  26.398  1.00  0.00     0.000 C 
BRANCH   6   7
ATOM      7  C   UNL     1     -28.947   0.067  27.106  1.00  0.00     0.000 C 
BRANCH   7   8
ATOM      8  C   UNL     1     -28.960   0.446  28.601  1.00  0.00     0.000 C 
BRANCH   8   9
ATOM      9  C   UNL     1     -30.165   1.296  29.035  1.00  0.00     0.000 C 
BRANCH   9  10
ATOM     10  C   UNL     1     -29.928   2.027  30.368  1.00  0.00     0.000 C 
BRANCH  10  11
ATOM     11  C   UNL     1     -29.371   1.092  31.462  1.00  0.00     0.000 C 
BRANCH  11  12
ATOM     12  C   UNL     1     -29.850   1.442  32.885  1.00  0.00     0.006 C 
BRANCH  12  13
ATOM     13  C   UNL     1     -28.717   1.732  33.882  1.00  0.00     0.053 C 
BRANCH  13  14
ATOM     14  C   UNL     1     -27.948   2.967  33.520  1.00  0.00     0.041 C 
ATOM     15  O   UNL     1     -28.379   4.103  33.856  1.00  0.00    -0.550 OA
ATOM     16  O   UNL     1     -26.757   2.866  32.812  1.00  0.00    -0.550 OA
ENDBRANCH  13  14
ENDBRANCH  12  13
ENDBRANCH  11  12
ENDBRANCH  10  11
ENDBRANCH   9  10
ENDBRANCH   8   9
ENDBRANCH   7   8
ENDBRANCH   6   7
ENDBRANCH   5   6
ENDBRANCH   4   5
ENDBRANCH   3   4
ENDBRANCH   2   3
ENDBRANCH   1   2
BRANCH   1  17
ATOM     17  C   UNL     1     -30.817  -0.976  23.212  1.00  0.00     0.000 C 
BRANCH  17  18
ATOM     18  C   UNL     1     -30.265  -1.926  22.136  1.00  0.00     0.000 C 
BRANCH  18  19
ATOM     19  C   UNL     1     -28.761  -2.213  22.330  1.00  0.00     0.000 C 
BRANCH  19  20
ATOM     20  C   UNL     1     -27.948  -2.139  21.025  1.00  0.00     0.000 C 
BRANCH  20  21
ATOM     21  C   UNL     1     -28.544  -1.159  20.003  1.00  0.00     0.000 C 
BRANCH  21  22
ATOM     22  C   UNL     1     -28.149  -1.544  18.572  1.00  0.00    -0.000 C 
BRANCH  22  23
ATOM     23  C   UNL     1     -28.992  -2.725  18.070  1.00  0.00    -0.000 C 
BRANCH  23  24
ATOM     24  C   UNL     1     -29.019  -2.823  16.537  1.00  0.00    -0.000 C 
BRANCH  24  25
ATOM     25  C   UNL     1     -28.556  -4.197  16.022  1.00  0.00    -0.000 C 
BRANCH  25  26
ATOM     26  C   UNL     1     -28.499  -4.273  14.485  1.00  0.00    -0.000 C 
BRANCH  26  27
ATOM     27  C   UNL     1     -27.094  -4.491  13.893  1.00  0.00    -0.000 C 
BRANCH  27  28
ATOM     28  C   UNL     1     -25.989  -3.790  14.700  1.00  0.00    -0.000 C 
BRANCH  28  29
ATOM     29  C   UNL     1     -25.622  -2.414  14.124  1.00  0.00    -0.003 C 
ATOM     30  C   UNL     1     -26.786  -1.424  14.156  1.00  0.00     0.004 C 
ENDBRANCH  28  29
ENDBRANCH  27  28
ENDBRANCH  26  27
ENDBRANCH  25  26
ENDBRANCH  24  25
ENDBRANCH  23  24
ENDBRANCH  22  23
ENDBRANCH  21  22
ENDBRANCH  20  21
ENDBRANCH  19  20
ENDBRANCH  18  19
ENDBRANCH  17  18
ENDBRANCH   1  17
TORSDOF 26
ENDMDL
MODEL 5
REMARK VINA RESULT:    -5.534      1.754      3.017
REMARK INTER + INTRA:         -16.639
REMARK INTER:                 -14.277
REMARK INTRA:                  -2.362
REMARK UNBOUND:                -2.694
REMARK SMILES CCCCCCCCCCCCCCCCCCCCCCCCCCCC(=O)[O-]
REMARK SMILES IDX 15 1 16 2 17 3 18 4 19 5 20 6 21 7 22 8 23 9 24 10 25 11
REMARK SMILES IDX 26 12 27 13 28 14 29 15 30 16 14 17 13 18 12 19 11 20 10 21
REMARK SMILES IDX 9 22 8 23 7 24 6 25 5 26 4 27 3 28 2 29 1 30
REMARK H PARENT
REMARK Flexibility Score: inf
ROOT
ATOM      1  C   UNL     1     -28.603  -1.696  24.703  1.00  0.00     0.000 C 
ENDROOT
BRANCH   1   2
ATOM      2  C   UNL     1     -27.115  -1.298  24.607  1.00  0.00     0.000 C 
BRANCH   2   3
ATOM      3  C   UNL     1     -26.812  -0.446  23.362  1.00  0.00     0.000 C 
BRANCH   3   4
ATOM      4  C   UNL     1     -26.793  -1.269  22.063  1.00  0.00     0.000 C 
BRANCH   4   5
ATOM      5  C   UNL     1     -27.784  -0.758  20.994  1.00  0.00     0.000 C 
BRANCH   5   6
ATOM      6  C   UNL     1     -29.173  -1.405  21.135  1.00  0.00     0.000 C 
BRANCH   6   7
ATOM      7  C   UNL     1     -29.797  -1.749  19.765  1.00  0.00     0.000 C 
BRANCH   7   8
ATOM      8  C   UNL     1     -29.003  -2.809  18.975  1.00  0.00     0.000 C 
BRANCH   8   9
ATOM      9  C   UNL     1     -28.386  -2.299  17.663  1.00  0.00     0.000 C 
BRANCH   9  10
ATOM     10  C   UNL     1     -29.123  -2.818  16.417  1.00  0.00     0.000 C 
BRANCH  10  11
ATOM     11  C   UNL     1     -28.649  -4.225  15.994  1.00  0.00     0.000 C 
BRANCH  11  12
ATOM     12  C   UNL     1     -28.264  -4.333  14.505  1.00  0.00     0.006 C 
BRANCH  12  13
ATOM     13  C   UNL     1     -27.648  -3.055  13.916  1.00  0.00     0.053 C 
BRANCH  13  14
ATOM     14  C   UNL     1     -26.161  -3.008  14.101  1.00  0.00     0.041 C 
ATOM     15  O   UNL     1     -25.575  -1.901  14.243  1.00  0.00    -0.550 OA
ATOM     16  O   UNL     1     -25.421  -4.184  14.116  1.00  0.00    -0.550 OA
ENDBRANCH  13  14
ENDBRANCH  12  13
ENDBRANCH  11  12
ENDBRANCH  10  11
ENDBRANCH   9  10
ENDBRANCH   8   9
ENDBRANCH   7   8
ENDBRANCH   6   7
ENDBRANCH   5   6
ENDBRANCH   4   5
ENDBRANCH   3   4
ENDBRANCH   2   3
ENDBRANCH   1   2
BRANCH   1  17
ATOM     17  C   UNL     1     -29.573  -0.505  24.643  1.00  0.00     0.000 C 
BRANCH  17  18
ATOM     18  C   UNL     1     -30.383  -0.321  25.936  1.00  0.00     0.000 C 
BRANCH  18  19
ATOM     19  C   UNL     1     -29.487   0.052  27.136  1.00  0.00     0.000 C 
BRANCH  19  20
ATOM     20  C   UNL     1     -30.073   1.169  28.018  1.00  0.00     0.000 C 
BRANCH  20  21
ATOM     21  C   UNL     1     -29.527   1.147  29.454  1.00  0.00     0.000 C 
BRANCH  21  22
ATOM     22  C   UNL     1     -30.413   1.972  30.396  1.00  0.00    -0.000 C 
BRANCH  22  23
ATOM     23  C   UNL     1     -30.858   1.133  31.602  1.00  0.00    -0.000 C 
BRANCH  23  24
ATOM     24  C   UNL     1     -31.666   1.949  32.623  1.00  0.00    -0.000 C 
BRANCH  24  25
ATOM     25  C   UNL     1     -31.171   3.400  32.747  1.00  0.00    -0.000 C 
BRANCH  25  26
ATOM     26  C   UNL     1     -30.376   3.654  34.041  1.00  0.00    -0.000 C 
BRANCH  26  27
ATOM     27  C   UNL     1     -28.862   3.862  33.848  1.00  0.00    -0.000 C 
BRANCH  27  28
ATOM     28  C   UNL     1     -28.052   2.569  34.035  1.00  0.00    -0.000 C 
BRANCH  28  29
ATOM     29  C   UNL     1     -27.420   2.076  32.724  1.00  0.00    -0.003 C 
ATOM     30  C   UNL     1     -27.424   0.553  32.595  1.00  0.00     0.004 C 
ENDBRANCH  28  29
ENDBRANCH  27  28
ENDBRANCH  26  27
ENDBRANCH  25  26
ENDBRANCH  24  25
ENDBRANCH  23  24
ENDBRANCH  22  23
ENDBRANCH  21  22
ENDBRANCH  20  21
ENDBRANCH  19  20
ENDBRANCH  18  19
ENDBRANCH  17  18
ENDBRANCH   1  17
TORSDOF 26
ENDMDL
MODEL 6
REMARK VINA RESULT:    -5.498      1.426      2.460
REMARK INTER + INTRA:         -16.549
REMARK INTER:                 -13.905
REMARK INTRA:                  -2.644
REMARK UNBOUND:                -2.694
REMARK SMILES CCCCCCCCCCCCCCCCCCCCCCCCCCCC(=O)[O-]
REMARK SMILES IDX 15 1 16 2 17 3 18 4 19 5 20 6 21 7 22 8 23 9 24 10 25 11
REMARK SMILES IDX 26 12 27 13 28 14 29 15 30 16 14 17 13 18 12 19 11 20 10 21
REMARK SMILES IDX 9 22 8 23 7 24 6 25 5 26 4 27 3 28 2 29 1 30
REMARK H PARENT
REMARK Flexibility Score: inf
ROOT
ATOM      1  C   UNL     1     -27.648   1.074  22.843  1.00  0.00     0.000 C 
ENDROOT
BRANCH   1   2
ATOM      2  C   UNL     1     -29.099   1.422  23.237  1.00  0.00     0.000 C 
BRANCH   2   3
ATOM      3  C   UNL     1     -30.136   0.607  22.445  1.00  0.00     0.000 C 
BRANCH   3   4
ATOM      4  C   UNL     1     -30.730  -0.556  23.258  1.00  0.00     0.000 C 
BRANCH   4   5
ATOM      5  C   UNL     1     -30.427  -1.946  22.659  1.00  0.00     0.000 C 
BRANCH   5   6
ATOM      6  C   UNL     1     -28.918  -2.185  22.482  1.00  0.00     0.000 C 
BRANCH   6   7
ATOM      7  C   UNL     1     -28.562  -2.637  21.049  1.00  0.00     0.000 C 
BRANCH   7   8
ATOM      8  C   UNL     1     -27.826  -1.560  20.228  1.00  0.00     0.000 C 
BRANCH   8   9
ATOM      9  C   UNL     1     -28.282  -1.449  18.764  1.00  0.00     0.000 C 
BRANCH   9  10
ATOM     10  C   UNL     1     -28.561  -2.818  18.121  1.00  0.00     0.000 C 
BRANCH  10  11
ATOM     11  C   UNL     1     -29.141  -2.693  16.695  1.00  0.00     0.000 C 
BRANCH  11  12
ATOM     12  C   UNL     1     -28.744  -3.850  15.757  1.00  0.00     0.006 C 
BRANCH  12  13
ATOM     13  C   UNL     1     -28.085  -3.403  14.444  1.00  0.00     0.053 C 
BRANCH  13  14
ATOM     14  C   UNL     1     -26.722  -2.818  14.666  1.00  0.00     0.041 C 
ATOM     15  O   UNL     1     -25.848  -3.470  15.297  1.00  0.00    -0.550 OA
ATOM     16  O   UNL     1     -26.417  -1.553  14.178  1.00  0.00    -0.550 OA
ENDBRANCH  13  14
ENDBRANCH  12  13
ENDBRANCH  11  12
ENDBRANCH  10  11
ENDBRANCH   9  10
ENDBRANCH   8   9
ENDBRANCH   7   8
ENDBRANCH   6   7
ENDBRANCH   5   6
ENDBRANCH   4   5
ENDBRANCH   3   4
ENDBRANCH   2   3
ENDBRANCH   1   2
BRANCH   1  17
ATOM     17  C   UNL     1     -26.732   0.769  24.040  1.00  0.00     0.000 C 
BRANCH  17  18
ATOM     18  C   UNL     1     -27.245  -0.388  24.912  1.00  0.00     0.000 C 
BRANCH  18  19
ATOM     19  C   UNL     1     -27.995   0.114  26.164  1.00  0.00     0.000 C 
BRANCH  19  20
ATOM     20  C   UNL     1     -29.262  -0.696  26.489  1.00  0.00     0.000 C 
BRANCH  20  21
ATOM     21  C   UNL     1     -30.420   0.180  26.989  1.00  0.00     0.000 C 
BRANCH  21  22
ATOM     22  C   UNL     1     -29.903   1.356  27.828  1.00  0.00    -0.000 C 
BRANCH  22  23
ATOM     23  C   UNL     1     -29.919   1.010  29.323  1.00  0.00    -0.000 C 
BRANCH  23  24
ATOM     24  C   UNL     1     -30.527   2.130  30.182  1.00  0.00    -0.000 C 
BRANCH  24  25
ATOM     25  C   UNL     1     -31.109   1.611  31.508  1.00  0.00    -0.000 C 
BRANCH  25  26
ATOM     26  C   UNL     1     -30.041   1.440  32.605  1.00  0.00    -0.000 C 
BRANCH  26  27
ATOM     27  C   UNL     1     -30.148   2.430  33.781  1.00  0.00    -0.000 C 
BRANCH  27  28
ATOM     28  C   UNL     1     -29.112   3.563  33.705  1.00  0.00    -0.000 C 
BRANCH  28  29
ATOM     29  C   UNL     1     -28.136   3.390  32.532  1.00  0.00    -0.003 C 
ATOM     30  C   UNL     1     -26.747   2.928  32.972  1.00  0.00     0.004 C 
ENDBRANCH  28  29
ENDBRANCH  27  28
ENDBRANCH  26  27
ENDBRANCH  25  26
ENDBRANCH  24  25
ENDBRANCH  23  24
ENDBRANCH  22  23
ENDBRANCH  21  22
ENDBRANCH  20  21
ENDBRANCH  19  20
ENDBRANCH  18  19
ENDBRANCH  17  18
ENDBRANCH   1  17
TORSDOF 26
ENDMDL
MODEL 7
REMARK VINA RESULT:    -5.474      5.247     13.524
REMARK INTER + INTRA:         -16.488
REMARK INTER:                 -14.351
REMARK INTRA:                  -2.137
REMARK UNBOUND:                -2.694
REMARK SMILES CCCCCCCCCCCCCCCCCCCCCCCCCCCC(=O)[O-]
REMARK SMILES IDX 15 1 16 2 17 3 18 4 19 5 20 6 21 7 22 8 23 9 24 10 25 11
REMARK SMILES IDX 26 12 27 13 28 14 29 15 30 16 14 17 13 18 12 19 11 20 10 21
REMARK SMILES IDX 9 22 8 23 7 24 6 25 5 26 4 27 3 28 2 29 1 30
REMARK H PARENT
REMARK Flexibility Score: inf
ROOT
ATOM      1  C   UNL     1     -30.782  -1.250  22.987  1.00  0.00     0.000 C 
ENDROOT
BRANCH   1   2
ATOM      2  C   UNL     1     -31.083  -1.813  24.392  1.00  0.00     0.000 C 
BRANCH   2   3
ATOM      3  C   UNL     1     -31.008  -0.735  25.488  1.00  0.00     0.000 C 
BRANCH   3   4
ATOM      4  C   UNL     1     -29.650  -0.709  26.210  1.00  0.00     0.000 C 
BRANCH   4   5
ATOM      5  C   UNL     1     -29.281   0.677  26.781  1.00  0.00     0.000 C 
BRANCH   5   6
ATOM      6  C   UNL     1     -29.069   0.638  28.305  1.00  0.00     0.000 C 
BRANCH   6   7
ATOM      7  C   UNL     1     -30.152   1.434  29.065  1.00  0.00     0.000 C 
BRANCH   7   8
ATOM      8  C   UNL     1     -29.921   1.488  30.588  1.00  0.00     0.000 C 
BRANCH   8   9
ATOM      9  C   UNL     1     -31.196   1.693  31.422  1.00  0.00     0.000 C 
BRANCH   9  10
ATOM     10  C   UNL     1     -31.170   2.996  32.239  1.00  0.00     0.000 C 
BRANCH  10  11
ATOM     11  C   UNL     1     -30.593   2.793  33.656  1.00  0.00     0.000 C 
BRANCH  11  12
ATOM     12  C   UNL     1     -29.374   3.684  33.969  1.00  0.00     0.006 C 
BRANCH  12  13
ATOM     13  C   UNL     1     -28.287   3.675  32.883  1.00  0.00     0.053 C 
BRANCH  13  14
ATOM     14  C   UNL     1     -27.422   2.453  32.961  1.00  0.00     0.041 C 
ATOM     15  O   UNL     1     -27.821   1.432  33.582  1.00  0.00    -0.550 OA
ATOM     16  O   UNL     1     -26.174   2.440  32.350  1.00  0.00    -0.550 OA
ENDBRANCH  13  14
ENDBRANCH  12  13
ENDBRANCH  11  12
ENDBRANCH  10  11
ENDBRANCH   9  10
ENDBRANCH   8   9
ENDBRANCH   7   8
ENDBRANCH   6   7
ENDBRANCH   5   6
ENDBRANCH   4   5
ENDBRANCH   3   4
ENDBRANCH   2   3
ENDBRANCH   1   2
BRANCH   1  17
ATOM     17  C   UNL     1     -30.842   0.284  22.904  1.00  0.00     0.000 C 
BRANCH  17  18
ATOM     18  C   UNL     1     -29.560   0.908  22.330  1.00  0.00     0.000 C 
BRANCH  18  19
ATOM     19  C   UNL     1     -28.377   0.819  23.317  1.00  0.00     0.000 C 
BRANCH  19  20
ATOM     20  C   UNL     1     -27.122   0.161  22.717  1.00  0.00     0.000 C 
BRANCH  20  21
ATOM     21  C   UNL     1     -27.357  -1.297  22.293  1.00  0.00     0.000 C 
BRANCH  21  22
ATOM     22  C   UNL     1     -27.205  -1.463  20.775  1.00  0.00    -0.000 C 
BRANCH  22  23
ATOM     23  C   UNL     1     -28.410  -2.208  20.183  1.00  0.00    -0.000 C 
BRANCH  23  24
ATOM     24  C   UNL     1     -28.810  -1.676  18.798  1.00  0.00    -0.000 C 
BRANCH  24  25
ATOM     25  C   UNL     1     -28.660  -2.733  17.690  1.00  0.00    -0.000 C 
BRANCH  25  26
ATOM     26  C   UNL     1     -28.071  -2.158  16.388  1.00  0.00    -0.000 C 
BRANCH  26  27
ATOM     27  C   UNL     1     -28.634  -2.768  15.091  1.00  0.00    -0.000 C 
BRANCH  27  28
ATOM     28  C   UNL     1     -30.154  -2.991  15.145  1.00  0.00    -0.000 C 
BRANCH  28  29
ATOM     29  C   UNL     1     -30.559  -4.399  14.684  1.00  0.00    -0.003 C 
ATOM     30  C   UNL     1     -29.360  -5.282  14.337  1.00  0.00     0.004 C 
ENDBRANCH  28  29
ENDBRANCH  27  28
ENDBRANCH  26  27
ENDBRANCH  25  26
ENDBRANCH  24  25
ENDBRANCH  23  24
ENDBRANCH  22  23
ENDBRANCH  21  22
ENDBRANCH  20  21
ENDBRANCH  19  20
ENDBRANCH  18  19
ENDBRANCH  17  18
ENDBRANCH   1  17
TORSDOF 26
ENDMDL
MODEL 8
REMARK VINA RESULT:    -5.460      5.192     13.136
REMARK INTER + INTRA:         -16.453
REMARK INTER:                 -14.084
REMARK INTRA:                  -2.369
REMARK UNBOUND:                -2.694
REMARK SMILES CCCCCCCCCCCCCCCCCCCCCCCCCCCC(=O)[O-]
REMARK SMILES IDX 15 1 16 2 17 3 18 4 19 5 20 6 21 7 22 8 23 9 24 10 25 11
REMARK SMILES IDX 26 12 27 13 28 14 29 15 30 16 14 17 13 18 12 19 11 20 10 21
REMARK SMILES IDX 9 22 8 23 7 24 6 25 5 26 4 27 3 28 2 29 1 30
REMARK H PARENT
REMARK Flexibility Score: inf
ROOT
ATOM      1  C   UNL     1     -30.558  -0.728  24.811  1.00  0.00     0.000 C 
ENDROOT
BRANCH   1   2
ATOM      2  C   UNL     1     -30.454  -0.043  26.191  1.00  0.00     0.000 C 
BRANCH   2   3
ATOM      3  C   UNL     1     -29.004   0.037  26.700  1.00  0.00     0.000 C 
BRANCH   3   4
ATOM      4  C   UNL     1     -28.911   0.457  28.177  1.00  0.00     0.000 C 
BRANCH   4   5
ATOM      5  C   UNL     1     -30.166   1.198  28.689  1.00  0.00     0.000 C 
BRANCH   5   6
ATOM      6  C   UNL     1     -29.962   1.777  30.099  1.00  0.00     0.000 C 
BRANCH   6   7
ATOM      7  C   UNL     1     -29.307   0.760  31.059  1.00  0.00     0.000 C 
BRANCH   7   8
ATOM      8  C   UNL     1     -28.077   1.318  31.801  1.00  0.00     0.000 C 
BRANCH   8   9
ATOM      9  C   UNL     1     -28.276   1.515  33.313  1.00  0.00     0.000 C 
BRANCH   9  10
ATOM     10  C   UNL     1     -27.900   2.930  33.783  1.00  0.00     0.000 C 
BRANCH  10  11
ATOM     11  C   UNL     1     -29.138   3.786  34.125  1.00  0.00     0.000 C 
BRANCH  11  12
ATOM     12  C   UNL     1     -30.331   3.567  33.173  1.00  0.00     0.006 C 
BRANCH  12  13
ATOM     13  C   UNL     1     -31.623   3.115  33.869  1.00  0.00     0.053 C 
BRANCH  13  14
ATOM     14  C   UNL     1     -32.150   1.830  33.302  1.00  0.00     0.041 C 
ATOM     15  O   UNL     1     -31.710   0.726  33.718  1.00  0.00    -0.550 OA
ATOM     16  O   UNL     1     -33.127   1.852  32.313  1.00  0.00    -0.550 OA
ENDBRANCH  13  14
ENDBRANCH  12  13
ENDBRANCH  11  12
ENDBRANCH  10  11
ENDBRANCH   9  10
ENDBRANCH   8   9
ENDBRANCH   7   8
ENDBRANCH   6   7
ENDBRANCH   5   6
ENDBRANCH   4   5
ENDBRANCH   3   4
ENDBRANCH   2   3
ENDBRANCH   1   2
BRANCH   1  17
ATOM     17  C   UNL     1     -31.248   0.131  23.739  1.00  0.00     0.000 C 
BRANCH  17  18
ATOM     18  C   UNL     1     -30.256   0.821  22.788  1.00  0.00     0.000 C 
BRANCH  18  19
ATOM     19  C   UNL     1     -29.045   1.413  23.540  1.00  0.00     0.000 C 
BRANCH  19  20
ATOM     20  C   UNL     1     -27.691   1.054  22.904  1.00  0.00     0.000 C 
BRANCH  20  21
ATOM     21  C   UNL     1     -26.945  -0.051  23.668  1.00  0.00     0.000 C 
BRANCH  21  22
ATOM     22  C   UNL     1     -26.862  -1.339  22.839  1.00  0.00    -0.000 C 
BRANCH  22  23
ATOM     23  C   UNL     1     -28.229  -2.035  22.772  1.00  0.00    -0.000 C 
BRANCH  23  24
ATOM     24  C   UNL     1     -28.544  -2.586  21.373  1.00  0.00    -0.000 C 
BRANCH  24  25
ATOM     25  C   UNL     1     -27.759  -1.868  20.262  1.00  0.00    -0.000 C 
BRANCH  25  26
ATOM     26  C   UNL     1     -28.619  -1.563  19.021  1.00  0.00    -0.000 C 
BRANCH  26  27
ATOM     27  C   UNL     1     -28.573  -2.635  17.915  1.00  0.00    -0.000 C 
BRANCH  27  28
ATOM     28  C   UNL     1     -28.199  -2.058  16.540  1.00  0.00    -0.000 C 
BRANCH  28  29
ATOM     29  C   UNL     1     -28.673  -2.948  15.380  1.00  0.00    -0.003 C 
ATOM     30  C   UNL     1     -27.861  -2.745  14.101  1.00  0.00     0.004 C 
ENDBRANCH  28  29
ENDBRANCH  27  28
ENDBRANCH  26  27
ENDBRANCH  25  26
ENDBRANCH  24  25
ENDBRANCH  23  24
ENDBRANCH  22  23
ENDBRANCH  21  22
ENDBRANCH  20  21
ENDBRANCH  19  20
ENDBRANCH  18  19
ENDBRANCH  17  18
ENDBRANCH   1  17
TORSDOF 26
ENDMDL
MODEL 9
REMARK VINA RESULT:    -5.414      0.997      1.689
REMARK INTER + INTRA:         -16.337
REMARK INTER:                 -14.552
REMARK INTRA:                  -1.785
REMARK UNBOUND:                -2.694
REMARK SMILES CCCCCCCCCCCCCCCCCCCCCCCCCCCC(=O)[O-]
REMARK SMILES IDX 15 1 16 2 17 3 18 4 19 5 20 6 21 7 22 8 23 9 24 10 25 11
REMARK SMILES IDX 26 12 27 13 28 14 29 15 30 16 14 17 13 18 12 19 11 20 10 21
REMARK SMILES IDX 9 22 8 23 7 24 6 25 5 26 4 27 3 28 2 29 1 30
REMARK H PARENT
REMARK Flexibility Score: inf
ROOT
ATOM      1  C   UNL     1     -27.625  -0.765  25.066  1.00  0.00     0.000 C 
ENDROOT
BRANCH   1   2
ATOM      2  C   UNL     1     -27.065   0.639  24.755  1.00  0.00     0.000 C 
BRANCH   2   3
ATOM      3  C   UNL     1     -26.738   0.827  23.263  1.00  0.00     0.000 C 
BRANCH   3   4
ATOM      4  C   UNL     1     -27.671   0.025  22.341  1.00  0.00     0.000 C 
BRANCH   4   5
ATOM      5  C   UNL     1     -29.095   0.615  22.238  1.00  0.00     0.000 C 
BRANCH   5   6
ATOM      6  C   UNL     1     -30.140  -0.454  21.875  1.00  0.00     0.000 C 
BRANCH   6   7
ATOM      7  C   UNL     1     -29.589  -1.888  22.036  1.00  0.00     0.000 C 
BRANCH   7   8
ATOM      8  C   UNL     1     -28.718  -2.349  20.850  1.00  0.00     0.000 C 
BRANCH   8   9
ATOM      9  C   UNL     1     -29.151  -1.794  19.484  1.00  0.00     0.000 C 
BRANCH   9  10
ATOM     10  C   UNL     1     -28.945  -2.801  18.340  1.00  0.00     0.000 C 
BRANCH  10  11
ATOM     11  C   UNL     1     -28.352  -2.143  17.075  1.00  0.00     0.000 C 
BRANCH  11  12
ATOM     12  C   UNL     1     -27.886  -3.152  16.006  1.00  0.00     0.006 C 
BRANCH  12  13
ATOM     13  C   UNL     1     -28.558  -2.979  14.635  1.00  0.00     0.053 C 
BRANCH  13  14
ATOM     14  C   UNL     1     -29.748  -3.876  14.472  1.00  0.00     0.041 C 
ATOM     15  O   UNL     1     -30.892  -3.481  14.821  1.00  0.00    -0.550 OA
ATOM     16  O   UNL     1     -29.595  -5.149  13.936  1.00  0.00    -0.550 OA
ENDBRANCH  13  14
ENDBRANCH  12  13
ENDBRANCH  11  12
ENDBRANCH  10  11
ENDBRANCH   9  10
ENDBRANCH   8   9
ENDBRANCH   7   8
ENDBRANCH   6   7
ENDBRANCH   5   6
ENDBRANCH   4   5
ENDBRANCH   3   4
ENDBRANCH   2   3
ENDBRANCH   1   2
BRANCH   1  17
ATOM     17  C   UNL     1     -28.689  -0.780  26.176  1.00  0.00     0.000 C 
BRANCH  17  18
ATOM     18  C   UNL     1     -28.493   0.334  27.216  1.00  0.00     0.000 C 
BRANCH  18  19
ATOM     19  C   UNL     1     -29.798   1.109  27.493  1.00  0.00     0.000 C 
BRANCH  19  20
ATOM     20  C   UNL     1     -30.201   1.125  28.978  1.00  0.00     0.000 C 
BRANCH  20  21
ATOM     21  C   UNL     1     -29.067   0.673  29.911  1.00  0.00     0.000 C 
BRANCH  21  22
ATOM     22  C   UNL     1     -28.993   1.558  31.162  1.00  0.00    -0.000 C 
BRANCH  22  23
ATOM     23  C   UNL     1     -28.214   0.856  32.283  1.00  0.00    -0.000 C 
BRANCH  23  24
ATOM     24  C   UNL     1     -28.326   1.589  33.629  1.00  0.00    -0.000 C 
BRANCH  24  25
ATOM     25  C   UNL     1     -27.951   3.078  33.526  1.00  0.00    -0.000 C 
BRANCH  25  26
ATOM     26  C   UNL     1     -29.145   4.016  33.781  1.00  0.00    -0.000 C 
BRANCH  26  27
ATOM     27  C   UNL     1     -30.493   3.309  34.016  1.00  0.00    -0.000 C 
BRANCH  27  28
ATOM     28  C   UNL     1     -31.403   3.330  32.778  1.00  0.00    -0.000 C 
BRANCH  28  29
ATOM     29  C   UNL     1     -32.418   2.176  32.773  1.00  0.00    -0.003 C 
ATOM     30  C   UNL     1     -31.973   0.986  33.624  1.00  0.00     0.004 C 
ENDBRANCH  28  29
ENDBRANCH  27  28
ENDBRANCH  26  27
ENDBRANCH  25  26
ENDBRANCH  24  25
ENDBRANCH  23  24
ENDBRANCH  22  23
ENDBRANCH  21  22
ENDBRANCH  20  21
ENDBRANCH  19  20
ENDBRANCH  18  19
ENDBRANCH  17  18
ENDBRANCH   1  17
TORSDOF 26
ENDMDL
