MODEL 1
REMARK VINA RESULT:    -7.740      0.000      0.000
REMARK INTER + INTRA:          -9.638
REMARK INTER:                  -9.323
REMARK INTRA:                  -0.314
REMARK UNBOUND:                -0.314
REMARK SMILES O=c1c(O)c(-c2ccc(O)c(O)c2)oc2cc(O)cc(O)c12
REMARK SMILES IDX 5 1 3 2 2 3 1 4 22 5 20 6 19 7 17 8 16 9 15 10 14 11 6 12
REMARK SMILES IDX 7 13 8 14 9 15 13 16 11 17 10 18 12 20 4 22 21 24 18 26
REMARK H PARENT 10 19 12 21 4 23 21 25 18 27
REMARK Flexibility Score: inf
ROOT
ATOM      1  C   UNL     1      15.325 -47.981  70.344  1.00  0.00     0.180 A 
ATOM      2  C   UNL     1      15.319 -48.695  69.133  1.00  0.00     0.208 A 
ATOM      3  C   UNL     1      16.520 -48.832  68.420  1.00  0.00     0.238 A 
ATOM      4  O   UNL     1      16.499 -49.426  67.309  1.00  0.00    -0.285 OA
ATOM      5  C   UNL     1      17.714 -48.270  68.932  1.00  0.00     0.111 A 
ATOM      6  C   UNL     1      18.995 -48.383  68.313  1.00  0.00     0.134 A 
ATOM      7  C   UNL     1      20.082 -47.676  68.841  1.00  0.00     0.093 A 
ATOM      8  C   UNL     1      19.949 -46.912  70.004  1.00  0.00     0.123 A 
ATOM      9  C   UNL     1      18.716 -46.845  70.648  1.00  0.00     0.094 A 
ATOM     10  C   UNL     1      17.605 -47.509  70.126  1.00  0.00     0.146 A 
ATOM     11  O   UNL     1      16.446 -47.409  70.766  1.00  0.00    -0.452 OA
ENDROOT
BRANCH   1  12
ATOM     12  C   UNL     1      14.103 -47.814  71.166  1.00  0.00     0.025 A 
ATOM     13  C   UNL     1      13.656 -48.832  72.027  1.00  0.00     0.016 A 
ATOM     14  C   UNL     1      12.515 -48.642  72.810  1.00  0.00     0.051 A 
ATOM     15  C   UNL     1      11.813 -47.435  72.758  1.00  0.00     0.157 A 
ATOM     16  C   UNL     1      13.408 -46.594  71.131  1.00  0.00     0.062 A 
ATOM     17  C   UNL     1      12.262 -46.403  71.916  1.00  0.00     0.158 A 
BRANCH  15  18
ATOM     18  O   UNL     1      10.676 -47.275  73.549  1.00  0.00    -0.504 OA
ATOM     19  H   UNL     1      10.681 -47.463  74.545  1.00  0.00     0.293 HD
ENDBRANCH  15  18
BRANCH  17  20
ATOM     20  O   UNL     1      11.570 -45.193  71.864  1.00  0.00    -0.504 OA
ATOM     21  H   UNL     1      10.750 -45.027  72.435  1.00  0.00     0.293 HD
ENDBRANCH  17  20
ENDBRANCH   1  12
BRANCH   2  22
ATOM     22  O   UNL     1      14.126 -49.224  68.634  1.00  0.00    -0.502 OA
ATOM     23  H   UNL     1      13.269 -48.686  68.593  1.00  0.00     0.293 HD
ENDBRANCH   2  22
BRANCH   6  24
ATOM     24  O   UNL     1      19.256 -49.192  67.203  1.00  0.00    -0.507 OA
ATOM     25  H   UNL     1      18.815 -50.081  67.024  1.00  0.00     0.293 HD
ENDBRANCH   6  24
BRANCH   8  26
ATOM     26  O   UNL     1      21.039 -46.225  70.531  1.00  0.00    -0.508 OA
ATOM     27  H   UNL     1      21.916 -46.693  70.728  1.00  0.00     0.293 HD
ENDBRANCH   8  26
TORSDOF 6
ENDMDL
MODEL 2
REMARK VINA RESULT:    -7.469      1.285      2.903
REMARK INTER + INTRA:          -9.312
REMARK INTER:                  -9.000
REMARK INTRA:                  -0.312
REMARK UNBOUND:                -0.314
REMARK SMILES O=c1c(O)c(-c2ccc(O)c(O)c2)oc2cc(O)cc(O)c12
REMARK SMILES IDX 5 1 3 2 2 3 1 4 22 5 20 6 19 7 17 8 16 9 15 10 14 11 6 12
REMARK SMILES IDX 7 13 8 14 9 15 13 16 11 17 10 18 12 20 4 22 21 24 18 26
REMARK H PARENT 10 19 12 21 4 23 21 25 18 27
REMARK Flexibility Score: inf
ROOT
ATOM      1  C   UNL     1      15.507 -47.817  70.353  1.00  0.00     0.180 A 
ATOM      2  C   UNL     1      16.757 -47.595  70.957  1.00  0.00     0.208 A 
ATOM      3  C   UNL     1      17.918 -47.698  70.174  1.00  0.00     0.238 A 
ATOM      4  O   UNL     1      19.038 -47.552  70.731  1.00  0.00    -0.285 OA
ATOM      5  C   UNL     1      17.815 -48.005  68.796  1.00  0.00     0.111 A 
ATOM      6  C   UNL     1      18.921 -48.094  67.899  1.00  0.00     0.134 A 
ATOM      7  C   UNL     1      18.713 -48.532  66.586  1.00  0.00     0.093 A 
ATOM      8  C   UNL     1      17.428 -48.821  66.118  1.00  0.00     0.123 A 
ATOM      9  C   UNL     1      16.335 -48.679  66.969  1.00  0.00     0.094 A 
ATOM     10  C   UNL     1      16.515 -48.279  68.294  1.00  0.00     0.146 A 
ATOM     11  O   UNL     1      15.446 -48.167  69.074  1.00  0.00    -0.452 OA
ENDROOT
BRANCH   1  12
ATOM     12  C   UNL     1      14.238 -47.703  71.108  1.00  0.00     0.025 A 
ATOM     13  C   UNL     1      13.742 -48.772  71.873  1.00  0.00     0.016 A 
ATOM     14  C   UNL     1      12.555 -48.633  72.597  1.00  0.00     0.051 A 
ATOM     15  C   UNL     1      11.853 -47.424  72.579  1.00  0.00     0.157 A 
ATOM     16  C   UNL     1      13.541 -46.482  71.108  1.00  0.00     0.062 A 
ATOM     17  C   UNL     1      12.349 -46.341  71.833  1.00  0.00     0.158 A 
BRANCH  15  18
ATOM     18  O   UNL     1      10.670 -47.314  73.308  1.00  0.00    -0.504 OA
ATOM     19  H   UNL     1      10.266 -46.417  73.549  1.00  0.00     0.293 HD
ENDBRANCH  15  18
BRANCH  17  20
ATOM     20  O   UNL     1      11.658 -45.130  71.816  1.00  0.00    -0.504 OA
ATOM     21  H   UNL     1      12.142 -44.242  71.887  1.00  0.00     0.293 HD
ENDBRANCH  17  20
ENDBRANCH   1  12
BRANCH   2  22
ATOM     22  O   UNL     1      16.839 -47.315  72.323  1.00  0.00    -0.502 OA
ATOM     23  H   UNL     1      17.608 -47.635  72.898  1.00  0.00     0.293 HD
ENDBRANCH   2  22
BRANCH   6  24
ATOM     24  O   UNL     1      20.230 -47.740  68.239  1.00  0.00    -0.507 OA
ATOM     25  H   UNL     1      20.998 -48.390  68.321  1.00  0.00     0.293 HD
ENDBRANCH   6  24
BRANCH   8  26
ATOM     26  O   UNL     1      17.229 -49.241  64.805  1.00  0.00    -0.508 OA
ATOM     27  H   UNL     1      16.341 -49.620  64.498  1.00  0.00     0.293 HD
ENDBRANCH   8  26
TORSDOF 6
ENDMDL
MODEL 3
REMARK VINA RESULT:    -7.430      2.326      6.785
REMARK INTER + INTRA:          -9.265
REMARK INTER:                  -8.987
REMARK INTRA:                  -0.277
REMARK UNBOUND:                -0.314
REMARK SMILES O=c1c(O)c(-c2ccc(O)c(O)c2)oc2cc(O)cc(O)c12
REMARK SMILES IDX 5 1 3 2 2 3 1 4 22 5 20 6 19 7 17 8 16 9 15 10 14 11 6 12
REMARK SMILES IDX 7 13 8 14 9 15 13 16 11 17 10 18 12 20 4 22 21 24 18 26
REMARK H PARENT 10 19 12 21 4 23 21 25 18 27
REMARK Flexibility Score: inf
ROOT
ATOM      1  C   UNL     1      16.291 -47.386  70.308  1.00  0.00     0.180 A 
ATOM      2  C   UNL     1      16.889 -48.353  71.135  1.00  0.00     0.208 A 
ATOM      3  C   UNL     1      16.097 -49.023  72.081  1.00  0.00     0.238 A 
ATOM      4  O   UNL     1      16.648 -49.848  72.856  1.00  0.00    -0.285 OA
ATOM      5  C   UNL     1      14.715 -48.731  72.177  1.00  0.00     0.111 A 
ATOM      6  C   UNL     1      13.809 -49.378  73.070  1.00  0.00     0.134 A 
ATOM      7  C   UNL     1      12.491 -48.918  73.170  1.00  0.00     0.093 A 
ATOM      8  C   UNL     1      12.028 -47.876  72.362  1.00  0.00     0.123 A 
ATOM      9  C   UNL     1      12.888 -47.279  71.444  1.00  0.00     0.094 A 
ATOM     10  C   UNL     1      14.218 -47.692  71.346  1.00  0.00     0.146 A 
ATOM     11  O   UNL     1      15.007 -47.088  70.466  1.00  0.00    -0.452 OA
ENDROOT
BRANCH   1  12
ATOM     12  C   UNL     1      17.056 -46.656  69.271  1.00  0.00     0.025 A 
ATOM     13  C   UNL     1      17.921 -45.600  69.608  1.00  0.00     0.016 A 
ATOM     14  C   UNL     1      18.651 -44.942  68.615  1.00  0.00     0.051 A 
ATOM     15  C   UNL     1      18.542 -45.334  67.278  1.00  0.00     0.157 A 
ATOM     16  C   UNL     1      16.964 -47.062  67.929  1.00  0.00     0.062 A 
ATOM     17  C   UNL     1      17.696 -46.402  66.932  1.00  0.00     0.158 A 
BRANCH  15  18
ATOM     18  O   UNL     1      19.281 -44.657  66.309  1.00  0.00    -0.504 OA
ATOM     19  H   UNL     1      20.291 -44.720  66.259  1.00  0.00     0.293 HD
ENDBRANCH  15  18
BRANCH  17  20
ATOM     20  O   UNL     1      17.587 -46.803  65.601  1.00  0.00    -0.504 OA
ATOM     21  H   UNL     1      17.371 -47.761  65.352  1.00  0.00     0.293 HD
ENDBRANCH  17  20
ENDBRANCH   1  12
BRANCH   2  22
ATOM     22  O   UNL     1      18.260 -48.610  71.040  1.00  0.00    -0.502 OA
ATOM     23  H   UNL     1      18.720 -48.780  70.155  1.00  0.00     0.293 HD
ENDBRANCH   2  22
BRANCH   6  24
ATOM     24  O   UNL     1      14.145 -50.485  73.854  1.00  0.00    -0.507 OA
ATOM     25  H   UNL     1      15.085 -50.740  74.117  1.00  0.00     0.293 HD
ENDBRANCH   6  24
BRANCH   8  26
ATOM     26  O   UNL     1      10.710 -47.436  72.457  1.00  0.00    -0.508 OA
ATOM     27  H   UNL     1      10.381 -46.916  73.261  1.00  0.00     0.293 HD
ENDBRANCH   8  26
TORSDOF 6
ENDMDL
MODEL 4
REMARK VINA RESULT:    -7.392      1.907      6.972
REMARK INTER + INTRA:          -9.219
REMARK INTER:                  -9.132
REMARK INTRA:                  -0.088
REMARK UNBOUND:                -0.314
REMARK SMILES O=c1c(O)c(-c2ccc(O)c(O)c2)oc2cc(O)cc(O)c12
REMARK SMILES IDX 5 1 3 2 2 3 1 4 22 5 20 6 19 7 17 8 16 9 15 10 14 11 6 12
REMARK SMILES IDX 7 13 8 14 9 15 13 16 11 17 10 18 12 20 4 22 21 24 18 26
REMARK H PARENT 10 19 12 21 4 23 21 25 18 27
REMARK Flexibility Score: inf
ROOT
ATOM      1  C   UNL     1      16.110 -47.348  70.682  1.00  0.00     0.180 A 
ATOM      2  C   UNL     1      16.091 -48.550  71.412  1.00  0.00     0.208 A 
ATOM      3  C   UNL     1      14.940 -48.881  72.145  1.00  0.00     0.238 A 
ATOM      4  O   UNL     1      14.948 -49.931  72.840  1.00  0.00    -0.285 OA
ATOM      5  C   UNL     1      13.819 -48.017  72.127  1.00  0.00     0.111 A 
ATOM      6  C   UNL     1      12.587 -48.274  72.799  1.00  0.00     0.134 A 
ATOM      7  C   UNL     1      11.592 -47.288  72.819  1.00  0.00     0.093 A 
ATOM      8  C   UNL     1      11.760 -46.081  72.134  1.00  0.00     0.123 A 
ATOM      9  C   UNL     1      12.936 -45.847  71.425  1.00  0.00     0.094 A 
ATOM     10  C   UNL     1      13.960 -46.796  71.417  1.00  0.00     0.146 A 
ATOM     11  O   UNL     1      15.068 -46.527  70.737  1.00  0.00    -0.452 OA
ENDROOT
BRANCH   1  12
ATOM     12  C   UNL     1      17.277 -46.942  69.866  1.00  0.00     0.025 A 
ATOM     13  C   UNL     1      17.156 -46.697  68.487  1.00  0.00     0.016 A 
ATOM     14  C   UNL     1      18.266 -46.291  67.742  1.00  0.00     0.051 A 
ATOM     15  C   UNL     1      19.506 -46.110  68.360  1.00  0.00     0.157 A 
ATOM     16  C   UNL     1      18.520 -46.739  70.489  1.00  0.00     0.062 A 
ATOM     17  C   UNL     1      19.635 -46.333  69.742  1.00  0.00     0.158 A 
BRANCH  15  18
ATOM     18  O   UNL     1      20.597 -45.707  67.591  1.00  0.00    -0.504 OA
ATOM     19  H   UNL     1      20.610 -45.802  66.582  1.00  0.00     0.293 HD
ENDBRANCH  15  18
BRANCH  17  20
ATOM     20  O   UNL     1      20.868 -46.148  70.367  1.00  0.00    -0.504 OA
ATOM     21  H   UNL     1      21.607 -46.837  70.294  1.00  0.00     0.293 HD
ENDBRANCH  17  20
ENDBRANCH   1  12
BRANCH   2  22
ATOM     22  O   UNL     1      17.216 -49.377  71.435  1.00  0.00    -0.502 OA
ATOM     23  H   UNL     1      18.029 -49.205  70.857  1.00  0.00     0.293 HD
ENDBRANCH   2  22
BRANCH   6  24
ATOM     24  O   UNL     1      12.281 -49.480  73.435  1.00  0.00    -0.507 OA
ATOM     25  H   UNL     1      12.324 -50.388  72.997  1.00  0.00     0.293 HD
ENDBRANCH   6  24
BRANCH   8  26
ATOM     26  O   UNL     1      10.759 -45.113  72.146  1.00  0.00    -0.508 OA
ATOM     27  H   UNL     1      10.952 -44.153  72.404  1.00  0.00     0.293 HD
ENDBRANCH   8  26
TORSDOF 6
ENDMDL
MODEL 5
REMARK VINA RESULT:    -7.328      5.311      7.936
REMARK INTER + INTRA:          -9.142
REMARK INTER:                  -8.838
REMARK INTRA:                  -0.304
REMARK UNBOUND:                -0.314
REMARK SMILES O=c1c(O)c(-c2ccc(O)c(O)c2)oc2cc(O)cc(O)c12
REMARK SMILES IDX 5 1 3 2 2 3 1 4 22 5 20 6 19 7 17 8 16 9 15 10 14 11 6 12
REMARK SMILES IDX 7 13 8 14 9 15 13 16 11 17 10 18 12 20 4 22 21 24 18 26
REMARK H PARENT 10 19 12 21 4 23 21 25 18 27
REMARK Flexibility Score: inf
ROOT
ATOM      1  C   UNL     1      20.496 -46.475  68.118  1.00  0.00     0.180 A 
ATOM      2  C   UNL     1      19.581 -45.818  67.276  1.00  0.00     0.208 A 
ATOM      3  C   UNL     1      18.567 -46.566  66.658  1.00  0.00     0.238 A 
ATOM      4  O   UNL     1      17.785 -45.983  65.862  1.00  0.00    -0.285 OA
ATOM      5  C   UNL     1      18.469 -47.957  66.901  1.00  0.00     0.111 A 
ATOM      6  C   UNL     1      17.457 -48.806  66.361  1.00  0.00     0.134 A 
ATOM      7  C   UNL     1      17.533 -50.189  66.564  1.00  0.00     0.093 A 
ATOM      8  C   UNL     1      18.550 -50.747  67.344  1.00  0.00     0.123 A 
ATOM      9  C   UNL     1      19.508 -49.920  67.925  1.00  0.00     0.094 A 
ATOM     10  C   UNL     1      19.479 -48.541  67.711  1.00  0.00     0.146 A 
ATOM     11  O   UNL     1      20.418 -47.790  68.275  1.00  0.00    -0.452 OA
ENDROOT
BRANCH   1  12
ATOM     12  C   UNL     1      21.577 -45.749  68.824  1.00  0.00     0.025 A 
ATOM     13  C   UNL     1      21.446 -45.372  70.171  1.00  0.00     0.016 A 
ATOM     14  C   UNL     1      22.489 -44.710  70.824  1.00  0.00     0.051 A 
ATOM     15  C   UNL     1      23.680 -44.428  70.149  1.00  0.00     0.157 A 
ATOM     16  C   UNL     1      22.783 -45.483  68.154  1.00  0.00     0.062 A 
ATOM     17  C   UNL     1      23.831 -44.818  68.807  1.00  0.00     0.158 A 
BRANCH  15  18
ATOM     18  O   UNL     1      24.703 -43.764  70.825  1.00  0.00    -0.504 OA
ATOM     19  H   UNL     1      24.766 -43.757  71.836  1.00  0.00     0.293 HD
ENDBRANCH  15  18
BRANCH  17  20
ATOM     20  O   UNL     1      25.018 -44.546  68.130  1.00  0.00    -0.504 OA
ATOM     21  H   UNL     1      25.268 -43.603  67.855  1.00  0.00     0.293 HD
ENDBRANCH  17  20
ENDBRANCH   1  12
BRANCH   2  22
ATOM     22  O   UNL     1      19.709 -44.448  67.031  1.00  0.00    -0.502 OA
ATOM     23  H   UNL     1      19.709 -44.061  66.096  1.00  0.00     0.293 HD
ENDBRANCH   2  22
BRANCH   6  24
ATOM     24  O   UNL     1      16.349 -48.341  65.646  1.00  0.00    -0.507 OA
ATOM     25  H   UNL     1      16.297 -48.285  64.640  1.00  0.00     0.293 HD
ENDBRANCH   6  24
BRANCH   8  26
ATOM     26  O   UNL     1      18.610 -52.123  67.554  1.00  0.00    -0.508 OA
ATOM     27  H   UNL     1      19.481 -52.587  67.781  1.00  0.00     0.293 HD
ENDBRANCH   8  26
TORSDOF 6
ENDMDL
MODEL 6
REMARK VINA RESULT:    -7.164      2.618      4.633
REMARK INTER + INTRA:          -8.945
REMARK INTER:                  -8.625
REMARK INTRA:                  -0.320
REMARK UNBOUND:                -0.314
REMARK SMILES O=c1c(O)c(-c2ccc(O)c(O)c2)oc2cc(O)cc(O)c12
REMARK SMILES IDX 5 1 3 2 2 3 1 4 22 5 20 6 19 7 17 8 16 9 15 10 14 11 6 12
REMARK SMILES IDX 7 13 8 14 9 15 13 16 11 17 10 18 12 20 4 22 21 24 18 26
REMARK H PARENT 10 19 12 21 4 23 21 25 18 27
REMARK Flexibility Score: inf
ROOT
ATOM      1  C   UNL     1      19.289 -46.778  69.522  1.00  0.00     0.180 A 
ATOM      2  C   UNL     1      19.514 -47.166  68.189  1.00  0.00     0.208 A 
ATOM      3  C   UNL     1      20.740 -46.844  67.586  1.00  0.00     0.238 A 
ATOM      4  O   UNL     1      20.916 -47.146  66.376  1.00  0.00    -0.285 OA
ATOM      5  C   UNL     1      21.732 -46.155  68.326  1.00  0.00     0.111 A 
ATOM      6  C   UNL     1      23.025 -45.815  67.828  1.00  0.00     0.134 A 
ATOM      7  C   UNL     1      23.876 -45.019  68.603  1.00  0.00     0.093 A 
ATOM      8  C   UNL     1      23.506 -44.605  69.886  1.00  0.00     0.123 A 
ATOM      9  C   UNL     1      22.269 -44.983  70.404  1.00  0.00     0.094 A 
ATOM     10  C   UNL     1      21.384 -45.747  69.640  1.00  0.00     0.146 A 
ATOM     11  O   UNL     1      20.211 -46.076  70.168  1.00  0.00    -0.452 OA
ENDROOT
BRANCH   1  12
ATOM     12  C   UNL     1      18.031 -47.102  70.233  1.00  0.00     0.025 A 
ATOM     13  C   UNL     1      16.902 -46.269  70.141  1.00  0.00     0.016 A 
ATOM     14  C   UNL     1      15.719 -46.607  70.802  1.00  0.00     0.051 A 
ATOM     15  C   UNL     1      15.638 -47.786  71.550  1.00  0.00     0.157 A 
ATOM     16  C   UNL     1      17.940 -48.296  70.969  1.00  0.00     0.062 A 
ATOM     17  C   UNL     1      16.753 -48.637  71.633  1.00  0.00     0.158 A 
BRANCH  15  18
ATOM     18  O   UNL     1      14.444 -48.097  72.200  1.00  0.00    -0.504 OA
ATOM     19  H   UNL     1      14.402 -48.264  73.199  1.00  0.00     0.293 HD
ENDBRANCH  15  18
BRANCH  17  20
ATOM     20  O   UNL     1      16.677 -49.817  72.372  1.00  0.00    -0.504 OA
ATOM     21  H   UNL     1      17.501 -50.374  72.567  1.00  0.00     0.293 HD
ENDBRANCH  17  20
ENDBRANCH   1  12
BRANCH   2  22
ATOM     22  O   UNL     1      18.514 -47.825  67.470  1.00  0.00    -0.502 OA
ATOM     23  H   UNL     1      18.325 -48.813  67.584  1.00  0.00     0.293 HD
ENDBRANCH   2  22
BRANCH   6  24
ATOM     24  O   UNL     1      23.528 -46.253  66.599  1.00  0.00    -0.507 OA
ATOM     25  H   UNL     1      24.499 -46.454  66.415  1.00  0.00     0.293 HD
ENDBRANCH   6  24
BRANCH   8  26
ATOM     26  O   UNL     1      24.366 -43.826  70.657  1.00  0.00    -0.508 OA
ATOM     27  H   UNL     1      24.760 -42.963  70.303  1.00  0.00     0.293 HD
ENDBRANCH   8  26
TORSDOF 6
ENDMDL
MODEL 7
REMARK VINA RESULT:    -6.990      1.530      7.010
REMARK INTER + INTRA:          -8.735
REMARK INTER:                  -8.400
REMARK INTRA:                  -0.335
REMARK UNBOUND:                -0.314
REMARK SMILES O=c1c(O)c(-c2ccc(O)c(O)c2)oc2cc(O)cc(O)c12
REMARK SMILES IDX 5 1 3 2 2 3 1 4 22 5 20 6 19 7 17 8 16 9 15 10 14 11 6 12
REMARK SMILES IDX 7 13 8 14 9 15 13 16 11 17 10 18 12 20 4 22 21 24 18 26
REMARK H PARENT 10 19 12 21 4 23 21 25 18 27
REMARK Flexibility Score: inf
ROOT
ATOM      1  C   UNL     1      16.151 -47.193  69.956  1.00  0.00     0.180 A 
ATOM      2  C   UNL     1      15.277 -46.143  69.624  1.00  0.00     0.208 A 
ATOM      3  C   UNL     1      14.012 -46.095  70.230  1.00  0.00     0.238 A 
ATOM      4  O   UNL     1      13.213 -45.184  69.888  1.00  0.00    -0.285 OA
ATOM      5  C   UNL     1      13.641 -47.086  71.171  1.00  0.00     0.111 A 
ATOM      6  C   UNL     1      12.401 -47.112  71.875  1.00  0.00     0.134 A 
ATOM      7  C   UNL     1      12.089 -48.211  72.685  1.00  0.00     0.093 A 
ATOM      8  C   UNL     1      13.002 -49.254  72.866  1.00  0.00     0.123 A 
ATOM      9  C   UNL     1      14.240 -49.208  72.229  1.00  0.00     0.094 A 
ATOM     10  C   UNL     1      14.565 -48.142  71.388  1.00  0.00     0.146 A 
ATOM     11  O   UNL     1      15.751 -48.143  70.792  1.00  0.00    -0.452 OA
ENDROOT
BRANCH   1  12
ATOM     12  C   UNL     1      17.511 -47.298  69.377  1.00  0.00     0.025 A 
ATOM     13  C   UNL     1      18.613 -46.666  69.979  1.00  0.00     0.016 A 
ATOM     14  C   UNL     1      19.890 -46.799  69.430  1.00  0.00     0.051 A 
ATOM     15  C   UNL     1      20.090 -47.574  68.283  1.00  0.00     0.157 A 
ATOM     16  C   UNL     1      17.718 -48.092  68.237  1.00  0.00     0.062 A 
ATOM     17  C   UNL     1      18.999 -48.227  67.684  1.00  0.00     0.158 A 
BRANCH  15  18
ATOM     18  O   UNL     1      21.376 -47.686  67.755  1.00  0.00    -0.504 OA
ATOM     19  H   UNL     1      22.203 -47.471  68.299  1.00  0.00     0.293 HD
ENDBRANCH  15  18
BRANCH  17  20
ATOM     20  O   UNL     1      19.193 -49.006  66.544  1.00  0.00    -0.504 OA
ATOM     21  H   UNL     1      19.892 -49.738  66.515  1.00  0.00     0.293 HD
ENDBRANCH  17  20
ENDBRANCH   1  12
BRANCH   2  22
ATOM     22  O   UNL     1      15.653 -45.188  68.676  1.00  0.00    -0.502 OA
ATOM     23  H   UNL     1      15.761 -44.207  68.906  1.00  0.00     0.293 HD
ENDBRANCH   2  22
BRANCH   6  24
ATOM     24  O   UNL     1      11.460 -46.079  71.836  1.00  0.00    -0.507 OA
ATOM     25  H   UNL     1      11.060 -45.698  70.992  1.00  0.00     0.293 HD
ENDBRANCH   6  24
BRANCH   8  26
ATOM     26  O   UNL     1      12.690 -50.336  73.686  1.00  0.00    -0.508 OA
ATOM     27  H   UNL     1      12.489 -51.251  73.302  1.00  0.00     0.293 HD
ENDBRANCH   8  26
TORSDOF 6
ENDMDL
MODEL 8
REMARK VINA RESULT:    -6.906      1.920      2.868
REMARK INTER + INTRA:          -8.634
REMARK INTER:                  -8.339
REMARK INTRA:                  -0.295
REMARK UNBOUND:                -0.314
REMARK SMILES O=c1c(O)c(-c2ccc(O)c(O)c2)oc2cc(O)cc(O)c12
REMARK SMILES IDX 5 1 3 2 2 3 1 4 22 5 20 6 19 7 17 8 16 9 15 10 14 11 6 12
REMARK SMILES IDX 7 13 8 14 9 15 13 16 11 17 10 18 12 20 4 22 21 24 18 26
REMARK H PARENT 10 19 12 21 4 23 21 25 18 27
REMARK Flexibility Score: inf
ROOT
ATOM      1  C   UNL     1      17.830 -47.825  70.051  1.00  0.00     0.180 A 
ATOM      2  C   UNL     1      18.245 -48.554  68.923  1.00  0.00     0.208 A 
ATOM      3  C   UNL     1      19.413 -48.160  68.251  1.00  0.00     0.238 A 
ATOM      4  O   UNL     1      19.750 -48.782  67.210  1.00  0.00    -0.285 OA
ATOM      5  C   UNL     1      20.160 -47.055  68.724  1.00  0.00     0.111 A 
ATOM      6  C   UNL     1      21.381 -46.594  68.146  1.00  0.00     0.134 A 
ATOM      7  C   UNL     1      21.965 -45.412  68.617  1.00  0.00     0.093 A 
ATOM      8  C   UNL     1      21.408 -44.710  69.689  1.00  0.00     0.123 A 
ATOM      9  C   UNL     1      20.249 -45.186  70.299  1.00  0.00     0.094 A 
ATOM     10  C   UNL     1      19.624 -46.342  69.828  1.00  0.00     0.146 A 
ATOM     11  O   UNL     1      18.515 -46.754  70.432  1.00  0.00    -0.452 OA
ENDROOT
BRANCH   1  12
ATOM     12  C   UNL     1      16.622 -48.194  70.826  1.00  0.00     0.025 A 
ATOM     13  C   UNL     1      16.719 -48.890  72.044  1.00  0.00     0.016 A 
ATOM     14  C   UNL     1      15.568 -49.206  72.769  1.00  0.00     0.051 A 
ATOM     15  C   UNL     1      14.308 -48.821  72.301  1.00  0.00     0.157 A 
ATOM     16  C   UNL     1      15.357 -47.791  70.368  1.00  0.00     0.062 A 
ATOM     17  C   UNL     1      14.200 -48.107  71.095  1.00  0.00     0.158 A 
BRANCH  15  18
ATOM     18  O   UNL     1      13.176 -49.152  73.046  1.00  0.00    -0.504 OA
ATOM     19  H   UNL     1      13.182 -49.167  74.059  1.00  0.00     0.293 HD
ENDBRANCH  15  18
BRANCH  17  20
ATOM     20  O   UNL     1      12.948 -47.715  70.626  1.00  0.00    -0.504 OA
ATOM     21  H   UNL     1      12.675 -47.856  69.660  1.00  0.00     0.293 HD
ENDBRANCH  17  20
ENDBRANCH   1  12
BRANCH   2  22
ATOM     22  O   UNL     1      17.480 -49.628  68.459  1.00  0.00    -0.502 OA
ATOM     23  H   UNL     1      16.954 -49.587  67.595  1.00  0.00     0.293 HD
ENDBRANCH   2  22
BRANCH   6  24
ATOM     24  O   UNL     1      22.068 -47.269  67.133  1.00  0.00    -0.507 OA
ATOM     25  H   UNL     1      21.700 -48.050  66.611  1.00  0.00     0.293 HD
ENDBRANCH   6  24
BRANCH   8  26
ATOM     26  O   UNL     1      22.005 -43.544  70.162  1.00  0.00    -0.508 OA
ATOM     27  H   UNL     1      21.534 -42.649  70.112  1.00  0.00     0.293 HD
ENDBRANCH   8  26
TORSDOF 6
ENDMDL
MODEL 9
REMARK VINA RESULT:    -6.860      3.166      7.701
REMARK INTER + INTRA:          -8.578
REMARK INTER:                  -8.271
REMARK INTRA:                  -0.307
REMARK UNBOUND:                -0.314
REMARK SMILES O=c1c(O)c(-c2ccc(O)c(O)c2)oc2cc(O)cc(O)c12
REMARK SMILES IDX 5 1 3 2 2 3 1 4 22 5 20 6 19 7 17 8 16 9 15 10 14 11 6 12
REMARK SMILES IDX 7 13 8 14 9 15 13 16 11 17 10 18 12 20 4 22 21 24 18 26
REMARK H PARENT 10 19 12 21 4 23 21 25 18 27
REMARK Flexibility Score: inf
ROOT
ATOM      1  C   UNL     1      19.963 -45.423  68.889  1.00  0.00     0.180 A 
ATOM      2  C   UNL     1      19.565 -46.069  67.705  1.00  0.00     0.208 A 
ATOM      3  C   UNL     1      18.588 -47.074  67.775  1.00  0.00     0.238 A 
ATOM      4  O   UNL     1      18.275 -47.687  66.720  1.00  0.00    -0.285 OA
ATOM      5  C   UNL     1      18.009 -47.410  69.022  1.00  0.00     0.111 A 
ATOM      6  C   UNL     1      16.981 -48.384  69.204  1.00  0.00     0.134 A 
ATOM      7  C   UNL     1      16.575 -48.727  70.499  1.00  0.00     0.093 A 
ATOM      8  C   UNL     1      17.114 -48.084  71.617  1.00  0.00     0.123 A 
ATOM      9  C   UNL     1      18.075 -47.090  71.446  1.00  0.00     0.094 A 
ATOM     10  C   UNL     1      18.525 -46.751  70.169  1.00  0.00     0.146 A 
ATOM     11  O   UNL     1      19.450 -45.805  70.052  1.00  0.00    -0.452 OA
ENDROOT
BRANCH   1  12
ATOM     12  C   UNL     1      20.970 -44.337  68.893  1.00  0.00     0.025 A 
ATOM     13  C   UNL     1      20.631 -43.024  68.524  1.00  0.00     0.016 A 
ATOM     14  C   UNL     1      21.592 -42.010  68.558  1.00  0.00     0.051 A 
ATOM     15  C   UNL     1      22.898 -42.286  68.974  1.00  0.00     0.157 A 
ATOM     16  C   UNL     1      22.278 -44.607  69.330  1.00  0.00     0.062 A 
ATOM     17  C   UNL     1      23.243 -43.592  69.364  1.00  0.00     0.158 A 
BRANCH  15  18
ATOM     18  O   UNL     1      23.836 -41.255  68.996  1.00  0.00    -0.504 OA
ATOM     19  H   UNL     1      23.580 -40.297  69.202  1.00  0.00     0.293 HD
ENDBRANCH  15  18
BRANCH  17  20
ATOM     20  O   UNL     1      24.542 -43.873  69.786  1.00  0.00    -0.504 OA
ATOM     21  H   UNL     1      25.190 -43.135  70.036  1.00  0.00     0.293 HD
ENDBRANCH  17  20
ENDBRANCH   1  12
BRANCH   2  22
ATOM     22  O   UNL     1      20.165 -45.738  66.487  1.00  0.00    -0.502 OA
ATOM     23  H   UNL     1      21.143 -45.917  66.297  1.00  0.00     0.293 HD
ENDBRANCH   2  22
BRANCH   6  24
ATOM     24  O   UNL     1      16.314 -49.018  68.152  1.00  0.00    -0.507 OA
ATOM     25  H   UNL     1      16.476 -49.969  67.859  1.00  0.00     0.293 HD
ENDBRANCH   6  24
BRANCH   8  26
ATOM     26  O   UNL     1      16.693 -48.421  72.901  1.00  0.00    -0.508 OA
ATOM     27  H   UNL     1      17.290 -48.936  73.537  1.00  0.00     0.293 HD
ENDBRANCH   8  26
TORSDOF 6
ENDMDL
