MODEL 1
REMARK VINA RESULT:    -4.921      0.000      0.000
REMARK INTER + INTRA:          -5.065
REMARK INTER:                  -5.065
REMARK INTRA:                   0.000
REMARK UNBOUND:                 0.000
REMARK SMILES Oc1ccc2[nH]ccc2c1
REMARK SMILES IDX 3 1 4 2 5 3 9 4 8 5 7 6 6 7 10 8 2 9 1 11
REMARK H PARENT 6 10 1 12
REMARK Flexibility Score: inf
ROOT
ATOM      1  C   UNL     1      13.061 -12.938  12.552  1.00  0.00     0.048 A 
ATOM      2  C   UNL     1      14.435 -13.210  12.417  1.00  0.00     0.030 A 
ATOM      3  C   UNL     1      15.311 -12.129  12.375  1.00  0.00     0.046 A 
ATOM      4  C   UNL     1      14.866 -10.837  12.463  1.00  0.00     0.003 A 
ATOM      5  C   UNL     1      15.969 -10.014  12.391  1.00  0.00     0.028 A 
ATOM      6  C   UNL     1      17.055 -10.875  12.261  1.00  0.00     0.083 A 
ATOM      7  N   UNL     1      16.648 -12.164  12.252  1.00  0.00    -0.361 N 
ATOM      8  C   UNL     1      13.514 -10.533  12.597  1.00  0.00     0.056 A 
ATOM      9  C   UNL     1      12.597 -11.605  12.643  1.00  0.00     0.116 A 
ATOM     10  H   UNL     1      17.253 -13.012  12.166  1.00  0.00     0.166 HD
ENDROOT
BRANCH   9  11
ATOM     11  O   UNL     1      11.232 -11.362  12.776  1.00  0.00    -0.508 OA
ATOM     12  H   UNL     1      10.567 -12.121  12.874  1.00  0.00     0.293 HD
ENDBRANCH   9  11
TORSDOF 1
ENDMDL
MODEL 2
REMARK VINA RESULT:    -4.900      2.555      3.369
REMARK INTER + INTRA:          -5.043
REMARK INTER:                  -5.043
REMARK INTRA:                   0.000
REMARK UNBOUND:                 0.000
REMARK SMILES Oc1ccc2[nH]ccc2c1
REMARK SMILES IDX 3 1 4 2 5 3 9 4 8 5 7 6 6 7 10 8 2 9 1 11
REMARK H PARENT 6 10 1 12
REMARK Flexibility Score: inf
ROOT
ATOM      1  C   UNL     1      14.371 -13.340  12.704  1.00  0.00     0.048 A 
ATOM      2  C   UNL     1      13.104 -12.740  12.821  1.00  0.00     0.030 A 
ATOM      3  C   UNL     1      13.037 -11.349  12.783  1.00  0.00     0.046 A 
ATOM      4  C   UNL     1      14.159 -10.578  12.634  1.00  0.00     0.003 A 
ATOM      5  C   UNL     1      13.756  -9.260  12.634  1.00  0.00     0.028 A 
ATOM      6  C   UNL     1      12.374  -9.303  12.786  1.00  0.00     0.083 A 
ATOM      7  N   UNL     1      11.940 -10.581  12.876  1.00  0.00    -0.361 N 
ATOM      8  C   UNL     1      15.427 -11.140  12.515  1.00  0.00     0.056 A 
ATOM      9  C   UNL     1      15.532 -12.547  12.550  1.00  0.00     0.116 A 
ATOM     10  H   UNL     1      10.952 -10.900  12.994  1.00  0.00     0.166 HD
ENDROOT
BRANCH   9  11
ATOM     11  O   UNL     1      16.774 -13.166  12.436  1.00  0.00    -0.508 OA
ATOM     12  H   UNL     1      17.049 -13.920  13.055  1.00  0.00     0.293 HD
ENDBRANCH   9  11
TORSDOF 1
ENDMDL
MODEL 3
REMARK VINA RESULT:    -4.868      2.609      4.064
REMARK INTER + INTRA:          -5.010
REMARK INTER:                  -5.010
REMARK INTRA:                   0.000
REMARK UNBOUND:                 0.000
REMARK SMILES Oc1ccc2[nH]ccc2c1
REMARK SMILES IDX 3 1 4 2 5 3 9 4 8 5 7 6 6 7 10 8 2 9 1 11
REMARK H PARENT 6 10 1 12
REMARK Flexibility Score: inf
ROOT
ATOM      1  C   UNL     1      15.707  -9.792  12.499  1.00  0.00     0.048 A 
ATOM      2  C   UNL     1      14.304  -9.752  12.592  1.00  0.00     0.030 A 
ATOM      3  C   UNL     1      13.617 -10.965  12.580  1.00  0.00     0.046 A 
ATOM      4  C   UNL     1      14.272 -12.162  12.483  1.00  0.00     0.003 A 
ATOM      5  C   UNL     1      13.318 -13.157  12.499  1.00  0.00     0.028 A 
ATOM      6  C   UNL     1      12.102 -12.490  12.608  1.00  0.00     0.083 A 
ATOM      7  N   UNL     1      12.289 -11.152  12.657  1.00  0.00    -0.361 N 
ATOM      8  C   UNL     1      15.660 -12.237  12.390  1.00  0.00     0.056 A 
ATOM      9  C   UNL     1      16.388 -11.028  12.399  1.00  0.00     0.116 A 
ATOM     10  H   UNL     1      11.550 -10.418  12.738  1.00  0.00     0.166 HD
ENDROOT
BRANCH   9  11
ATOM     11  O   UNL     1      17.777 -11.040  12.309  1.00  0.00    -0.508 OA
ATOM     12  H   UNL     1      18.343 -10.333  12.765  1.00  0.00     0.293 HD
ENDBRANCH   9  11
TORSDOF 1
ENDMDL
MODEL 4
REMARK VINA RESULT:    -4.592      2.858      4.288
REMARK INTER + INTRA:          -4.727
REMARK INTER:                  -4.727
REMARK INTRA:                   0.000
REMARK UNBOUND:                 0.000
REMARK SMILES Oc1ccc2[nH]ccc2c1
REMARK SMILES IDX 3 1 4 2 5 3 9 4 8 5 7 6 6 7 10 8 2 9 1 11
REMARK H PARENT 6 10 1 12
REMARK Flexibility Score: inf
ROOT
ATOM      1  C   UNL     1      17.710  -7.899  13.613  1.00  0.00     0.048 A 
ATOM      2  C   UNL     1      18.123  -9.211  13.318  1.00  0.00     0.030 A 
ATOM      3  C   UNL     1      17.191 -10.072  12.743  1.00  0.00     0.046 A 
ATOM      4  C   UNL     1      15.913  -9.669  12.467  1.00  0.00     0.003 A 
ATOM      5  C   UNL     1      15.253 -10.742  11.909  1.00  0.00     0.028 A 
ATOM      6  C   UNL     1      16.193 -11.768  11.875  1.00  0.00     0.083 A 
ATOM      7  N   UNL     1      17.375 -11.354  12.385  1.00  0.00    -0.361 N 
ATOM      8  C   UNL     1      15.472  -8.378  12.746  1.00  0.00     0.056 A 
ATOM      9  C   UNL     1      16.390  -7.478  13.329  1.00  0.00     0.116 A 
ATOM     10  H   UNL     1      18.249 -11.918  12.480  1.00  0.00     0.166 HD
ENDROOT
BRANCH   9  11
ATOM     11  O   UNL     1      16.006  -6.174  13.631  1.00  0.00    -0.508 OA
ATOM     12  H   UNL     1      15.037  -5.935  13.807  1.00  0.00     0.293 HD
ENDBRANCH   9  11
TORSDOF 1
ENDMDL
MODEL 5
REMARK VINA RESULT:    -4.514      3.686      4.911
REMARK INTER + INTRA:          -4.646
REMARK INTER:                  -4.646
REMARK INTRA:                   0.000
REMARK UNBOUND:                 0.000
REMARK SMILES Oc1ccc2[nH]ccc2c1
REMARK SMILES IDX 3 1 4 2 5 3 9 4 8 5 7 6 6 7 10 8 2 9 1 11
REMARK H PARENT 6 10 1 12
REMARK Flexibility Score: inf
ROOT
ATOM      1  C   UNL     1      15.817  -9.861  12.220  1.00  0.00     0.048 A 
ATOM      2  C   UNL     1      15.212  -8.662  12.640  1.00  0.00     0.030 A 
ATOM      3  C   UNL     1      15.981  -7.773  13.389  1.00  0.00     0.046 A 
ATOM      4  C   UNL     1      17.283  -8.044  13.711  1.00  0.00     0.003 A 
ATOM      5  C   UNL     1      17.755  -6.978  14.447  1.00  0.00     0.028 A 
ATOM      6  C   UNL     1      16.684  -6.094  14.532  1.00  0.00     0.083 A 
ATOM      7  N   UNL     1      15.603  -6.584  13.884  1.00  0.00    -0.361 N 
ATOM      8  C   UNL     1      17.912  -9.220  13.312  1.00  0.00     0.056 A 
ATOM      9  C   UNL     1      17.162 -10.144  12.552  1.00  0.00     0.116 A 
ATOM     10  H   UNL     1      14.668  -6.128  13.792  1.00  0.00     0.166 HD
ENDROOT
BRANCH   9  11
ATOM     11  O   UNL     1      17.738 -11.337  12.124  1.00  0.00    -0.508 OA
ATOM     12  H   UNL     1      17.729 -12.167  12.706  1.00  0.00     0.293 HD
ENDBRANCH   9  11
TORSDOF 1
ENDMDL
MODEL 6
REMARK VINA RESULT:    -4.511      1.756      3.095
REMARK INTER + INTRA:          -4.643
REMARK INTER:                  -4.643
REMARK INTRA:                   0.000
REMARK UNBOUND:                 0.000
REMARK SMILES Oc1ccc2[nH]ccc2c1
REMARK SMILES IDX 3 1 4 2 5 3 9 4 8 5 7 6 6 7 10 8 2 9 1 11
REMARK H PARENT 6 10 1 12
REMARK Flexibility Score: inf
ROOT
ATOM      1  C   UNL     1      16.247  -9.163  12.597  1.00  0.00     0.048 A 
ATOM      2  C   UNL     1      16.828 -10.444  12.580  1.00  0.00     0.030 A 
ATOM      3  C   UNL     1      15.976 -11.545  12.540  1.00  0.00     0.046 A 
ATOM      4  C   UNL     1      14.614 -11.400  12.517  1.00  0.00     0.003 A 
ATOM      5  C   UNL     1      14.066 -12.664  12.479  1.00  0.00     0.028 A 
ATOM      6  C   UNL     1      15.154 -13.531  12.481  1.00  0.00     0.083 A 
ATOM      7  N   UNL     1      16.318 -12.843  12.518  1.00  0.00    -0.361 N 
ATOM      8  C   UNL     1      14.007 -10.147  12.532  1.00  0.00     0.056 A 
ATOM      9  C   UNL     1      14.842  -9.010  12.573  1.00  0.00     0.116 A 
ATOM     10  H   UNL     1      17.283 -13.244  12.528  1.00  0.00     0.166 HD
ENDROOT
BRANCH   9  11
ATOM     11  O   UNL     1      14.291  -7.731  12.590  1.00  0.00    -0.508 OA
ATOM     12  H   UNL     1      14.580  -7.022  11.926  1.00  0.00     0.293 HD
ENDBRANCH   9  11
TORSDOF 1
ENDMDL
MODEL 7
REMARK VINA RESULT:    -4.510      3.995      5.236
REMARK INTER + INTRA:          -4.642
REMARK INTER:                  -4.642
REMARK INTRA:                   0.000
REMARK UNBOUND:                 0.000
REMARK SMILES Oc1ccc2[nH]ccc2c1
REMARK SMILES IDX 3 1 4 2 5 3 9 4 8 5 7 6 6 7 10 8 2 9 1 11
REMARK H PARENT 6 10 1 12
REMARK Flexibility Score: inf
ROOT
ATOM      1  C   UNL     1      18.194  -9.041  13.538  1.00  0.00     0.048 A 
ATOM      2  C   UNL     1      17.804  -7.768  13.993  1.00  0.00     0.030 A 
ATOM      3  C   UNL     1      16.529  -7.319  13.656  1.00  0.00     0.046 A 
ATOM      4  C   UNL     1      15.672  -8.081  12.908  1.00  0.00     0.003 A 
ATOM      5  C   UNL     1      14.507  -7.360  12.753  1.00  0.00     0.028 A 
ATOM      6  C   UNL     1      14.727  -6.167  13.435  1.00  0.00     0.083 A 
ATOM      7  N   UNL     1      15.962  -6.147  13.984  1.00  0.00    -0.361 N 
ATOM      8  C   UNL     1      16.026  -9.344  12.441  1.00  0.00     0.056 A 
ATOM      9  C   UNL     1      17.311  -9.831  12.765  1.00  0.00     0.116 A 
ATOM     10  H   UNL     1      16.385  -5.375  14.548  1.00  0.00     0.166 HD
ENDROOT
BRANCH   9  11
ATOM     11  O   UNL     1      17.721 -11.087  12.327  1.00  0.00    -0.508 OA
ATOM     12  H   UNL     1      17.051 -11.814  12.103  1.00  0.00     0.293 HD
ENDBRANCH   9  11
TORSDOF 1
ENDMDL
MODEL 8
REMARK VINA RESULT:    -4.476      2.853      4.236
REMARK INTER + INTRA:          -4.607
REMARK INTER:                  -4.607
REMARK INTRA:                   0.000
REMARK UNBOUND:                 0.000
REMARK SMILES Oc1ccc2[nH]ccc2c1
REMARK SMILES IDX 3 1 4 2 5 3 9 4 8 5 7 6 6 7 10 8 2 9 1 11
REMARK H PARENT 6 10 1 12
REMARK Flexibility Score: inf
ROOT
ATOM      1  C   UNL     1      16.075  -8.438  12.730  1.00  0.00     0.048 A 
ATOM      2  C   UNL     1      14.872  -9.157  12.611  1.00  0.00     0.030 A 
ATOM      3  C   UNL     1      14.951 -10.544  12.493  1.00  0.00     0.046 A 
ATOM      4  C   UNL     1      16.154 -11.198  12.495  1.00  0.00     0.003 A 
ATOM      5  C   UNL     1      15.890 -12.545  12.365  1.00  0.00     0.028 A 
ATOM      6  C   UNL     1      14.504 -12.637  12.291  1.00  0.00     0.083 A 
ATOM      7  N   UNL     1      13.935 -11.413  12.370  1.00  0.00    -0.361 N 
ATOM      8  C   UNL     1      17.363 -10.517  12.611  1.00  0.00     0.056 A 
ATOM      9  C   UNL     1      17.319  -9.111  12.732  1.00  0.00     0.116 A 
ATOM     10  H   UNL     1      12.914 -11.192  12.340  1.00  0.00     0.166 HD
ENDROOT
BRANCH   9  11
ATOM     11  O   UNL     1      18.496  -8.377  12.852  1.00  0.00    -0.508 OA
ATOM     12  H   UNL     1      18.481  -7.386  13.067  1.00  0.00     0.293 HD
ENDBRANCH   9  11
TORSDOF 1
ENDMDL
MODEL 9
REMARK VINA RESULT:    -4.422      1.915      2.783
REMARK INTER + INTRA:          -4.552
REMARK INTER:                  -4.552
REMARK INTRA:                   0.000
REMARK UNBOUND:                 0.000
REMARK SMILES Oc1ccc2[nH]ccc2c1
REMARK SMILES IDX 3 1 4 2 5 3 9 4 8 5 7 6 6 7 10 8 2 9 1 11
REMARK H PARENT 6 10 1 12
REMARK Flexibility Score: inf
ROOT
ATOM      1  C   UNL     1      15.630 -12.701  12.422  1.00  0.00     0.048 A 
ATOM      2  C   UNL     1      16.000 -11.356  12.237  1.00  0.00     0.030 A 
ATOM      3  C   UNL     1      15.010 -10.385  12.373  1.00  0.00     0.046 A 
ATOM      4  C   UNL     1      13.717 -10.713  12.679  1.00  0.00     0.003 A 
ATOM      5  C   UNL     1      12.997  -9.540  12.742  1.00  0.00     0.028 A 
ATOM      6  C   UNL     1      13.919  -8.534  12.464  1.00  0.00     0.083 A 
ATOM      7  N   UNL     1      15.146  -9.055  12.240  1.00  0.00    -0.361 N 
ATOM      8  C   UNL     1      13.318 -12.034  12.868  1.00  0.00     0.056 A 
ATOM      9  C   UNL     1      14.295 -13.044  12.737  1.00  0.00     0.116 A 
ATOM     10  H   UNL     1      16.019  -8.529  12.010  1.00  0.00     0.166 HD
ENDROOT
BRANCH   9  11
ATOM     11  O   UNL     1      13.955 -14.382  12.915  1.00  0.00    -0.508 OA
ATOM     12  H   UNL     1      14.063 -14.840  13.813  1.00  0.00     0.293 HD
ENDBRANCH   9  11
TORSDOF 1
ENDMDL
