MODEL 1
REMARK VINA RESULT:    -2.890      0.000      0.000
REMARK INTER + INTRA:          -3.364
REMARK INTER:                  -3.227
REMARK INTRA:                  -0.137
REMARK UNBOUND:                -0.137
REMARK SMILES O=C([O-])c1ccccc1C(=O)[O-]
REMARK SMILES IDX 4 1 9 2 5 3 8 4 6 5 7 6 2 7 1 8 3 9 10 10 11 11 12 12
REMARK H PARENT
REMARK Flexibility Score: inf
ROOT
ATOM      1  C   UNL     1      19.904  48.895  88.118  1.00  0.00     0.006 A 
ATOM      2  C   UNL     1      20.441  49.842  87.201  1.00  0.00     0.006 A 
ATOM      3  C   UNL     1      18.681  49.178  88.756  1.00  0.00     0.010 A 
ATOM      4  C   UNL     1      19.767  51.062  87.004  1.00  0.00     0.010 A 
ATOM      5  C   UNL     1      18.020  50.385  88.529  1.00  0.00     0.001 A 
ATOM      6  C   UNL     1      18.568  51.330  87.665  1.00  0.00     0.001 A 
ENDROOT
BRANCH   1   7
ATOM      7  C   UNL     1      20.617  47.652  88.490  1.00  0.00     0.072 C 
ATOM      8  O   UNL     1      20.079  46.529  88.292  1.00  0.00    -0.545 OA
ATOM      9  O   UNL     1      21.855  47.705  89.119  1.00  0.00    -0.545 OA
ENDBRANCH   1   7
BRANCH   2  10
ATOM     10  C   UNL     1      21.645  49.567  86.384  1.00  0.00     0.072 C 
ATOM     11  O   UNL     1      21.557  48.865  85.342  1.00  0.00    -0.545 OA
ATOM     12  O   UNL     1      22.895  50.023  86.787  1.00  0.00    -0.545 OA
ENDBRANCH   2  10
TORSDOF 2
ENDMDL
MODEL 2
REMARK VINA RESULT:    -2.877      0.058      2.863
REMARK INTER + INTRA:          -3.350
REMARK INTER:                  -3.215
REMARK INTRA:                  -0.135
REMARK UNBOUND:                -0.137
REMARK SMILES O=C([O-])c1ccccc1C(=O)[O-]
REMARK SMILES IDX 4 1 9 2 5 3 8 4 6 5 7 6 2 7 1 8 3 9 10 10 11 11 12 12
REMARK H PARENT
REMARK Flexibility Score: inf
ROOT
ATOM      1  C   UNL     1      20.446  49.809  87.222  1.00  0.00     0.006 A 
ATOM      2  C   UNL     1      19.927  48.866  88.154  1.00  0.00     0.006 A 
ATOM      3  C   UNL     1      19.769  51.029  87.034  1.00  0.00     0.010 A 
ATOM      4  C   UNL     1      18.718  49.153  88.815  1.00  0.00     0.010 A 
ATOM      5  C   UNL     1      18.584  51.301  87.717  1.00  0.00     0.001 A 
ATOM      6  C   UNL     1      18.052  50.360  88.596  1.00  0.00     0.001 A 
ENDROOT
BRANCH   1   7
ATOM      7  C   UNL     1      21.632  49.529  86.381  1.00  0.00     0.072 C 
ATOM      8  O   UNL     1      21.515  48.852  85.325  1.00  0.00    -0.545 OA
ATOM      9  O   UNL     1      22.896  49.951  86.776  1.00  0.00    -0.545 OA
ENDBRANCH   1   7
BRANCH   2  10
ATOM     10  C   UNL     1      20.645  47.623  88.516  1.00  0.00     0.072 C 
ATOM     11  O   UNL     1      20.096  46.502  88.347  1.00  0.00    -0.545 OA
ATOM     12  O   UNL     1      21.903  47.677  89.106  1.00  0.00    -0.545 OA
ENDBRANCH   2  10
TORSDOF 2
ENDMDL
MODEL 3
REMARK VINA RESULT:    -2.865      2.285      4.554
REMARK INTER + INTRA:          -3.337
REMARK INTER:                  -3.120
REMARK INTRA:                  -0.217
REMARK UNBOUND:                -0.137
REMARK SMILES O=C([O-])c1ccccc1C(=O)[O-]
REMARK SMILES IDX 4 1 9 2 5 3 8 4 6 5 7 6 2 7 1 8 3 9 10 10 11 11 12 12
REMARK H PARENT
REMARK Flexibility Score: inf
ROOT
ATOM      1  C   UNL     1      23.033  50.100  86.851  1.00  0.00     0.006 A 
ATOM      2  C   UNL     1      21.788  49.491  86.527  1.00  0.00     0.006 A 
ATOM      3  C   UNL     1      24.186  49.720  86.137  1.00  0.00     0.010 A 
ATOM      4  C   UNL     1      21.754  48.482  85.546  1.00  0.00     0.010 A 
ATOM      5  C   UNL     1      24.124  48.733  85.154  1.00  0.00     0.001 A 
ATOM      6  C   UNL     1      22.913  48.106  84.868  1.00  0.00     0.001 A 
ENDROOT
BRANCH   1   7
ATOM      7  C   UNL     1      23.183  51.066  87.962  1.00  0.00     0.072 C 
ATOM      8  O   UNL     1      23.462  50.659  89.122  1.00  0.00    -0.545 OA
ATOM      9  O   UNL     1      22.958  52.422  87.759  1.00  0.00    -0.545 OA
ENDBRANCH   1   7
BRANCH   2  10
ATOM     10  C   UNL     1      20.506  49.928  87.127  1.00  0.00     0.072 C 
ATOM     11  O   UNL     1      19.926  49.204  87.979  1.00  0.00    -0.545 OA
ATOM     12  O   UNL     1      19.894  51.105  86.712  1.00  0.00    -0.545 OA
ENDBRANCH   2  10
TORSDOF 2
ENDMDL
MODEL 4
REMARK VINA RESULT:    -2.818      1.578      3.592
REMARK INTER + INTRA:          -3.284
REMARK INTER:                  -3.094
REMARK INTRA:                  -0.191
REMARK UNBOUND:                -0.137
REMARK SMILES O=C([O-])c1ccccc1C(=O)[O-]
REMARK SMILES IDX 4 1 9 2 5 3 8 4 6 5 7 6 2 7 1 8 3 9 10 10 11 11 12 12
REMARK H PARENT
REMARK Flexibility Score: inf
ROOT
ATOM      1  C   UNL     1      21.928  48.939  86.570  1.00  0.00     0.006 A 
ATOM      2  C   UNL     1      21.676  47.939  87.550  1.00  0.00     0.006 A 
ATOM      3  C   UNL     1      21.082  50.064  86.507  1.00  0.00     0.010 A 
ATOM      4  C   UNL     1      20.552  48.069  88.388  1.00  0.00     0.010 A 
ATOM      5  C   UNL     1      19.986  50.182  87.363  1.00  0.00     0.001 A 
ATOM      6  C   UNL     1      19.715  49.180  88.293  1.00  0.00     0.001 A 
ENDROOT
BRANCH   1   7
ATOM      7  C   UNL     1      23.001  48.813  85.558  1.00  0.00     0.072 C 
ATOM      8  O   UNL     1      22.881  47.997  84.605  1.00  0.00    -0.545 OA
ATOM      9  O   UNL     1      24.178  49.542  85.678  1.00  0.00    -0.545 OA
ENDBRANCH   1   7
BRANCH   2  10
ATOM     10  C   UNL     1      22.591  46.797  87.778  1.00  0.00     0.072 C 
ATOM     11  O   UNL     1      23.579  46.921  88.550  1.00  0.00    -0.545 OA
ATOM     12  O   UNL     1      22.413  45.598  87.097  1.00  0.00    -0.545 OA
ENDBRANCH   2  10
TORSDOF 2
ENDMDL
MODEL 5
REMARK VINA RESULT:    -2.817      1.564      2.204
REMARK INTER + INTRA:          -3.284
REMARK INTER:                  -3.085
REMARK INTRA:                  -0.198
REMARK UNBOUND:                -0.137
REMARK SMILES O=C([O-])c1ccccc1C(=O)[O-]
REMARK SMILES IDX 4 1 9 2 5 3 8 4 6 5 7 6 2 7 1 8 3 9 10 10 11 11 12 12
REMARK H PARENT
REMARK Flexibility Score: inf
ROOT
ATOM      1  C   UNL     1      21.665  47.946  87.571  1.00  0.00     0.006 A 
ATOM      2  C   UNL     1      21.918  48.941  86.586  1.00  0.00     0.006 A 
ATOM      3  C   UNL     1      20.538  48.080  88.405  1.00  0.00     0.010 A 
ATOM      4  C   UNL     1      21.072  50.063  86.514  1.00  0.00     0.010 A 
ATOM      5  C   UNL     1      19.701  49.191  88.301  1.00  0.00     0.001 A 
ATOM      6  C   UNL     1      19.974  50.186  87.366  1.00  0.00     0.001 A 
ENDROOT
BRANCH   1   7
ATOM      7  C   UNL     1      22.581  46.807  87.810  1.00  0.00     0.072 C 
ATOM      8  O   UNL     1      23.577  46.944  88.570  1.00  0.00    -0.545 OA
ATOM      9  O   UNL     1      22.395  45.597  87.153  1.00  0.00    -0.545 OA
ENDBRANCH   1   7
BRANCH   2  10
ATOM     10  C   UNL     1      22.996  48.810  85.578  1.00  0.00     0.072 C 
ATOM     11  O   UNL     1      22.870  48.007  84.617  1.00  0.00    -0.545 OA
ATOM     12  O   UNL     1      24.184  49.520  85.715  1.00  0.00    -0.545 OA
ENDBRANCH   2  10
TORSDOF 2
ENDMDL
MODEL 6
REMARK VINA RESULT:    -2.798      2.216      3.364
REMARK INTER + INTRA:          -3.262
REMARK INTER:                  -3.030
REMARK INTRA:                  -0.232
REMARK UNBOUND:                -0.137
REMARK SMILES O=C([O-])c1ccccc1C(=O)[O-]
REMARK SMILES IDX 4 1 9 2 5 3 8 4 6 5 7 6 2 7 1 8 3 9 10 10 11 11 12 12
REMARK H PARENT
REMARK Flexibility Score: inf
ROOT
ATOM      1  C   UNL     1      18.730  49.576  88.282  1.00  0.00     0.006 A 
ATOM      2  C   UNL     1      19.905  48.839  87.964  1.00  0.00     0.006 A 
ATOM      3  C   UNL     1      17.638  48.905  88.865  1.00  0.00     0.010 A 
ATOM      4  C   UNL     1      19.921  47.449  88.183  1.00  0.00     0.010 A 
ATOM      5  C   UNL     1      17.684  47.529  89.093  1.00  0.00     0.001 A 
ATOM      6  C   UNL     1      18.818  46.801  88.741  1.00  0.00     0.001 A 
ENDROOT
BRANCH   1   7
ATOM      7  C   UNL     1      18.576  51.012  87.956  1.00  0.00     0.072 C 
ATOM      8  O   UNL     1      18.093  51.361  86.845  1.00  0.00    -0.545 OA
ATOM      9  O   UNL     1      19.018  51.991  88.838  1.00  0.00    -0.545 OA
ENDBRANCH   1   7
BRANCH   2  10
ATOM     10  C   UNL     1      21.146  49.486  87.480  1.00  0.00     0.072 C 
ATOM     11  O   UNL     1      21.973  49.963  88.301  1.00  0.00    -0.545 OA
ATOM     12  O   UNL     1      21.383  49.635  86.118  1.00  0.00    -0.545 OA
ENDBRANCH   2  10
TORSDOF 2
ENDMDL
MODEL 7
REMARK VINA RESULT:    -2.785      2.215      3.429
REMARK INTER + INTRA:          -3.248
REMARK INTER:                  -3.015
REMARK INTRA:                  -0.233
REMARK UNBOUND:                -0.137
REMARK SMILES O=C([O-])c1ccccc1C(=O)[O-]
REMARK SMILES IDX 4 1 9 2 5 3 8 4 6 5 7 6 2 7 1 8 3 9 10 10 11 11 12 12
REMARK H PARENT
REMARK Flexibility Score: inf
ROOT
ATOM      1  C   UNL     1      19.878  48.800  87.986  1.00  0.00     0.006 A 
ATOM      2  C   UNL     1      18.726  49.570  88.310  1.00  0.00     0.006 A 
ATOM      3  C   UNL     1      19.854  47.409  88.204  1.00  0.00     0.010 A 
ATOM      4  C   UNL     1      17.618  48.931  88.897  1.00  0.00     0.010 A 
ATOM      5  C   UNL     1      18.736  46.794  88.767  1.00  0.00     0.001 A 
ATOM      6  C   UNL     1      17.625  47.554  89.125  1.00  0.00     0.001 A 
ENDROOT
BRANCH   1   7
ATOM      7  C   UNL     1      21.135  49.411  87.497  1.00  0.00     0.072 C 
ATOM      8  O   UNL     1      21.982  49.858  88.316  1.00  0.00    -0.545 OA
ATOM      9  O   UNL     1      21.369  49.560  86.136  1.00  0.00    -0.545 OA
ENDBRANCH   1   7
BRANCH   2  10
ATOM     10  C   UNL     1      18.612  51.011  87.986  1.00  0.00     0.072 C 
ATOM     11  O   UNL     1      18.147  51.376  86.875  1.00  0.00    -0.545 OA
ATOM     12  O   UNL     1      19.076  51.976  88.873  1.00  0.00    -0.545 OA
ENDBRANCH   2  10
TORSDOF 2
ENDMDL
MODEL 8
REMARK VINA RESULT:    -2.777      2.256      4.160
REMARK INTER + INTRA:          -3.239
REMARK INTER:                  -3.015
REMARK INTRA:                  -0.223
REMARK UNBOUND:                -0.137
REMARK SMILES O=C([O-])c1ccccc1C(=O)[O-]
REMARK SMILES IDX 4 1 9 2 5 3 8 4 6 5 7 6 2 7 1 8 3 9 10 10 11 11 12 12
REMARK H PARENT
REMARK Flexibility Score: inf
ROOT
ATOM      1  C   UNL     1      21.790  49.425  86.666  1.00  0.00     0.006 A 
ATOM      2  C   UNL     1      23.031  50.082  86.899  1.00  0.00     0.006 A 
ATOM      3  C   UNL     1      21.739  48.372  85.732  1.00  0.00     0.010 A 
ATOM      4  C   UNL     1      24.158  49.705  86.145  1.00  0.00     0.010 A 
ATOM      5  C   UNL     1      22.874  48.000  85.012  1.00  0.00     0.001 A 
ATOM      6  C   UNL     1      24.078  48.673  85.209  1.00  0.00     0.001 A 
ENDROOT
BRANCH   1   7
ATOM      7  C   UNL     1      20.527  49.852  87.311  1.00  0.00     0.072 C 
ATOM      8  O   UNL     1      20.031  49.168  88.245  1.00  0.00    -0.545 OA
ATOM      9  O   UNL     1      19.841  50.970  86.854  1.00  0.00    -0.545 OA
ENDBRANCH   1   7
BRANCH   2  10
ATOM     10  C   UNL     1      23.207  51.102  87.959  1.00  0.00     0.072 C 
ATOM     11  O   UNL     1      23.531  50.754  89.125  1.00  0.00    -0.545 OA
ATOM     12  O   UNL     1      22.954  52.444  87.700  1.00  0.00    -0.545 OA
ENDBRANCH   2  10
TORSDOF 2
ENDMDL
MODEL 9
REMARK VINA RESULT:    -2.742      3.724      4.863
REMARK INTER + INTRA:          -3.200
REMARK INTER:                  -2.966
REMARK INTRA:                  -0.234
REMARK UNBOUND:                -0.137
REMARK SMILES O=C([O-])c1ccccc1C(=O)[O-]
REMARK SMILES IDX 4 1 9 2 5 3 8 4 6 5 7 6 2 7 1 8 3 9 10 10 11 11 12 12
REMARK H PARENT
REMARK Flexibility Score: inf
ROOT
ATOM      1  C   UNL     1      23.744  50.082  86.713  1.00  0.00     0.006 A 
ATOM      2  C   UNL     1      24.207  49.178  85.716  1.00  0.00     0.006 A 
ATOM      3  C   UNL     1      22.372  50.107  87.030  1.00  0.00     0.010 A 
ATOM      4  C   UNL     1      23.274  48.379  85.031  1.00  0.00     0.010 A 
ATOM      5  C   UNL     1      21.468  49.289  86.352  1.00  0.00     0.001 A 
ATOM      6  C   UNL     1      21.916  48.436  85.346  1.00  0.00     0.001 A 
ENDROOT
BRANCH   1   7
ATOM      7  C   UNL     1      24.635  51.057  87.382  1.00  0.00     0.072 C 
ATOM      8  O   UNL     1      24.857  52.180  86.854  1.00  0.00    -0.545 OA
ATOM      9  O   UNL     1      25.288  50.727  88.564  1.00  0.00    -0.545 OA
ENDBRANCH   1   7
BRANCH   2  10
ATOM     10  C   UNL     1      25.646  48.987  85.419  1.00  0.00     0.072 C 
ATOM     11  O   UNL     1      26.330  48.176  86.097  1.00  0.00    -0.545 OA
ATOM     12  O   UNL     1      26.273  49.744  84.435  1.00  0.00    -0.545 OA
ENDBRANCH   2  10
TORSDOF 2
ENDMDL
