MODEL 1
REMARK VINA RESULT:    -3.946      0.000      0.000
REMARK INTER + INTRA:         -10.094
REMARK INTER:                  -7.406
REMARK INTRA:                  -2.688
REMARK UNBOUND:                -2.688
REMARK SMILES CCCCCCCCC=CCCCCCCCC(=O)[O-]
REMARK SMILES IDX 10 1 9 2 11 3 12 4 13 5 14 6 15 7 16 8 17 9 18 10 19 11
REMARK SMILES IDX 20 12 8 13 7 14 6 15 5 16 4 17 3 18 2 19 1 20
REMARK H PARENT
REMARK Flexibility Score: inf
ROOT
ATOM      1  C   UNL     1      50.041  -0.908  71.828  1.00  0.00    -0.031 C 
ATOM      2  C   UNL     1      51.102  -0.896  72.646  1.00  0.00    -0.031 C 
ENDROOT
BRANCH   1   3
ATOM      3  C   UNL     1      48.654  -0.600  72.325  1.00  0.00     0.027 C 
BRANCH   3   4
ATOM      4  C   UNL     1      48.635   0.545  73.353  1.00  0.00     0.004 C 
BRANCH   4   5
ATOM      5  C   UNL     1      48.236   0.113  74.780  1.00  0.00     0.000 C 
BRANCH   5   6
ATOM      6  C   UNL     1      48.337  -1.397  75.052  1.00  0.00     0.000 C 
BRANCH   6   7
ATOM      7  C   UNL     1      49.603  -1.779  75.840  1.00  0.00     0.000 C 
BRANCH   7   8
ATOM      8  C   UNL     1      49.364  -2.940  76.817  1.00  0.00     0.006 C 
BRANCH   8   9
ATOM      9  C   UNL     1      48.863  -2.464  78.188  1.00  0.00     0.053 C 
BRANCH   9  10
ATOM     10  C   UNL     1      49.779  -2.937  79.272  1.00  0.00     0.041 C 
ATOM     11  O   UNL     1      50.578  -3.886  79.055  1.00  0.00    -0.550 OA
ATOM     12  O   UNL     1      49.719  -2.361  80.536  1.00  0.00    -0.550 OA
ENDBRANCH   9  10
ENDBRANCH   8   9
ENDBRANCH   7   8
ENDBRANCH   6   7
ENDBRANCH   5   6
ENDBRANCH   4   5
ENDBRANCH   3   4
ENDBRANCH   1   3
BRANCH   2  13
ATOM     13  C   UNL     1      52.475  -1.222  72.127  1.00  0.00     0.027 C 
BRANCH  13  14
ATOM     14  C   UNL     1      53.075  -2.428  72.865  1.00  0.00     0.004 C 
BRANCH  14  15
ATOM     15  C   UNL     1      52.266  -3.716  72.638  1.00  0.00     0.000 C 
BRANCH  15  16
ATOM     16  C   UNL     1      51.667  -4.273  73.940  1.00  0.00     0.000 C 
BRANCH  16  17
ATOM     17  C   UNL     1      50.276  -4.896  73.736  1.00  0.00    -0.000 C 
BRANCH  17  18
ATOM     18  C   UNL     1      49.504  -4.301  72.539  1.00  0.00    -0.000 C 
BRANCH  18  19
ATOM     19  C   UNL     1      47.985  -4.477  72.681  1.00  0.00    -0.003 C 
ATOM     20  C   UNL     1      47.606  -4.868  74.108  1.00  0.00     0.004 C 
ENDBRANCH  18  19
ENDBRANCH  17  18
ENDBRANCH  16  17
ENDBRANCH  15  16
ENDBRANCH  14  15
ENDBRANCH  13  14
ENDBRANCH   2  13
TORSDOF 15
ENDMDL
MODEL 2
REMARK VINA RESULT:    -3.925      3.280      5.815
REMARK INTER + INTRA:         -10.054
REMARK INTER:                  -7.485
REMARK INTRA:                  -2.569
REMARK UNBOUND:                -2.688
REMARK SMILES CCCCCCCCC=CCCCCCCCC(=O)[O-]
REMARK SMILES IDX 10 1 9 2 11 3 12 4 13 5 14 6 15 7 16 8 17 9 18 10 19 11
REMARK SMILES IDX 20 12 8 13 7 14 6 15 5 16 4 17 3 18 2 19 1 20
REMARK H PARENT
REMARK Flexibility Score: inf
ROOT
ATOM      1  C   UNL     1      49.244  -1.596  75.942  1.00  0.00    -0.031 C 
ATOM      2  C   UNL     1      48.410  -1.250  74.953  1.00  0.00    -0.031 C 
ENDROOT
BRANCH   1   3
ATOM      3  C   UNL     1      49.372  -3.023  76.405  1.00  0.00     0.027 C 
BRANCH   3   4
ATOM      4  C   UNL     1      48.543  -3.999  75.552  1.00  0.00     0.004 C 
BRANCH   4   5
ATOM      5  C   UNL     1      49.383  -4.943  74.668  1.00  0.00     0.000 C 
BRANCH   5   6
ATOM      6  C   UNL     1      49.262  -4.693  73.154  1.00  0.00     0.000 C 
BRANCH   6   7
ATOM      7  C   UNL     1      47.801  -4.594  72.681  1.00  0.00     0.000 C 
BRANCH   7   8
ATOM      8  C   UNL     1      47.219  -5.954  72.269  1.00  0.00     0.006 C 
BRANCH   8   9
ATOM      9  C   UNL     1      46.365  -6.589  73.374  1.00  0.00     0.053 C 
BRANCH   9  10
ATOM     10  C   UNL     1      46.110  -8.032  73.073  1.00  0.00     0.041 C 
ATOM     11  O   UNL     1      46.896  -8.671  72.324  1.00  0.00    -0.550 OA
ATOM     12  O   UNL     1      44.978  -8.661  73.581  1.00  0.00    -0.550 OA
ENDBRANCH   9  10
ENDBRANCH   8   9
ENDBRANCH   7   8
ENDBRANCH   6   7
ENDBRANCH   5   6
ENDBRANCH   4   5
ENDBRANCH   3   4
ENDBRANCH   1   3
BRANCH   2  13
ATOM     13  C   UNL     1      48.289   0.186  74.520  1.00  0.00     0.027 C 
BRANCH  13  14
ATOM     14  C   UNL     1      48.616   0.343  73.027  1.00  0.00     0.004 C 
BRANCH  14  15
ATOM     15  C   UNL     1      48.641  -1.003  72.287  1.00  0.00     0.000 C 
BRANCH  15  16
ATOM     16  C   UNL     1      49.975  -1.254  71.563  1.00  0.00     0.000 C 
BRANCH  16  17
ATOM     17  C   UNL     1      51.106  -0.344  72.070  1.00  0.00    -0.000 C 
BRANCH  17  18
ATOM     18  C   UNL     1      52.433  -1.092  72.319  1.00  0.00    -0.000 C 
BRANCH  18  19
ATOM     19  C   UNL     1      52.209  -2.567  72.687  1.00  0.00    -0.003 C 
ATOM     20  C   UNL     1      52.369  -2.791  74.188  1.00  0.00     0.004 C 
ENDBRANCH  18  19
ENDBRANCH  17  18
ENDBRANCH  16  17
ENDBRANCH  15  16
ENDBRANCH  14  15
ENDBRANCH  13  14
ENDBRANCH   2  13
TORSDOF 15
ENDMDL
MODEL 3
REMARK VINA RESULT:    -3.922      3.224      5.733
REMARK INTER + INTRA:         -10.050
REMARK INTER:                  -7.844
REMARK INTRA:                  -2.206
REMARK UNBOUND:                -2.688
REMARK SMILES CCCCCCCCC=CCCCCCCCC(=O)[O-]
REMARK SMILES IDX 10 1 9 2 11 3 12 4 13 5 14 6 15 7 16 8 17 9 18 10 19 11
REMARK SMILES IDX 20 12 8 13 7 14 6 15 5 16 4 17 3 18 2 19 1 20
REMARK H PARENT
REMARK Flexibility Score: inf
ROOT
ATOM      1  C   UNL     1      49.165  -1.274  76.169  1.00  0.00    -0.031 C 
ATOM      2  C   UNL     1      50.167  -2.163  76.148  1.00  0.00    -0.031 C 
ENDROOT
BRANCH   1   3
ATOM      3  C   UNL     1      48.282  -1.050  74.971  1.00  0.00     0.027 C 
BRANCH   3   4
ATOM      4  C   UNL     1      48.901  -0.075  73.954  1.00  0.00     0.004 C 
BRANCH   4   5
ATOM      5  C   UNL     1      48.684  -0.470  72.479  1.00  0.00     0.000 C 
BRANCH   5   6
ATOM      6  C   UNL     1      49.886  -1.154  71.807  1.00  0.00     0.000 C 
BRANCH   6   7
ATOM      7  C   UNL     1      50.002  -2.646  72.166  1.00  0.00     0.000 C 
BRANCH   7   8
ATOM      8  C   UNL     1      51.412  -3.034  72.636  1.00  0.00     0.006 C 
BRANCH   8   9
ATOM      9  C   UNL     1      52.309  -1.813  72.881  1.00  0.00     0.053 C 
BRANCH   9  10
ATOM     10  C   UNL     1      53.574  -1.928  72.090  1.00  0.00     0.041 C 
ATOM     11  O   UNL     1      54.244  -2.994  72.120  1.00  0.00    -0.550 OA
ATOM     12  O   UNL     1      54.038  -0.842  71.356  1.00  0.00    -0.550 OA
ENDBRANCH   9  10
ENDBRANCH   8   9
ENDBRANCH   7   8
ENDBRANCH   6   7
ENDBRANCH   5   6
ENDBRANCH   4   5
ENDBRANCH   3   4
ENDBRANCH   1   3
BRANCH   2  13
ATOM     13  C   UNL     1      51.045  -2.358  77.354  1.00  0.00     0.027 C 
BRANCH  13  14
ATOM     14  C   UNL     1      50.284  -2.047  78.651  1.00  0.00     0.004 C 
BRANCH  14  15
ATOM     15  C   UNL     1      50.110  -3.289  79.541  1.00  0.00     0.000 C 
BRANCH  15  16
ATOM     16  C   UNL     1      49.070  -4.275  78.982  1.00  0.00     0.000 C 
BRANCH  16  17
ATOM     17  C   UNL     1      49.600  -5.717  78.904  1.00  0.00    -0.000 C 
BRANCH  17  18
ATOM     18  C   UNL     1      49.875  -6.194  77.462  1.00  0.00    -0.000 C 
BRANCH  18  19
ATOM     19  C   UNL     1      51.322  -5.920  77.025  1.00  0.00    -0.003 C 
ATOM     20  C   UNL     1      52.290  -6.081  78.194  1.00  0.00     0.004 C 
ENDBRANCH  18  19
ENDBRANCH  17  18
ENDBRANCH  16  17
ENDBRANCH  15  16
ENDBRANCH  14  15
ENDBRANCH  13  14
ENDBRANCH   2  13
TORSDOF 15
ENDMDL
MODEL 4
REMARK VINA RESULT:    -3.921      3.379      6.611
REMARK INTER + INTRA:         -10.047
REMARK INTER:                  -8.118
REMARK INTRA:                  -1.929
REMARK UNBOUND:                -2.688
REMARK SMILES CCCCCCCCC=CCCCCCCCC(=O)[O-]
REMARK SMILES IDX 10 1 9 2 11 3 12 4 13 5 14 6 15 7 16 8 17 9 18 10 19 11
REMARK SMILES IDX 20 12 8 13 7 14 6 15 5 16 4 17 3 18 2 19 1 20
REMARK H PARENT
REMARK Flexibility Score: inf
ROOT
ATOM      1  C   UNL     1      46.505  -5.440  75.566  1.00  0.00    -0.031 C 
ATOM      2  C   UNL     1      47.081  -6.643  75.697  1.00  0.00    -0.031 C 
ENDROOT
BRANCH   1   3
ATOM      3  C   UNL     1      47.103  -4.367  74.697  1.00  0.00     0.027 C 
BRANCH   3   4
ATOM      4  C   UNL     1      47.584  -4.905  73.338  1.00  0.00     0.004 C 
BRANCH   4   5
ATOM      5  C   UNL     1      48.687  -4.058  72.671  1.00  0.00     0.000 C 
BRANCH   5   6
ATOM      6  C   UNL     1      48.990  -2.721  73.370  1.00  0.00     0.000 C 
BRANCH   6   7
ATOM      7  C   UNL     1      48.813  -1.508  72.441  1.00  0.00     0.000 C 
BRANCH   7   8
ATOM      8  C   UNL     1      50.051  -1.243  71.571  1.00  0.00     0.006 C 
BRANCH   8   9
ATOM      9  C   UNL     1      51.148  -0.477  72.324  1.00  0.00     0.053 C 
BRANCH   9  10
ATOM     10  C   UNL     1      52.447  -1.217  72.247  1.00  0.00     0.041 C 
ATOM     11  O   UNL     1      52.588  -2.312  72.851  1.00  0.00    -0.550 OA
ATOM     12  O   UNL     1      53.517  -0.674  71.544  1.00  0.00    -0.550 OA
ENDBRANCH   9  10
ENDBRANCH   8   9
ENDBRANCH   7   8
ENDBRANCH   6   7
ENDBRANCH   5   6
ENDBRANCH   4   5
ENDBRANCH   3   4
ENDBRANCH   1   3
BRANCH   2  13
ATOM     13  C   UNL     1      46.471  -7.693  76.584  1.00  0.00     0.027 C 
BRANCH  13  14
ATOM     14  C   UNL     1      47.524  -8.315  77.513  1.00  0.00     0.004 C 
BRANCH  14  15
ATOM     15  C   UNL     1      47.970  -7.349  78.622  1.00  0.00     0.000 C 
BRANCH  15  16
ATOM     16  C   UNL     1      49.434  -6.906  78.466  1.00  0.00     0.000 C 
BRANCH  16  17
ATOM     17  C   UNL     1      49.660  -5.441  78.877  1.00  0.00    -0.000 C 
BRANCH  17  18
ATOM     18  C   UNL     1      48.361  -4.611  78.937  1.00  0.00    -0.000 C 
BRANCH  18  19
ATOM     19  C   UNL     1      48.397  -3.405  77.986  1.00  0.00    -0.003 C 
ATOM     20  C   UNL     1      49.677  -3.397  77.154  1.00  0.00     0.004 C 
ENDBRANCH  18  19
ENDBRANCH  17  18
ENDBRANCH  16  17
ENDBRANCH  15  16
ENDBRANCH  14  15
ENDBRANCH  13  14
ENDBRANCH   2  13
TORSDOF 15
ENDMDL
MODEL 5
REMARK VINA RESULT:    -3.908      2.568      4.852
REMARK INTER + INTRA:         -10.022
REMARK INTER:                  -7.676
REMARK INTRA:                  -2.347
REMARK UNBOUND:                -2.688
REMARK SMILES CCCCCCCCC=CCCCCCCCC(=O)[O-]
REMARK SMILES IDX 10 1 9 2 11 3 12 4 13 5 14 6 15 7 16 8 17 9 18 10 19 11
REMARK SMILES IDX 20 12 8 13 7 14 6 15 5 16 4 17 3 18 2 19 1 20
REMARK H PARENT
REMARK Flexibility Score: inf
ROOT
ATOM      1  C   UNL     1      49.043  -0.465  73.936  1.00  0.00    -0.031 C 
ATOM      2  C   UNL     1      48.350  -1.096  74.893  1.00  0.00    -0.031 C 
ENDROOT
BRANCH   1   3
ATOM      3  C   UNL     1      48.633  -0.531  72.489  1.00  0.00     0.027 C 
BRANCH   3   4
ATOM      4  C   UNL     1      49.750  -1.076  71.582  1.00  0.00     0.004 C 
BRANCH   4   5
ATOM      5  C   UNL     1      51.122  -1.213  72.272  1.00  0.00     0.000 C 
BRANCH   5   6
ATOM      6  C   UNL     1      51.544  -2.657  72.596  1.00  0.00     0.000 C 
BRANCH   6   7
ATOM      7  C   UNL     1      50.517  -3.700  72.121  1.00  0.00     0.000 C 
BRANCH   7   8
ATOM      8  C   UNL     1      49.653  -4.244  73.269  1.00  0.00     0.006 C 
BRANCH   8   9
ATOM      9  C   UNL     1      48.161  -4.288  72.913  1.00  0.00     0.053 C 
BRANCH   9  10
ATOM     10  C   UNL     1      47.404  -5.073  73.937  1.00  0.00     0.041 C 
ATOM     11  O   UNL     1      46.196  -5.370  73.741  1.00  0.00    -0.550 OA
ATOM     12  O   UNL     1      48.019  -5.438  75.131  1.00  0.00    -0.550 OA
ENDBRANCH   9  10
ENDBRANCH   8   9
ENDBRANCH   7   8
ENDBRANCH   6   7
ENDBRANCH   5   6
ENDBRANCH   4   5
ENDBRANCH   3   4
ENDBRANCH   1   3
BRANCH   2  13
ATOM     13  C   UNL     1      48.789  -1.027  76.330  1.00  0.00     0.027 C 
BRANCH  13  14
ATOM     14  C   UNL     1      49.135  -2.421  76.872  1.00  0.00     0.004 C 
BRANCH  14  15
ATOM     15  C   UNL     1      50.630  -2.752  76.729  1.00  0.00     0.000 C 
BRANCH  15  16
ATOM     16  C   UNL     1      50.903  -4.265  76.730  1.00  0.00     0.000 C 
BRANCH  16  17
ATOM     17  C   UNL     1      51.413  -4.776  78.089  1.00  0.00    -0.000 C 
BRANCH  17  18
ATOM     18  C   UNL     1      50.575  -5.938  78.664  1.00  0.00    -0.000 C 
BRANCH  18  19
ATOM     19  C   UNL     1      49.068  -5.641  78.627  1.00  0.00    -0.003 C 
ATOM     20  C   UNL     1      48.251  -6.927  78.729  1.00  0.00     0.004 C 
ENDBRANCH  18  19
ENDBRANCH  17  18
ENDBRANCH  16  17
ENDBRANCH  15  16
ENDBRANCH  14  15
ENDBRANCH  13  14
ENDBRANCH   2  13
TORSDOF 15
ENDMDL
MODEL 6
REMARK VINA RESULT:    -3.896      2.543      4.519
REMARK INTER + INTRA:         -10.000
REMARK INTER:                  -7.589
REMARK INTRA:                  -2.412
REMARK UNBOUND:                -2.688
REMARK SMILES CCCCCCCCC=CCCCCCCCC(=O)[O-]
REMARK SMILES IDX 10 1 9 2 11 3 12 4 13 5 14 6 15 7 16 8 17 9 18 10 19 11
REMARK SMILES IDX 20 12 8 13 7 14 6 15 5 16 4 17 3 18 2 19 1 20
REMARK H PARENT
REMARK Flexibility Score: inf
ROOT
ATOM      1  C   UNL     1      52.958  -3.373  72.666  1.00  0.00    -0.031 C 
ATOM      2  C   UNL     1      52.985  -2.080  73.015  1.00  0.00    -0.031 C 
ENDROOT
BRANCH   1   3
ATOM      3  C   UNL     1      53.535  -4.444  73.552  1.00  0.00     0.027 C 
BRANCH   3   4
ATOM      4  C   UNL     1      52.458  -5.385  74.121  1.00  0.00     0.004 C 
BRANCH   4   5
ATOM      5  C   UNL     1      52.734  -5.875  75.557  1.00  0.00     0.000 C 
BRANCH   5   6
ATOM      6  C   UNL     1      51.479  -6.120  76.411  1.00  0.00     0.000 C 
BRANCH   6   7
ATOM      7  C   UNL     1      51.597  -5.534  77.829  1.00  0.00     0.000 C 
BRANCH   7   8
ATOM      8  C   UNL     1      50.302  -5.683  78.642  1.00  0.00     0.006 C 
BRANCH   8   9
ATOM      9  C   UNL     1      49.636  -7.051  78.443  1.00  0.00     0.053 C 
BRANCH   9  10
ATOM     10  C   UNL     1      48.167  -6.960  78.715  1.00  0.00     0.041 C 
ATOM     11  O   UNL     1      47.677  -5.906  79.197  1.00  0.00    -0.550 OA
ATOM     12  O   UNL     1      47.346  -8.058  78.478  1.00  0.00    -0.550 OA
ENDBRANCH   9  10
ENDBRANCH   8   9
ENDBRANCH   7   8
ENDBRANCH   6   7
ENDBRANCH   5   6
ENDBRANCH   4   5
ENDBRANCH   3   4
ENDBRANCH   1   3
BRANCH   2  13
ATOM     13  C   UNL     1      52.416  -1.027  72.104  1.00  0.00     0.027 C 
BRANCH  13  14
ATOM     14  C   UNL     1      50.991  -0.639  72.526  1.00  0.00     0.004 C 
BRANCH  14  15
ATOM     15  C   UNL     1      49.917  -1.354  71.691  1.00  0.00     0.000 C 
BRANCH  15  16
ATOM     16  C   UNL     1      48.865  -2.061  72.562  1.00  0.00     0.000 C 
BRANCH  16  17
ATOM     17  C   UNL     1      49.368  -3.397  73.134  1.00  0.00    -0.000 C 
BRANCH  17  18
ATOM     18  C   UNL     1      49.189  -3.519  74.662  1.00  0.00    -0.000 C 
BRANCH  18  19
ATOM     19  C   UNL     1      50.297  -2.791  75.437  1.00  0.00    -0.003 C 
ATOM     20  C   UNL     1      49.764  -2.209  76.744  1.00  0.00     0.004 C 
ENDBRANCH  18  19
ENDBRANCH  17  18
ENDBRANCH  16  17
ENDBRANCH  15  16
ENDBRANCH  14  15
ENDBRANCH  13  14
ENDBRANCH   2  13
TORSDOF 15
ENDMDL
MODEL 7
REMARK VINA RESULT:    -3.840      2.912      5.427
REMARK INTER + INTRA:          -9.896
REMARK INTER:                  -7.074
REMARK INTRA:                  -2.822
REMARK UNBOUND:                -2.688
REMARK SMILES CCCCCCCCC=CCCCCCCCC(=O)[O-]
REMARK SMILES IDX 10 1 9 2 11 3 12 4 13 5 14 6 15 7 16 8 17 9 18 10 19 11
REMARK SMILES IDX 20 12 8 13 7 14 6 15 5 16 4 17 3 18 2 19 1 20
REMARK H PARENT
REMARK Flexibility Score: inf
ROOT
ATOM      1  C   UNL     1      53.039  -2.912  72.570  1.00  0.00    -0.031 C 
ATOM      2  C   UNL     1      52.581  -1.737  73.021  1.00  0.00    -0.031 C 
ENDROOT
BRANCH   1   3
ATOM      3  C   UNL     1      54.059  -3.711  73.336  1.00  0.00     0.027 C 
BRANCH   3   4
ATOM      4  C   UNL     1      53.436  -4.897  74.092  1.00  0.00     0.004 C 
BRANCH   4   5
ATOM      5  C   UNL     1      51.965  -5.183  73.727  1.00  0.00     0.000 C 
BRANCH   5   6
ATOM      6  C   UNL     1      51.147  -5.879  74.829  1.00  0.00     0.000 C 
BRANCH   6   7
ATOM      7  C   UNL     1      49.628  -5.761  74.610  1.00  0.00     0.000 C 
BRANCH   7   8
ATOM      8  C   UNL     1      49.273  -5.155  73.244  1.00  0.00     0.006 C 
BRANCH   8   9
ATOM      9  C   UNL     1      47.811  -4.695  73.165  1.00  0.00     0.053 C 
BRANCH   9  10
ATOM     10  C   UNL     1      46.912  -5.860  72.890  1.00  0.00     0.041 C 
ATOM     11  O   UNL     1      47.233  -6.716  72.024  1.00  0.00    -0.550 OA
ATOM     12  O   UNL     1      45.697  -5.976  73.557  1.00  0.00    -0.550 OA
ENDBRANCH   9  10
ENDBRANCH   8   9
ENDBRANCH   7   8
ENDBRANCH   6   7
ENDBRANCH   5   6
ENDBRANCH   4   5
ENDBRANCH   3   4
ENDBRANCH   1   3
BRANCH   2  13
ATOM     13  C   UNL     1      51.573  -0.951  72.229  1.00  0.00     0.027 C 
BRANCH  13  14
ATOM     14  C   UNL     1      50.372  -1.824  71.837  1.00  0.00     0.004 C 
BRANCH  14  15
ATOM     15  C   UNL     1      49.033  -1.084  71.993  1.00  0.00     0.000 C 
BRANCH  15  16
ATOM     16  C   UNL     1      49.112   0.073  73.003  1.00  0.00     0.000 C 
BRANCH  16  17
ATOM     17  C   UNL     1      48.277  -0.184  74.268  1.00  0.00    -0.000 C 
BRANCH  17  18
ATOM     18  C   UNL     1      49.120  -0.622  75.484  1.00  0.00    -0.000 C 
BRANCH  18  19
ATOM     19  C   UNL     1      49.416  -2.129  75.474  1.00  0.00    -0.003 C 
ATOM     20  C   UNL     1      50.773  -2.428  76.107  1.00  0.00     0.004 C 
ENDBRANCH  18  19
ENDBRANCH  17  18
ENDBRANCH  16  17
ENDBRANCH  15  16
ENDBRANCH  14  15
ENDBRANCH  13  14
ENDBRANCH   2  13
TORSDOF 15
ENDMDL
MODEL 8
REMARK VINA RESULT:    -3.822      1.944      4.826
REMARK INTER + INTRA:          -9.861
REMARK INTER:                  -7.600
REMARK INTRA:                  -2.261
REMARK UNBOUND:                -2.688
REMARK SMILES CCCCCCCCC=CCCCCCCCC(=O)[O-]
REMARK SMILES IDX 10 1 9 2 11 3 12 4 13 5 14 6 15 7 16 8 17 9 18 10 19 11
REMARK SMILES IDX 20 12 8 13 7 14 6 15 5 16 4 17 3 18 2 19 1 20
REMARK H PARENT
REMARK Flexibility Score: inf
ROOT
ATOM      1  C   UNL     1      49.634  -3.658  75.139  1.00  0.00    -0.031 C 
ATOM      2  C   UNL     1      48.853  -2.829  75.844  1.00  0.00    -0.031 C 
ENDROOT
BRANCH   1   3
ATOM      3  C   UNL     1      49.296  -5.117  74.977  1.00  0.00     0.027 C 
BRANCH   3   4
ATOM      4  C   UNL     1      50.007  -6.007  76.012  1.00  0.00     0.004 C 
BRANCH   4   5
ATOM      5  C   UNL     1      49.075  -6.606  77.085  1.00  0.00     0.000 C 
BRANCH   5   6
ATOM      6  C   UNL     1      49.356  -6.137  78.523  1.00  0.00     0.000 C 
BRANCH   6   7
ATOM      7  C   UNL     1      50.635  -5.289  78.635  1.00  0.00     0.000 C 
BRANCH   7   8
ATOM      8  C   UNL     1      50.371  -3.896  79.227  1.00  0.00     0.006 C 
BRANCH   8   9
ATOM      9  C   UNL     1      51.434  -2.869  78.813  1.00  0.00     0.053 C 
BRANCH   9  10
ATOM     10  C   UNL     1      52.328  -2.548  79.970  1.00  0.00     0.041 C 
ATOM     11  O   UNL     1      53.022  -3.453  80.503  1.00  0.00    -0.550 OA
ATOM     12  O   UNL     1      52.359  -1.258  80.489  1.00  0.00    -0.550 OA
ENDBRANCH   9  10
ENDBRANCH   8   9
ENDBRANCH   7   8
ENDBRANCH   6   7
ENDBRANCH   5   6
ENDBRANCH   4   5
ENDBRANCH   3   4
ENDBRANCH   1   3
BRANCH   2  13
ATOM     13  C   UNL     1      49.220  -1.379  76.004  1.00  0.00     0.027 C 
BRANCH  13  14
ATOM     14  C   UNL     1      48.339  -0.483  75.122  1.00  0.00     0.004 C 
BRANCH  14  15
ATOM     15  C   UNL     1      49.066  -0.011  73.853  1.00  0.00     0.000 C 
BRANCH  15  16
ATOM     16  C   UNL     1      48.770  -0.905  72.636  1.00  0.00     0.000 C 
BRANCH  16  17
ATOM     17  C   UNL     1      50.040  -1.290  71.858  1.00  0.00    -0.000 C 
BRANCH  17  18
ATOM     18  C   UNL     1      51.253  -0.391  72.175  1.00  0.00    -0.000 C 
BRANCH  18  19
ATOM     19  C   UNL     1      52.570  -1.181  72.205  1.00  0.00    -0.003 C 
ATOM     20  C   UNL     1      52.484  -2.359  73.172  1.00  0.00     0.004 C 
ENDBRANCH  18  19
ENDBRANCH  17  18
ENDBRANCH  16  17
ENDBRANCH  15  16
ENDBRANCH  14  15
ENDBRANCH  13  14
ENDBRANCH   2  13
TORSDOF 15
ENDMDL
MODEL 9
REMARK VINA RESULT:    -3.771      2.725      5.676
REMARK INTER + INTRA:          -9.766
REMARK INTER:                  -7.887
REMARK INTRA:                  -1.879
REMARK UNBOUND:                -2.688
REMARK SMILES CCCCCCCCC=CCCCCCCCC(=O)[O-]
REMARK SMILES IDX 10 1 9 2 11 3 12 4 13 5 14 6 15 7 16 8 17 9 18 10 19 11
REMARK SMILES IDX 20 12 8 13 7 14 6 15 5 16 4 17 3 18 2 19 1 20
REMARK H PARENT
REMARK Flexibility Score: inf
ROOT
ATOM      1  C   UNL     1      48.300  -2.466  74.976  1.00  0.00    -0.031 C 
ATOM      2  C   UNL     1      47.597  -3.188  75.859  1.00  0.00    -0.031 C 
ENDROOT
BRANCH   1   3
ATOM      3  C   UNL     1      48.759  -1.066  75.286  1.00  0.00     0.027 C 
BRANCH   3   4
ATOM      4  C   UNL     1      49.002  -0.229  74.018  1.00  0.00     0.004 C 
BRANCH   4   5
ATOM      5  C   UNL     1      48.691  -0.965  72.699  1.00  0.00     0.000 C 
BRANCH   5   6
ATOM      6  C   UNL     1      49.902  -1.181  71.776  1.00  0.00     0.000 C 
BRANCH   6   7
ATOM      7  C   UNL     1      51.153  -0.414  72.241  1.00  0.00     0.000 C 
BRANCH   7   8
ATOM      8  C   UNL     1      52.413  -1.292  72.257  1.00  0.00     0.006 C 
BRANCH   8   9
ATOM      9  C   UNL     1      52.115  -2.745  72.651  1.00  0.00     0.053 C 
BRANCH   9  10
ATOM     10  C   UNL     1      53.258  -3.321  73.425  1.00  0.00     0.041 C 
ATOM     11  O   UNL     1      54.223  -2.588  73.769  1.00  0.00    -0.550 OA
ATOM     12  O   UNL     1      53.281  -4.678  73.728  1.00  0.00    -0.550 OA
ENDBRANCH   9  10
ENDBRANCH   8   9
ENDBRANCH   7   8
ENDBRANCH   6   7
ENDBRANCH   5   6
ENDBRANCH   4   5
ENDBRANCH   3   4
ENDBRANCH   1   3
BRANCH   2  13
ATOM     13  C   UNL     1      47.138  -4.579  75.519  1.00  0.00     0.027 C 
BRANCH  13  14
ATOM     14  C   UNL     1      48.073  -5.636  76.125  1.00  0.00     0.004 C 
BRANCH  14  15
ATOM     15  C   UNL     1      47.432  -6.377  77.310  1.00  0.00     0.000 C 
BRANCH  15  16
ATOM     16  C   UNL     1      48.132  -6.073  78.645  1.00  0.00     0.000 C 
BRANCH  16  17
ATOM     17  C   UNL     1      49.596  -6.542  78.669  1.00  0.00    -0.000 C 
BRANCH  17  18
ATOM     18  C   UNL     1      50.615  -5.385  78.594  1.00  0.00    -0.000 C 
BRANCH  18  19
ATOM     19  C   UNL     1      50.000  -4.041  79.011  1.00  0.00    -0.003 C 
ATOM     20  C   UNL     1      50.521  -2.902  78.139  1.00  0.00     0.004 C 
ENDBRANCH  18  19
ENDBRANCH  17  18
ENDBRANCH  16  17
ENDBRANCH  15  16
ENDBRANCH  14  15
ENDBRANCH  13  14
ENDBRANCH   2  13
TORSDOF 15
ENDMDL
