MODEL 1
REMARK VINA RESULT:    -3.676      0.000      0.000
REMARK INTER + INTRA:          -9.532
REMARK INTER:                  -6.899
REMARK INTRA:                  -2.633
REMARK UNBOUND:                -2.633
REMARK SMILES O=C([O-])CCCCCCCCCCCCCCC(=O)[O-]
REMARK SMILES IDX 10 1 9 2 8 3 7 4 6 5 5 6 4 7 2 8 1 9 3 10 11 11 12 12 13 13
REMARK SMILES IDX 14 14 15 15 16 16 17 17 18 18 19 19 20 20
REMARK H PARENT
REMARK Flexibility Score: inf
ROOT
ATOM      1  C   UNL     1      -1.140   9.726  38.996  1.00  0.00     0.000 C 
ENDROOT
BRANCH   1   2
ATOM      2  C   UNL     1      -2.267   8.739  38.650  1.00  0.00     0.000 C 
BRANCH   2   3
ATOM      3  C   UNL     1      -2.956   8.168  39.898  1.00  0.00     0.000 C 
BRANCH   3   4
ATOM      4  C   UNL     1      -3.266   6.676  39.719  1.00  0.00     0.000 C 
BRANCH   4   5
ATOM      5  C   UNL     1      -2.296   5.810  40.530  1.00  0.00     0.000 C 
BRANCH   5   6
ATOM      6  C   UNL     1      -1.685   4.704  39.661  1.00  0.00     0.006 C 
BRANCH   6   7
ATOM      7  C   UNL     1      -1.694   5.102  38.182  1.00  0.00     0.053 C 
BRANCH   7   8
ATOM      8  C   UNL     1      -1.197   3.973  37.334  1.00  0.00     0.041 C 
ATOM      9  O   UNL     1      -0.153   3.350  37.658  1.00  0.00    -0.550 OA
ATOM     10  O   UNL     1      -1.916   3.578  36.213  1.00  0.00    -0.550 OA
ENDBRANCH   7   8
ENDBRANCH   6   7
ENDBRANCH   5   6
ENDBRANCH   4   5
ENDBRANCH   3   4
ENDBRANCH   2   3
ENDBRANCH   1   2
BRANCH   1  11
ATOM     11  C   UNL     1      -0.328   9.289  40.225  1.00  0.00     0.000 C 
BRANCH  11  12
ATOM     12  C   UNL     1       1.009   8.664  39.804  1.00  0.00     0.000 C 
BRANCH  12  13
ATOM     13  C   UNL     1       1.095   7.199  40.246  1.00  0.00     0.000 C 
BRANCH  13  14
ATOM     14  C   UNL     1       1.708   6.327  39.143  1.00  0.00     0.000 C 
BRANCH  14  15
ATOM     15  C   UNL     1       1.977   7.150  37.875  1.00  0.00     0.000 C 
BRANCH  15  16
ATOM     16  C   UNL     1       1.400   6.506  36.602  1.00  0.00     0.006 C 
BRANCH  16  17
ATOM     17  C   UNL     1       0.637   7.489  35.696  1.00  0.00     0.053 C 
BRANCH  17  18
ATOM     18  C   UNL     1      -0.540   6.853  35.020  1.00  0.00     0.041 C 
ATOM     19  O   UNL     1      -0.363   6.040  34.074  1.00  0.00    -0.550 OA
ATOM     20  O   UNL     1      -1.832   7.183  35.408  1.00  0.00    -0.550 OA
ENDBRANCH  17  18
ENDBRANCH  16  17
ENDBRANCH  15  16
ENDBRANCH  14  15
ENDBRANCH  13  14
ENDBRANCH  12  13
ENDBRANCH  11  12
ENDBRANCH   1  11
TORSDOF 15
ENDMDL
MODEL 2
REMARK VINA RESULT:    -3.584      1.795      4.046
REMARK INTER + INTRA:          -9.359
REMARK INTER:                  -6.875
REMARK INTRA:                  -2.484
REMARK UNBOUND:                -2.633
REMARK SMILES O=C([O-])CCCCCCCCCCCCCCC(=O)[O-]
REMARK SMILES IDX 10 1 9 2 8 3 7 4 6 5 5 6 4 7 2 8 1 9 3 10 11 11 12 12 13 13
REMARK SMILES IDX 14 14 15 15 16 16 17 17 18 18 19 19 20 20
REMARK H PARENT
REMARK Flexibility Score: inf
ROOT
ATOM      1  C   UNL     1      -2.993   7.804  40.489  1.00  0.00     0.000 C 
ENDROOT
BRANCH   1   2
ATOM      2  C   UNL     1      -2.591   7.931  39.010  1.00  0.00     0.000 C 
BRANCH   2   3
ATOM      3  C   UNL     1      -2.178   9.360  38.630  1.00  0.00     0.000 C 
BRANCH   3   4
ATOM      4  C   UNL     1      -1.948   9.482  37.118  1.00  0.00     0.000 C 
BRANCH   4   5
ATOM      5  C   UNL     1      -0.452   9.515  36.789  1.00  0.00     0.000 C 
BRANCH   5   6
ATOM      6  C   UNL     1      -0.138   8.644  35.566  1.00  0.00     0.006 C 
BRANCH   6   7
ATOM      7  C   UNL     1      -1.106   7.461  35.472  1.00  0.00     0.053 C 
BRANCH   7   8
ATOM      8  C   UNL     1      -0.467   6.317  34.748  1.00  0.00     0.041 C 
ATOM      9  O   UNL     1      -0.423   5.177  35.280  1.00  0.00    -0.550 OA
ATOM     10  O   UNL     1       0.035   6.500  33.467  1.00  0.00    -0.550 OA
ENDBRANCH   7   8
ENDBRANCH   6   7
ENDBRANCH   5   6
ENDBRANCH   4   5
ENDBRANCH   3   4
ENDBRANCH   2   3
ENDBRANCH   1   2
BRANCH   1  11
ATOM     11  C   UNL     1      -2.389   6.561  41.161  1.00  0.00     0.000 C 
BRANCH  11  12
ATOM     12  C   UNL     1      -1.925   6.881  42.588  1.00  0.00     0.000 C 
BRANCH  12  13
ATOM     13  C   UNL     1      -1.473   8.340  42.705  1.00  0.00     0.000 C 
BRANCH  13  14
ATOM     14  C   UNL     1       0.029   8.476  42.429  1.00  0.00     0.000 C 
BRANCH  14  15
ATOM     15  C   UNL     1       0.292   9.462  41.281  1.00  0.00     0.000 C 
BRANCH  15  16
ATOM     16  C   UNL     1       1.028   8.821  40.091  1.00  0.00     0.006 C 
BRANCH  16  17
ATOM     17  C   UNL     1       1.021   7.282  40.109  1.00  0.00     0.053 C 
BRANCH  17  18
ATOM     18  C   UNL     1       0.965   6.691  38.732  1.00  0.00     0.041 C 
ATOM     19  O   UNL     1       0.077   5.846  38.443  1.00  0.00    -0.550 OA
ATOM     20  O   UNL     1       1.911   7.046  37.779  1.00  0.00    -0.550 OA
ENDBRANCH  17  18
ENDBRANCH  16  17
ENDBRANCH  15  16
ENDBRANCH  14  15
ENDBRANCH  13  14
ENDBRANCH  12  13
ENDBRANCH  11  12
ENDBRANCH   1  11
TORSDOF 15
ENDMDL
MODEL 3
REMARK VINA RESULT:    -3.583      2.724      4.702
REMARK INTER + INTRA:          -9.358
REMARK INTER:                  -6.821
REMARK INTRA:                  -2.536
REMARK UNBOUND:                -2.633
REMARK SMILES O=C([O-])CCCCCCCCCCCCCCC(=O)[O-]
REMARK SMILES IDX 10 1 9 2 8 3 7 4 6 5 5 6 4 7 2 8 1 9 3 10 11 11 12 12 13 13
REMARK SMILES IDX 14 14 15 15 16 16 17 17 18 18 19 19 20 20
REMARK H PARENT
REMARK Flexibility Score: inf
ROOT
ATOM      1  C   UNL     1      -2.445   9.008  38.734  1.00  0.00     0.000 C 
ENDROOT
BRANCH   1   2
ATOM      2  C   UNL     1      -1.391   8.270  37.893  1.00  0.00     0.000 C 
BRANCH   2   3
ATOM      3  C   UNL     1      -1.539   8.541  36.388  1.00  0.00     0.000 C 
BRANCH   3   4
ATOM      4  C   UNL     1      -1.425   7.240  35.583  1.00  0.00     0.000 C 
BRANCH   4   5
ATOM      5  C   UNL     1      -0.953   6.082  36.469  1.00  0.00     0.000 C 
BRANCH   5   6
ATOM      6  C   UNL     1       0.225   5.341  35.825  1.00  0.00     0.006 C 
BRANCH   6   7
ATOM      7  C   UNL     1       1.448   6.256  35.702  1.00  0.00     0.053 C 
BRANCH   7   8
ATOM      8  C   UNL     1       1.907   6.699  37.056  1.00  0.00     0.041 C 
ATOM      9  O   UNL     1       1.970   7.926  37.332  1.00  0.00    -0.550 OA
ATOM     10  O   UNL     1       2.218   5.757  38.028  1.00  0.00    -0.550 OA
ENDBRANCH   7   8
ENDBRANCH   6   7
ENDBRANCH   5   6
ENDBRANCH   4   5
ENDBRANCH   3   4
ENDBRANCH   2   3
ENDBRANCH   1   2
BRANCH   1  11
ATOM     11  C   UNL     1      -2.953   8.167  39.915  1.00  0.00     0.000 C 
BRANCH  11  12
ATOM     12  C   UNL     1      -3.142   6.701  39.504  1.00  0.00     0.000 C 
BRANCH  12  13
ATOM     13  C   UNL     1      -2.473   5.757  40.509  1.00  0.00     0.000 C 
BRANCH  13  14
ATOM     14  C   UNL     1      -1.203   5.134  39.919  1.00  0.00     0.000 C 
BRANCH  14  15
ATOM     15  C   UNL     1      -0.015   5.286  40.880  1.00  0.00     0.000 C 
BRANCH  15  16
ATOM     16  C   UNL     1       0.055   6.676  41.539  1.00  0.00     0.006 C 
BRANCH  16  17
ATOM     17  C   UNL     1       0.889   7.699  40.749  1.00  0.00     0.053 C 
BRANCH  17  18
ATOM     18  C   UNL     1       0.521   9.115  41.074  1.00  0.00     0.041 C 
ATOM     19  O   UNL     1      -0.005   9.393  42.184  1.00  0.00    -0.550 OA
ATOM     20  O   UNL     1       0.727  10.123  40.141  1.00  0.00    -0.550 OA
ENDBRANCH  17  18
ENDBRANCH  16  17
ENDBRANCH  15  16
ENDBRANCH  14  15
ENDBRANCH  13  14
ENDBRANCH  12  13
ENDBRANCH  11  12
ENDBRANCH   1  11
TORSDOF 15
ENDMDL
MODEL 4
REMARK VINA RESULT:    -3.476      1.600      4.408
REMARK INTER + INTRA:          -9.157
REMARK INTER:                  -6.543
REMARK INTRA:                  -2.613
REMARK UNBOUND:                -2.633
REMARK SMILES O=C([O-])CCCCCCCCCCCCCCC(=O)[O-]
REMARK SMILES IDX 10 1 9 2 8 3 7 4 6 5 5 6 4 7 2 8 1 9 3 10 11 11 12 12 13 13
REMARK SMILES IDX 14 14 15 15 16 16 17 17 18 18 19 19 20 20
REMARK H PARENT
REMARK Flexibility Score: inf
ROOT
ATOM      1  C   UNL     1      -0.835   8.596  42.363  1.00  0.00     0.000 C 
ENDROOT
BRANCH   1   2
ATOM      2  C   UNL     1       0.536   8.064  41.914  1.00  0.00     0.000 C 
BRANCH   2   3
ATOM      3  C   UNL     1       0.905   8.506  40.490  1.00  0.00     0.000 C 
BRANCH   3   4
ATOM      4  C   UNL     1       0.398   9.926  40.208  1.00  0.00     0.000 C 
BRANCH   4   5
ATOM      5  C   UNL     1      -0.391   9.980  38.896  1.00  0.00     0.000 C 
BRANCH   5   6
ATOM      6  C   UNL     1      -0.490   8.590  38.256  1.00  0.00     0.006 C 
BRANCH   6   7
ATOM      7  C   UNL     1      -1.490   8.590  37.096  1.00  0.00     0.053 C 
BRANCH   7   8
ATOM      8  C   UNL     1      -0.856   8.036  35.858  1.00  0.00     0.041 C 
ATOM      9  O   UNL     1      -1.438   7.135  35.198  1.00  0.00    -0.550 OA
ATOM     10  O   UNL     1       0.353   8.548  35.408  1.00  0.00    -0.550 OA
ENDBRANCH   7   8
ENDBRANCH   6   7
ENDBRANCH   5   6
ENDBRANCH   4   5
ENDBRANCH   3   4
ENDBRANCH   2   3
ENDBRANCH   1   2
BRANCH   1  11
ATOM     11  C   UNL     1      -1.656   7.544  43.125  1.00  0.00     0.000 C 
BRANCH  11  12
ATOM     12  C   UNL     1      -2.925   7.171  42.347  1.00  0.00     0.000 C 
BRANCH  12  13
ATOM     13  C   UNL     1      -3.004   7.936  41.022  1.00  0.00     0.000 C 
BRANCH  13  14
ATOM     14  C   UNL     1      -3.321   6.990  39.858  1.00  0.00     0.000 C 
BRANCH  14  15
ATOM     15  C   UNL     1      -2.789   5.576  40.135  1.00  0.00     0.000 C 
BRANCH  15  16
ATOM     16  C   UNL     1      -1.423   5.305  39.479  1.00  0.00     0.006 C 
BRANCH  16  17
ATOM     17  C   UNL     1      -1.514   4.887  38.001  1.00  0.00     0.053 C 
BRANCH  17  18
ATOM     18  C   UNL     1      -0.173   4.574  37.408  1.00  0.00     0.041 C 
ATOM     19  O   UNL     1       0.794   5.362  37.581  1.00  0.00    -0.550 OA
ATOM     20  O   UNL     1       0.001   3.433  36.636  1.00  0.00    -0.550 OA
ENDBRANCH  17  18
ENDBRANCH  16  17
ENDBRANCH  15  16
ENDBRANCH  14  15
ENDBRANCH  13  14
ENDBRANCH  12  13
ENDBRANCH  11  12
ENDBRANCH   1  11
TORSDOF 15
ENDMDL
MODEL 5
REMARK VINA RESULT:    -3.460      1.884      4.176
REMARK INTER + INTRA:          -9.127
REMARK INTER:                  -6.900
REMARK INTRA:                  -2.228
REMARK UNBOUND:                -2.633
REMARK SMILES O=C([O-])CCCCCCCCCCCCCCC(=O)[O-]
REMARK SMILES IDX 10 1 9 2 8 3 7 4 6 5 5 6 4 7 2 8 1 9 3 10 11 11 12 12 13 13
REMARK SMILES IDX 14 14 15 15 16 16 17 17 18 18 19 19 20 20
REMARK H PARENT
REMARK Flexibility Score: inf
ROOT
ATOM      1  C   UNL     1      -1.725   9.122  36.801  1.00  0.00     0.000 C 
ENDROOT
BRANCH   1   2
ATOM      2  C   UNL     1      -0.534   9.918  36.243  1.00  0.00     0.000 C 
BRANCH   2   3
ATOM      3  C   UNL     1       0.780   9.123  36.283  1.00  0.00     0.000 C 
BRANCH   3   4
ATOM      4  C   UNL     1       1.696   9.633  37.403  1.00  0.00     0.000 C 
BRANCH   4   5
ATOM      5  C   UNL     1       1.823   8.597  38.526  1.00  0.00     0.000 C 
BRANCH   5   6
ATOM      6  C   UNL     1       1.232   7.248  38.100  1.00  0.00     0.006 C 
BRANCH   6   7
ATOM      7  C   UNL     1       2.203   6.103  38.404  1.00  0.00     0.053 C 
BRANCH   7   8
ATOM      8  C   UNL     1       2.846   5.613  37.144  1.00  0.00     0.041 C 
ATOM      9  O   UNL     1       2.379   5.948  36.024  1.00  0.00    -0.550 OA
ATOM     10  O   UNL     1       3.990   4.828  37.207  1.00  0.00    -0.550 OA
ENDBRANCH   7   8
ENDBRANCH   6   7
ENDBRANCH   5   6
ENDBRANCH   4   5
ENDBRANCH   3   4
ENDBRANCH   2   3
ENDBRANCH   1   2
BRANCH   1  11
ATOM     11  C   UNL     1      -2.244   9.689  38.132  1.00  0.00     0.000 C 
BRANCH  11  12
ATOM     12  C   UNL     1      -1.790   8.820  39.312  1.00  0.00     0.000 C 
BRANCH  12  13
ATOM     13  C   UNL     1      -2.972   8.057  39.920  1.00  0.00     0.000 C 
BRANCH  13  14
ATOM     14  C   UNL     1      -2.606   6.591  40.181  1.00  0.00     0.000 C 
BRANCH  14  15
ATOM     15  C   UNL     1      -2.992   5.706  38.987  1.00  0.00     0.000 C 
BRANCH  15  16
ATOM     16  C   UNL     1      -1.780   5.246  38.158  1.00  0.00     0.006 C 
BRANCH  16  17
ATOM     17  C   UNL     1      -1.938   5.469  36.644  1.00  0.00     0.053 C 
BRANCH  17  18
ATOM     18  C   UNL     1      -1.031   4.592  35.835  1.00  0.00     0.041 C 
ATOM     19  O   UNL     1      -0.525   5.022  34.765  1.00  0.00    -0.550 OA
ATOM     20  O   UNL     1      -0.773   3.289  36.242  1.00  0.00    -0.550 OA
ENDBRANCH  17  18
ENDBRANCH  16  17
ENDBRANCH  15  16
ENDBRANCH  14  15
ENDBRANCH  13  14
ENDBRANCH  12  13
ENDBRANCH  11  12
ENDBRANCH   1  11
TORSDOF 15
ENDMDL
MODEL 6
REMARK VINA RESULT:    -3.444      2.031      3.787
REMARK INTER + INTRA:          -9.097
REMARK INTER:                  -6.544
REMARK INTRA:                  -2.553
REMARK UNBOUND:                -2.633
REMARK SMILES O=C([O-])CCCCCCCCCCCCCCC(=O)[O-]
REMARK SMILES IDX 10 1 9 2 8 3 7 4 6 5 5 6 4 7 2 8 1 9 3 10 11 11 12 12 13 13
REMARK SMILES IDX 14 14 15 15 16 16 17 17 18 18 19 19 20 20
REMARK H PARENT
REMARK Flexibility Score: inf
ROOT
ATOM      1  C   UNL     1      -3.347   5.992  39.422  1.00  0.00     0.000 C 
ENDROOT
BRANCH   1   2
ATOM      2  C   UNL     1      -2.099   5.220  38.963  1.00  0.00     0.000 C 
BRANCH   2   3
ATOM      3  C   UNL     1      -1.752   5.480  37.490  1.00  0.00     0.000 C 
BRANCH   3   4
ATOM      4  C   UNL     1      -0.233   5.555  37.288  1.00  0.00     0.000 C 
BRANCH   4   5
ATOM      5  C   UNL     1       0.493   5.718  38.628  1.00  0.00     0.000 C 
BRANCH   5   6
ATOM      6  C   UNL     1       2.009   5.827  38.423  1.00  0.00     0.006 C 
BRANCH   6   7
ATOM      7  C   UNL     1       2.345   6.093  36.952  1.00  0.00     0.053 C 
BRANCH   7   8
ATOM      8  C   UNL     1       3.262   5.033  36.426  1.00  0.00     0.041 C 
ATOM      9  O   UNL     1       4.348   4.786  37.013  1.00  0.00    -0.550 OA
ATOM     10  O   UNL     1       2.894   4.284  35.316  1.00  0.00    -0.550 OA
ENDBRANCH   7   8
ENDBRANCH   6   7
ENDBRANCH   5   6
ENDBRANCH   4   5
ENDBRANCH   3   4
ENDBRANCH   2   3
ENDBRANCH   1   2
BRANCH   1  11
ATOM     11  C   UNL     1      -3.019   7.096  40.439  1.00  0.00     0.000 C 
BRANCH  11  12
ATOM     12  C   UNL     1      -2.712   8.421  39.728  1.00  0.00     0.000 C 
BRANCH  12  13
ATOM     13  C   UNL     1      -1.210   8.724  39.752  1.00  0.00     0.000 C 
BRANCH  13  14
ATOM     14  C   UNL     1      -0.750   9.332  38.422  1.00  0.00     0.000 C 
BRANCH  14  15
ATOM     15  C   UNL     1      -1.867   9.266  37.369  1.00  0.00     0.000 C 
BRANCH  15  16
ATOM     16  C   UNL     1      -1.359   8.869  35.972  1.00  0.00     0.006 C 
BRANCH  16  17
ATOM     17  C   UNL     1       0.175   8.865  35.844  1.00  0.00     0.053 C 
BRANCH  17  18
ATOM     18  C   UNL     1       0.638   8.423  34.489  1.00  0.00     0.041 C 
ATOM     19  O   UNL     1       1.081   9.267  33.666  1.00  0.00    -0.550 OA
ATOM     20  O   UNL     1       0.549   7.087  34.121  1.00  0.00    -0.550 OA
ENDBRANCH  17  18
ENDBRANCH  16  17
ENDBRANCH  15  16
ENDBRANCH  14  15
ENDBRANCH  13  14
ENDBRANCH  12  13
ENDBRANCH  11  12
ENDBRANCH   1  11
TORSDOF 15
ENDMDL
MODEL 7
REMARK VINA RESULT:    -3.416      2.604      4.085
REMARK INTER + INTRA:          -9.045
REMARK INTER:                  -6.752
REMARK INTRA:                  -2.293
REMARK UNBOUND:                -2.633
REMARK SMILES O=C([O-])CCCCCCCCCCCCCCC(=O)[O-]
REMARK SMILES IDX 10 1 9 2 8 3 7 4 6 5 5 6 4 7 2 8 1 9 3 10 11 11 12 12 13 13
REMARK SMILES IDX 14 14 15 15 16 16 17 17 18 18 19 19 20 20
REMARK H PARENT
REMARK Flexibility Score: inf
ROOT
ATOM      1  C   UNL     1       0.062   9.944  36.704  1.00  0.00     0.000 C 
ENDROOT
BRANCH   1   2
ATOM      2  C   UNL     1      -1.427   9.642  36.468  1.00  0.00     0.000 C 
BRANCH   2   3
ATOM      3  C   UNL     1      -2.260   9.737  37.755  1.00  0.00     0.000 C 
BRANCH   3   4
ATOM      4  C   UNL     1      -1.819   8.677  38.773  1.00  0.00     0.000 C 
BRANCH   4   5
ATOM      5  C   UNL     1      -2.986   8.261  39.676  1.00  0.00     0.000 C 
BRANCH   5   6
ATOM      6  C   UNL     1      -2.772   6.850  40.238  1.00  0.00     0.006 C 
BRANCH   6   7
ATOM      7  C   UNL     1      -2.571   5.835  39.108  1.00  0.00     0.053 C 
BRANCH   7   8
ATOM      8  C   UNL     1      -1.572   4.796  39.511  1.00  0.00     0.041 C 
ATOM      9  O   UNL     1      -1.263   4.651  40.723  1.00  0.00    -0.550 OA
ATOM     10  O   UNL     1      -1.019   3.955  38.554  1.00  0.00    -0.550 OA
ENDBRANCH   7   8
ENDBRANCH   6   7
ENDBRANCH   5   6
ENDBRANCH   4   5
ENDBRANCH   3   4
ENDBRANCH   2   3
ENDBRANCH   1   2
BRANCH   1  11
ATOM     11  C   UNL     1       0.987   8.932  36.010  1.00  0.00     0.000 C 
BRANCH  11  12
ATOM     12  C   UNL     1       0.251   7.613  35.738  1.00  0.00     0.000 C 
BRANCH  12  13
ATOM     13  C   UNL     1       0.513   6.596  36.854  1.00  0.00     0.000 C 
BRANCH  13  14
ATOM     14  C   UNL     1       1.979   6.635  37.301  1.00  0.00     0.000 C 
BRANCH  14  15
ATOM     15  C   UNL     1       2.090   6.589  38.832  1.00  0.00     0.000 C 
BRANCH  15  16
ATOM     16  C   UNL     1       1.201   7.631  39.534  1.00  0.00     0.006 C 
BRANCH  16  17
ATOM     17  C   UNL     1       0.990   7.361  41.034  1.00  0.00     0.053 C 
BRANCH  17  18
ATOM     18  C   UNL     1       0.249   8.469  41.719  1.00  0.00     0.041 C 
ATOM     19  O   UNL     1      -0.551   8.210  42.657  1.00  0.00    -0.550 OA
ATOM     20  O   UNL     1       0.414   9.784  41.301  1.00  0.00    -0.550 OA
ENDBRANCH  17  18
ENDBRANCH  16  17
ENDBRANCH  15  16
ENDBRANCH  14  15
ENDBRANCH  13  14
ENDBRANCH  12  13
ENDBRANCH  11  12
ENDBRANCH   1  11
TORSDOF 15
ENDMDL
MODEL 8
REMARK VINA RESULT:    -3.406      2.168      4.746
REMARK INTER + INTRA:          -9.025
REMARK INTER:                  -6.335
REMARK INTRA:                  -2.690
REMARK UNBOUND:                -2.633
REMARK SMILES O=C([O-])CCCCCCCCCCCCCCC(=O)[O-]
REMARK SMILES IDX 10 1 9 2 8 3 7 4 6 5 5 6 4 7 2 8 1 9 3 10 11 11 12 12 13 13
REMARK SMILES IDX 14 14 15 15 16 16 17 17 18 18 19 19 20 20
REMARK H PARENT
REMARK Flexibility Score: inf
ROOT
ATOM      1  C   UNL     1      -2.993   7.880  40.132  1.00  0.00     0.000 C 
ENDROOT
BRANCH   1   2
ATOM      2  C   UNL     1      -3.409   6.468  39.688  1.00  0.00     0.000 C 
BRANCH   2   3
ATOM      3  C   UNL     1      -2.475   5.378  40.233  1.00  0.00     0.000 C 
BRANCH   3   4
ATOM      4  C   UNL     1      -1.610   4.785  39.113  1.00  0.00     0.000 C 
BRANCH   4   5
ATOM      5  C   UNL     1      -2.055   5.303  37.741  1.00  0.00     0.000 C 
BRANCH   5   6
ATOM      6  C   UNL     1      -0.862   5.844  36.944  1.00  0.00     0.006 C 
BRANCH   6   7
ATOM      7  C   UNL     1      -1.294   6.984  36.017  1.00  0.00     0.053 C 
BRANCH   7   8
ATOM      8  C   UNL     1      -0.192   7.988  35.874  1.00  0.00     0.041 C 
ATOM      9  O   UNL     1      -0.420   9.105  35.340  1.00  0.00    -0.550 OA
ATOM     10  O   UNL     1       1.073   7.708  36.374  1.00  0.00    -0.550 OA
ENDBRANCH   7   8
ENDBRANCH   6   7
ENDBRANCH   5   6
ENDBRANCH   4   5
ENDBRANCH   3   4
ENDBRANCH   2   3
ENDBRANCH   1   2
BRANCH   1  11
ATOM     11  C   UNL     1      -2.622   8.787  38.948  1.00  0.00     0.000 C 
BRANCH  11  12
ATOM     12  C   UNL     1      -1.216   9.375  39.128  1.00  0.00     0.000 C 
BRANCH  12  13
ATOM     13  C   UNL     1      -0.252   8.331  39.702  1.00  0.00     0.000 C 
BRANCH  13  14
ATOM     14  C   UNL     1       0.766   8.983  40.645  1.00  0.00     0.000 C 
BRANCH  14  15
ATOM     15  C   UNL     1       0.281   8.930  42.102  1.00  0.00     0.000 C 
BRANCH  15  16
ATOM     16  C   UNL     1      -0.302   7.562  42.496  1.00  0.00     0.006 C 
BRANCH  16  17
ATOM     17  C   UNL     1       0.757   6.538  42.942  1.00  0.00     0.053 C 
BRANCH  17  18
ATOM     18  C   UNL     1       0.780   5.318  42.071  1.00  0.00     0.041 C 
ATOM     19  O   UNL     1       1.351   5.353  40.949  1.00  0.00    -0.550 OA
ATOM     20  O   UNL     1       0.143   4.154  42.481  1.00  0.00    -0.550 OA
ENDBRANCH  17  18
ENDBRANCH  16  17
ENDBRANCH  15  16
ENDBRANCH  14  15
ENDBRANCH  13  14
ENDBRANCH  12  13
ENDBRANCH  11  12
ENDBRANCH   1  11
TORSDOF 15
ENDMDL
MODEL 9
REMARK VINA RESULT:    -1.213      2.673      4.049
REMARK INTER + INTRA:          -4.910
REMARK INTER:                  -2.594
REMARK INTRA:                  -2.316
REMARK UNBOUND:                -2.633
REMARK SMILES O=C([O-])CCCCCCCCCCCCCCC(=O)[O-]
REMARK SMILES IDX 10 1 9 2 8 3 7 4 6 5 5 6 4 7 2 8 1 9 3 10 11 11 12 12 13 13
REMARK SMILES IDX 14 14 15 15 16 16 17 17 18 18 19 19 20 20
REMARK H PARENT
REMARK Flexibility Score: inf
ROOT
ATOM      1  C   UNL     1      -2.166   9.722  38.165  1.00  0.00     0.000 C 
ENDROOT
BRANCH   1   2
ATOM      2  C   UNL     1      -2.263   8.267  38.652  1.00  0.00     0.000 C 
BRANCH   2   3
ATOM      3  C   UNL     1      -3.014   8.138  39.985  1.00  0.00     0.000 C 
BRANCH   3   4
ATOM      4  C   UNL     1      -2.888   6.718  40.551  1.00  0.00     0.000 C 
BRANCH   4   5
ATOM      5  C   UNL     1      -1.571   6.066  40.117  1.00  0.00     0.000 C 
BRANCH   5   6
ATOM      6  C   UNL     1      -1.828   4.818  39.264  1.00  0.00     0.006 C 
BRANCH   6   7
ATOM      7  C   UNL     1      -0.785   4.690  38.150  1.00  0.00     0.053 C 
BRANCH   7   8
ATOM      8  C   UNL     1      -1.453   4.648  36.810  1.00  0.00     0.041 C 
ATOM      9  O   UNL     1      -1.692   3.542  36.257  1.00  0.00    -0.550 OA
ATOM     10  O   UNL     1      -1.856   5.826  36.196  1.00  0.00    -0.550 OA
ENDBRANCH   7   8
ENDBRANCH   6   7
ENDBRANCH   5   6
ENDBRANCH   4   5
ENDBRANCH   3   4
ENDBRANCH   2   3
ENDBRANCH   1   2
BRANCH   1  11
ATOM     11  C   UNL     1      -1.506   9.840  36.782  1.00  0.00     0.000 C 
BRANCH  11  12
ATOM     12  C   UNL     1      -0.004  10.125  36.914  1.00  0.00     0.000 C 
BRANCH  12  13
ATOM     13  C   UNL     1       0.825   8.892  36.540  1.00  0.00     0.000 C 
BRANCH  13  14
ATOM     14  C   UNL     1       1.327   8.165  37.793  1.00  0.00     0.000 C 
BRANCH  14  15
ATOM     15  C   UNL     1       1.429   9.127  38.985  1.00  0.00     0.000 C 
BRANCH  15  16
ATOM     16  C   UNL     1       1.098   8.459  40.332  1.00  0.00     0.006 C 
BRANCH  16  17
ATOM     17  C   UNL     1       0.248   9.334  41.270  1.00  0.00     0.053 C 
BRANCH  17  18
ATOM     18  C   UNL     1      -0.108   8.632  42.545  1.00  0.00     0.041 C 
ATOM     19  O   UNL     1       0.710   7.839  43.081  1.00  0.00    -0.550 OA
ATOM     20  O   UNL     1      -1.356   8.825  43.125  1.00  0.00    -0.550 OA
ENDBRANCH  17  18
ENDBRANCH  16  17
ENDBRANCH  15  16
ENDBRANCH  14  15
ENDBRANCH  13  14
ENDBRANCH  12  13
ENDBRANCH  11  12
ENDBRANCH   1  11
TORSDOF 15
ENDMDL
