MODEL 1
REMARK VINA RESULT:    -5.932      0.000      0.000
REMARK INTER + INTRA:         -10.672
REMARK INTER:                  -9.053
REMARK INTRA:                  -1.619
REMARK UNBOUND:                -1.619
REMARK SMILES OC[C@@H]1O[C@](CO)(O[C@H]2O[C@H](CO)[C@H](O)[C@@H](O)[C@H]2O)[C@@H](O)[C@H]1O
REMARK SMILES IDX 8 1 9 2 11 3 14 4 10 5 16 6 18 7 12 8 13 9 15 11 17 13 19 15
REMARK SMILES IDX 5 17 20 18 4 19 22 20 3 21 6 22 7 23 21 25 23 27 2 29 1 30
REMARK H PARENT 13 10 15 12 17 14 19 16 7 24 21 26 23 28 1 31
REMARK Flexibility Score: inf
ROOT
ATOM      1  O   UNL     1      -0.399   4.427   8.778  1.00  0.00    -0.313 OA
ENDROOT
BRANCH   1   2
ATOM      2  C   UNL     1      -1.204   3.708   7.848  1.00  0.00     0.285 C 
ATOM      3  C   UNL     1      -3.235   3.729   6.633  1.00  0.00     0.178 C 
ATOM      4  C   UNL     1      -2.597   2.617   5.741  1.00  0.00     0.177 C 
ATOM      5  O   UNL     1      -2.298   4.487   7.397  1.00  0.00    -0.341 OA
ATOM      6  C   UNL     1      -1.150   2.999   5.376  1.00  0.00     0.179 C 
ATOM      7  C   UNL     1      -0.310   3.307   6.645  1.00  0.00     0.202 C 
BRANCH   3   8
ATOM      8  C   UNL     1      -4.375   3.219   7.529  1.00  0.00     0.191 C 
BRANCH   8   9
ATOM      9  O   UNL     1      -5.290   2.479   6.769  1.00  0.00    -0.394 OA
ATOM     10  H   UNL     1      -4.881   1.584   6.638  1.00  0.00     0.210 HD
ENDBRANCH   8   9
ENDBRANCH   3   8
BRANCH   4  11
ATOM     11  O   UNL     1      -2.603   1.378   6.407  1.00  0.00    -0.387 OA
ATOM     12  H   UNL     1      -3.459   0.929   6.177  1.00  0.00     0.211 HD
ENDBRANCH   4  11
BRANCH   6  13
ATOM     13  O   UNL     1      -1.138   4.067   4.457  1.00  0.00    -0.387 OA
ATOM     14  H   UNL     1      -1.150   3.688   3.540  1.00  0.00     0.211 HD
ENDBRANCH   6  13
BRANCH   7  15
ATOM     15  O   UNL     1       0.627   4.318   6.360  1.00  0.00    -0.385 OA
ATOM     16  H   UNL     1       1.144   4.484   7.190  1.00  0.00     0.211 HD
ENDBRANCH   7  15
ENDBRANCH   1   2
BRANCH   1  17
ATOM     17  C   UNL     1      -0.104   3.789  10.025  1.00  0.00     0.224 C 
ATOM     18  C   UNL     1      -0.211   4.824  11.169  1.00  0.00     0.208 C 
ATOM     19  O   UNL     1       1.256   3.405   9.956  1.00  0.00    -0.337 OA
ATOM     20  C   UNL     1       1.133   5.515  11.098  1.00  0.00     0.180 C 
ATOM     21  C   UNL     1       2.043   4.411  10.563  1.00  0.00     0.179 C 
BRANCH  17  22
ATOM     22  C   UNL     1      -0.931   2.496  10.276  1.00  0.00     0.225 C 
BRANCH  22  23
ATOM     23  O   UNL     1      -0.336   1.706  11.271  1.00  0.00    -0.391 OA
ATOM     24  H   UNL     1       0.033   2.337  11.944  1.00  0.00     0.210 HD
ENDBRANCH  22  23
ENDBRANCH  17  22
BRANCH  18  25
ATOM     25  O   UNL     1      -0.437   4.230  12.429  1.00  0.00    -0.385 OA
ATOM     26  H   UNL     1       0.255   3.533  12.580  1.00  0.00     0.211 HD
ENDBRANCH  18  25
BRANCH  20  27
ATOM     27  O   UNL     1       1.570   5.972  12.353  1.00  0.00    -0.387 OA
ATOM     28  H   UNL     1       1.530   6.964  12.320  1.00  0.00     0.211 HD
ENDBRANCH  20  27
BRANCH  21  29
ATOM     29  C   UNL     1       3.095   4.931   9.573  1.00  0.00     0.191 C 
BRANCH  29  30
ATOM     30  O   UNL     1       2.579   4.978   8.268  1.00  0.00    -0.394 OA
ATOM     31  H   UNL     1       3.286   5.362   7.687  1.00  0.00     0.210 HD
ENDBRANCH  29  30
ENDBRANCH  21  29
ENDBRANCH   1  17
TORSDOF 13
ENDMDL
MODEL 2
REMARK VINA RESULT:    -5.751      7.967     10.688
REMARK INTER + INTRA:         -10.396
REMARK INTER:                  -8.826
REMARK INTRA:                  -1.570
REMARK UNBOUND:                -1.619
REMARK SMILES OC[C@@H]1O[C@](CO)(O[C@H]2O[C@H](CO)[C@H](O)[C@@H](O)[C@H]2O)[C@@H](O)[C@H]1O
REMARK SMILES IDX 8 1 9 2 11 3 14 4 10 5 16 6 18 7 12 8 13 9 15 11 17 13 19 15
REMARK SMILES IDX 5 17 20 18 4 19 22 20 3 21 6 22 7 23 21 25 23 27 2 29 1 30
REMARK H PARENT 13 10 15 12 17 14 19 16 7 24 21 26 23 28 1 31
REMARK Flexibility Score: inf
ROOT
ATOM      1  O   UNL     1      -2.568   0.950  18.188  1.00  0.00    -0.313 OA
ENDROOT
BRANCH   1   2
ATOM      2  C   UNL     1      -2.035   0.394  16.990  1.00  0.00     0.285 C 
ATOM      3  C   UNL     1      -1.054   0.902  14.896  1.00  0.00     0.178 C 
ATOM      4  C   UNL     1      -0.594  -0.591  14.863  1.00  0.00     0.177 C 
ATOM      5  O   UNL     1      -1.410   1.383  16.191  1.00  0.00    -0.341 OA
ATOM      6  C   UNL     1      -0.005  -0.993  16.229  1.00  0.00     0.179 C 
ATOM      7  C   UNL     1      -1.002  -0.697  17.382  1.00  0.00     0.202 C 
BRANCH   3   8
ATOM      8  C   UNL     1      -2.158   1.226  13.878  1.00  0.00     0.191 C 
BRANCH   8   9
ATOM      9  O   UNL     1      -1.852   0.652  12.637  1.00  0.00    -0.394 OA
ATOM     10  H   UNL     1      -0.862   0.589  12.598  1.00  0.00     0.210 HD
ENDBRANCH   8   9
ENDBRANCH   3   8
BRANCH   4  11
ATOM     11  O   UNL     1      -1.670  -1.439  14.546  1.00  0.00    -0.387 OA
ATOM     12  H   UNL     1      -2.454  -0.857  14.363  1.00  0.00     0.211 HD
ENDBRANCH   4  11
BRANCH   6  13
ATOM     13  O   UNL     1       1.242  -0.370  16.431  1.00  0.00    -0.387 OA
ATOM     14  H   UNL     1       1.109   0.400  17.042  1.00  0.00     0.211 HD
ENDBRANCH   6  13
BRANCH   7  15
ATOM     15  O   UNL     1      -0.293  -0.321  18.538  1.00  0.00    -0.385 OA
ATOM     16  H   UNL     1       0.383  -1.026  18.712  1.00  0.00     0.211 HD
ENDBRANCH   7  15
ENDBRANCH   1   2
BRANCH   1  17
ATOM     17  C   UNL     1      -3.989   0.905  18.360  1.00  0.00     0.224 C 
ATOM     18  C   UNL     1      -4.424   2.026  19.333  1.00  0.00     0.208 C 
ATOM     19  O   UNL     1      -4.267  -0.322  19.008  1.00  0.00    -0.337 OA
ATOM     20  C   UNL     1      -4.147   1.398  20.682  1.00  0.00     0.180 C 
ATOM     21  C   UNL     1      -4.350  -0.090  20.401  1.00  0.00     0.179 C 
BRANCH  17  22
ATOM     22  C   UNL     1      -4.779   0.902  17.020  1.00  0.00     0.225 C 
BRANCH  22  23
ATOM     23  O   UNL     1      -6.009   0.243  17.166  1.00  0.00    -0.391 OA
ATOM     24  H   UNL     1      -5.862  -0.691  16.865  1.00  0.00     0.210 HD
ENDBRANCH  22  23
ENDBRANCH  17  22
BRANCH  18  25
ATOM     25  O   UNL     1      -5.779   2.388  19.183  1.00  0.00    -0.385 OA
ATOM     26  H   UNL     1      -5.998   2.404  18.214  1.00  0.00     0.211 HD
ENDBRANCH  18  25
BRANCH  20  27
ATOM     27  O   UNL     1      -5.029   1.852  21.677  1.00  0.00    -0.387 OA
ATOM     28  H   UNL     1      -5.003   1.177  22.405  1.00  0.00     0.211 HD
ENDBRANCH  20  27
BRANCH  21  29
ATOM     29  C   UNL     1      -3.348  -0.981  21.148  1.00  0.00     0.191 C 
BRANCH  29  30
ATOM     30  O   UNL     1      -2.105  -0.998  20.495  1.00  0.00    -0.394 OA
ATOM     31  H   UNL     1      -2.092  -0.226  19.871  1.00  0.00     0.210 HD
ENDBRANCH  29  30
ENDBRANCH  21  29
ENDBRANCH   1  17
TORSDOF 13
ENDMDL
MODEL 3
REMARK VINA RESULT:    -5.590      2.050      6.310
REMARK INTER + INTRA:         -10.150
REMARK INTER:                  -8.893
REMARK INTRA:                  -1.257
REMARK UNBOUND:                -1.619
REMARK SMILES OC[C@@H]1O[C@](CO)(O[C@H]2O[C@H](CO)[C@H](O)[C@@H](O)[C@H]2O)[C@@H](O)[C@H]1O
REMARK SMILES IDX 8 1 9 2 11 3 14 4 10 5 16 6 18 7 12 8 13 9 15 11 17 13 19 15
REMARK SMILES IDX 5 17 20 18 4 19 22 20 3 21 6 22 7 23 21 25 23 27 2 29 1 30
REMARK H PARENT 13 10 15 12 17 14 19 16 7 24 21 26 23 28 1 31
REMARK Flexibility Score: inf
ROOT
ATOM      1  O   UNL     1      -2.271   2.279   6.582  1.00  0.00    -0.313 OA
ENDROOT
BRANCH   1   2
ATOM      2  C   UNL     1      -1.897   3.074   7.703  1.00  0.00     0.285 C 
ATOM      3  C   UNL     1      -1.994   3.251  10.062  1.00  0.00     0.178 C 
ATOM      4  C   UNL     1      -0.844   4.299   9.930  1.00  0.00     0.177 C 
ATOM      5  O   UNL     1      -2.158   2.405   8.925  1.00  0.00    -0.341 OA
ATOM      6  C   UNL     1       0.234   3.781   8.959  1.00  0.00     0.179 C 
ATOM      7  C   UNL     1      -0.382   3.390   7.588  1.00  0.00     0.202 C 
BRANCH   3   8
ATOM      8  C   UNL     1      -3.340   3.866  10.476  1.00  0.00     0.191 C 
BRANCH   8   9
ATOM      9  O   UNL     1      -3.143   4.829  11.474  1.00  0.00    -0.394 OA
ATOM     10  H   UNL     1      -3.734   5.592  11.244  1.00  0.00     0.210 HD
ENDBRANCH   8   9
ENDBRANCH   3   8
BRANCH   4  11
ATOM     11  O   UNL     1      -1.340   5.532   9.468  1.00  0.00    -0.387 OA
ATOM     12  H   UNL     1      -0.613   6.199   9.584  1.00  0.00     0.211 HD
ENDBRANCH   4  11
BRANCH   6  13
ATOM     13  O   UNL     1       0.954   2.719   9.541  1.00  0.00    -0.387 OA
ATOM     14  H   UNL     1       1.238   2.104   8.817  1.00  0.00     0.211 HD
ENDBRANCH   6  13
BRANCH   7  15
ATOM     15  O   UNL     1       0.317   2.295   7.048  1.00  0.00    -0.385 OA
ATOM     16  H   UNL     1       1.280   2.534   7.040  1.00  0.00     0.211 HD
ENDBRANCH   7  15
ENDBRANCH   1   2
BRANCH   1  17
ATOM     17  C   UNL     1      -2.933   2.939   5.498  1.00  0.00     0.224 C 
ATOM     18  C   UNL     1      -3.895   4.011   6.062  1.00  0.00     0.208 C 
ATOM     19  O   UNL     1      -3.744   1.958   4.878  1.00  0.00    -0.337 OA
ATOM     20  C   UNL     1      -5.111   3.187   6.426  1.00  0.00     0.180 C 
ATOM     21  C   UNL     1      -5.051   2.046   5.412  1.00  0.00     0.179 C 
BRANCH  17  22
ATOM     22  C   UNL     1      -1.963   3.482   4.411  1.00  0.00     0.225 C 
BRANCH  22  23
ATOM     23  O   UNL     1      -2.558   3.436   3.141  1.00  0.00    -0.391 OA
ATOM     24  H   UNL     1      -2.716   2.476   2.942  1.00  0.00     0.210 HD
ENDBRANCH  22  23
ENDBRANCH  17  22
BRANCH  18  25
ATOM     25  O   UNL     1      -4.200   5.023   5.126  1.00  0.00    -0.385 OA
ATOM     26  H   UNL     1      -3.623   5.811   5.311  1.00  0.00     0.211 HD
ENDBRANCH  18  25
BRANCH  20  27
ATOM     27  O   UNL     1      -6.307   3.912   6.306  1.00  0.00    -0.387 OA
ATOM     28  H   UNL     1      -6.859   3.676   7.097  1.00  0.00     0.211 HD
ENDBRANCH  20  27
BRANCH  21  29
ATOM     29  C   UNL     1      -5.473   0.695   6.006  1.00  0.00     0.191 C 
BRANCH  29  30
ATOM     30  O   UNL     1      -4.355  -0.115   6.260  1.00  0.00    -0.394 OA
ATOM     31  H   UNL     1      -4.082  -0.517   5.394  1.00  0.00     0.210 HD
ENDBRANCH  29  30
ENDBRANCH  21  29
ENDBRANCH   1  17
TORSDOF 13
ENDMDL
MODEL 4
REMARK VINA RESULT:    -5.585      1.701      5.988
REMARK INTER + INTRA:         -10.143
REMARK INTER:                  -8.504
REMARK INTRA:                  -1.639
REMARK UNBOUND:                -1.619
REMARK SMILES OC[C@@H]1O[C@](CO)(O[C@H]2O[C@H](CO)[C@H](O)[C@@H](O)[C@H]2O)[C@@H](O)[C@H]1O
REMARK SMILES IDX 8 1 9 2 11 3 14 4 10 5 16 6 18 7 12 8 13 9 15 11 17 13 19 15
REMARK SMILES IDX 5 17 20 18 4 19 22 20 3 21 6 22 7 23 21 25 23 27 2 29 1 30
REMARK H PARENT 13 10 15 12 17 14 19 16 7 24 21 26 23 28 1 31
REMARK Flexibility Score: inf
ROOT
ATOM      1  O   UNL     1      -1.992   2.167   7.373  1.00  0.00    -0.313 OA
ENDROOT
BRANCH   1   2
ATOM      2  C   UNL     1      -1.589   2.985   8.467  1.00  0.00     0.285 C 
ATOM      3  C   UNL     1      -1.098   3.008  10.782  1.00  0.00     0.178 C 
ATOM      4  C   UNL     1      -0.394   4.377  10.518  1.00  0.00     0.177 C 
ATOM      5  O   UNL     1      -1.300   2.210   9.617  1.00  0.00    -0.341 OA
ATOM      6  C   UNL     1       0.488   4.283   9.258  1.00  0.00     0.179 C 
ATOM      7  C   UNL     1      -0.327   3.780   8.036  1.00  0.00     0.202 C 
BRANCH   3   8
ATOM      8  C   UNL     1      -2.404   3.134  11.583  1.00  0.00     0.191 C 
BRANCH   8   9
ATOM      9  O   UNL     1      -2.257   4.090  12.596  1.00  0.00    -0.394 OA
ATOM     10  H   UNL     1      -3.123   4.573  12.648  1.00  0.00     0.210 HD
ENDBRANCH   8   9
ENDBRANCH   3   8
BRANCH   4  11
ATOM     11  O   UNL     1      -1.342   5.403  10.354  1.00  0.00    -0.387 OA
ATOM     12  H   UNL     1      -2.129   5.001   9.899  1.00  0.00     0.211 HD
ENDBRANCH   4  11
BRANCH   6  13
ATOM     13  O   UNL     1       1.621   3.484   9.508  1.00  0.00    -0.387 OA
ATOM     14  H   UNL     1       1.311   2.585   9.790  1.00  0.00     0.211 HD
ENDBRANCH   6  13
BRANCH   7  15
ATOM     15  O   UNL     1       0.497   2.996   7.206  1.00  0.00    -0.385 OA
ATOM     16  H   UNL     1       1.019   2.392   7.794  1.00  0.00     0.211 HD
ENDBRANCH   7  15
ENDBRANCH   1   2
BRANCH   1  17
ATOM     17  C   UNL     1      -3.309   2.371   6.849  1.00  0.00     0.224 C 
ATOM     18  C   UNL     1      -3.663   1.213   5.885  1.00  0.00     0.208 C 
ATOM     19  O   UNL     1      -3.240   3.544   6.061  1.00  0.00    -0.337 OA
ATOM     20  C   UNL     1      -2.985   1.649   4.605  1.00  0.00     0.180 C 
ATOM     21  C   UNL     1      -3.025   3.173   4.713  1.00  0.00     0.179 C 
BRANCH  17  22
ATOM     22  C   UNL     1      -4.385   2.620   7.945  1.00  0.00     0.225 C 
BRANCH  22  23
ATOM     23  O   UNL     1      -5.433   3.409   7.447  1.00  0.00    -0.391 OA
ATOM     24  H   UNL     1      -5.933   3.740   8.238  1.00  0.00     0.210 HD
ENDBRANCH  22  23
ENDBRANCH  17  22
BRANCH  18  25
ATOM     25  O   UNL     1      -5.054   1.042   5.719  1.00  0.00    -0.385 OA
ATOM     26  H   UNL     1      -5.393   1.761   5.123  1.00  0.00     0.211 HD
ENDBRANCH  18  25
BRANCH  20  27
ATOM     27  O   UNL     1      -3.663   1.202   3.459  1.00  0.00    -0.387 OA
ATOM     28  H   UNL     1      -3.770   1.995   2.870  1.00  0.00     0.211 HD
ENDBRANCH  20  27
BRANCH  21  29
ATOM     29  C   UNL     1      -1.753   3.844   4.175  1.00  0.00     0.191 C 
BRANCH  29  30
ATOM     30  O   UNL     1      -0.602   3.209   4.668  1.00  0.00    -0.394 OA
ATOM     31  H   UNL     1      -0.895   2.585   5.381  1.00  0.00     0.210 HD
ENDBRANCH  29  30
ENDBRANCH  21  29
ENDBRANCH   1  17
TORSDOF 13
ENDMDL
MODEL 5
REMARK VINA RESULT:    -5.580      1.808      6.204
REMARK INTER + INTRA:         -10.135
REMARK INTER:                  -9.163
REMARK INTRA:                  -0.972
REMARK UNBOUND:                -1.619
REMARK SMILES OC[C@@H]1O[C@](CO)(O[C@H]2O[C@H](CO)[C@H](O)[C@@H](O)[C@H]2O)[C@@H](O)[C@H]1O
REMARK SMILES IDX 8 1 9 2 11 3 14 4 10 5 16 6 18 7 12 8 13 9 15 11 17 13 19 15
REMARK SMILES IDX 5 17 20 18 4 19 22 20 3 21 6 22 7 23 21 25 23 27 2 29 1 30
REMARK H PARENT 13 10 15 12 17 14 19 16 7 24 21 26 23 28 1 31
REMARK Flexibility Score: inf
ROOT
ATOM      1  O   UNL     1      -2.591   3.780   8.232  1.00  0.00    -0.313 OA
ENDROOT
BRANCH   1   2
ATOM      2  C   UNL     1      -1.680   3.740   9.325  1.00  0.00     0.285 C 
ATOM      3  C   UNL     1      -0.215   5.029  10.665  1.00  0.00     0.178 C 
ATOM      4  C   UNL     1      -0.264   3.844  11.683  1.00  0.00     0.177 C 
ATOM      5  O   UNL     1      -1.281   5.042   9.719  1.00  0.00    -0.341 OA
ATOM      6  C   UNL     1      -1.718   3.370  11.872  1.00  0.00     0.179 C 
ATOM      7  C   UNL     1      -2.379   3.022  10.510  1.00  0.00     0.202 C 
BRANCH   3   8
ATOM      8  C   UNL     1       1.140   5.171   9.955  1.00  0.00     0.191 C 
BRANCH   8   9
ATOM      9  O   UNL     1       1.291   4.157   8.999  1.00  0.00    -0.394 OA
ATOM     10  H   UNL     1       0.384   3.789   8.841  1.00  0.00     0.210 HD
ENDBRANCH   8   9
ENDBRANCH   3   8
BRANCH   4  11
ATOM     11  O   UNL     1       0.527   2.769  11.237  1.00  0.00    -0.387 OA
ATOM     12  H   UNL     1      -0.073   2.157  10.734  1.00  0.00     0.211 HD
ENDBRANCH   4  11
BRANCH   6  13
ATOM     13  O   UNL     1      -2.459   4.326  12.594  1.00  0.00    -0.387 OA
ATOM     14  H   UNL     1      -3.144   3.849  13.128  1.00  0.00     0.211 HD
ENDBRANCH   6  13
BRANCH   7  15
ATOM     15  O   UNL     1      -3.748   3.345  10.551  1.00  0.00    -0.385 OA
ATOM     16  H   UNL     1      -3.870   4.183  10.034  1.00  0.00     0.211 HD
ENDBRANCH   7  15
ENDBRANCH   1   2
BRANCH   1  17
ATOM     17  C   UNL     1      -2.140   3.252   6.979  1.00  0.00     0.224 C 
ATOM     18  C   UNL     1      -1.564   4.400   6.116  1.00  0.00     0.208 C 
ATOM     19  O   UNL     1      -3.297   2.788   6.310  1.00  0.00    -0.337 OA
ATOM     20  C   UNL     1      -2.815   5.005   5.517  1.00  0.00     0.180 C 
ATOM     21  C   UNL     1      -3.756   3.804   5.440  1.00  0.00     0.179 C 
BRANCH  17  22
ATOM     22  C   UNL     1      -1.179   2.038   7.123  1.00  0.00     0.225 C 
BRANCH  22  23
ATOM     23  O   UNL     1       0.154   2.464   7.220  1.00  0.00    -0.391 OA
ATOM     24  H   UNL     1       0.211   3.018   8.043  1.00  0.00     0.210 HD
ENDBRANCH  22  23
ENDBRANCH  17  22
BRANCH  18  25
ATOM     25  O   UNL     1      -0.666   3.946   5.127  1.00  0.00    -0.385 OA
ATOM     26  H   UNL     1      -0.027   4.677   4.918  1.00  0.00     0.211 HD
ENDBRANCH  18  25
BRANCH  20  27
ATOM     27  O   UNL     1      -2.588   5.557   4.246  1.00  0.00    -0.387 OA
ATOM     28  H   UNL     1      -3.425   6.030   3.993  1.00  0.00     0.211 HD
ENDBRANCH  20  27
BRANCH  21  29
ATOM     29  C   UNL     1      -5.213   4.165   5.766  1.00  0.00     0.191 C 
BRANCH  29  30
ATOM     30  O   UNL     1      -5.578   5.378   5.163  1.00  0.00    -0.394 OA
ATOM     31  H   UNL     1      -6.004   5.157   4.295  1.00  0.00     0.210 HD
ENDBRANCH  29  30
ENDBRANCH  21  29
ENDBRANCH   1  17
TORSDOF 13
ENDMDL
MODEL 6
REMARK VINA RESULT:    -5.513      1.475      6.335
REMARK INTER + INTRA:         -10.033
REMARK INTER:                  -8.449
REMARK INTRA:                  -1.584
REMARK UNBOUND:                -1.619
REMARK SMILES OC[C@@H]1O[C@](CO)(O[C@H]2O[C@H](CO)[C@H](O)[C@@H](O)[C@H]2O)[C@@H](O)[C@H]1O
REMARK SMILES IDX 8 1 9 2 11 3 14 4 10 5 16 6 18 7 12 8 13 9 15 11 17 13 19 15
REMARK SMILES IDX 5 17 20 18 4 19 22 20 3 21 6 22 7 23 21 25 23 27 2 29 1 30
REMARK H PARENT 13 10 15 12 17 14 19 16 7 24 21 26 23 28 1 31
REMARK Flexibility Score: inf
ROOT
ATOM      1  O   UNL     1      -1.703   4.537   8.296  1.00  0.00    -0.313 OA
ENDROOT
BRANCH   1   2
ATOM      2  C   UNL     1      -0.504   4.467   9.063  1.00  0.00     0.285 C 
ATOM      3  C   UNL     1       0.818   5.576  10.683  1.00  0.00     0.178 C 
ATOM      4  C   UNL     1       1.537   4.205  10.890  1.00  0.00     0.177 C 
ATOM      5  O   UNL     1      -0.454   5.489  10.044  1.00  0.00    -0.341 OA
ATOM      6  C   UNL     1       0.497   3.072  10.979  1.00  0.00     0.179 C 
ATOM      7  C   UNL     1      -0.449   3.075   9.747  1.00  0.00     0.202 C 
BRANCH   3   8
ATOM      8  C   UNL     1       1.697   6.632   9.993  1.00  0.00     0.191 C 
BRANCH   8   9
ATOM      9  O   UNL     1       2.946   6.705  10.624  1.00  0.00    -0.394 OA
ATOM     10  H   UNL     1       3.567   7.107   9.963  1.00  0.00     0.210 HD
ENDBRANCH   8   9
ENDBRANCH   3   8
BRANCH   4  11
ATOM     11  O   UNL     1       2.428   3.943   9.833  1.00  0.00    -0.387 OA
ATOM     12  H   UNL     1       3.191   3.435  10.217  1.00  0.00     0.211 HD
ENDBRANCH   4  11
BRANCH   6  13
ATOM     13  O   UNL     1      -0.212   3.147  12.194  1.00  0.00    -0.387 OA
ATOM     14  H   UNL     1      -0.156   2.263  12.641  1.00  0.00     0.211 HD
ENDBRANCH   6  13
BRANCH   7  15
ATOM     15  O   UNL     1      -1.736   2.659  10.135  1.00  0.00    -0.385 OA
ATOM     16  H   UNL     1      -1.783   2.730  11.124  1.00  0.00     0.211 HD
ENDBRANCH   7  15
ENDBRANCH   1   2
BRANCH   1  17
ATOM     17  C   UNL     1      -1.649   4.065   6.946  1.00  0.00     0.224 C 
ATOM     18  C   UNL     1      -2.524   4.973   6.050  1.00  0.00     0.208 C 
ATOM     19  O   UNL     1      -2.266   2.791   6.951  1.00  0.00    -0.337 OA
ATOM     20  C   UNL     1      -3.909   4.414   6.289  1.00  0.00     0.180 C 
ATOM     21  C   UNL     1      -3.624   2.943   6.587  1.00  0.00     0.179 C 
BRANCH  17  22
ATOM     22  C   UNL     1      -0.202   3.869   6.410  1.00  0.00     0.225 C 
BRANCH  22  23
ATOM     23  O   UNL     1      -0.203   3.099   5.237  1.00  0.00    -0.391 OA
ATOM     24  H   UNL     1       0.528   2.434   5.338  1.00  0.00     0.210 HD
ENDBRANCH  22  23
ENDBRANCH  17  22
BRANCH  18  25
ATOM     25  O   UNL     1      -2.157   4.919   4.688  1.00  0.00    -0.385 OA
ATOM     26  H   UNL     1      -1.168   4.842   4.629  1.00  0.00     0.211 HD
ENDBRANCH  18  25
BRANCH  20  27
ATOM     27  O   UNL     1      -4.745   4.553   5.169  1.00  0.00    -0.387 OA
ATOM     28  H   UNL     1      -5.623   4.163   5.424  1.00  0.00     0.211 HD
ENDBRANCH  20  27
BRANCH  21  29
ATOM     29  C   UNL     1      -4.534   2.368   7.683  1.00  0.00     0.191 C 
BRANCH  29  30
ATOM     30  O   UNL     1      -4.326   3.025   8.906  1.00  0.00    -0.394 OA
ATOM     31  H   UNL     1      -3.655   2.497   9.411  1.00  0.00     0.210 HD
ENDBRANCH  29  30
ENDBRANCH  21  29
ENDBRANCH   1  17
TORSDOF 13
ENDMDL
MODEL 7
REMARK VINA RESULT:    -5.500      1.749      3.900
REMARK INTER + INTRA:         -10.013
REMARK INTER:                  -8.814
REMARK INTRA:                  -1.199
REMARK UNBOUND:                -1.619
REMARK SMILES OC[C@@H]1O[C@](CO)(O[C@H]2O[C@H](CO)[C@H](O)[C@@H](O)[C@H]2O)[C@@H](O)[C@H]1O
REMARK SMILES IDX 8 1 9 2 11 3 14 4 10 5 16 6 18 7 12 8 13 9 15 11 17 13 19 15
REMARK SMILES IDX 5 17 20 18 4 19 22 20 3 21 6 22 7 23 21 25 23 27 2 29 1 30
REMARK H PARENT 13 10 15 12 17 14 19 16 7 24 21 26 23 28 1 31
REMARK Flexibility Score: inf
ROOT
ATOM      1  O   UNL     1      -1.734   2.742   8.391  1.00  0.00    -0.313 OA
ENDROOT
BRANCH   1   2
ATOM      2  C   UNL     1      -2.519   3.031   7.238  1.00  0.00     0.285 C 
ATOM      3  C   UNL     1      -3.176   2.247   5.104  1.00  0.00     0.178 C 
ATOM      4  C   UNL     1      -4.336   3.289   5.188  1.00  0.00     0.177 C 
ATOM      5  O   UNL     1      -2.578   1.922   6.357  1.00  0.00    -0.341 OA
ATOM      6  C   UNL     1      -4.998   3.231   6.578  1.00  0.00     0.179 C 
ATOM      7  C   UNL     1      -3.950   3.405   7.710  1.00  0.00     0.202 C 
BRANCH   3   8
ATOM      8  C   UNL     1      -2.099   2.610   4.069  1.00  0.00     0.191 C 
BRANCH   8   9
ATOM      9  O   UNL     1      -2.700   3.035   2.877  1.00  0.00    -0.394 OA
ATOM     10  H   UNL     1      -2.974   3.978   3.027  1.00  0.00     0.210 HD
ENDBRANCH   8   9
ENDBRANCH   3   8
BRANCH   4  11
ATOM     11  O   UNL     1      -3.858   4.590   4.949  1.00  0.00    -0.387 OA
ATOM     12  H   UNL     1      -3.614   4.637   3.986  1.00  0.00     0.211 HD
ENDBRANCH   4  11
BRANCH   6  13
ATOM     13  O   UNL     1      -5.743   2.044   6.721  1.00  0.00    -0.387 OA
ATOM     14  H   UNL     1      -6.077   1.777   5.826  1.00  0.00     0.211 HD
ENDBRANCH   6  13
BRANCH   7  15
ATOM     15  O   UNL     1      -4.324   2.636   8.827  1.00  0.00    -0.385 OA
ATOM     16  H   UNL     1      -3.968   1.720   8.688  1.00  0.00     0.211 HD
ENDBRANCH   7  15
ENDBRANCH   1   2
BRANCH   1  17
ATOM     17  C   UNL     1      -0.765   3.717   8.789  1.00  0.00     0.224 C 
ATOM     18  C   UNL     1       0.341   3.031   9.625  1.00  0.00     0.208 C 
ATOM     19  O   UNL     1      -1.438   4.604   9.663  1.00  0.00    -0.337 OA
ATOM     20  C   UNL     1      -0.294   2.964  10.997  1.00  0.00     0.180 C 
ATOM     21  C   UNL     1      -1.209   4.188  10.996  1.00  0.00     0.179 C 
BRANCH  17  22
ATOM     22  C   UNL     1      -0.215   4.570   7.610  1.00  0.00     0.225 C 
BRANCH  22  23
ATOM     23  O   UNL     1       0.808   3.888   6.934  1.00  0.00    -0.391 OA
ATOM     24  H   UNL     1       1.355   3.442   7.633  1.00  0.00     0.210 HD
ENDBRANCH  22  23
ENDBRANCH  17  22
BRANCH  18  25
ATOM     25  O   UNL     1       1.552   3.755   9.634  1.00  0.00    -0.385 OA
ATOM     26  H   UNL     1       2.308   3.109   9.635  1.00  0.00     0.211 HD
ENDBRANCH  18  25
BRANCH  20  27
ATOM     27  O   UNL     1       0.653   3.039  12.031  1.00  0.00    -0.387 OA
ATOM     28  H   UNL     1       1.536   3.168  11.595  1.00  0.00     0.211 HD
ENDBRANCH  20  27
BRANCH  21  29
ATOM     29  C   UNL     1      -2.545   3.936  11.709  1.00  0.00     0.191 C 
BRANCH  29  30
ATOM     30  O   UNL     1      -3.467   4.957  11.427  1.00  0.00    -0.394 OA
ATOM     31  H   UNL     1      -3.352   5.199  10.472  1.00  0.00     0.210 HD
ENDBRANCH  29  30
ENDBRANCH  21  29
ENDBRANCH   1  17
TORSDOF 13
ENDMDL
MODEL 8
REMARK VINA RESULT:    -5.459      2.008      2.616
REMARK INTER + INTRA:          -9.950
REMARK INTER:                  -8.770
REMARK INTRA:                  -1.180
REMARK UNBOUND:                -1.619
REMARK SMILES OC[C@@H]1O[C@](CO)(O[C@H]2O[C@H](CO)[C@H](O)[C@@H](O)[C@H]2O)[C@@H](O)[C@H]1O
REMARK SMILES IDX 8 1 9 2 11 3 14 4 10 5 16 6 18 7 12 8 13 9 15 11 17 13 19 15
REMARK SMILES IDX 5 17 20 18 4 19 22 20 3 21 6 22 7 23 21 25 23 27 2 29 1 30
REMARK H PARENT 13 10 15 12 17 14 19 16 7 24 21 26 23 28 1 31
REMARK Flexibility Score: inf
ROOT
ATOM      1  O   UNL     1      -2.881   4.421   8.756  1.00  0.00    -0.313 OA
ENDROOT
BRANCH   1   2
ATOM      2  C   UNL     1      -2.766   3.676   7.547  1.00  0.00     0.285 C 
ATOM      3  C   UNL     1      -3.971   2.511   5.876  1.00  0.00     0.178 C 
ATOM      4  C   UNL     1      -2.679   2.625   5.006  1.00  0.00     0.177 C 
ATOM      5  O   UNL     1      -4.035   3.428   6.966  1.00  0.00    -0.341 OA
ATOM      6  C   UNL     1      -2.112   4.056   5.088  1.00  0.00     0.179 C 
ATOM      7  C   UNL     1      -1.884   4.489   6.562  1.00  0.00     0.202 C 
BRANCH   3   8
ATOM      8  C   UNL     1      -4.263   1.080   6.356  1.00  0.00     0.191 C 
BRANCH   8   9
ATOM      9  O   UNL     1      -3.918   0.159   5.359  1.00  0.00    -0.394 OA
ATOM     10  H   UNL     1      -3.392  -0.552   5.809  1.00  0.00     0.210 HD
ENDBRANCH   8   9
ENDBRANCH   3   8
BRANCH   4  11
ATOM     11  O   UNL     1      -1.704   1.707   5.435  1.00  0.00    -0.387 OA
ATOM     12  H   UNL     1      -1.226   1.391   4.623  1.00  0.00     0.211 HD
ENDBRANCH   4  11
BRANCH   6  13
ATOM     13  O   UNL     1      -2.941   4.956   4.391  1.00  0.00    -0.387 OA
ATOM     14  H   UNL     1      -2.852   5.850   4.812  1.00  0.00     0.211 HD
ENDBRANCH   6  13
BRANCH   7  15
ATOM     15  O   UNL     1      -2.129   5.868   6.695  1.00  0.00    -0.385 OA
ATOM     16  H   UNL     1      -3.105   6.007   6.584  1.00  0.00     0.211 HD
ENDBRANCH   7  15
ENDBRANCH   1   2
BRANCH   1  17
ATOM     17  C   UNL     1      -2.779   3.697   9.987  1.00  0.00     0.224 C 
ATOM     18  C   UNL     1      -2.187   4.622  11.078  1.00  0.00     0.208 C 
ATOM     19  O   UNL     1      -1.824   2.677   9.764  1.00  0.00    -0.337 OA
ATOM     20  C   UNL     1      -0.704   4.536  10.796  1.00  0.00     0.180 C 
ATOM     21  C   UNL     1      -0.561   3.133  10.208  1.00  0.00     0.179 C 
BRANCH  17  22
ATOM     22  C   UNL     1      -4.101   2.999  10.414  1.00  0.00     0.225 C 
BRANCH  22  23
ATOM     23  O   UNL     1      -4.939   3.890  11.100  1.00  0.00    -0.391 OA
ATOM     24  H   UNL     1      -5.813   3.872  10.628  1.00  0.00     0.210 HD
ENDBRANCH  22  23
ENDBRANCH  17  22
BRANCH  18  25
ATOM     25  O   UNL     1      -2.505   4.201  12.387  1.00  0.00    -0.385 OA
ATOM     26  H   UNL     1      -3.019   3.352  12.331  1.00  0.00     0.211 HD
ENDBRANCH  18  25
BRANCH  20  27
ATOM     27  O   UNL     1       0.074   4.684  11.956  1.00  0.00    -0.387 OA
ATOM     28  H   UNL     1      -0.497   4.391  12.715  1.00  0.00     0.211 HD
ENDBRANCH  20  27
BRANCH  21  29
ATOM     29  C   UNL     1       0.460   3.065   9.063  1.00  0.00     0.191 C 
BRANCH  29  30
ATOM     30  O   UNL     1       0.124   2.054   8.149  1.00  0.00    -0.394 OA
ATOM     31  H   UNL     1      -0.707   2.340   7.689  1.00  0.00     0.210 HD
ENDBRANCH  29  30
ENDBRANCH  21  29
ENDBRANCH   1  17
TORSDOF 13
ENDMDL
MODEL 9
REMARK VINA RESULT:    -5.302      1.927      2.547
REMARK INTER + INTRA:          -9.710
REMARK INTER:                  -8.269
REMARK INTRA:                  -1.441
REMARK UNBOUND:                -1.619
REMARK SMILES OC[C@@H]1O[C@](CO)(O[C@H]2O[C@H](CO)[C@H](O)[C@@H](O)[C@H]2O)[C@@H](O)[C@H]1O
REMARK SMILES IDX 8 1 9 2 11 3 14 4 10 5 16 6 18 7 12 8 13 9 15 11 17 13 19 15
REMARK SMILES IDX 5 17 20 18 4 19 22 20 3 21 6 22 7 23 21 25 23 27 2 29 1 30
REMARK H PARENT 13 10 15 12 17 14 19 16 7 24 21 26 23 28 1 31
REMARK Flexibility Score: inf
ROOT
ATOM      1  O   UNL     1      -2.108   3.955   8.460  1.00  0.00    -0.313 OA
ENDROOT
BRANCH   1   2
ATOM      2  C   UNL     1      -2.735   3.452   7.285  1.00  0.00     0.285 C 
ATOM      3  C   UNL     1      -3.791   4.051   5.253  1.00  0.00     0.178 C 
ATOM      4  C   UNL     1      -3.548   2.574   4.806  1.00  0.00     0.177 C 
ATOM      5  O   UNL     1      -2.978   4.482   6.343  1.00  0.00    -0.341 OA
ATOM      6  C   UNL     1      -2.110   2.146   5.157  1.00  0.00     0.179 C 
ATOM      7  C   UNL     1      -1.803   2.378   6.662  1.00  0.00     0.202 C 
BRANCH   3   8
ATOM      8  C   UNL     1      -5.269   4.377   5.518  1.00  0.00     0.191 C 
BRANCH   8   9
ATOM      9  O   UNL     1      -5.544   5.700   5.148  1.00  0.00    -0.394 OA
ATOM     10  H   UNL     1      -6.438   5.912   5.524  1.00  0.00     0.210 HD
ENDBRANCH   8   9
ENDBRANCH   3   8
BRANCH   4  11
ATOM     11  O   UNL     1      -4.463   1.706   5.431  1.00  0.00    -0.387 OA
ATOM     12  H   UNL     1      -5.276   1.684   4.860  1.00  0.00     0.211 HD
ENDBRANCH   4  11
BRANCH   6  13
ATOM     13  O   UNL     1      -1.183   2.796   4.319  1.00  0.00    -0.387 OA
ATOM     14  H   UNL     1      -1.270   3.774   4.460  1.00  0.00     0.211 HD
ENDBRANCH   6  13
BRANCH   7  15
ATOM     15  O   UNL     1      -0.452   2.736   6.821  1.00  0.00    -0.385 OA
ATOM     16  H   UNL     1      -0.266   3.475   6.186  1.00  0.00     0.211 HD
ENDBRANCH   7  15
ENDBRANCH   1   2
BRANCH   1  17
ATOM     17  C   UNL     1      -2.638   3.534   9.721  1.00  0.00     0.224 C 
ATOM     18  C   UNL     1      -2.377   4.631  10.780  1.00  0.00     0.208 C 
ATOM     19  O   UNL     1      -1.875   2.408  10.112  1.00  0.00    -0.337 OA
ATOM     20  C   UNL     1      -0.946   4.349  11.182  1.00  0.00     0.180 C 
ATOM     21  C   UNL     1      -0.835   2.840  10.968  1.00  0.00     0.179 C 
BRANCH  17  22
ATOM     22  C   UNL     1      -4.123   3.076   9.653  1.00  0.00     0.225 C 
BRANCH  22  23
ATOM     23  O   UNL     1      -4.475   2.344  10.797  1.00  0.00    -0.391 OA
ATOM     24  H   UNL     1      -4.070   2.821  11.568  1.00  0.00     0.210 HD
ENDBRANCH  22  23
ENDBRANCH  17  22
BRANCH  18  25
ATOM     25  O   UNL     1      -3.262   4.558  11.877  1.00  0.00    -0.385 OA
ATOM     26  H   UNL     1      -4.000   3.933  11.649  1.00  0.00     0.211 HD
ENDBRANCH  18  25
BRANCH  20  27
ATOM     27  O   UNL     1      -0.685   4.694  12.519  1.00  0.00    -0.387 OA
ATOM     28  H   UNL     1      -1.144   4.013  13.078  1.00  0.00     0.211 HD
ENDBRANCH  20  27
BRANCH  21  29
ATOM     29  C   UNL     1       0.528   2.415  10.404  1.00  0.00     0.191 C 
BRANCH  29  30
ATOM     30  O   UNL     1       0.877   3.195   9.290  1.00  0.00    -0.394 OA
ATOM     31  H   UNL     1       0.730   4.144   9.540  1.00  0.00     0.210 HD
ENDBRANCH  29  30
ENDBRANCH  21  29
ENDBRANCH   1  17
TORSDOF 13
ENDMDL
