MODEL 1
REMARK VINA RESULT:    20.158      0.000      0.000
REMARK INTER + INTRA:          29.954
REMARK INTER:                  31.942
REMARK INTRA:                  -1.988
REMARK UNBOUND:                -1.988
REMARK SMILES C[C@H]1O[C@@H](O[C@H]2CC[C@]3(C)[C@H](CC[C@@]4(C)[C@@H]3C=C[C@@]35OC[C@]6(CCC(C)(C)C[C@H]63)[C@H](O)C[C@]45C)[C@]2(C)CO)[C@@H](O)[C@@H](O[C@H]2O[C@@H](CO)[C@H](O)[C@H](O)[C@H]2O)[C@@H]1O
REMARK SMILES IDX 1 1 2 2 54 3 41 4 39 5 4 6 3 7 55 8 42 10 43 11 52 12 44 13
REMARK SMILES IDX 50 14 45 15 48 16 53 17 51 19 46 21 47 22 49 24 5 26 6 27
REMARK SMILES IDX 7 28 35 29 8 30 11 31 36 32 9 33 12 34 10 35 16 36 13 37
REMARK SMILES IDX 14 38 17 39 15 40 33 41 18 42 19 43 32 44 34 45 29 46 20 47
REMARK SMILES IDX 30 48 22 49 28 50 21 51 23 52 25 53 24 54 26 55 27 56 37 57
REMARK SMILES IDX 38 58 31 60 40 62
REMARK H PARENT 55 9 53 18 51 20 47 23 49 25 38 59 31 61 40 63
REMARK Flexibility Score: inf
ROOT
ATOM      1  C   UNL     1     129.748 -37.623  31.953  1.00  0.00     0.041 C 
ATOM      2  C   UNL     1     128.220 -37.551  31.937  1.00  0.00     0.150 C 
ATOM      3  C   UNL     1     127.544 -38.368  33.078  1.00  0.00     0.175 C 
ATOM      4  C   UNL     1     127.300 -39.827  32.682  1.00  0.00     0.186 C 
ATOM      5  C   UNL     1     126.586 -39.811  31.316  1.00  0.00     0.202 C 
ATOM      6  C   UNL     1     127.467 -39.121  30.256  1.00  0.00     0.282 C 
ATOM      7  O   UNL     1     127.720 -37.770  30.623  1.00  0.00    -0.344 OA
ENDROOT
BRANCH   3   8
ATOM      8  O   UNL     1     126.311 -37.768  33.403  1.00  0.00    -0.388 OA
ATOM      9  H   UNL     1     125.986 -37.287  32.595  1.00  0.00     0.211 HD
ENDBRANCH   3   8
BRANCH   4  10
ATOM     10  O   UNL     1     128.560 -40.492  32.656  1.00  0.00    -0.341 OA
BRANCH  10  11
ATOM     11  C   UNL     1     129.352 -40.256  33.814  1.00  0.00     0.282 C 
ATOM     12  C   UNL     1     130.868 -40.609  33.618  1.00  0.00     0.202 C 
ATOM     13  O   UNL     1     128.719 -40.855  34.931  1.00  0.00    -0.341 OA
ATOM     14  C   UNL     1     131.374 -41.934  34.252  1.00  0.00     0.179 C 
ATOM     15  C   UNL     1     129.034 -42.231  35.102  1.00  0.00     0.178 C 
ATOM     16  C   UNL     1     130.528 -42.384  35.440  1.00  0.00     0.177 C 
BRANCH  12  17
ATOM     17  O   UNL     1     131.169 -40.641  32.244  1.00  0.00    -0.385 OA
ATOM     18  H   UNL     1     130.476 -41.193  31.796  1.00  0.00     0.211 HD
ENDBRANCH  12  17
BRANCH  14  19
ATOM     19  O   UNL     1     132.714 -41.757  34.678  1.00  0.00    -0.387 OA
ATOM     20  H   UNL     1     132.691 -41.370  35.593  1.00  0.00     0.211 HD
ENDBRANCH  14  19
BRANCH  15  21
ATOM     21  C   UNL     1     128.543 -43.123  33.942  1.00  0.00     0.191 C 
BRANCH  21  22
ATOM     22  O   UNL     1     127.168 -42.942  33.751  1.00  0.00    -0.394 OA
ATOM     23  H   UNL     1     127.083 -42.284  33.011  1.00  0.00     0.210 HD
ENDBRANCH  21  22
ENDBRANCH  15  21
BRANCH  16  24
ATOM     24  O   UNL     1     130.864 -41.612  36.579  1.00  0.00    -0.387 OA
ATOM     25  H   UNL     1     130.012 -41.264  36.955  1.00  0.00     0.211 HD
ENDBRANCH  16  24
ENDBRANCH  10  11
ENDBRANCH   4  10
BRANCH   6  26
ATOM     26  O   UNL     1     128.688 -39.825  30.047  1.00  0.00    -0.346 OA
BRANCH  26  27
ATOM     27  C   UNL     1     128.945 -40.305  28.719  1.00  0.00     0.130 C 
ATOM     28  C   UNL     1     129.549 -39.279  27.716  1.00  0.00     0.033 C 
ATOM     29  C   UNL     1     129.542 -41.766  28.623  1.00  0.00     0.020 C 
ATOM     30  C   UNL     1     131.088 -39.291  27.561  1.00  0.00     0.010 C 
ATOM     31  C   UNL     1     131.115 -41.728  28.402  1.00  0.00     0.006 C 
ATOM     32  C   UNL     1     129.242 -42.509  29.958  1.00  0.00     0.017 C 
ATOM     33  C   UNL     1     131.710 -40.710  27.356  1.00  0.00    -0.022 C 
ATOM     34  C   UNL     1     131.784 -43.119  28.222  1.00  0.00     0.005 C 
ATOM     35  C   UNL     1     131.381 -41.078  25.875  1.00  0.00     0.012 C 
ATOM     36  C   UNL     1     133.300 -40.656  27.598  1.00  0.00     0.024 C 
ATOM     37  C   UNL     1     133.317 -43.060  28.376  1.00  0.00     0.008 C 
ATOM     38  C   UNL     1     134.091 -42.038  27.447  1.00  0.00    -0.017 C 
ATOM     39  C   UNL     1     133.625 -40.102  29.000  1.00  0.00    -0.024 C 
ATOM     40  C   UNL     1     134.022 -42.626  26.001  1.00  0.00     0.013 C 
ATOM     41  C   UNL     1     135.696 -41.878  27.862  1.00  0.00     0.009 C 
ATOM     42  C   UNL     1     134.862 -40.148  29.499  1.00  0.00     0.005 C 
ATOM     43  C   UNL     1     135.979 -40.467  28.565  1.00  0.00     0.096 C 
ATOM     44  C   UNL     1     136.731 -41.925  26.657  1.00  0.00     0.043 C 
ATOM     45  C   UNL     1     136.102 -43.088  28.773  1.00  0.00     0.015 C 
ATOM     46  C   UNL     1     137.402 -40.442  29.184  1.00  0.00     0.037 C 
ATOM     47  O   UNL     1     135.967 -39.440  27.573  1.00  0.00    -0.369 OA
ATOM     48  C   UNL     1     138.193 -41.468  27.031  1.00  0.00     0.124 C 
ATOM     49  C   UNL     1     138.200 -40.164  27.909  1.00  0.00     0.026 C 
ATOM     50  C   UNL     1     137.704 -39.393  30.284  1.00  0.00     0.014 C 
ATOM     51  C   UNL     1     137.300 -39.099  27.267  1.00  0.00     0.171 C 
ATOM     52  C   UNL     1     139.639 -39.619  28.204  1.00  0.00     0.013 C 
ATOM     53  C   UNL     1     139.200 -39.459  30.740  1.00  0.00    -0.035 C 
ATOM     54  C   UNL     1     140.122 -40.010  29.603  1.00  0.00     0.007 C 
ATOM     55  C   UNL     1     139.326 -40.390  31.971  1.00  0.00     0.011 C 
ATOM     56  C   UNL     1     139.668 -38.052  31.158  1.00  0.00     0.011 C 
BRANCH  29  57
ATOM     57  C   UNL     1     128.791 -42.597  27.525  1.00  0.00     0.165 C 
BRANCH  57  58
ATOM     58  O   UNL     1     127.938 -41.834  26.726  1.00  0.00    -0.396 OA
ATOM     59  H   UNL     1     127.262 -41.426  27.309  1.00  0.00     0.210 HD
ENDBRANCH  57  58
ENDBRANCH  29  57
BRANCH  48  60
ATOM     60  O   UNL     1     138.980 -41.324  25.876  1.00  0.00    -0.392 OA
ATOM     61  H   UNL     1     139.918 -41.559  26.097  1.00  0.00     0.210 HD
ENDBRANCH  48  60
ENDBRANCH  26  27
ENDBRANCH   6  26
BRANCH   5  62
ATOM     62  O   UNL     1     126.203 -41.099  30.923  1.00  0.00    -0.385 OA
ATOM     63  H   UNL     1     125.508 -41.418  31.562  1.00  0.00     0.211 HD
ENDBRANCH   5  62
TORSDOF 14
ENDMDL
