MODEL 1
REMARK VINA RESULT:    -0.838      0.000      0.000
REMARK INTER + INTRA:          -0.631
REMARK INTER:                  -1.009
REMARK INTRA:                   0.378
REMARK UNBOUND:                 0.378
REMARK SMILES Oc1cc(O)c2c(c1)O[C@H](c1ccc(O)c(O)c1)[C@@H](O)C2
REMARK SMILES IDX 21 1 19 2 10 3 9 4 7 5 8 6 2 7 3 8 4 9 6 10 20 11 11 13
REMARK SMILES IDX 18 14 12 15 16 16 13 17 14 18 17 19 15 21 5 23 1 25
REMARK H PARENT 20 12 17 20 15 22 5 24 1 26
REMARK Flexibility Score: inf
ROOT
ATOM      1  C   UNL     1      11.596 -14.387 -12.155  1.00  0.00     0.079 C 
ATOM      2  C   UNL     1      11.344 -14.336 -10.636  1.00  0.00     0.164 C 
ATOM      3  C   UNL     1      10.046 -15.089 -10.284  1.00  0.00     0.232 C 
ATOM      4  O   UNL     1       8.956 -14.539 -11.023  1.00  0.00    -0.482 OA
ATOM      5  C   UNL     1       9.088 -14.116 -12.350  1.00  0.00     0.131 A 
ATOM      6  C   UNL     1       7.941 -13.766 -13.067  1.00  0.00     0.093 A 
ATOM      7  C   UNL     1       8.040 -13.354 -14.400  1.00  0.00     0.122 A 
ATOM      8  C   UNL     1       9.290 -13.303 -15.019  1.00  0.00     0.092 A 
ATOM      9  C   UNL     1      10.451 -13.651 -14.318  1.00  0.00     0.126 A 
ATOM     10  C   UNL     1      10.362 -14.026 -12.956  1.00  0.00     0.039 A 
ENDROOT
BRANCH   2  11
ATOM     11  O   UNL     1      12.447 -14.856  -9.934  1.00  0.00    -0.389 OA
ATOM     12  H   UNL     1      12.267 -15.818  -9.761  1.00  0.00     0.211 HD
ENDBRANCH   2  11
BRANCH   3  13
ATOM     13  C   UNL     1       9.751 -15.008  -8.805  1.00  0.00    -0.001 A 
ATOM     14  C   UNL     1       8.442 -14.773  -8.349  1.00  0.00     0.057 A 
ATOM     15  C   UNL     1      10.792 -15.118  -7.869  1.00  0.00     0.012 A 
ATOM     16  C   UNL     1       8.175 -14.670  -6.976  1.00  0.00     0.157 A 
ATOM     17  C   UNL     1      10.526 -15.015  -6.501  1.00  0.00     0.050 A 
ATOM     18  C   UNL     1       9.219 -14.793  -6.051  1.00  0.00     0.157 A 
BRANCH  16  19
ATOM     19  O   UNL     1       6.875 -14.443  -6.525  1.00  0.00    -0.504 OA
ATOM     20  H   UNL     1       6.673 -14.296  -5.543  1.00  0.00     0.293 HD
ENDBRANCH  16  19
BRANCH  18  21
ATOM     21  O   UNL     1       8.950 -14.691  -4.687  1.00  0.00    -0.504 OA
ATOM     22  H   UNL     1       8.001 -14.716  -4.331  1.00  0.00     0.293 HD
ENDBRANCH  18  21
ENDBRANCH   3  13
BRANCH   9  23
ATOM     23  O   UNL     1      11.666 -13.622 -15.004  1.00  0.00    -0.507 OA
ATOM     24  H   UNL     1      11.735 -13.597 -16.013  1.00  0.00     0.293 HD
ENDBRANCH   9  23
BRANCH   7  25
ATOM     25  O   UNL     1       6.900 -13.001 -15.120  1.00  0.00    -0.508 OA
ATOM     26  H   UNL     1       6.090 -13.607 -15.158  1.00  0.00     0.293 HD
ENDBRANCH   7  25
TORSDOF 6
ENDMDL
MODEL 2
REMARK VINA RESULT:    -0.737      1.322      2.077
REMARK INTER + INTRA:          -0.510
REMARK INTER:                  -0.699
REMARK INTRA:                   0.189
REMARK UNBOUND:                 0.378
REMARK SMILES Oc1cc(O)c2c(c1)O[C@H](c1ccc(O)c(O)c1)[C@@H](O)C2
REMARK SMILES IDX 21 1 19 2 10 3 9 4 7 5 8 6 2 7 3 8 4 9 6 10 20 11 11 13
REMARK SMILES IDX 18 14 12 15 16 16 13 17 14 18 17 19 15 21 5 23 1 25
REMARK H PARENT 20 12 17 20 15 22 5 24 1 26
REMARK Flexibility Score: inf
ROOT
ATOM      1  C   UNL     1      11.257 -14.931 -10.476  1.00  0.00     0.079 C 
ATOM      2  C   UNL     1      10.682 -14.548  -9.098  1.00  0.00     0.164 C 
ATOM      3  C   UNL     1       9.202 -14.966  -9.002  1.00  0.00     0.232 C 
ATOM      4  O   UNL     1       8.464 -14.372 -10.070  1.00  0.00    -0.482 OA
ATOM      5  C   UNL     1       8.990 -14.239 -11.360  1.00  0.00     0.131 A 
ATOM      6  C   UNL     1       8.148 -13.824 -12.394  1.00  0.00     0.093 A 
ATOM      7  C   UNL     1       8.640 -13.697 -13.697  1.00  0.00     0.122 A 
ATOM      8  C   UNL     1       9.977 -13.997 -13.966  1.00  0.00     0.092 A 
ATOM      9  C   UNL     1      10.835 -14.415 -12.943  1.00  0.00     0.126 A 
ATOM     10  C   UNL     1      10.355 -14.504 -11.615  1.00  0.00     0.039 A 
ENDROOT
BRANCH   2  11
ATOM     11  O   UNL     1      11.447 -15.122  -8.066  1.00  0.00    -0.389 OA
ATOM     12  H   UNL     1      12.373 -15.239  -8.408  1.00  0.00     0.211 HD
ENDBRANCH   2  11
BRANCH   3  13
ATOM     13  C   UNL     1       8.603 -14.555  -7.678  1.00  0.00    -0.001 A 
ATOM     14  C   UNL     1       9.148 -15.024  -6.470  1.00  0.00     0.057 A 
ATOM     15  C   UNL     1       7.462 -13.737  -7.641  1.00  0.00     0.012 A 
ATOM     16  C   UNL     1       8.573 -14.664  -5.243  1.00  0.00     0.157 A 
ATOM     17  C   UNL     1       6.889 -13.377  -6.419  1.00  0.00     0.050 A 
ATOM     18  C   UNL     1       7.443 -13.837  -5.217  1.00  0.00     0.157 A 
BRANCH  16  19
ATOM     19  O   UNL     1       9.119 -15.125  -4.045  1.00  0.00    -0.504 OA
ATOM     20  H   UNL     1       9.601 -14.502  -3.408  1.00  0.00     0.293 HD
ENDBRANCH  16  19
BRANCH  18  21
ATOM     21  O   UNL     1       6.875 -13.480  -3.996  1.00  0.00    -0.504 OA
ATOM     22  H   UNL     1       6.876 -12.520  -3.671  1.00  0.00     0.293 HD
ENDBRANCH  18  21
ENDBRANCH   3  13
BRANCH   9  23
ATOM     23  O   UNL     1      12.150 -14.743 -13.282  1.00  0.00    -0.507 OA
ATOM     24  H   UNL     1      12.808 -15.150 -12.630  1.00  0.00     0.293 HD
ENDBRANCH   9  23
BRANCH   7  25
ATOM     25  O   UNL     1       7.806 -13.280 -14.733  1.00  0.00    -0.508 OA
ATOM     26  H   UNL     1       7.090 -12.579 -14.587  1.00  0.00     0.293 HD
ENDBRANCH   7  25
TORSDOF 6
ENDMDL
