MODEL 1
REMARK VINA RESULT:    -7.233      0.000      0.000
REMARK INTER + INTRA:          -8.788
REMARK INTER:                  -8.501
REMARK INTRA:                  -0.287
REMARK UNBOUND:                -0.287
REMARK SMILES O=c1cc(-c2ccc(O)c(O)c2)oc2cc(O)cc(O)c12
REMARK SMILES IDX 4 1 3 2 2 3 1 4 21 5 19 6 18 7 16 8 15 9 14 10 13 11 5 12
REMARK SMILES IDX 6 13 7 14 8 15 12 16 10 17 9 18 11 20 20 22 17 24
REMARK H PARENT 9 19 11 21 20 23 17 25
REMARK Flexibility Score: inf
ROOT
ATOM      1  C   UNL     1     -19.446  12.480 -34.327  1.00  0.00     0.138 A 
ATOM      2  C   UNL     1     -20.795  12.505 -33.949  1.00  0.00     0.100 A 
ATOM      3  C   UNL     1     -21.783  12.237 -34.898  1.00  0.00     0.197 A 
ATOM      4  O   UNL     1     -22.981  12.213 -34.515  1.00  0.00    -0.289 OA
ATOM      5  C   UNL     1     -21.417  11.976 -36.240  1.00  0.00     0.107 A 
ATOM      6  C   UNL     1     -22.339  11.724 -37.300  1.00  0.00     0.134 A 
ATOM      7  C   UNL     1     -21.854  11.381 -38.569  1.00  0.00     0.093 A 
ATOM      8  C   UNL     1     -20.485  11.340 -38.831  1.00  0.00     0.123 A 
ATOM      9  C   UNL     1     -19.576  11.634 -37.815  1.00  0.00     0.094 A 
ATOM     10  C   UNL     1     -20.027  11.945 -36.530  1.00  0.00     0.146 A 
ATOM     11  O   UNL     1     -19.128  12.202 -35.587  1.00  0.00    -0.456 OA
ENDROOT
BRANCH   1  12
ATOM     12  C   UNL     1     -18.354  12.761 -33.360  1.00  0.00     0.021 A 
ATOM     13  C   UNL     1     -18.413  13.924 -32.572  1.00  0.00     0.016 A 
ATOM     14  C   UNL     1     -17.396  14.215 -31.659  1.00  0.00     0.051 A 
ATOM     15  C   UNL     1     -16.298  13.358 -31.525  1.00  0.00     0.157 A 
ATOM     16  C   UNL     1     -17.240  11.909 -33.230  1.00  0.00     0.062 A 
ATOM     17  C   UNL     1     -16.219  12.201 -32.318  1.00  0.00     0.158 A 
BRANCH  15  18
ATOM     18  O   UNL     1     -15.285  13.652 -30.613  1.00  0.00    -0.504 OA
ATOM     19  H   UNL     1     -15.385  13.449 -29.625  1.00  0.00     0.293 HD
ENDBRANCH  15  18
BRANCH  17  20
ATOM     20  O   UNL     1     -15.133  11.332 -32.217  1.00  0.00    -0.504 OA
ATOM     21  H   UNL     1     -14.424  11.438 -31.502  1.00  0.00     0.293 HD
ENDBRANCH  17  20
ENDBRANCH   1  12
BRANCH   6  22
ATOM     22  O   UNL     1     -23.728  11.815 -37.171  1.00  0.00    -0.507 OA
ATOM     23  H   UNL     1     -24.358  11.028 -37.117  1.00  0.00     0.293 HD
ENDBRANCH   6  22
BRANCH   8  24
ATOM     24  O   UNL     1     -20.041  11.010 -40.110  1.00  0.00    -0.508 OA
ATOM     25  H   UNL     1     -19.059  10.847 -40.304  1.00  0.00     0.293 HD
ENDBRANCH   8  24
TORSDOF 5
ENDMDL
MODEL 2
REMARK VINA RESULT:    -7.220      1.694      2.296
REMARK INTER + INTRA:          -8.773
REMARK INTER:                  -8.494
REMARK INTRA:                  -0.280
REMARK UNBOUND:                -0.287
REMARK SMILES O=c1cc(-c2ccc(O)c(O)c2)oc2cc(O)cc(O)c12
REMARK SMILES IDX 4 1 3 2 2 3 1 4 21 5 19 6 18 7 16 8 15 9 14 10 13 11 5 12
REMARK SMILES IDX 6 13 7 14 8 15 12 16 10 17 9 18 11 20 20 22 17 24
REMARK H PARENT 9 19 11 21 20 23 17 25
REMARK Flexibility Score: inf
ROOT
ATOM      1  C   UNL     1     -18.578  12.635 -35.283  1.00  0.00     0.138 A 
ATOM      2  C   UNL     1     -18.680  13.610 -36.283  1.00  0.00     0.100 A 
ATOM      3  C   UNL     1     -19.464  13.363 -37.411  1.00  0.00     0.197 A 
ATOM      4  O   UNL     1     -19.580  14.280 -38.265  1.00  0.00    -0.289 OA
ATOM      5  C   UNL     1     -20.121  12.118 -37.552  1.00  0.00     0.107 A 
ATOM      6  C   UNL     1     -20.919  11.740 -38.674  1.00  0.00     0.134 A 
ATOM      7  C   UNL     1     -21.600  10.516 -38.655  1.00  0.00     0.093 A 
ATOM      8  C   UNL     1     -21.466   9.632 -37.586  1.00  0.00     0.123 A 
ATOM      9  C   UNL     1     -20.649   9.968 -36.507  1.00  0.00     0.094 A 
ATOM     10  C   UNL     1     -19.984  11.197 -36.479  1.00  0.00     0.146 A 
ATOM     11  O   UNL     1     -19.230  11.486 -35.424  1.00  0.00    -0.456 OA
ENDROOT
BRANCH   1  12
ATOM     12  C   UNL     1     -17.755  12.844 -34.064  1.00  0.00     0.021 A 
ATOM     13  C   UNL     1     -18.016  13.951 -33.237  1.00  0.00     0.016 A 
ATOM     14  C   UNL     1     -17.252  14.175 -32.088  1.00  0.00     0.051 A 
ATOM     15  C   UNL     1     -16.209  13.304 -31.751  1.00  0.00     0.157 A 
ATOM     16  C   UNL     1     -16.696  11.980 -33.727  1.00  0.00     0.062 A 
ATOM     17  C   UNL     1     -15.928  12.204 -32.578  1.00  0.00     0.158 A 
BRANCH  15  18
ATOM     18  O   UNL     1     -15.450  13.530 -30.604  1.00  0.00    -0.504 OA
ATOM     19  H   UNL     1     -15.870  13.538 -29.682  1.00  0.00     0.293 HD
ENDBRANCH  15  18
BRANCH  17  20
ATOM     20  O   UNL     1     -14.888  11.325 -32.276  1.00  0.00    -0.504 OA
ATOM     21  H   UNL     1     -14.921  10.344 -32.527  1.00  0.00     0.293 HD
ENDBRANCH  17  20
ENDBRANCH   1  12
BRANCH   6  22
ATOM     22  O   UNL     1     -21.060  12.511 -39.832  1.00  0.00    -0.507 OA
ATOM     23  H   UNL     1     -20.340  12.653 -40.525  1.00  0.00     0.293 HD
ENDBRANCH   6  22
BRANCH   8  24
ATOM     24  O   UNL     1     -22.147   8.417 -37.611  1.00  0.00    -0.508 OA
ATOM     25  H   UNL     1     -21.746   7.594 -38.047  1.00  0.00     0.293 HD
ENDBRANCH   8  24
TORSDOF 5
ENDMDL
MODEL 3
REMARK VINA RESULT:    -7.174      1.917      2.358
REMARK INTER + INTRA:          -8.719
REMARK INTER:                  -8.431
REMARK INTRA:                  -0.288
REMARK UNBOUND:                -0.287
REMARK SMILES O=c1cc(-c2ccc(O)c(O)c2)oc2cc(O)cc(O)c12
REMARK SMILES IDX 4 1 3 2 2 3 1 4 21 5 19 6 18 7 16 8 15 9 14 10 13 11 5 12
REMARK SMILES IDX 6 13 7 14 8 15 12 16 10 17 9 18 11 20 20 22 17 24
REMARK H PARENT 9 19 11 21 20 23 17 25
REMARK Flexibility Score: inf
ROOT
ATOM      1  C   UNL     1     -19.231  11.111 -35.994  1.00  0.00     0.138 A 
ATOM      2  C   UNL     1     -20.322  10.244 -35.850  1.00  0.00     0.100 A 
ATOM      3  C   UNL     1     -21.085   9.903 -36.968  1.00  0.00     0.197 A 
ATOM      4  O   UNL     1     -22.024   9.079 -36.815  1.00  0.00    -0.289 OA
ATOM      5  C   UNL     1     -20.773  10.461 -38.229  1.00  0.00     0.107 A 
ATOM      6  C   UNL     1     -21.501  10.213 -39.433  1.00  0.00     0.134 A 
ATOM      7  C   UNL     1     -21.036  10.746 -40.642  1.00  0.00     0.093 A 
ATOM      8  C   UNL     1     -19.908  11.565 -40.684  1.00  0.00     0.123 A 
ATOM      9  C   UNL     1     -19.218  11.855 -39.507  1.00  0.00     0.094 A 
ATOM     10  C   UNL     1     -19.635  11.310 -38.290  1.00  0.00     0.146 A 
ATOM     11  O   UNL     1     -18.939  11.597 -37.195  1.00  0.00    -0.456 OA
ENDROOT
BRANCH   1  12
ATOM     12  C   UNL     1     -18.388  11.510 -34.838  1.00  0.00     0.021 A 
ATOM     13  C   UNL     1     -19.002  11.999 -33.672  1.00  0.00     0.016 A 
ATOM     14  C   UNL     1     -18.232  12.388 -32.573  1.00  0.00     0.051 A 
ATOM     15  C   UNL     1     -16.835  12.305 -32.623  1.00  0.00     0.157 A 
ATOM     16  C   UNL     1     -16.982  11.441 -34.886  1.00  0.00     0.062 A 
ATOM     17  C   UNL     1     -16.208  11.832 -33.787  1.00  0.00     0.158 A 
BRANCH  15  18
ATOM     18  O   UNL     1     -16.070  12.693 -31.524  1.00  0.00    -0.504 OA
ATOM     19  H   UNL     1     -16.305  13.514 -30.977  1.00  0.00     0.293 HD
ENDBRANCH  15  18
BRANCH  17  20
ATOM     20  O   UNL     1     -14.818  11.749 -33.873  1.00  0.00    -0.504 OA
ATOM     21  H   UNL     1     -14.330  10.862 -33.848  1.00  0.00     0.293 HD
ENDBRANCH  17  20
ENDBRANCH   1  12
BRANCH   6  22
ATOM     22  O   UNL     1     -22.686   9.475 -39.494  1.00  0.00    -0.507 OA
ATOM     23  H   UNL     1     -23.260   9.234 -38.700  1.00  0.00     0.293 HD
ENDBRANCH   6  22
BRANCH   8  24
ATOM     24  O   UNL     1     -19.486  12.089 -41.904  1.00  0.00    -0.508 OA
ATOM     25  H   UNL     1     -19.910  11.803 -42.779  1.00  0.00     0.293 HD
ENDBRANCH   8  24
TORSDOF 5
ENDMDL
MODEL 4
REMARK VINA RESULT:    -7.131      1.849      6.990
REMARK INTER + INTRA:          -8.668
REMARK INTER:                  -8.379
REMARK INTRA:                  -0.290
REMARK UNBOUND:                -0.287
REMARK SMILES O=c1cc(-c2ccc(O)c(O)c2)oc2cc(O)cc(O)c12
REMARK SMILES IDX 4 1 3 2 2 3 1 4 21 5 19 6 18 7 16 8 15 9 14 10 13 11 5 12
REMARK SMILES IDX 6 13 7 14 8 15 12 16 10 17 9 18 11 20 20 22 17 24
REMARK H PARENT 9 19 11 21 20 23 17 25
REMARK Flexibility Score: inf
ROOT
ATOM      1  C   UNL     1     -19.084  11.659 -34.595  1.00  0.00     0.138 A 
ATOM      2  C   UNL     1     -19.635  12.465 -33.591  1.00  0.00     0.100 A 
ATOM      3  C   UNL     1     -18.796  13.084 -32.663  1.00  0.00     0.197 A 
ATOM      4  O   UNL     1     -19.318  13.846 -31.808  1.00  0.00    -0.289 OA
ATOM      5  C   UNL     1     -17.400  12.864 -32.721  1.00  0.00     0.107 A 
ATOM      6  C   UNL     1     -16.450  13.414 -31.807  1.00  0.00     0.134 A 
ATOM      7  C   UNL     1     -15.082  13.205 -32.026  1.00  0.00     0.093 A 
ATOM      8  C   UNL     1     -14.632  12.419 -33.086  1.00  0.00     0.123 A 
ATOM      9  C   UNL     1     -15.554  11.835 -33.955  1.00  0.00     0.094 A 
ATOM     10  C   UNL     1     -16.924  12.054 -33.786  1.00  0.00     0.146 A 
ATOM     11  O   UNL     1     -17.766  11.494 -34.646  1.00  0.00    -0.456 OA
ENDROOT
BRANCH   1  12
ATOM     12  C   UNL     1     -19.930  10.975 -35.605  1.00  0.00     0.021 A 
ATOM     13  C   UNL     1     -19.457   9.803 -36.222  1.00  0.00     0.016 A 
ATOM     14  C   UNL     1     -20.230   9.143 -37.181  1.00  0.00     0.051 A 
ATOM     15  C   UNL     1     -21.483   9.647 -37.548  1.00  0.00     0.157 A 
ATOM     16  C   UNL     1     -21.185  11.484 -35.989  1.00  0.00     0.062 A 
ATOM     17  C   UNL     1     -21.960  10.826 -36.951  1.00  0.00     0.158 A 
BRANCH  15  18
ATOM     18  O   UNL     1     -22.252   8.986 -38.505  1.00  0.00    -0.504 OA
ATOM     19  H   UNL     1     -22.022   9.027 -39.492  1.00  0.00     0.293 HD
ENDBRANCH  15  18
BRANCH  17  20
ATOM     20  O   UNL     1     -23.200  11.360 -37.304  1.00  0.00    -0.504 OA
ATOM     21  H   UNL     1     -23.852  10.861 -37.897  1.00  0.00     0.293 HD
ENDBRANCH  17  20
ENDBRANCH   1  12
BRANCH   6  22
ATOM     22  O   UNL     1     -16.792  14.149 -30.668  1.00  0.00    -0.507 OA
ATOM     23  H   UNL     1     -16.576  15.124 -30.522  1.00  0.00     0.293 HD
ENDBRANCH   6  22
BRANCH   8  24
ATOM     24  O   UNL     1     -13.265  12.221 -33.262  1.00  0.00    -0.508 OA
ATOM     25  H   UNL     1     -12.639  12.993 -33.463  1.00  0.00     0.293 HD
ENDBRANCH   8  24
TORSDOF 5
ENDMDL
MODEL 5
REMARK VINA RESULT:    -7.054      2.344      7.163
REMARK INTER + INTRA:          -8.578
REMARK INTER:                  -8.278
REMARK INTRA:                  -0.300
REMARK UNBOUND:                -0.287
REMARK SMILES O=c1cc(-c2ccc(O)c(O)c2)oc2cc(O)cc(O)c12
REMARK SMILES IDX 4 1 3 2 2 3 1 4 21 5 19 6 18 7 16 8 15 9 14 10 13 11 5 12
REMARK SMILES IDX 6 13 7 14 8 15 12 16 10 17 9 18 11 20 20 22 17 24
REMARK H PARENT 9 19 11 21 20 23 17 25
REMARK Flexibility Score: inf
ROOT
ATOM      1  C   UNL     1     -19.040  12.203 -36.778  1.00  0.00     0.138 A 
ATOM      2  C   UNL     1     -18.888  13.582 -36.975  1.00  0.00     0.100 A 
ATOM      3  C   UNL     1     -17.983  14.297 -36.190  1.00  0.00     0.197 A 
ATOM      4  O   UNL     1     -17.829  15.522 -36.430  1.00  0.00    -0.289 OA
ATOM      5  C   UNL     1     -17.251  13.631 -35.178  1.00  0.00     0.107 A 
ATOM      6  C   UNL     1     -16.325  14.263 -34.293  1.00  0.00     0.134 A 
ATOM      7  C   UNL     1     -15.586  13.481 -33.396  1.00  0.00     0.093 A 
ATOM      8  C   UNL     1     -15.781  12.104 -33.308  1.00  0.00     0.123 A 
ATOM      9  C   UNL     1     -16.719  11.483 -34.133  1.00  0.00     0.094 A 
ATOM     10  C   UNL     1     -17.447  12.229 -35.064  1.00  0.00     0.146 A 
ATOM     11  O   UNL     1     -18.318  11.596 -35.842  1.00  0.00    -0.456 OA
ENDROOT
BRANCH   1  12
ATOM     12  C   UNL     1     -19.991  11.395 -37.582  1.00  0.00     0.021 A 
ATOM     13  C   UNL     1     -20.188  11.708 -38.938  1.00  0.00     0.016 A 
ATOM     14  C   UNL     1     -21.082  10.968 -39.716  1.00  0.00     0.051 A 
ATOM     15  C   UNL     1     -21.803   9.909 -39.151  1.00  0.00     0.157 A 
ATOM     16  C   UNL     1     -20.730  10.338 -37.016  1.00  0.00     0.062 A 
ATOM     17  C   UNL     1     -21.628   9.596 -37.793  1.00  0.00     0.158 A 
BRANCH  15  18
ATOM     18  O   UNL     1     -22.695   9.173 -39.930  1.00  0.00    -0.504 OA
ATOM     19  H   UNL     1     -23.357   9.625 -40.550  1.00  0.00     0.293 HD
ENDBRANCH  15  18
BRANCH  17  20
ATOM     20  O   UNL     1     -22.341   8.556 -37.197  1.00  0.00    -0.504 OA
ATOM     21  H   UNL     1     -22.702   7.775 -37.731  1.00  0.00     0.293 HD
ENDBRANCH  17  20
ENDBRANCH   1  12
BRANCH   6  22
ATOM     22  O   UNL     1     -16.109  15.643 -34.239  1.00  0.00    -0.507 OA
ATOM     23  H   UNL     1     -16.787  16.324 -33.932  1.00  0.00     0.293 HD
ENDBRANCH   6  22
BRANCH   8  24
ATOM     24  O   UNL     1     -15.039  11.363 -32.392  1.00  0.00    -0.508 OA
ATOM     25  H   UNL     1     -14.044  11.209 -32.516  1.00  0.00     0.293 HD
ENDBRANCH   8  24
TORSDOF 5
ENDMDL
MODEL 6
REMARK VINA RESULT:    -6.966      7.935      9.639
REMARK INTER + INTRA:          -8.475
REMARK INTER:                  -8.190
REMARK INTRA:                  -0.285
REMARK UNBOUND:                -0.287
REMARK SMILES O=c1cc(-c2ccc(O)c(O)c2)oc2cc(O)cc(O)c12
REMARK SMILES IDX 4 1 3 2 2 3 1 4 21 5 19 6 18 7 16 8 15 9 14 10 13 11 5 12
REMARK SMILES IDX 6 13 7 14 8 15 12 16 10 17 9 18 11 20 20 22 17 24
REMARK H PARENT 9 19 11 21 20 23 17 25
REMARK Flexibility Score: inf
ROOT
ATOM      1  C   UNL     1     -24.879  17.453 -39.466  1.00  0.00     0.138 A 
ATOM      2  C   UNL     1     -25.849  17.528 -38.457  1.00  0.00     0.100 A 
ATOM      3  C   UNL     1     -26.368  16.355 -37.910  1.00  0.00     0.197 A 
ATOM      4  O   UNL     1     -27.196  16.456 -36.968  1.00  0.00    -0.289 OA
ATOM      5  C   UNL     1     -25.940  15.099 -38.402  1.00  0.00     0.107 A 
ATOM      6  C   UNL     1     -26.425  13.836 -37.945  1.00  0.00     0.134 A 
ATOM      7  C   UNL     1     -25.853  12.658 -38.440  1.00  0.00     0.093 A 
ATOM      8  C   UNL     1     -24.857  12.693 -39.415  1.00  0.00     0.123 A 
ATOM      9  C   UNL     1     -24.411  13.920 -39.906  1.00  0.00     0.094 A 
ATOM     10  C   UNL     1     -24.936  15.115 -39.407  1.00  0.00     0.146 A 
ATOM     11  O   UNL     1     -24.471  16.262 -39.889  1.00  0.00    -0.456 OA
ENDROOT
BRANCH   1  12
ATOM     12  C   UNL     1     -24.295  18.670 -40.086  1.00  0.00     0.021 A 
ATOM     13  C   UNL     1     -23.936  18.648 -41.444  1.00  0.00     0.016 A 
ATOM     14  C   UNL     1     -23.378  19.777 -42.050  1.00  0.00     0.051 A 
ATOM     15  C   UNL     1     -23.159  20.943 -41.307  1.00  0.00     0.157 A 
ATOM     16  C   UNL     1     -24.059  19.842 -39.341  1.00  0.00     0.062 A 
ATOM     17  C   UNL     1     -23.498  20.973 -39.945  1.00  0.00     0.158 A 
BRANCH  15  18
ATOM     18  O   UNL     1     -22.602  22.068 -41.915  1.00  0.00    -0.504 OA
ATOM     19  H   UNL     1     -22.580  22.170 -42.923  1.00  0.00     0.293 HD
ENDBRANCH  15  18
BRANCH  17  20
ATOM     20  O   UNL     1     -23.281  22.116 -39.174  1.00  0.00    -0.504 OA
ATOM     21  H   UNL     1     -22.702  22.103 -38.344  1.00  0.00     0.293 HD
ENDBRANCH  17  20
ENDBRANCH   1  12
BRANCH   6  22
ATOM     22  O   UNL     1     -27.472  13.683 -37.031  1.00  0.00    -0.507 OA
ATOM     23  H   UNL     1     -28.225  13.016 -37.119  1.00  0.00     0.293 HD
ENDBRANCH   6  22
BRANCH   8  24
ATOM     24  O   UNL     1     -24.323  11.499 -39.894  1.00  0.00    -0.508 OA
ATOM     25  H   UNL     1     -23.912  10.814 -39.270  1.00  0.00     0.293 HD
ENDBRANCH   8  24
TORSDOF 5
ENDMDL
MODEL 7
REMARK VINA RESULT:    -6.957      2.356      3.126
REMARK INTER + INTRA:          -8.465
REMARK INTER:                  -8.149
REMARK INTRA:                  -0.315
REMARK UNBOUND:                -0.287
REMARK SMILES O=c1cc(-c2ccc(O)c(O)c2)oc2cc(O)cc(O)c12
REMARK SMILES IDX 4 1 3 2 2 3 1 4 21 5 19 6 18 7 16 8 15 9 14 10 13 11 5 12
REMARK SMILES IDX 6 13 7 14 8 15 12 16 10 17 9 18 11 20 20 22 17 24
REMARK H PARENT 9 19 11 21 20 23 17 25
REMARK Flexibility Score: inf
ROOT
ATOM      1  C   UNL     1     -17.729  12.464 -35.360  1.00  0.00     0.138 A 
ATOM      2  C   UNL     1     -17.786  11.161 -35.871  1.00  0.00     0.100 A 
ATOM      3  C   UNL     1     -18.473  10.914 -37.061  1.00  0.00     0.197 A 
ATOM      4  O   UNL     1     -18.458   9.743 -37.522  1.00  0.00    -0.289 OA
ATOM      5  C   UNL     1     -19.136  11.974 -37.722  1.00  0.00     0.107 A 
ATOM      6  C   UNL     1     -19.897  11.836 -38.923  1.00  0.00     0.134 A 
ATOM      7  C   UNL     1     -20.426  12.978 -39.539  1.00  0.00     0.093 A 
ATOM      8  C   UNL     1     -20.275  14.241 -38.970  1.00  0.00     0.123 A 
ATOM      9  C   UNL     1     -19.577  14.382 -37.770  1.00  0.00     0.094 A 
ATOM     10  C   UNL     1     -19.006  13.267 -37.149  1.00  0.00     0.146 A 
ATOM     11  O   UNL     1     -18.334  13.447 -36.017  1.00  0.00    -0.456 OA
ENDROOT
BRANCH   1  12
ATOM     12  C   UNL     1     -17.014  12.782 -34.098  1.00  0.00     0.021 A 
ATOM     13  C   UNL     1     -16.160  11.822 -33.528  1.00  0.00     0.016 A 
ATOM     14  C   UNL     1     -15.481  12.092 -32.337  1.00  0.00     0.051 A 
ATOM     15  C   UNL     1     -15.652  13.322 -31.689  1.00  0.00     0.157 A 
ATOM     16  C   UNL     1     -17.192  14.011 -33.434  1.00  0.00     0.062 A 
ATOM     17  C   UNL     1     -16.514  14.284 -32.240  1.00  0.00     0.158 A 
BRANCH  15  18
ATOM     18  O   UNL     1     -14.972  13.589 -30.501  1.00  0.00    -0.504 OA
ATOM     19  H   UNL     1     -14.332  12.917 -30.094  1.00  0.00     0.293 HD
ENDBRANCH  15  18
BRANCH  17  20
ATOM     20  O   UNL     1     -16.715  15.513 -31.613  1.00  0.00    -0.504 OA
ATOM     21  H   UNL     1     -15.946  16.127 -31.372  1.00  0.00     0.293 HD
ENDBRANCH  17  20
ENDBRANCH   1  12
BRANCH   6  22
ATOM     22  O   UNL     1     -20.179  10.612 -39.536  1.00  0.00    -0.507 OA
ATOM     23  H   UNL     1     -19.688   9.749 -39.359  1.00  0.00     0.293 HD
ENDBRANCH   6  22
BRANCH   8  24
ATOM     24  O   UNL     1     -20.830  15.351 -39.603  1.00  0.00    -0.508 OA
ATOM     25  H   UNL     1     -21.773  15.332 -39.975  1.00  0.00     0.293 HD
ENDBRANCH   8  24
TORSDOF 5
ENDMDL
MODEL 8
REMARK VINA RESULT:    -6.894      1.517      2.243
REMARK INTER + INTRA:          -8.390
REMARK INTER:                  -8.099
REMARK INTRA:                  -0.291
REMARK UNBOUND:                -0.287
REMARK SMILES O=c1cc(-c2ccc(O)c(O)c2)oc2cc(O)cc(O)c12
REMARK SMILES IDX 4 1 3 2 2 3 1 4 21 5 19 6 18 7 16 8 15 9 14 10 13 11 5 12
REMARK SMILES IDX 6 13 7 14 8 15 12 16 10 17 9 18 11 20 20 22 17 24
REMARK H PARENT 9 19 11 21 20 23 17 25
REMARK Flexibility Score: inf
ROOT
ATOM      1  C   UNL     1     -19.025  11.809 -34.931  1.00  0.00     0.138 A 
ATOM      2  C   UNL     1     -19.004  10.510 -35.455  1.00  0.00     0.100 A 
ATOM      3  C   UNL     1     -19.884  10.165 -36.481  1.00  0.00     0.197 A 
ATOM      4  O   UNL     1     -19.802   9.007 -36.968  1.00  0.00    -0.289 OA
ATOM      5  C   UNL     1     -20.815  11.117 -36.960  1.00  0.00     0.107 A 
ATOM      6  C   UNL     1     -21.784  10.868 -37.979  1.00  0.00     0.134 A 
ATOM      7  C   UNL     1     -22.586  11.920 -38.439  1.00  0.00     0.093 A 
ATOM      8  C   UNL     1     -22.498  13.193 -37.879  1.00  0.00     0.123 A 
ATOM      9  C   UNL     1     -21.590  13.436 -36.848  1.00  0.00     0.094 A 
ATOM     10  C   UNL     1     -20.750  12.417 -36.391  1.00  0.00     0.146 A 
ATOM     11  O   UNL     1     -19.887  12.694 -35.420  1.00  0.00    -0.456 OA
ENDROOT
BRANCH   1  12
ATOM     12  C   UNL     1     -18.114  12.230 -33.837  1.00  0.00     0.021 A 
ATOM     13  C   UNL     1     -18.464  13.325 -33.029  1.00  0.00     0.016 A 
ATOM     14  C   UNL     1     -17.621  13.746 -31.997  1.00  0.00     0.051 A 
ATOM     15  C   UNL     1     -16.409  13.087 -31.761  1.00  0.00     0.157 A 
ATOM     16  C   UNL     1     -16.886  11.580 -33.603  1.00  0.00     0.062 A 
ATOM     17  C   UNL     1     -16.039  12.000 -32.571  1.00  0.00     0.158 A 
BRANCH  15  18
ATOM     18  O   UNL     1     -15.570  13.509 -30.730  1.00  0.00    -0.504 OA
ATOM     19  H   UNL     1     -15.559  14.472 -30.416  1.00  0.00     0.293 HD
ENDBRANCH  15  18
BRANCH  17  20
ATOM     20  O   UNL     1     -14.832  11.330 -32.369  1.00  0.00    -0.504 OA
ATOM     21  H   UNL     1     -14.024  11.787 -31.965  1.00  0.00     0.293 HD
ENDBRANCH  17  20
ENDBRANCH   1  12
BRANCH   6  22
ATOM     22  O   UNL     1     -22.013   9.614 -38.554  1.00  0.00    -0.507 OA
ATOM     23  H   UNL     1     -21.294   8.989 -38.886  1.00  0.00     0.293 HD
ENDBRANCH   6  22
BRANCH   8  24
ATOM     24  O   UNL     1     -23.324  14.210 -38.353  1.00  0.00    -0.508 OA
ATOM     25  H   UNL     1     -23.180  14.629 -39.264  1.00  0.00     0.293 HD
ENDBRANCH   8  24
TORSDOF 5
ENDMDL
MODEL 9
REMARK VINA RESULT:    -6.833      5.520      7.533
REMARK INTER + INTRA:          -8.318
REMARK INTER:                  -8.052
REMARK INTRA:                  -0.266
REMARK UNBOUND:                -0.287
REMARK SMILES O=c1cc(-c2ccc(O)c(O)c2)oc2cc(O)cc(O)c12
REMARK SMILES IDX 4 1 3 2 2 3 1 4 21 5 19 6 18 7 16 8 15 9 14 10 13 11 5 12
REMARK SMILES IDX 6 13 7 14 8 15 12 16 10 17 9 18 11 20 20 22 17 24
REMARK H PARENT 9 19 11 21 20 23 17 25
REMARK Flexibility Score: inf
ROOT
ATOM      1  C   UNL     1     -23.978  14.559 -38.627  1.00  0.00     0.138 A 
ATOM      2  C   UNL     1     -24.969  13.719 -39.151  1.00  0.00     0.100 A 
ATOM      3  C   UNL     1     -24.623  12.451 -39.619  1.00  0.00     0.197 A 
ATOM      4  O   UNL     1     -25.544  11.699 -40.031  1.00  0.00    -0.289 OA
ATOM      5  C   UNL     1     -23.270  12.037 -39.593  1.00  0.00     0.107 A 
ATOM      6  C   UNL     1     -22.794  10.779 -40.075  1.00  0.00     0.134 A 
ATOM      7  C   UNL     1     -21.444  10.443 -39.906  1.00  0.00     0.093 A 
ATOM      8  C   UNL     1     -20.544  11.337 -39.329  1.00  0.00     0.123 A 
ATOM      9  C   UNL     1     -20.988  12.588 -38.900  1.00  0.00     0.094 A 
ATOM     10  C   UNL     1     -22.335  12.941 -39.022  1.00  0.00     0.146 A 
ATOM     11  O   UNL     1     -22.720  14.135 -38.586  1.00  0.00    -0.456 OA
ENDROOT
BRANCH   1  12
ATOM     12  C   UNL     1     -24.290  15.919 -38.119  1.00  0.00     0.021 A 
ATOM     13  C   UNL     1     -23.697  17.038 -38.731  1.00  0.00     0.016 A 
ATOM     14  C   UNL     1     -23.968  18.328 -38.268  1.00  0.00     0.051 A 
ATOM     15  C   UNL     1     -24.828  18.523 -37.180  1.00  0.00     0.157 A 
ATOM     16  C   UNL     1     -25.143  16.122 -37.017  1.00  0.00     0.062 A 
ATOM     17  C   UNL     1     -25.414  17.414 -36.550  1.00  0.00     0.158 A 
BRANCH  15  18
ATOM     18  O   UNL     1     -25.096  19.812 -36.721  1.00  0.00    -0.504 OA
ATOM     19  H   UNL     1     -25.387  20.550 -37.352  1.00  0.00     0.293 HD
ENDBRANCH  15  18
BRANCH  17  20
ATOM     20  O   UNL     1     -26.266  17.574 -35.457  1.00  0.00    -0.504 OA
ATOM     21  H   UNL     1     -27.252  17.350 -35.505  1.00  0.00     0.293 HD
ENDBRANCH  17  20
ENDBRANCH   1  12
BRANCH   6  22
ATOM     22  O   UNL     1     -23.589   9.842 -40.739  1.00  0.00    -0.507 OA
ATOM     23  H   UNL     1     -23.242   9.108 -41.339  1.00  0.00     0.293 HD
ENDBRANCH   6  22
BRANCH   8  24
ATOM     24  O   UNL     1     -19.207  10.972 -39.192  1.00  0.00    -0.508 OA
ATOM     25  H   UNL     1     -18.727  10.439 -39.908  1.00  0.00     0.293 HD
ENDBRANCH   8  24
TORSDOF 5
ENDMDL
