MODEL 1
REMARK VINA RESULT:    -3.237      0.000      0.000
REMARK INTER + INTRA:          -5.211
REMARK INTER:                  -4.940
REMARK INTRA:                  -0.271
REMARK UNBOUND:                -0.271
REMARK SMILES CC1=CCC[C@H](C)C(=O)C[C@@H](C(C)C)C(=O)C1
REMARK SMILES IDX 8 1 9 2 6 3 7 4 5 5 4 6 3 7 2 8 1 9 10 11 11 12 15 13 16 14
REMARK SMILES IDX 17 15 12 17 13 18 14 19
REMARK H PARENT
REMARK Flexibility Score: 70.00
ROOT
ATOM      1  C   UNL     1       1.935  78.490 -28.537  1.00  0.00     0.136 C 
ATOM      2  O   UNL     1       2.257  79.361 -27.740  1.00  0.00    -0.299 OA
ENDROOT
BRANCH   1   3
ATOM      3  C   UNL     1       2.610  78.427 -29.889  1.00  0.00     0.053 C 
ATOM      4  C   UNL     1       2.718  79.832 -30.493  1.00  0.00     0.016 C 
BRANCH   3   5
ATOM      5  C   UNL     1       3.998  77.766 -29.790  1.00  0.00     0.015 C 
BRANCH   5   6
ATOM      6  C   UNL     1       4.069  76.408 -30.523  1.00  0.00     0.028 C 
BRANCH   6   7
ATOM      7  C   UNL     1       4.307  75.269 -29.559  1.00  0.00    -0.028 C 
ATOM      8  C   UNL     1       3.372  74.499 -28.950  1.00  0.00    -0.070 CG0
ATOM      9  C   UNL     1       3.864  73.384 -28.060  1.00  0.00     0.039 C 
ATOM     10  G   UNL     1       1.871  74.694 -29.083  1.00  0.00     0.000 G0
ENDBRANCH   6   7
ENDBRANCH   5   6
ENDBRANCH   3   5
ENDBRANCH   1   3
BRANCH   1  11
ATOM     11  C   UNL     1       0.821  77.525 -28.206  1.00  0.00     0.087 C 
BRANCH  11  12
ATOM     12  C   UNL     1       1.227  76.442 -27.175  1.00  0.00     0.066 C 
BRANCH  12  13
ATOM     13  C   UNL     1       1.233  75.029 -27.745  1.00  0.00     0.140 C 
ATOM     14  O   UNL     1       0.641  74.156 -27.127  1.00  0.00    -0.299 OA
BRANCH  13  15
ATOM     15  C   UNL     1       1.871  74.670 -29.070  1.00  0.00     0.106 CG0
ATOM     16  G   UNL     1       3.374  74.500 -28.926  1.00  0.00     0.000 G0
ENDBRANCH  13  15
ENDBRANCH  12  13
BRANCH  12  17
ATOM     17  C   UNL     1       0.420  76.561 -25.847  1.00  0.00    -0.006 C 
ATOM     18  C   UNL     1       1.264  76.360 -24.577  1.00  0.00     0.008 C 
ATOM     19  C   UNL     1      -0.331  77.900 -25.766  1.00  0.00     0.008 C 
ENDBRANCH  12  17
ENDBRANCH  11  12
ENDBRANCH   1  11
TORSDOF 1
ENDMDL
MODEL 2
REMARK VINA RESULT:    -3.174      6.622      8.803
REMARK INTER + INTRA:          -5.115
REMARK INTER:                  -4.875
REMARK INTRA:                  -0.240
REMARK UNBOUND:                -0.271
REMARK SMILES CC1=CCC[C@H](C)C(=O)C[C@@H](C(C)C)C(=O)C1
REMARK SMILES IDX 8 1 9 2 6 3 7 4 5 5 4 6 3 7 2 8 1 9 10 11 11 12 15 13 16 14
REMARK SMILES IDX 17 15 12 17 13 18 14 19
REMARK H PARENT
REMARK Flexibility Score: 70.00
ROOT
ATOM      1  C   UNL     1       0.543  75.820 -22.314  1.00  0.00     0.136 C 
ATOM      2  O   UNL     1       0.782  74.641 -22.538  1.00  0.00    -0.299 OA
ENDROOT
BRANCH   1   3
ATOM      3  C   UNL     1      -0.541  76.526 -23.098  1.00  0.00     0.053 C 
ATOM      4  C   UNL     1      -1.830  76.598 -22.271  1.00  0.00     0.016 C 
BRANCH   3   5
ATOM      5  C   UNL     1      -0.090  77.935 -23.530  1.00  0.00     0.015 C 
BRANCH   5   6
ATOM      6  C   UNL     1      -0.704  79.053 -22.660  1.00  0.00     0.028 C 
BRANCH   6   7
ATOM      7  C   UNL     1       0.360  79.970 -22.102  1.00  0.00    -0.028 C 
ATOM      8  C   UNL     1       0.757  80.077 -20.811  1.00  0.00    -0.070 CG0
ATOM      9  C   UNL     1       1.880  81.039 -20.507  1.00  0.00     0.039 C 
ATOM     10  G   UNL     1       0.137  79.318 -19.649  1.00  0.00     0.000 G0
ENDBRANCH   6   7
ENDBRANCH   5   6
ENDBRANCH   3   5
ENDBRANCH   1   3
BRANCH   1  11
ATOM     11  C   UNL     1       1.371  76.591 -21.313  1.00  0.00     0.087 C 
BRANCH  11  12
ATOM     12  C   UNL     1       0.696  76.728 -19.926  1.00  0.00     0.066 C 
BRANCH  12  13
ATOM     13  C   UNL     1       0.925  78.082 -19.268  1.00  0.00     0.140 C 
ATOM     14  O   UNL     1       1.834  78.182 -18.456  1.00  0.00    -0.299 OA
BRANCH  13  15
ATOM     15  C   UNL     1       0.134  79.322 -19.621  1.00  0.00     0.106 CG0
ATOM     16  G   UNL     1       0.760  80.057 -20.795  1.00  0.00     0.000 G0
ENDBRANCH  13  15
ENDBRANCH  12  13
BRANCH  12  17
ATOM     17  C   UNL     1       1.029  75.529 -18.988  1.00  0.00    -0.006 C 
ATOM     18  C   UNL     1      -0.015  74.399 -19.014  1.00  0.00     0.008 C 
ATOM     19  C   UNL     1       2.423  74.954 -19.287  1.00  0.00     0.008 C 
ENDBRANCH  12  17
ENDBRANCH  11  12
ENDBRANCH   1  11
TORSDOF 1
ENDMDL
MODEL 3
REMARK VINA RESULT:    -3.147      5.210      6.712
REMARK INTER + INTRA:          -5.074
REMARK INTER:                  -4.734
REMARK INTRA:                  -0.340
REMARK UNBOUND:                -0.271
REMARK SMILES CC1=CCC[C@H](C)C(=O)C[C@@H](C(C)C)C(=O)C1
REMARK SMILES IDX 8 1 9 2 6 3 7 4 5 5 4 6 3 7 2 8 1 9 10 11 11 12 15 13 16 14
REMARK SMILES IDX 17 15 12 17 13 18 14 19
REMARK H PARENT
REMARK Flexibility Score: 70.00
ROOT
ATOM      1  C   UNL     1       7.650  78.436 -30.811  1.00  0.00     0.136 C 
ATOM      2  O   UNL     1       6.991  79.281 -30.221  1.00  0.00    -0.299 OA
ENDROOT
BRANCH   1   3
ATOM      3  C   UNL     1       9.100  78.711 -31.138  1.00  0.00     0.053 C 
ATOM      4  C   UNL     1       9.248  80.104 -31.762  1.00  0.00     0.016 C 
BRANCH   3   5
ATOM      5  C   UNL     1       9.990  78.577 -29.886  1.00  0.00     0.015 C 
BRANCH   5   6
ATOM      6  C   UNL     1      11.096  77.512 -30.049  1.00  0.00     0.028 C 
BRANCH   6   7
ATOM      7  C   UNL     1      10.856  76.320 -29.152  1.00  0.00    -0.028 C 
ATOM      8  C   UNL     1      10.136  75.208 -29.439  1.00  0.00    -0.070 CG0
ATOM      9  C   UNL     1      10.082  74.126 -28.388  1.00  0.00     0.039 C 
ATOM     10  G   UNL     1       9.366  74.985 -30.730  1.00  0.00     0.000 G0
ENDBRANCH   6   7
ENDBRANCH   5   6
ENDBRANCH   3   5
ENDBRANCH   1   3
BRANCH   1  11
ATOM     11  C   UNL     1       7.004  77.152 -31.276  1.00  0.00     0.087 C 
BRANCH  11  12
ATOM     12  C   UNL     1       6.965  76.049 -30.189  1.00  0.00     0.066 C 
BRANCH  12  13
ATOM     13  C   UNL     1       7.866  74.860 -30.493  1.00  0.00     0.140 C 
ATOM     14  O   UNL     1       7.348  73.758 -30.606  1.00  0.00    -0.299 OA
BRANCH  13  15
ATOM     15  C   UNL     1       9.355  74.985 -30.734  1.00  0.00     0.106 CG0
ATOM     16  G   UNL     1      10.106  75.194 -29.429  1.00  0.00     0.000 G0
ENDBRANCH  13  15
ENDBRANCH  12  13
BRANCH  12  17
ATOM     17  C   UNL     1       5.507  75.633 -29.824  1.00  0.00    -0.006 C 
ATOM     18  C   UNL     1       5.170  75.767 -28.329  1.00  0.00     0.008 C 
ATOM     19  C   UNL     1       4.478  76.409 -30.661  1.00  0.00     0.008 C 
ENDBRANCH  12  17
ENDBRANCH  11  12
ENDBRANCH   1  11
TORSDOF 1
ENDMDL
MODEL 4
REMARK VINA RESULT:    -3.007      7.288      9.284
REMARK INTER + INTRA:          -4.859
REMARK INTER:                  -4.560
REMARK INTRA:                  -0.300
REMARK UNBOUND:                -0.271
REMARK SMILES CC1=CCC[C@H](C)C(=O)C[C@@H](C(C)C)C(=O)C1
REMARK SMILES IDX 8 1 9 2 6 3 7 4 5 5 4 6 3 7 2 8 1 9 10 11 11 12 15 13 16 14
REMARK SMILES IDX 17 15 12 17 13 18 14 19
REMARK H PARENT
REMARK Flexibility Score: 70.00
ROOT
ATOM      1  C   UNL     1       0.055  77.153 -21.435  1.00  0.00     0.136 C 
ATOM      2  O   UNL     1       0.467  76.940 -22.567  1.00  0.00    -0.299 OA
ENDROOT
BRANCH   1   3
ATOM      3  C   UNL     1       0.046  76.033 -20.419  1.00  0.00     0.053 C 
ATOM      4  C   UNL     1      -0.495  74.746 -21.054  1.00  0.00     0.016 C 
BRANCH   3   5
ATOM      5  C   UNL     1       1.451  75.802 -19.829  1.00  0.00     0.015 C 
BRANCH   5   6
ATOM      6  C   UNL     1       1.763  76.740 -18.643  1.00  0.00     0.028 C 
BRANCH   6   7
ATOM      7  C   UNL     1       2.872  77.711 -18.980  1.00  0.00    -0.028 C 
ATOM      8  C   UNL     1       2.758  79.045 -19.190  1.00  0.00    -0.070 CG0
ATOM      9  C   UNL     1       4.027  79.814 -19.468  1.00  0.00     0.039 C 
ATOM     10  G   UNL     1       1.448  79.814 -19.187  1.00  0.00     0.000 G0
ENDBRANCH   6   7
ENDBRANCH   5   6
ENDBRANCH   3   5
ENDBRANCH   1   3
BRANCH   1  11
ATOM     11  C   UNL     1      -0.509  78.505 -21.069  1.00  0.00     0.087 C 
BRANCH  11  12
ATOM     12  C   UNL     1       0.317  79.692 -21.625  1.00  0.00     0.066 C 
BRANCH  12  13
ATOM     13  C   UNL     1       1.138  80.413 -20.565  1.00  0.00     0.140 C 
ATOM     14  O   UNL     1       1.524  81.548 -20.808  1.00  0.00    -0.299 OA
BRANCH  13  15
ATOM     15  C   UNL     1       1.438  79.826 -19.203  1.00  0.00     0.106 CG0
ATOM     16  G   UNL     1       2.748  79.055 -19.214  1.00  0.00     0.000 G0
ENDBRANCH  13  15
ENDBRANCH  12  13
BRANCH  12  17
ATOM     17  C   UNL     1      -0.549  80.659 -22.489  1.00  0.00    -0.006 C 
ATOM     18  C   UNL     1      -0.795  80.170 -23.927  1.00  0.00     0.008 C 
ATOM     19  C   UNL     1      -1.893  80.966 -21.808  1.00  0.00     0.008 C 
ENDBRANCH  12  17
ENDBRANCH  11  12
ENDBRANCH   1  11
TORSDOF 1
ENDMDL
MODEL 5
REMARK VINA RESULT:    -2.957     12.169     13.316
REMARK INTER + INTRA:          -4.783
REMARK INTER:                  -4.738
REMARK INTRA:                  -0.045
REMARK UNBOUND:                -0.271
REMARK SMILES CC1=CCC[C@H](C)C(=O)C[C@@H](C(C)C)C(=O)C1
REMARK SMILES IDX 8 1 9 2 6 3 7 4 5 5 4 6 3 7 2 8 1 9 10 11 11 12 15 13 16 14
REMARK SMILES IDX 17 15 12 17 13 18 14 19
REMARK H PARENT
REMARK Flexibility Score: 70.00
ROOT
ATOM      1  C   UNL     1      12.169  76.710 -21.395  1.00  0.00     0.136 C 
ATOM      2  O   UNL     1      10.982  76.548 -21.642  1.00  0.00    -0.299 OA
ENDROOT
BRANCH   1   3
ATOM      3  C   UNL     1      13.202  76.416 -22.460  1.00  0.00     0.053 C 
ATOM      4  C   UNL     1      13.070  74.965 -22.939  1.00  0.00     0.016 C 
BRANCH   3   5
ATOM      5  C   UNL     1      13.079  77.395 -23.643  1.00  0.00     0.015 C 
BRANCH   5   6
ATOM      6  C   UNL     1      13.872  78.702 -23.424  1.00  0.00     0.028 C 
BRANCH   6   7
ATOM      7  C   UNL     1      12.952  79.872 -23.160  1.00  0.00    -0.028 C 
ATOM      8  C   UNL     1      12.689  80.456 -21.966  1.00  0.00    -0.070 CG0
ATOM      9  C   UNL     1      11.765  81.650 -21.966  1.00  0.00     0.039 C 
ATOM     10  G   UNL     1      13.238  79.982 -20.631  1.00  0.00     0.000 G0
ENDBRANCH   6   7
ENDBRANCH   5   6
ENDBRANCH   3   5
ENDBRANCH   1   3
BRANCH   1  11
ATOM     11  C   UNL     1      12.612  77.133 -20.014  1.00  0.00     0.087 C 
BRANCH  11  12
ATOM     12  C   UNL     1      11.691  78.198 -19.368  1.00  0.00     0.066 C 
BRANCH  12  13
ATOM     13  C   UNL     1      12.127  79.630 -19.645  1.00  0.00     0.140 C 
ATOM     14  O   UNL     1      11.589  80.529 -19.014  1.00  0.00    -0.299 OA
BRANCH  13  15
ATOM     15  C   UNL     1      13.239  79.989 -20.607  1.00  0.00     0.106 CG0
ATOM     16  G   UNL     1      12.680  80.447 -21.945  1.00  0.00     0.000 G0
ENDBRANCH  13  15
ENDBRANCH  12  13
BRANCH  12  17
ATOM     17  C   UNL     1      11.439  77.918 -17.855  1.00  0.00    -0.006 C 
ATOM     18  C   UNL     1       9.954  77.923 -17.453  1.00  0.00     0.008 C 
ATOM     19  C   UNL     1      12.094  76.600 -17.413  1.00  0.00     0.008 C 
ENDBRANCH  12  17
ENDBRANCH  11  12
ENDBRANCH   1  11
TORSDOF 1
ENDMDL
MODEL 6
REMARK VINA RESULT:    -2.936     12.215     13.624
REMARK INTER + INTRA:          -4.752
REMARK INTER:                  -4.367
REMARK INTRA:                  -0.385
REMARK UNBOUND:                -0.271
REMARK SMILES CC1=CCC[C@H](C)C(=O)C[C@@H](C(C)C)C(=O)C1
REMARK SMILES IDX 8 1 9 2 6 3 7 4 5 5 4 6 3 7 2 8 1 9 10 11 11 12 15 13 16 14
REMARK SMILES IDX 17 15 12 17 13 18 14 19
REMARK H PARENT
REMARK Flexibility Score: 70.00
ROOT
ATOM      1  C   UNL     1      12.132  79.997 -20.080  1.00  0.00     0.136 C 
ATOM      2  O   UNL     1      11.682  80.702 -20.973  1.00  0.00    -0.299 OA
ENDROOT
BRANCH   1   3
ATOM      3  C   UNL     1      11.783  80.300 -18.640  1.00  0.00     0.053 C 
ATOM      4  C   UNL     1      11.418  81.781 -18.484  1.00  0.00     0.016 C 
BRANCH   3   5
ATOM      5  C   UNL     1      10.636  79.400 -18.142  1.00  0.00     0.015 C 
BRANCH   5   6
ATOM      6  C   UNL     1      11.116  78.306 -17.162  1.00  0.00     0.028 C 
BRANCH   6   7
ATOM      7  C   UNL     1      10.637  76.936 -17.582  1.00  0.00    -0.028 C 
ATOM      8  C   UNL     1      11.326  76.006 -18.288  1.00  0.00    -0.070 CG0
ATOM      9  C   UNL     1      10.644  74.684 -18.545  1.00  0.00     0.039 C 
ATOM     10  G   UNL     1      12.721  76.209 -18.855  1.00  0.00     0.000 G0
ENDBRANCH   6   7
ENDBRANCH   5   6
ENDBRANCH   3   5
ENDBRANCH   1   3
BRANCH   1  11
ATOM     11  C   UNL     1      13.089  78.874 -20.402  1.00  0.00     0.087 C 
BRANCH  11  12
ATOM     12  C   UNL     1      12.410  77.657 -21.079  1.00  0.00     0.066 C 
BRANCH  12  13
ATOM     13  C   UNL     1      12.686  76.335 -20.376  1.00  0.00     0.140 C 
ATOM     14  O   UNL     1      12.943  75.359 -21.064  1.00  0.00    -0.299 OA
BRANCH  13  15
ATOM     15  C   UNL     1      12.728  76.187 -18.870  1.00  0.00     0.106 CG0
ATOM     16  G   UNL     1      11.330  76.017 -18.297  1.00  0.00     0.000 G0
ENDBRANCH  13  15
ENDBRANCH  12  13
BRANCH  12  17
ATOM     17  C   UNL     1      12.692  77.604 -22.611  1.00  0.00    -0.006 C 
ATOM     18  C   UNL     1      11.440  77.780 -23.488  1.00  0.00     0.008 C 
ATOM     19  C   UNL     1      13.762  78.629 -23.020  1.00  0.00     0.008 C 
ENDBRANCH  12  17
ENDBRANCH  11  12
ENDBRANCH   1  11
TORSDOF 1
ENDMDL
MODEL 7
REMARK VINA RESULT:    -2.877      6.454      8.531
REMARK INTER + INTRA:          -4.662
REMARK INTER:                  -4.365
REMARK INTRA:                  -0.297
REMARK UNBOUND:                -0.271
REMARK SMILES CC1=CCC[C@H](C)C(=O)C[C@@H](C(C)C)C(=O)C1
REMARK SMILES IDX 8 1 9 2 6 3 7 4 5 5 4 6 3 7 2 8 1 9 10 11 11 12 15 13 16 14
REMARK SMILES IDX 17 15 12 17 13 18 14 19
REMARK H PARENT
REMARK Flexibility Score: 70.00
ROOT
ATOM      1  C   UNL     1      11.006  74.819 -27.889  1.00  0.00     0.136 C 
ATOM      2  O   UNL     1      12.199  74.650 -27.673  1.00  0.00    -0.299 OA
ENDROOT
BRANCH   1   3
ATOM      3  C   UNL     1      10.550  76.043 -28.651  1.00  0.00     0.053 C 
ATOM      4  C   UNL     1      11.145  77.310 -28.024  1.00  0.00     0.016 C 
BRANCH   3   5
ATOM      5  C   UNL     1      10.923  75.944 -30.142  1.00  0.00     0.015 C 
BRANCH   5   6
ATOM      6  C   UNL     1      10.103  74.875 -30.895  1.00  0.00     0.028 C 
BRANCH   6   7
ATOM      7  C   UNL     1       8.632  74.966 -30.561  1.00  0.00    -0.028 C 
ATOM      8  C   UNL     1       7.811  73.955 -30.186  1.00  0.00    -0.070 CG0
ATOM      9  C   UNL     1       6.380  74.308 -29.858  1.00  0.00     0.039 C 
ATOM     10  G   UNL     1       8.221  72.495 -30.095  1.00  0.00     0.000 G0
ENDBRANCH   6   7
ENDBRANCH   5   6
ENDBRANCH   3   5
ENDBRANCH   1   3
BRANCH   1  11
ATOM     11  C   UNL     1       9.985  73.851 -27.338  1.00  0.00     0.087 C 
BRANCH  11  12
ATOM     12  C   UNL     1       9.980  72.480 -28.059  1.00  0.00     0.066 C 
BRANCH  12  13
ATOM     13  C   UNL     1       8.634  72.117 -28.670  1.00  0.00     0.140 C 
ATOM     14  O   UNL     1       7.813  71.552 -27.962  1.00  0.00    -0.299 OA
BRANCH  13  15
ATOM     15  C   UNL     1       8.236  72.485 -30.083  1.00  0.00     0.106 CG0
ATOM     16  G   UNL     1       7.810  73.941 -30.172  1.00  0.00     0.000 G0
ENDBRANCH  13  15
ENDBRANCH  12  13
BRANCH  12  17
ATOM     17  C   UNL     1      10.573  71.346 -27.169  1.00  0.00    -0.006 C 
ATOM     18  C   UNL     1      12.007  70.934 -27.546  1.00  0.00     0.008 C 
ATOM     19  C   UNL     1      10.513  71.714 -25.678  1.00  0.00     0.008 C 
ENDBRANCH  12  17
ENDBRANCH  11  12
ENDBRANCH   1  11
TORSDOF 1
ENDMDL
MODEL 8
REMARK VINA RESULT:    -2.835      7.554      9.635
REMARK INTER + INTRA:          -4.597
REMARK INTER:                  -4.802
REMARK INTRA:                   0.205
REMARK UNBOUND:                -0.271
REMARK SMILES CC1=CCC[C@H](C)C(=O)C[C@@H](C(C)C)C(=O)C1
REMARK SMILES IDX 8 1 9 2 6 3 7 4 5 5 4 6 3 7 2 8 1 9 10 11 11 12 15 13 16 14
REMARK SMILES IDX 17 15 12 17 13 18 14 19
REMARK H PARENT
REMARK Flexibility Score: 70.00
ROOT
ATOM      1  C   UNL     1       1.260  75.699 -19.834  1.00  0.00     0.136 C 
ATOM      2  O   UNL     1       1.426  74.859 -18.961  1.00  0.00    -0.299 OA
ENDROOT
BRANCH   1   3
ATOM      3  C   UNL     1       0.449  75.351 -21.063  1.00  0.00     0.053 C 
ATOM      4  C   UNL     1      -0.151  73.948 -20.921  1.00  0.00     0.016 C 
BRANCH   3   5
ATOM      5  C   UNL     1      -0.656  76.395 -21.316  1.00  0.00     0.015 C 
BRANCH   5   6
ATOM      6  C   UNL     1      -0.286  77.400 -22.428  1.00  0.00     0.028 C 
BRANCH   6   7
ATOM      7  C   UNL     1      -0.925  78.750 -22.192  1.00  0.00    -0.028 C 
ATOM      8  C   UNL     1      -0.436  79.769 -21.444  1.00  0.00    -0.070 CG0
ATOM      9  C   UNL     1      -1.241  81.045 -21.399  1.00  0.00     0.039 C 
ATOM     10  G   UNL     1       0.848  79.710 -20.633  1.00  0.00     0.000 G0
ENDBRANCH   6   7
ENDBRANCH   5   6
ENDBRANCH   3   5
ENDBRANCH   1   3
BRANCH   1  11
ATOM     11  C   UNL     1       1.918  77.055 -19.726  1.00  0.00     0.087 C 
BRANCH  11  12
ATOM     12  C   UNL     1       1.281  77.968 -18.649  1.00  0.00     0.066 C 
BRANCH  12  13
ATOM     13  C   UNL     1       0.585  79.194 -19.224  1.00  0.00     0.140 C 
ATOM     14  O   UNL     1      -0.184  79.812 -18.501  1.00  0.00    -0.299 OA
BRANCH  13  15
ATOM     15  C   UNL     1       0.851  79.726 -20.615  1.00  0.00     0.106 CG0
ATOM     16  G   UNL     1      -0.426  79.771 -21.439  1.00  0.00     0.000 G0
ENDBRANCH  13  15
ENDBRANCH  12  13
BRANCH  12  17
ATOM     17  C   UNL     1       2.282  78.314 -17.505  1.00  0.00    -0.006 C 
ATOM     18  C   UNL     1       3.426  77.299 -17.340  1.00  0.00     0.008 C 
ATOM     19  C   UNL     1       2.861  79.728 -17.677  1.00  0.00     0.008 C 
ENDBRANCH  12  17
ENDBRANCH  11  12
ENDBRANCH   1  11
TORSDOF 1
ENDMDL
MODEL 9
REMARK VINA RESULT:    -2.796     10.414     11.863
REMARK INTER + INTRA:          -4.538
REMARK INTER:                  -4.636
REMARK INTRA:                   0.098
REMARK UNBOUND:                -0.271
REMARK SMILES CC1=CCC[C@H](C)C(=O)C[C@@H](C(C)C)C(=O)C1
REMARK SMILES IDX 8 1 9 2 6 3 7 4 5 5 4 6 3 7 2 8 1 9 10 11 11 12 15 13 16 14
REMARK SMILES IDX 17 15 12 17 13 18 14 19
REMARK H PARENT
REMARK Flexibility Score: 70.00
ROOT
ATOM      1  C   UNL     1       2.656  80.507 -18.606  1.00  0.00     0.136 C 
ATOM      2  O   UNL     1       2.435  81.013 -19.697  1.00  0.00    -0.299 OA
ENDROOT
BRANCH   1   3
ATOM      3  C   UNL     1       1.613  79.618 -17.967  1.00  0.00     0.053 C 
ATOM      4  C   UNL     1       0.405  79.465 -18.900  1.00  0.00     0.016 C 
BRANCH   3   5
ATOM      5  C   UNL     1       2.199  78.241 -17.603  1.00  0.00     0.015 C 
BRANCH   5   6
ATOM      6  C   UNL     1       2.875  78.226 -16.214  1.00  0.00     0.028 C 
BRANCH   6   7
ATOM      7  C   UNL     1       4.024  77.246 -16.166  1.00  0.00    -0.028 C 
ATOM      8  C   UNL     1       5.346  77.524 -16.276  1.00  0.00    -0.070 CG0
ATOM      9  C   UNL     1       6.311  76.371 -16.149  1.00  0.00     0.039 C 
ATOM     10  G   UNL     1       5.921  78.906 -16.541  1.00  0.00     0.000 G0
ENDBRANCH   6   7
ENDBRANCH   5   6
ENDBRANCH   3   5
ENDBRANCH   1   3
BRANCH   1  11
ATOM     11  C   UNL     1       3.933  80.822 -17.862  1.00  0.00     0.087 C 
BRANCH  11  12
ATOM     12  C   UNL     1       5.214  80.417 -18.633  1.00  0.00     0.066 C 
BRANCH  12  13
ATOM     13  C   UNL     1       5.940  79.223 -18.026  1.00  0.00     0.140 C 
ATOM     14  O   UNL     1       6.610  78.519 -18.767  1.00  0.00    -0.299 OA
BRANCH  13  15
ATOM     15  C   UNL     1       5.931  78.910 -16.546  1.00  0.00     0.106 CG0
ATOM     16  G   UNL     1       5.344  77.534 -16.280  1.00  0.00     0.000 G0
ENDBRANCH  13  15
ENDBRANCH  12  13
BRANCH  12  17
ATOM     17  C   UNL     1       6.153  81.633 -18.894  1.00  0.00    -0.006 C 
ATOM     18  C   UNL     1       6.567  81.805 -20.366  1.00  0.00     0.008 C 
ATOM     19  C   UNL     1       5.535  82.940 -18.372  1.00  0.00     0.008 C 
ENDBRANCH  12  17
ENDBRANCH  11  12
ENDBRANCH   1  11
TORSDOF 1
ENDMDL
