MODEL 1
REMARK VINA RESULT:    -4.640      0.000      0.000
REMARK INTER + INTRA:          -6.308
REMARK INTER:                  -6.539
REMARK INTRA:                   0.230
REMARK UNBOUND:                 0.230
REMARK SMILES CC1=CCC(=C(C)C)C(=O)CC(C)=CCC1
REMARK SMILES IDX 12 1 14 2 13 3 15 4 16 5 2 6 1 7 3 8 11 10 9 11 10 12 5 13
REMARK SMILES IDX 6 14 7 15 8 16 4 17
REMARK H PARENT
REMARK Flexibility Score: 60.00
ROOT
ATOM      1  C   UNL     1       1.686 -21.386  -7.373  1.00  0.00    -0.070 C 
ATOM      2  C   UNL     1       0.517 -21.524  -6.706  1.00  0.00    -0.027 C 
ATOM      3  C   UNL     1       1.631 -21.008  -8.830  1.00  0.00     0.039 C 
ENDROOT
BRANCH   2   4
ATOM      4  C   UNL     1       0.391 -21.753  -5.221  1.00  0.00     0.032 C 
BRANCH   4   5
ATOM      5  C   UNL     1       0.387 -20.406  -4.487  1.00  0.00     0.034 C 
BRANCH   5   6
ATOM      6  C   UNL     1       1.130 -20.464  -3.167  1.00  0.00    -0.077 C 
ATOM      7  C   UNL     1       0.471 -21.151  -1.997  1.00  0.00     0.039 C 
ATOM      8  C   UNL     1       2.330 -19.866  -2.955  1.00  0.00    -0.023 CG0
ATOM      9  G   UNL     1       3.208 -19.171  -3.979  1.00  0.00     0.000 G0
ENDBRANCH   5   6
ENDBRANCH   4   5
ENDBRANCH   2   4
BRANCH   1  10
ATOM     10  C   UNL     1       3.042 -21.610  -6.733  1.00  0.00     0.111 C 
BRANCH  10  11
ATOM     11  C   UNL     1       3.668 -20.317  -6.272  1.00  0.00     0.163 C 
ATOM     12  O   UNL     1       3.838 -19.419  -7.140  1.00  0.00    -0.294 OA
BRANCH  11  13
ATOM     13  C   UNL     1       4.110 -20.060  -4.860  1.00  0.00    -0.002 C 
ATOM     14  C   UNL     1       5.179 -20.732  -4.333  1.00  0.00    -0.069 C 
ATOM     15  C   UNL     1       6.121 -21.528  -5.208  1.00  0.00     0.039 C 
ATOM     16  C   UNL     1       5.513 -20.677  -2.859  1.00  0.00     0.039 C 
BRANCH  13  17
ATOM     17  C   UNL     1       3.228 -19.173  -3.989  1.00  0.00     0.066 CG0
ATOM     18  G   UNL     1       2.339 -19.882  -2.983  1.00  0.00     0.000 G0
ENDBRANCH  13  17
ENDBRANCH  11  13
ENDBRANCH  10  11
ENDBRANCH   1  10
TORSDOF 0
ENDMDL
MODEL 2
REMARK VINA RESULT:    -4.495      1.510      2.406
REMARK INTER + INTRA:          -6.104
REMARK INTER:                  -6.260
REMARK INTRA:                   0.155
REMARK UNBOUND:                 0.230
REMARK SMILES CC1=CCC(=C(C)C)C(=O)CC(C)=CCC1
REMARK SMILES IDX 12 1 14 2 13 3 15 4 16 5 2 6 1 7 3 8 11 10 9 11 10 12 5 13
REMARK SMILES IDX 6 14 7 15 8 16 4 17
REMARK H PARENT
REMARK Flexibility Score: 60.00
ROOT
ATOM      1  C   UNL     1       0.906 -20.997  -5.801  1.00  0.00    -0.070 C 
ATOM      2  C   UNL     1       0.471 -20.853  -4.528  1.00  0.00    -0.027 C 
ATOM      3  C   UNL     1       0.499 -22.237  -6.554  1.00  0.00     0.039 C 
ENDROOT
BRANCH   2   4
ATOM      4  C   UNL     1       0.660 -19.618  -3.684  1.00  0.00     0.032 C 
BRANCH   4   5
ATOM      5  C   UNL     1       1.711 -19.885  -2.600  1.00  0.00     0.034 C 
BRANCH   5   6
ATOM      6  C   UNL     1       2.860 -18.899  -2.652  1.00  0.00    -0.077 C 
ATOM      7  C   UNL     1       2.767 -17.636  -1.832  1.00  0.00     0.039 C 
ATOM      8  C   UNL     1       3.944 -19.053  -3.454  1.00  0.00    -0.023 CG0
ATOM      9  G   UNL     1       4.290 -20.250  -4.319  1.00  0.00     0.000 G0
ENDBRANCH   5   6
ENDBRANCH   4   5
ENDBRANCH   2   4
BRANCH   1  10
ATOM     10  C   UNL     1       1.795 -19.985  -6.497  1.00  0.00     0.111 C 
BRANCH  10  11
ATOM     11  C   UNL     1       3.209 -20.491  -6.652  1.00  0.00     0.163 C 
ATOM     12  O   UNL     1       3.408 -21.381  -7.523  1.00  0.00    -0.294 OA
BRANCH  11  13
ATOM     13  C   UNL     1       4.363 -20.011  -5.821  1.00  0.00    -0.002 C 
ATOM     14  C   UNL     1       5.495 -19.526  -6.418  1.00  0.00    -0.069 C 
ATOM     15  C   UNL     1       5.528 -19.186  -7.891  1.00  0.00     0.039 C 
ATOM     16  C   UNL     1       6.759 -19.252  -5.635  1.00  0.00     0.039 C 
BRANCH  13  17
ATOM     17  C   UNL     1       4.305 -20.251  -4.317  1.00  0.00     0.066 CG0
ATOM     18  G   UNL     1       3.935 -19.058  -3.455  1.00  0.00     0.000 G0
ENDBRANCH  13  17
ENDBRANCH  11  13
ENDBRANCH  10  11
ENDBRANCH   1  10
TORSDOF 0
ENDMDL
MODEL 3
REMARK VINA RESULT:    -4.302      1.491      3.592
REMARK INTER + INTRA:          -5.833
REMARK INTER:                  -5.924
REMARK INTRA:                   0.092
REMARK UNBOUND:                 0.230
REMARK SMILES CC1=CCC(=C(C)C)C(=O)CC(C)=CCC1
REMARK SMILES IDX 12 1 14 2 13 3 15 4 16 5 2 6 1 7 3 8 11 10 9 11 10 12 5 13
REMARK SMILES IDX 6 14 7 15 8 16 4 17
REMARK H PARENT
REMARK Flexibility Score: 60.00
ROOT
ATOM      1  C   UNL     1       1.384 -19.965  -3.675  1.00  0.00    -0.070 C 
ATOM      2  C   UNL     1       0.579 -20.935  -4.165  1.00  0.00    -0.027 C 
ATOM      3  C   UNL     1       1.931 -20.133  -2.281  1.00  0.00     0.039 C 
ENDROOT
BRANCH   2   4
ATOM      4  C   UNL     1       0.066 -21.000  -5.581  1.00  0.00     0.032 C 
BRANCH   4   5
ATOM      5  C   UNL     1       0.892 -22.010  -6.387  1.00  0.00     0.034 C 
BRANCH   5   6
ATOM      6  C   UNL     1       1.816 -21.340  -7.384  1.00  0.00    -0.077 C 
ATOM      7  C   UNL     1       1.289 -21.033  -8.764  1.00  0.00     0.039 C 
ATOM      8  C   UNL     1       3.120 -21.063  -7.129  1.00  0.00    -0.023 CG0
ATOM      9  G   UNL     1       3.857 -21.224  -5.813  1.00  0.00     0.000 G0
ENDBRANCH   5   6
ENDBRANCH   4   5
ENDBRANCH   2   4
BRANCH   1  10
ATOM     10  C   UNL     1       1.746 -18.712  -4.449  1.00  0.00     0.111 C 
BRANCH  10  11
ATOM     11  C   UNL     1       3.073 -18.849  -5.153  1.00  0.00     0.163 C 
ATOM     12  O   UNL     1       3.380 -17.949  -5.981  1.00  0.00    -0.294 OA
BRANCH  11  13
ATOM     13  C   UNL     1       4.019 -19.995  -4.936  1.00  0.00    -0.002 C 
ATOM     14  C   UNL     1       5.097 -19.859  -4.104  1.00  0.00    -0.069 C 
ATOM     15  C   UNL     1       5.225 -18.682  -3.163  1.00  0.00     0.039 C 
ATOM     16  C   UNL     1       6.194 -20.898  -4.037  1.00  0.00     0.039 C 
BRANCH  13  17
ATOM     17  C   UNL     1       3.845 -21.236  -5.805  1.00  0.00     0.066 CG0
ATOM     18  G   UNL     1       3.124 -21.041  -7.126  1.00  0.00     0.000 G0
ENDBRANCH  13  17
ENDBRANCH  11  13
ENDBRANCH  10  11
ENDBRANCH   1  10
TORSDOF 0
ENDMDL
MODEL 4
REMARK VINA RESULT:    -4.070     10.375     12.300
REMARK INTER + INTRA:          -5.505
REMARK INTER:                  -5.602
REMARK INTRA:                   0.097
REMARK UNBOUND:                 0.230
REMARK SMILES CC1=CCC(=C(C)C)C(=O)CC(C)=CCC1
REMARK SMILES IDX 12 1 14 2 13 3 15 4 16 5 2 6 1 7 3 8 11 10 9 11 10 12 5 13
REMARK SMILES IDX 6 14 7 15 8 16 4 17
REMARK H PARENT
REMARK Flexibility Score: 60.00
ROOT
ATOM      1  C   UNL     1       4.685 -26.619   4.177  1.00  0.00    -0.070 C 
ATOM      2  C   UNL     1       5.183 -26.035   3.063  1.00  0.00    -0.027 C 
ATOM      3  C   UNL     1       3.459 -27.484   4.038  1.00  0.00     0.039 C 
ENDROOT
BRANCH   2   4
ATOM      4  C   UNL     1       6.476 -25.263   2.996  1.00  0.00     0.032 C 
BRANCH   4   5
ATOM      5  C   UNL     1       6.223 -23.793   3.349  1.00  0.00     0.034 C 
BRANCH   5   6
ATOM      6  C   UNL     1       7.173 -23.280   4.413  1.00  0.00    -0.077 C 
ATOM      7  C   UNL     1       8.631 -23.117   4.062  1.00  0.00     0.039 C 
ATOM      8  C   UNL     1       6.799 -23.025   5.693  1.00  0.00    -0.023 CG0
ATOM      9  G   UNL     1       5.396 -23.060   6.268  1.00  0.00     0.000 G0
ENDBRANCH   5   6
ENDBRANCH   4   5
ENDBRANCH   2   4
BRANCH   1  10
ATOM     10  C   UNL     1       5.286 -26.431   5.557  1.00  0.00     0.111 C 
BRANCH  10  11
ATOM     11  C   UNL     1       4.470 -25.484   6.402  1.00  0.00     0.163 C 
ATOM     12  O   UNL     1       3.232 -25.708   6.485  1.00  0.00    -0.294 OA
BRANCH  11  13
ATOM     13  C   UNL     1       5.046 -24.295   7.117  1.00  0.00    -0.002 C 
ATOM     14  C   UNL     1       5.100 -24.265   8.484  1.00  0.00    -0.069 C 
ATOM     15  C   UNL     1       4.860 -25.508   9.311  1.00  0.00     0.039 C 
ATOM     16  C   UNL     1       5.453 -23.007   9.244  1.00  0.00     0.039 C 
BRANCH  13  17
ATOM     17  C   UNL     1       5.393 -23.065   6.286  1.00  0.00     0.066 CG0
ATOM     18  G   UNL     1       6.788 -23.021   5.692  1.00  0.00     0.000 G0
ENDBRANCH  13  17
ENDBRANCH  11  13
ENDBRANCH  10  11
ENDBRANCH   1  10
TORSDOF 0
ENDMDL
MODEL 5
REMARK VINA RESULT:    -4.068      1.551      3.860
REMARK INTER + INTRA:          -5.502
REMARK INTER:                  -5.715
REMARK INTRA:                   0.213
REMARK UNBOUND:                 0.230
REMARK SMILES CC1=CCC(=C(C)C)C(=O)CC(C)=CCC1
REMARK SMILES IDX 12 1 14 2 13 3 15 4 16 5 2 6 1 7 3 8 11 10 9 11 10 12 5 13
REMARK SMILES IDX 6 14 7 15 8 16 4 17
REMARK H PARENT
REMARK Flexibility Score: 60.00
ROOT
ATOM      1  C   UNL     1       2.268 -20.492  -6.883  1.00  0.00    -0.070 C 
ATOM      2  C   UNL     1       3.459 -20.681  -7.496  1.00  0.00    -0.027 C 
ATOM      3  C   UNL     1       1.448 -21.707  -6.537  1.00  0.00     0.039 C 
ENDROOT
BRANCH   2   4
ATOM      4  C   UNL     1       4.467 -19.596  -7.780  1.00  0.00     0.032 C 
BRANCH   4   5
ATOM      5  C   UNL     1       5.368 -19.391  -6.556  1.00  0.00     0.034 C 
BRANCH   5   6
ATOM      6  C   UNL     1       5.452 -20.629  -5.685  1.00  0.00    -0.077 C 
ATOM      7  C   UNL     1       6.199 -21.831  -6.208  1.00  0.00     0.039 C 
ATOM      8  C   UNL     1       4.831 -20.745  -4.485  1.00  0.00    -0.023 CG0
ATOM      9  G   UNL     1       4.076 -19.667  -3.729  1.00  0.00     0.000 G0
ENDBRANCH   5   6
ENDBRANCH   4   5
ENDBRANCH   2   4
BRANCH   1  10
ATOM     10  C   UNL     1       1.712 -19.122  -6.546  1.00  0.00     0.111 C 
BRANCH  10  11
ATOM     11  C   UNL     1       2.270 -18.591  -5.248  1.00  0.00     0.163 C 
ATOM     12  O   UNL     1       2.479 -17.350  -5.177  1.00  0.00    -0.294 OA
BRANCH  11  13
ATOM     13  C   UNL     1       2.603 -19.456  -4.067  1.00  0.00    -0.002 C 
ATOM     14  C   UNL     1       1.614 -19.914  -3.239  1.00  0.00    -0.069 C 
ATOM     15  C   UNL     1       0.155 -19.819  -3.625  1.00  0.00     0.039 C 
ATOM     16  C   UNL     1       1.920 -20.587  -1.920  1.00  0.00     0.039 C 
BRANCH  13  17
ATOM     17  C   UNL     1       4.075 -19.651  -3.720  1.00  0.00     0.066 CG0
ATOM     18  G   UNL     1       4.807 -20.749  -4.470  1.00  0.00     0.000 G0
ENDBRANCH  13  17
ENDBRANCH  11  13
ENDBRANCH  10  11
ENDBRANCH   1  10
TORSDOF 0
ENDMDL
MODEL 6
REMARK VINA RESULT:    -3.942      1.938      3.940
REMARK INTER + INTRA:          -5.325
REMARK INTER:                  -5.716
REMARK INTRA:                   0.391
REMARK UNBOUND:                 0.230
REMARK SMILES CC1=CCC(=C(C)C)C(=O)CC(C)=CCC1
REMARK SMILES IDX 12 1 14 2 13 3 15 4 16 5 2 6 1 7 3 8 11 10 9 11 10 12 5 13
REMARK SMILES IDX 6 14 7 15 8 16 4 17
REMARK H PARENT
REMARK Flexibility Score: 60.00
ROOT
ATOM      1  C   UNL     1       1.254 -21.165  -6.193  1.00  0.00    -0.070 C 
ATOM      2  C   UNL     1       2.136 -21.549  -7.144  1.00  0.00    -0.027 C 
ATOM      3  C   UNL     1       0.126 -22.104  -5.853  1.00  0.00     0.039 C 
ENDROOT
BRANCH   2   4
ATOM      4  C   UNL     1       3.398 -20.805  -7.503  1.00  0.00     0.032 C 
BRANCH   4   5
ATOM      5  C   UNL     1       4.582 -21.381  -6.718  1.00  0.00     0.034 C 
BRANCH   5   6
ATOM      6  C   UNL     1       5.404 -20.306  -6.037  1.00  0.00    -0.077 C 
ATOM      7  C   UNL     1       6.480 -19.607  -6.831  1.00  0.00     0.039 C 
ATOM      8  C   UNL     1       5.276 -19.982  -4.725  1.00  0.00    -0.023 CG0
ATOM      9  G   UNL     1       4.240 -20.498  -3.745  1.00  0.00     0.000 G0
ENDBRANCH   5   6
ENDBRANCH   4   5
ENDBRANCH   2   4
BRANCH   1  10
ATOM     10  C   UNL     1       1.333 -19.835  -5.470  1.00  0.00     0.111 C 
BRANCH  10  11
ATOM     11  C   UNL     1       1.714 -20.004  -4.020  1.00  0.00     0.163 C 
ATOM     12  O   UNL     1       0.845 -20.500  -3.252  1.00  0.00    -0.294 OA
BRANCH  11  13
ATOM     13  C   UNL     1       3.043 -19.599  -3.452  1.00  0.00    -0.002 C 
ATOM     14  C   UNL     1       3.198 -18.383  -2.843  1.00  0.00    -0.069 C 
ATOM     15  C   UNL     1       2.006 -17.533  -2.462  1.00  0.00     0.039 C 
ATOM     16  C   UNL     1       4.559 -17.842  -2.468  1.00  0.00     0.039 C 
BRANCH  13  17
ATOM     17  C   UNL     1       4.242 -20.497  -3.737  1.00  0.00     0.066 CG0
ATOM     18  G   UNL     1       5.266 -19.966  -4.723  1.00  0.00     0.000 G0
ENDBRANCH  13  17
ENDBRANCH  11  13
ENDBRANCH  10  11
ENDBRANCH   1  10
TORSDOF 0
ENDMDL
MODEL 7
REMARK VINA RESULT:    -3.895      9.674     11.813
REMARK INTER + INTRA:          -5.258
REMARK INTER:                  -5.187
REMARK INTRA:                  -0.071
REMARK UNBOUND:                 0.230
REMARK SMILES CC1=CCC(=C(C)C)C(=O)CC(C)=CCC1
REMARK SMILES IDX 12 1 14 2 13 3 15 4 16 5 2 6 1 7 3 8 11 10 9 11 10 12 5 13
REMARK SMILES IDX 6 14 7 15 8 16 4 17
REMARK H PARENT
REMARK Flexibility Score: 60.00
ROOT
ATOM      1  C   UNL     1       5.484 -24.120   7.738  1.00  0.00    -0.070 C 
ATOM      2  C   UNL     1       4.514 -25.059   7.650  1.00  0.00    -0.027 C 
ATOM      3  C   UNL     1       5.399 -23.115   8.857  1.00  0.00     0.039 C 
ENDROOT
BRANCH   2   4
ATOM      4  C   UNL     1       4.521 -26.222   6.690  1.00  0.00     0.032 C 
BRANCH   4   5
ATOM      5  C   UNL     1       3.910 -25.792   5.351  1.00  0.00     0.034 C 
BRANCH   5   6
ATOM      6  C   UNL     1       4.663 -26.358   4.163  1.00  0.00    -0.077 C 
ATOM      7  C   UNL     1       4.648 -27.850   3.941  1.00  0.00     0.039 C 
ATOM      8  C   UNL     1       5.414 -25.602   3.322  1.00  0.00    -0.023 CG0
ATOM      9  G   UNL     1       5.541 -24.090   3.305  1.00  0.00     0.000 G0
ENDBRANCH   5   6
ENDBRANCH   4   5
ENDBRANCH   2   4
BRANCH   1  10
ATOM     10  C   UNL     1       6.637 -24.018   6.758  1.00  0.00     0.111 C 
BRANCH  10  11
ATOM     11  C   UNL     1       6.302 -23.130   5.585  1.00  0.00     0.163 C 
ATOM     12  O   UNL     1       5.690 -22.056   5.833  1.00  0.00    -0.294 OA
BRANCH  11  13
ATOM     13  C   UNL     1       6.635 -23.467   4.160  1.00  0.00    -0.002 C 
ATOM     14  C   UNL     1       7.831 -23.083   3.616  1.00  0.00    -0.069 C 
ATOM     15  C   UNL     1       8.963 -22.572   4.478  1.00  0.00     0.039 C 
ATOM     16  C   UNL     1       8.110 -23.196   2.135  1.00  0.00     0.039 C 
BRANCH  13  17
ATOM     17  C   UNL     1       5.537 -24.082   3.299  1.00  0.00     0.066 CG0
ATOM     18  G   UNL     1       5.417 -25.594   3.331  1.00  0.00     0.000 G0
ENDBRANCH  13  17
ENDBRANCH  11  13
ENDBRANCH  10  11
ENDBRANCH   1  10
TORSDOF 0
ENDMDL
MODEL 8
REMARK VINA RESULT:    -3.878     11.920     14.107
REMARK INTER + INTRA:          -5.235
REMARK INTER:                  -5.184
REMARK INTRA:                  -0.051
REMARK UNBOUND:                 0.230
REMARK SMILES CC1=CCC(=C(C)C)C(=O)CC(C)=CCC1
REMARK SMILES IDX 12 1 14 2 13 3 15 4 16 5 2 6 1 7 3 8 11 10 9 11 10 12 5 13
REMARK SMILES IDX 6 14 7 15 8 16 4 17
REMARK H PARENT
REMARK Flexibility Score: 60.00
ROOT
ATOM      1  C   UNL     1      -6.482 -28.720  -3.235  1.00  0.00    -0.070 C 
ATOM      2  C   UNL     1      -6.639 -29.948  -2.690  1.00  0.00    -0.027 C 
ATOM      3  C   UNL     1      -5.118 -28.343  -3.752  1.00  0.00     0.039 C 
ENDROOT
BRANCH   2   4
ATOM      4  C   UNL     1      -7.957 -30.540  -2.260  1.00  0.00     0.032 C 
BRANCH   4   5
ATOM      5  C   UNL     1      -8.232 -30.186  -0.794  1.00  0.00     0.034 C 
BRANCH   5   6
ATOM      6  C   UNL     1      -9.643 -29.677  -0.575  1.00  0.00    -0.077 C 
ATOM      7  C   UNL     1     -10.790 -30.650  -0.693  1.00  0.00     0.039 C 
ATOM      8  C   UNL     1      -9.943 -28.373  -0.349  1.00  0.00    -0.023 CG0
ATOM      9  G   UNL     1      -8.972 -27.227  -0.134  1.00  0.00     0.000 G0
ENDBRANCH   5   6
ENDBRANCH   4   5
ENDBRANCH   2   4
BRANCH   1  10
ATOM     10  C   UNL     1      -7.601 -27.702  -3.334  1.00  0.00     0.111 C 
BRANCH  10  11
ATOM     11  C   UNL     1      -7.536 -26.684  -2.222  1.00  0.00     0.163 C 
ATOM     12  O   UNL     1      -6.425 -26.122  -2.021  1.00  0.00    -0.294 OA
BRANCH  11  13
ATOM     13  C   UNL     1      -8.702 -26.329  -1.345  1.00  0.00    -0.002 C 
ATOM     14  C   UNL     1      -9.389 -25.162  -1.538  1.00  0.00    -0.069 C 
ATOM     15  C   UNL     1      -9.200 -24.333  -2.790  1.00  0.00     0.039 C 
ATOM     16  C   UNL     1     -10.411 -24.658  -0.544  1.00  0.00     0.039 C 
BRANCH  13  17
ATOM     17  C   UNL     1      -8.975 -27.213  -0.132  1.00  0.00     0.066 CG0
ATOM     18  G   UNL     1      -9.934 -28.370  -0.340  1.00  0.00     0.000 G0
ENDBRANCH  13  17
ENDBRANCH  11  13
ENDBRANCH  10  11
ENDBRANCH   1  10
TORSDOF 0
ENDMDL
MODEL 9
REMARK VINA RESULT:    -3.833     12.042     14.241
REMARK INTER + INTRA:          -5.172
REMARK INTER:                  -5.662
REMARK INTRA:                   0.490
REMARK UNBOUND:                 0.230
REMARK SMILES CC1=CCC(=C(C)C)C(=O)CC(C)=CCC1
REMARK SMILES IDX 12 1 14 2 13 3 15 4 16 5 2 6 1 7 3 8 11 10 9 11 10 12 5 13
REMARK SMILES IDX 6 14 7 15 8 16 4 17
REMARK H PARENT
REMARK Flexibility Score: 60.00
ROOT
ATOM      1  C   UNL     1      -6.620 -27.742  -3.222  1.00  0.00    -0.070 C 
ATOM      2  C   UNL     1      -6.213 -28.976  -2.849  1.00  0.00    -0.027 C 
ATOM      3  C   UNL     1      -6.004 -26.552  -2.531  1.00  0.00     0.039 C 
ENDROOT
BRANCH   2   4
ATOM      4  C   UNL     1      -6.613 -30.261  -3.529  1.00  0.00     0.032 C 
BRANCH   4   5
ATOM      5  C   UNL     1      -8.122 -30.484  -3.373  1.00  0.00     0.034 C 
BRANCH   5   6
ATOM      6  C   UNL     1      -8.585 -30.330  -1.937  1.00  0.00    -0.077 C 
ATOM      7  C   UNL     1      -8.006 -31.248  -0.889  1.00  0.00     0.039 C 
ATOM      8  C   UNL     1      -9.548 -29.456  -1.549  1.00  0.00    -0.023 CG0
ATOM      9  G   UNL     1     -10.232 -28.401  -2.398  1.00  0.00     0.000 G0
ENDBRANCH   5   6
ENDBRANCH   4   5
ENDBRANCH   2   4
BRANCH   1  10
ATOM     10  C   UNL     1      -7.676 -27.497  -4.282  1.00  0.00     0.111 C 
BRANCH  10  11
ATOM     11  C   UNL     1      -8.838 -26.697  -3.746  1.00  0.00     0.163 C 
ATOM     12  O   UNL     1      -9.191 -25.683  -4.407  1.00  0.00    -0.294 OA
BRANCH  11  13
ATOM     13  C   UNL     1      -9.566 -27.030  -2.476  1.00  0.00    -0.002 C 
ATOM     14  C   UNL     1      -9.479 -26.206  -1.388  1.00  0.00    -0.069 C 
ATOM     15  C   UNL     1      -8.902 -24.813  -1.496  1.00  0.00     0.039 C 
ATOM     16  C   UNL     1     -10.000 -26.615  -0.028  1.00  0.00     0.039 C 
BRANCH  13  17
ATOM     17  C   UNL     1     -10.245 -28.392  -2.383  1.00  0.00     0.066 CG0
ATOM     18  G   UNL     1      -9.539 -29.445  -1.550  1.00  0.00     0.000 G0
ENDBRANCH  13  17
ENDBRANCH  11  13
ENDBRANCH  10  11
ENDBRANCH   1  10
TORSDOF 0
ENDMDL
