MODEL 1
REMARK VINA RESULT:    -5.998      0.000      0.000
REMARK INTER + INTRA:          -6.173
REMARK INTER:                  -6.173
REMARK INTRA:                   0.000
REMARK UNBOUND:                 0.000
REMARK SMILES O=c1ccc2cc(O)ccc2o1
REMARK SMILES IDX 9 1 10 2 11 3 5 4 4 5 3 6 2 7 1 8 12 9 6 10 7 11 8 12
REMARK H PARENT 8 13
REMARK Flexibility Score: inf
ROOT
ATOM      1  C   UNL     1     -40.307  -7.748 -13.002  1.00  0.00     0.050 A 
ATOM      2  C   UNL     1     -39.720  -6.482 -12.909  1.00  0.00     0.052 A 
ATOM      3  C   UNL     1     -38.342  -6.331 -13.094  1.00  0.00     0.138 A 
ATOM      4  C   UNL     1     -37.546  -7.462 -13.377  1.00  0.00     0.021 A 
ATOM      5  C   UNL     1     -36.171  -7.280 -13.556  1.00  0.00     0.019 A 
ATOM      6  C   UNL     1     -35.630  -5.999 -13.453  1.00  0.00     0.094 A 
ATOM      7  C   UNL     1     -36.481  -4.925 -13.170  1.00  0.00     0.336 A 
ATOM      8  O   UNL     1     -36.012  -3.761 -13.074  1.00  0.00    -0.246 OA
ATOM      9  O   UNL     1     -37.786  -5.125 -13.003  1.00  0.00    -0.423 OA
ATOM     10  C   UNL     1     -38.137  -8.730 -13.470  1.00  0.00     0.058 A 
ATOM     11  C   UNL     1     -39.520  -8.872 -13.283  1.00  0.00     0.116 A 
ENDROOT
BRANCH  11  12
ATOM     12  O   UNL     1     -40.123 -10.125 -13.372  1.00  0.00    -0.508 OA
ATOM     13  H   UNL     1     -39.777 -10.918 -12.845  1.00  0.00     0.293 HD
ENDBRANCH  11  12
TORSDOF 1
ENDMDL
MODEL 2
REMARK VINA RESULT:    -5.902      1.178      4.323
REMARK INTER + INTRA:          -6.075
REMARK INTER:                  -6.075
REMARK INTRA:                   0.000
REMARK UNBOUND:                 0.000
REMARK SMILES O=c1ccc2cc(O)ccc2o1
REMARK SMILES IDX 9 1 10 2 11 3 5 4 4 5 3 6 2 7 1 8 12 9 6 10 7 11 8 12
REMARK H PARENT 8 13
REMARK Flexibility Score: inf
ROOT
ATOM      1  C   UNL     1     -37.237  -4.551 -13.016  1.00  0.00     0.050 A 
ATOM      2  C   UNL     1     -38.454  -5.241 -13.013  1.00  0.00     0.052 A 
ATOM      3  C   UNL     1     -38.473  -6.630 -13.175  1.00  0.00     0.138 A 
ATOM      4  C   UNL     1     -37.259  -7.332 -13.342  1.00  0.00     0.021 A 
ATOM      5  C   UNL     1     -37.310  -8.721 -13.503  1.00  0.00     0.019 A 
ATOM      6  C   UNL     1     -38.546  -9.366 -13.494  1.00  0.00     0.094 A 
ATOM      7  C   UNL     1     -39.707  -8.605 -13.324  1.00  0.00     0.336 A 
ATOM      8  O   UNL     1     -40.832  -9.170 -13.312  1.00  0.00    -0.246 OA
ATOM      9  O   UNL     1     -39.632  -7.285 -13.173  1.00  0.00    -0.423 OA
ATOM     10  C   UNL     1     -36.042  -6.637 -13.344  1.00  0.00     0.058 A 
ATOM     11  C   UNL     1     -36.032  -5.244 -13.180  1.00  0.00     0.116 A 
ENDROOT
BRANCH  11  12
ATOM     12  O   UNL     1     -34.831  -4.538 -13.180  1.00  0.00    -0.508 OA
ATOM     13  H   UNL     1     -34.568  -3.940 -13.955  1.00  0.00     0.293 HD
ENDBRANCH  11  12
TORSDOF 1
ENDMDL
MODEL 3
REMARK VINA RESULT:    -5.868      6.908      9.398
REMARK INTER + INTRA:          -6.039
REMARK INTER:                  -6.039
REMARK INTRA:                   0.000
REMARK UNBOUND:                 0.000
REMARK SMILES O=c1ccc2cc(O)ccc2o1
REMARK SMILES IDX 9 1 10 2 11 3 5 4 4 5 3 6 2 7 1 8 12 9 6 10 7 11 8 12
REMARK H PARENT 8 13
REMARK Flexibility Score: inf
ROOT
ATOM      1  C   UNL     1     -30.326  -2.678 -19.402  1.00  0.00     0.050 A 
ATOM      2  C   UNL     1     -30.763  -3.166 -18.166  1.00  0.00     0.052 A 
ATOM      3  C   UNL     1     -32.122  -3.423 -17.954  1.00  0.00     0.138 A 
ATOM      4  C   UNL     1     -33.050  -3.188 -18.992  1.00  0.00     0.021 A 
ATOM      5  C   UNL     1     -34.401  -3.453 -18.750  1.00  0.00     0.019 A 
ATOM      6  C   UNL     1     -34.791  -3.939 -17.502  1.00  0.00     0.094 A 
ATOM      7  C   UNL     1     -33.816  -4.148 -16.522  1.00  0.00     0.336 A 
ATOM      8  O   UNL     1     -34.147  -4.586 -15.389  1.00  0.00    -0.246 OA
ATOM      9  O   UNL     1     -32.536  -3.887 -16.777  1.00  0.00    -0.423 OA
ATOM     10  C   UNL     1     -32.607  -2.699 -20.230  1.00  0.00     0.058 A 
ATOM     11  C   UNL     1     -31.243  -2.444 -20.434  1.00  0.00     0.116 A 
ENDROOT
BRANCH  11  12
ATOM     12  O   UNL     1     -30.788  -1.958 -21.657  1.00  0.00    -0.508 OA
ATOM     13  H   UNL     1     -30.216  -1.123 -21.716  1.00  0.00     0.293 HD
ENDBRANCH  11  12
TORSDOF 1
ENDMDL
MODEL 4
REMARK VINA RESULT:    -5.615      0.976      2.227
REMARK INTER + INTRA:          -5.779
REMARK INTER:                  -5.779
REMARK INTRA:                   0.000
REMARK UNBOUND:                 0.000
REMARK SMILES O=c1ccc2cc(O)ccc2o1
REMARK SMILES IDX 9 1 10 2 11 3 5 4 4 5 3 6 2 7 1 8 12 9 6 10 7 11 8 12
REMARK H PARENT 8 13
REMARK Flexibility Score: inf
ROOT
ATOM      1  C   UNL     1     -38.036  -9.018 -13.745  1.00  0.00     0.050 A 
ATOM      2  C   UNL     1     -37.256  -7.857 -13.759  1.00  0.00     0.052 A 
ATOM      3  C   UNL     1     -37.820  -6.628 -13.405  1.00  0.00     0.138 A 
ATOM      4  C   UNL     1     -39.180  -6.563 -13.030  1.00  0.00     0.021 A 
ATOM      5  C   UNL     1     -39.717  -5.320 -12.681  1.00  0.00     0.019 A 
ATOM      6  C   UNL     1     -38.900  -4.189 -12.711  1.00  0.00     0.094 A 
ATOM      7  C   UNL     1     -37.562  -4.329 -13.092  1.00  0.00     0.336 A 
ATOM      8  O   UNL     1     -36.809  -3.321 -13.125  1.00  0.00    -0.246 OA
ATOM      9  O   UNL     1     -37.076  -5.524 -13.420  1.00  0.00    -0.423 OA
ATOM     10  C   UNL     1     -39.959  -7.729 -13.017  1.00  0.00     0.058 A 
ATOM     11  C   UNL     1     -39.385  -8.958 -13.374  1.00  0.00     0.116 A 
ENDROOT
BRANCH  11  12
ATOM     12  O   UNL     1     -40.146 -10.125 -13.365  1.00  0.00    -0.508 OA
ATOM     13  H   UNL     1     -40.433 -10.577 -14.226  1.00  0.00     0.293 HD
ENDBRANCH  11  12
TORSDOF 1
ENDMDL
MODEL 5
REMARK VINA RESULT:    -5.539      6.339      8.071
REMARK INTER + INTRA:          -5.701
REMARK INTER:                  -5.701
REMARK INTRA:                   0.000
REMARK UNBOUND:                 0.000
REMARK SMILES O=c1ccc2cc(O)ccc2o1
REMARK SMILES IDX 9 1 10 2 11 3 5 4 4 5 3 6 2 7 1 8 12 9 6 10 7 11 8 12
REMARK H PARENT 8 13
REMARK Flexibility Score: inf
ROOT
ATOM      1  C   UNL     1     -30.697  -3.571 -17.343  1.00  0.00     0.050 A 
ATOM      2  C   UNL     1     -31.818  -2.934 -17.887  1.00  0.00     0.052 A 
ATOM      3  C   UNL     1     -33.065  -3.566 -17.862  1.00  0.00     0.138 A 
ATOM      4  C   UNL     1     -33.189  -4.849 -17.284  1.00  0.00     0.021 A 
ATOM      5  C   UNL     1     -34.449  -5.456 -17.275  1.00  0.00     0.019 A 
ATOM      6  C   UNL     1     -35.537  -4.783 -17.830  1.00  0.00     0.094 A 
ATOM      7  C   UNL     1     -35.339  -3.515 -18.384  1.00  0.00     0.336 A 
ATOM      8  O   UNL     1     -36.309  -2.891 -18.890  1.00  0.00    -0.246 OA
ATOM      9  O   UNL     1     -34.130  -2.959 -18.382  1.00  0.00    -0.423 OA
ATOM     10  C   UNL     1     -32.064  -5.484 -16.740  1.00  0.00     0.058 A 
ATOM     11  C   UNL     1     -30.816  -4.842 -16.769  1.00  0.00     0.116 A 
ENDROOT
BRANCH  11  12
ATOM     12  O   UNL     1     -29.689  -5.460 -16.232  1.00  0.00    -0.508 OA
ATOM     13  H   UNL     1     -29.766  -6.174 -15.517  1.00  0.00     0.293 HD
ENDBRANCH  11  12
TORSDOF 1
ENDMDL
MODEL 6
REMARK VINA RESULT:    -5.501      1.094      4.741
REMARK INTER + INTRA:          -5.661
REMARK INTER:                  -5.661
REMARK INTRA:                   0.000
REMARK UNBOUND:                 0.000
REMARK SMILES O=c1ccc2cc(O)ccc2o1
REMARK SMILES IDX 9 1 10 2 11 3 5 4 4 5 3 6 2 7 1 8 12 9 6 10 7 11 8 12
REMARK H PARENT 8 13
REMARK Flexibility Score: inf
ROOT
ATOM      1  C   UNL     1     -35.617  -6.376 -13.900  1.00  0.00     0.050 A 
ATOM      2  C   UNL     1     -36.479  -7.478 -13.918  1.00  0.00     0.052 A 
ATOM      3  C   UNL     1     -37.819  -7.327 -13.545  1.00  0.00     0.138 A 
ATOM      4  C   UNL     1     -38.298  -6.059 -13.152  1.00  0.00     0.021 A 
ATOM      5  C   UNL     1     -39.642  -5.939 -12.784  1.00  0.00     0.019 A 
ATOM      6  C   UNL     1     -40.464  -7.066 -12.817  1.00  0.00     0.094 A 
ATOM      7  C   UNL     1     -39.919  -8.290 -13.218  1.00  0.00     0.336 A 
ATOM      8  O   UNL     1     -40.645  -9.318 -13.255  1.00  0.00    -0.246 OA
ATOM      9  O   UNL     1     -38.637  -8.377 -13.562  1.00  0.00    -0.423 OA
ATOM     10  C   UNL     1     -37.431  -4.956 -13.135  1.00  0.00     0.058 A 
ATOM     11  C   UNL     1     -36.089  -5.116 -13.510  1.00  0.00     0.116 A 
ENDROOT
BRANCH  11  12
ATOM     12  O   UNL     1     -35.215  -4.032 -13.499  1.00  0.00    -0.508 OA
ATOM     13  H   UNL     1     -35.288  -3.286 -14.181  1.00  0.00     0.293 HD
ENDBRANCH  11  12
TORSDOF 1
ENDMDL
MODEL 7
REMARK VINA RESULT:    -5.432      1.976      2.174
REMARK INTER + INTRA:          -5.591
REMARK INTER:                  -5.591
REMARK INTRA:                   0.000
REMARK UNBOUND:                 0.000
REMARK SMILES O=c1ccc2cc(O)ccc2o1
REMARK SMILES IDX 9 1 10 2 11 3 5 4 4 5 3 6 2 7 1 8 12 9 6 10 7 11 8 12
REMARK H PARENT 8 13
REMARK Flexibility Score: inf
ROOT
ATOM      1  C   UNL     1     -38.702  -8.665 -14.911  1.00  0.00     0.050 A 
ATOM      2  C   UNL     1     -38.261  -7.548 -15.628  1.00  0.00     0.052 A 
ATOM      3  C   UNL     1     -37.238  -6.744 -15.116  1.00  0.00     0.138 A 
ATOM      4  C   UNL     1     -36.652  -7.065 -13.871  1.00  0.00     0.021 A 
ATOM      5  C   UNL     1     -35.631  -6.242 -13.384  1.00  0.00     0.019 A 
ATOM      6  C   UNL     1     -35.224  -5.139 -14.134  1.00  0.00     0.094 A 
ATOM      7  C   UNL     1     -35.850  -4.884 -15.359  1.00  0.00     0.336 A 
ATOM      8  O   UNL     1     -35.496  -3.893 -16.051  1.00  0.00    -0.246 OA
ATOM      9  O   UNL     1     -36.819  -5.682 -15.800  1.00  0.00    -0.423 OA
ATOM     10  C   UNL     1     -37.097  -8.185 -13.155  1.00  0.00     0.058 A 
ATOM     11  C   UNL     1     -38.124  -8.986 -13.677  1.00  0.00     0.116 A 
ENDROOT
BRANCH  11  12
ATOM     12  O   UNL     1     -38.578 -10.102 -12.977  1.00  0.00    -0.508 OA
ATOM     13  H   UNL     1     -38.844 -10.043 -12.001  1.00  0.00     0.293 HD
ENDBRANCH  11  12
TORSDOF 1
ENDMDL
MODEL 8
REMARK VINA RESULT:    -5.404      2.267      2.770
REMARK INTER + INTRA:          -5.562
REMARK INTER:                  -5.562
REMARK INTRA:                   0.000
REMARK UNBOUND:                 0.000
REMARK SMILES O=c1ccc2cc(O)ccc2o1
REMARK SMILES IDX 9 1 10 2 11 3 5 4 4 5 3 6 2 7 1 8 12 9 6 10 7 11 8 12
REMARK H PARENT 8 13
REMARK Flexibility Score: inf
ROOT
ATOM      1  C   UNL     1     -37.739  -8.575 -13.407  1.00  0.00     0.050 A 
ATOM      2  C   UNL     1     -36.570  -7.808 -13.383  1.00  0.00     0.052 A 
ATOM      3  C   UNL     1     -36.267  -6.957 -14.450  1.00  0.00     0.138 A 
ATOM      4  C   UNL     1     -37.147  -6.873 -15.551  1.00  0.00     0.021 A 
ATOM      5  C   UNL     1     -36.816  -6.014 -16.604  1.00  0.00     0.019 A 
ATOM      6  C   UNL     1     -35.639  -5.269 -16.537  1.00  0.00     0.094 A 
ATOM      7  C   UNL     1     -34.816  -5.403 -15.414  1.00  0.00     0.336 A 
ATOM      8  O   UNL     1     -33.749  -4.739 -15.334  1.00  0.00    -0.246 OA
ATOM      9  O   UNL     1     -35.152  -6.229 -14.426  1.00  0.00    -0.423 OA
ATOM     10  C   UNL     1     -38.318  -7.644 -15.572  1.00  0.00     0.058 A 
ATOM     11  C   UNL     1     -38.615  -8.495 -14.497  1.00  0.00     0.116 A 
ENDROOT
BRANCH  11  12
ATOM     12  O   UNL     1     -39.774  -9.266 -14.502  1.00  0.00    -0.508 OA
ATOM     13  H   UNL     1     -39.840 -10.128 -13.973  1.00  0.00     0.293 HD
ENDBRANCH  11  12
TORSDOF 1
ENDMDL
MODEL 9
REMARK VINA RESULT:    -5.342      1.795      3.343
REMARK INTER + INTRA:          -5.498
REMARK INTER:                  -5.498
REMARK INTRA:                   0.000
REMARK UNBOUND:                 0.000
REMARK SMILES O=c1ccc2cc(O)ccc2o1
REMARK SMILES IDX 9 1 10 2 11 3 5 4 4 5 3 6 2 7 1 8 12 9 6 10 7 11 8 12
REMARK H PARENT 8 13
REMARK Flexibility Score: inf
ROOT
ATOM      1  C   UNL     1     -36.162  -7.107 -14.134  1.00  0.00     0.050 A 
ATOM      2  C   UNL     1     -36.728  -5.996 -13.500  1.00  0.00     0.052 A 
ATOM      3  C   UNL     1     -38.046  -6.049 -13.037  1.00  0.00     0.138 A 
ATOM      4  C   UNL     1     -38.804  -7.228 -13.212  1.00  0.00     0.021 A 
ATOM      5  C   UNL     1     -40.120  -7.250 -12.740  1.00  0.00     0.019 A 
ATOM      6  C   UNL     1     -40.642  -6.119 -12.114  1.00  0.00     0.094 A 
ATOM      7  C   UNL     1     -39.832  -4.987 -11.975  1.00  0.00     0.336 A 
ATOM      8  O   UNL     1     -40.286  -3.956 -11.413  1.00  0.00    -0.246 OA
ATOM      9  O   UNL     1     -38.583  -4.991 -12.434  1.00  0.00    -0.423 OA
ATOM     10  C   UNL     1     -38.233  -8.339 -13.849  1.00  0.00     0.058 A 
ATOM     11  C   UNL     1     -36.909  -8.278 -14.310  1.00  0.00     0.116 A 
ENDROOT
BRANCH  11  12
ATOM     12  O   UNL     1     -36.328  -9.373 -14.944  1.00  0.00    -0.508 OA
ATOM     13  H   UNL     1     -35.326  -9.529 -14.921  1.00  0.00     0.293 HD
ENDBRANCH  11  12
TORSDOF 1
ENDMDL
