MODEL 1
REMARK VINA RESULT:    -2.725      0.000      0.000
REMARK INTER + INTRA:          -3.053
REMARK INTER:                  -3.044
REMARK INTRA:                  -0.009
REMARK UNBOUND:                -0.009
REMARK SMILES CCCC(=O)[O-]
REMARK SMILES IDX 3 1 4 2 5 3 6 4 2 5 1 6
REMARK H PARENT
REMARK Flexibility Score: inf
ROOT
ATOM      1  C   UNL     1      16.914  15.456  30.379  1.00  0.00     0.052 C 
ENDROOT
BRANCH   1   2
ATOM      2  C   UNL     1      15.795  15.380  29.389  1.00  0.00     0.041 C 
ATOM      3  O   UNL     1      14.727  14.783  29.685  1.00  0.00    -0.550 OA
ATOM      4  O   UNL     1      15.951  15.926  28.121  1.00  0.00    -0.550 OA
ENDBRANCH   1   2
BRANCH   1   5
ATOM      5  C   UNL     1      16.952  14.192  31.242  1.00  0.00     0.003 C 
ATOM      6  C   UNL     1      18.224  14.139  32.084  1.00  0.00     0.004 C 
ENDBRANCH   1   5
TORSDOF 2
ENDMDL
MODEL 2
REMARK VINA RESULT:    -2.606      1.465      1.946
REMARK INTER + INTRA:          -2.920
REMARK INTER:                  -2.887
REMARK INTRA:                  -0.033
REMARK UNBOUND:                -0.009
REMARK SMILES CCCC(=O)[O-]
REMARK SMILES IDX 3 1 4 2 5 3 6 4 2 5 1 6
REMARK H PARENT
REMARK Flexibility Score: inf
ROOT
ATOM      1  C   UNL     1      15.893  15.600  29.416  1.00  0.00     0.052 C 
ENDROOT
BRANCH   1   2
ATOM      2  C   UNL     1      16.440  15.478  28.030  1.00  0.00     0.041 C 
ATOM      3  O   UNL     1      15.813  15.969  27.055  1.00  0.00    -0.550 OA
ATOM      4  O   UNL     1      17.620  14.779  27.807  1.00  0.00    -0.550 OA
ENDBRANCH   1   2
BRANCH   1   5
ATOM      5  C   UNL     1      17.029  15.609  30.442  1.00  0.00     0.003 C 
ATOM      6  C   UNL     1      17.046  14.320  31.257  1.00  0.00     0.004 C 
ENDBRANCH   1   5
TORSDOF 2
ENDMDL
MODEL 3
REMARK VINA RESULT:    -2.515      2.114      3.332
REMARK INTER + INTRA:          -2.818
REMARK INTER:                  -2.779
REMARK INTRA:                  -0.039
REMARK UNBOUND:                -0.009
REMARK SMILES CCCC(=O)[O-]
REMARK SMILES IDX 3 1 4 2 5 3 6 4 2 5 1 6
REMARK H PARENT
REMARK Flexibility Score: inf
ROOT
ATOM      1  C   UNL     1      17.463  15.274  30.194  1.00  0.00     0.052 C 
ENDROOT
BRANCH   1   2
ATOM      2  C   UNL     1      17.185  14.285  31.280  1.00  0.00     0.041 C 
ATOM      3  O   UNL     1      16.121  13.612  31.268  1.00  0.00    -0.550 OA
ATOM      4  O   UNL     1      18.079  14.140  32.334  1.00  0.00    -0.550 OA
ENDBRANCH   1   2
BRANCH   1   5
ATOM      5  C   UNL     1      16.162  15.920  29.711  1.00  0.00     0.003 C 
ATOM      6  C   UNL     1      15.899  15.600  28.243  1.00  0.00     0.004 C 
ENDBRANCH   1   5
TORSDOF 2
ENDMDL
MODEL 4
REMARK VINA RESULT:    -2.364      3.815      4.575
REMARK INTER + INTRA:          -2.650
REMARK INTER:                  -2.625
REMARK INTRA:                  -0.025
REMARK UNBOUND:                -0.009
REMARK SMILES CCCC(=O)[O-]
REMARK SMILES IDX 3 1 4 2 5 3 6 4 2 5 1 6
REMARK H PARENT
REMARK Flexibility Score: inf
ROOT
ATOM      1  C   UNL     1      18.932  13.946  32.662  1.00  0.00     0.052 C 
ENDROOT
BRANCH   1   2
ATOM      2  C   UNL     1      20.218  13.717  31.935  1.00  0.00     0.041 C 
ATOM      3  O   UNL     1      21.104  12.975  32.434  1.00  0.00    -0.550 OA
ATOM      4  O   UNL     1      20.459  14.361  30.728  1.00  0.00    -0.550 OA
ENDBRANCH   1   2
BRANCH   1   5
ATOM      5  C   UNL     1      17.841  14.403  31.690  1.00  0.00     0.003 C 
ATOM      6  C   UNL     1      16.726  13.366  31.586  1.00  0.00     0.004 C 
ENDBRANCH   1   5
TORSDOF 2
ENDMDL
MODEL 5
REMARK VINA RESULT:    -2.318      3.106      4.020
REMARK INTER + INTRA:          -2.599
REMARK INTER:                  -2.582
REMARK INTRA:                  -0.017
REMARK UNBOUND:                -0.009
REMARK SMILES CCCC(=O)[O-]
REMARK SMILES IDX 3 1 4 2 5 3 6 4 2 5 1 6
REMARK H PARENT
REMARK Flexibility Score: inf
ROOT
ATOM      1  C   UNL     1      16.784  13.984  31.285  1.00  0.00     0.052 C 
ENDROOT
BRANCH   1   2
ATOM      2  C   UNL     1      17.767  13.475  32.292  1.00  0.00     0.041 C 
ATOM      3  O   UNL     1      18.815  14.126  32.539  1.00  0.00    -0.550 OA
ATOM      4  O   UNL     1      17.548  12.257  32.923  1.00  0.00    -0.550 OA
ENDBRANCH   1   2
BRANCH   1   5
ATOM      5  C   UNL     1      17.415  15.086  30.430  1.00  0.00     0.003 C 
ATOM      6  C   UNL     1      16.351  16.015  29.855  1.00  0.00     0.004 C 
ENDBRANCH   1   5
TORSDOF 2
ENDMDL
MODEL 6
REMARK VINA RESULT:    -2.290      9.851     10.617
REMARK INTER + INTRA:          -2.567
REMARK INTER:                  -2.543
REMARK INTRA:                  -0.024
REMARK UNBOUND:                -0.009
REMARK SMILES CCCC(=O)[O-]
REMARK SMILES IDX 3 1 4 2 5 3 6 4 2 5 1 6
REMARK H PARENT
REMARK Flexibility Score: inf
ROOT
ATOM      1  C   UNL     1       7.965  19.157  26.898  1.00  0.00     0.052 C 
ENDROOT
BRANCH   1   2
ATOM      2  C   UNL     1       6.649  19.528  26.293  1.00  0.00     0.041 C 
ATOM      3  O   UNL     1       5.578  19.290  26.911  1.00  0.00    -0.550 OA
ATOM      4  O   UNL     1       6.601  20.092  25.025  1.00  0.00    -0.550 OA
ENDBRANCH   1   2
BRANCH   1   5
ATOM      5  C   UNL     1       8.572  17.957  26.167  1.00  0.00     0.003 C 
ATOM      6  C   UNL     1       8.636  16.733  27.076  1.00  0.00     0.004 C 
ENDBRANCH   1   5
TORSDOF 2
ENDMDL
MODEL 7
REMARK VINA RESULT:    -2.287     10.326     10.874
REMARK INTER + INTRA:          -2.564
REMARK INTER:                  -2.543
REMARK INTRA:                  -0.021
REMARK UNBOUND:                -0.009
REMARK SMILES CCCC(=O)[O-]
REMARK SMILES IDX 3 1 4 2 5 3 6 4 2 5 1 6
REMARK H PARENT
REMARK Flexibility Score: inf
ROOT
ATOM      1  C   UNL     1       8.453  17.894  24.875  1.00  0.00     0.052 C 
ENDROOT
BRANCH   1   2
ATOM      2  C   UNL     1       7.164  18.388  24.300  1.00  0.00     0.041 C 
ATOM      3  O   UNL     1       6.102  17.734  24.472  1.00  0.00    -0.550 OA
ATOM      4  O   UNL     1       7.143  19.546  23.532  1.00  0.00    -0.550 OA
ENDBRANCH   1   2
BRANCH   1   5
ATOM      5  C   UNL     1       8.415  17.953  26.404  1.00  0.00     0.003 C 
ATOM      6  C   UNL     1       7.932  19.316  26.891  1.00  0.00     0.004 C 
ENDBRANCH   1   5
TORSDOF 2
ENDMDL
MODEL 8
REMARK VINA RESULT:    -2.267      2.429      3.391
REMARK INTER + INTRA:          -2.541
REMARK INTER:                  -2.472
REMARK INTRA:                  -0.069
REMARK UNBOUND:                -0.009
REMARK SMILES CCCC(=O)[O-]
REMARK SMILES IDX 3 1 4 2 5 3 6 4 2 5 1 6
REMARK H PARENT
REMARK Flexibility Score: inf
ROOT
ATOM      1  C   UNL     1      17.429  14.853  30.791  1.00  0.00     0.052 C 
ENDROOT
BRANCH   1   2
ATOM      2  C   UNL     1      18.484  14.382  29.841  1.00  0.00     0.041 C 
ATOM      3  O   UNL     1      19.396  15.166  29.468  1.00  0.00    -0.550 OA
ATOM      4  O   UNL     1      18.434  13.091  29.330  1.00  0.00    -0.550 OA
ENDBRANCH   1   2
BRANCH   1   5
ATOM      5  C   UNL     1      16.683  16.056  30.210  1.00  0.00     0.003 C 
ATOM      6  C   UNL     1      15.923  15.675  28.943  1.00  0.00     0.004 C 
ENDBRANCH   1   5
TORSDOF 2
ENDMDL
MODEL 9
REMARK VINA RESULT:    -2.251      2.274      3.264
REMARK INTER + INTRA:          -2.523
REMARK INTER:                  -2.468
REMARK INTRA:                  -0.055
REMARK UNBOUND:                -0.009
REMARK SMILES CCCC(=O)[O-]
REMARK SMILES IDX 3 1 4 2 5 3 6 4 2 5 1 6
REMARK H PARENT
REMARK Flexibility Score: inf
ROOT
ATOM      1  C   UNL     1      16.642  15.821  29.964  1.00  0.00     0.052 C 
ENDROOT
BRANCH   1   2
ATOM      2  C   UNL     1      17.828  14.909  29.964  1.00  0.00     0.041 C 
ATOM      3  O   UNL     1      17.774  13.800  30.556  1.00  0.00    -0.550 OA
ATOM      4  O   UNL     1      19.009  15.306  29.350  1.00  0.00    -0.550 OA
ENDBRANCH   1   2
BRANCH   1   5
ATOM      5  C   UNL     1      15.585  15.326  28.973  1.00  0.00     0.003 C 
ATOM      6  C   UNL     1      15.947  15.714  27.543  1.00  0.00     0.004 C 
ENDBRANCH   1   5
TORSDOF 2
ENDMDL
