MODEL 1
REMARK VINA RESULT:     1.841      0.000      0.000
REMARK INTER + INTRA:           2.877
REMARK INTER:                   3.132
REMARK INTRA:                  -0.255
REMARK UNBOUND:                -0.255
REMARK SMILES CCCCCCCCCCCCCC(=O)[O-]
REMARK SMILES IDX 8 1 9 2 10 3 11 4 12 5 13 6 14 7 15 8 16 9 7 10 6 11 5 12
REMARK SMILES IDX 4 13 3 14 2 15 1 16
REMARK H PARENT
REMARK Flexibility Score: inf
ROOT
ATOM      1  C   UNL     1       3.863   7.229  -6.527  1.00  0.00     0.000 C 
ENDROOT
BRANCH   1   2
ATOM      2  C   UNL     1       3.108   8.124  -5.533  1.00  0.00     0.000 C 
BRANCH   2   3
ATOM      3  C   UNL     1       3.723   8.025  -4.129  1.00  0.00     0.000 C 
BRANCH   3   4
ATOM      4  C   UNL     1       2.668   8.084  -3.014  1.00  0.00     0.000 C 
BRANCH   4   5
ATOM      5  C   UNL     1       3.168   7.484  -1.692  1.00  0.00     0.006 C 
BRANCH   5   6
ATOM      6  C   UNL     1       2.224   7.835  -0.539  1.00  0.00     0.053 C 
BRANCH   6   7
ATOM      7  C   UNL     1       2.119   6.692   0.421  1.00  0.00     0.041 C 
ATOM      8  O   UNL     1       1.019   6.103   0.587  1.00  0.00    -0.550 OA
ATOM      9  O   UNL     1       3.225   6.309   1.169  1.00  0.00    -0.550 OA
ENDBRANCH   6   7
ENDBRANCH   5   6
ENDBRANCH   4   5
ENDBRANCH   3   4
ENDBRANCH   2   3
ENDBRANCH   1   2
BRANCH   1  10
ATOM     10  C   UNL     1       4.380   8.001  -7.754  1.00  0.00     0.000 C 
BRANCH  10  11
ATOM     11  C   UNL     1       4.412   7.190  -9.065  1.00  0.00    -0.000 C 
BRANCH  11  12
ATOM     12  C   UNL     1       4.141   8.003 -10.347  1.00  0.00    -0.000 C 
BRANCH  12  13
ATOM     13  C   UNL     1       3.655   7.178 -11.553  1.00  0.00    -0.000 C 
BRANCH  13  14
ATOM     14  C   UNL     1       4.346   7.581 -12.868  1.00  0.00    -0.000 C 
BRANCH  14  15
ATOM     15  C   UNL     1       3.964   6.662 -14.039  1.00  0.00    -0.003 C 
ATOM     16  C   UNL     1       2.461   6.400 -14.122  1.00  0.00     0.004 C 
ENDBRANCH  14  15
ENDBRANCH  13  14
ENDBRANCH  12  13
ENDBRANCH  11  12
ENDBRANCH  10  11
ENDBRANCH   1  10
TORSDOF 12
ENDMDL
MODEL 2
REMARK VINA RESULT:     2.231     12.909     15.230
REMARK INTER + INTRA:           3.541
REMARK INTER:                   3.734
REMARK INTRA:                  -0.193
REMARK UNBOUND:                -0.255
REMARK SMILES CCCCCCCCCCCCCC(=O)[O-]
REMARK SMILES IDX 8 1 9 2 10 3 11 4 12 5 13 6 14 7 15 8 16 9 7 10 6 11 5 12
REMARK SMILES IDX 4 13 3 14 2 15 1 16
REMARK H PARENT
REMARK Flexibility Score: inf
ROOT
ATOM      1  C   UNL     1       2.225  -3.062 -13.273  1.00  0.00     0.000 C 
ENDROOT
BRANCH   1   2
ATOM      2  C   UNL     1       3.187  -2.167 -14.067  1.00  0.00     0.000 C 
BRANCH   2   3
ATOM      3  C   UNL     1       4.612  -2.744 -14.051  1.00  0.00     0.000 C 
BRANCH   3   4
ATOM      4  C   UNL     1       4.630  -4.275 -13.924  1.00  0.00     0.000 C 
BRANCH   4   5
ATOM      5  C   UNL     1       5.992  -4.816 -13.469  1.00  0.00     0.006 C 
BRANCH   5   6
ATOM      6  C   UNL     1       6.847  -3.704 -12.855  1.00  0.00     0.053 C 
BRANCH   6   7
ATOM      7  C   UNL     1       6.397  -3.406 -11.460  1.00  0.00     0.041 C 
ATOM      8  O   UNL     1       6.066  -2.234 -11.137  1.00  0.00    -0.550 OA
ATOM      9  O   UNL     1       6.391  -4.411 -10.501  1.00  0.00    -0.550 OA
ENDBRANCH   6   7
ENDBRANCH   5   6
ENDBRANCH   4   5
ENDBRANCH   3   4
ENDBRANCH   2   3
ENDBRANCH   1   2
BRANCH   1  10
ATOM     10  C   UNL     1       1.013  -3.521 -14.102  1.00  0.00     0.000 C 
BRANCH  10  11
ATOM     11  C   UNL     1      -0.223  -3.929 -13.275  1.00  0.00    -0.000 C 
BRANCH  11  12
ATOM     12  C   UNL     1      -0.716  -5.373 -13.497  1.00  0.00    -0.000 C 
BRANCH  12  13
ATOM     13  C   UNL     1      -2.117  -5.496 -14.123  1.00  0.00    -0.000 C 
BRANCH  13  14
ATOM     14  C   UNL     1      -3.112  -6.240 -13.215  1.00  0.00    -0.000 C 
BRANCH  14  15
ATOM     15  C   UNL     1      -4.145  -7.050 -14.015  1.00  0.00    -0.003 C 
ATOM     16  C   UNL     1      -4.338  -8.465 -13.472  1.00  0.00     0.004 C 
ENDBRANCH  14  15
ENDBRANCH  13  14
ENDBRANCH  12  13
ENDBRANCH  11  12
ENDBRANCH  10  11
ENDBRANCH   1  10
TORSDOF 12
ENDMDL
MODEL 3
REMARK VINA RESULT:     2.244     12.686     14.706
REMARK INTER + INTRA:           3.564
REMARK INTER:                   4.119
REMARK INTRA:                  -0.555
REMARK UNBOUND:                -0.255
REMARK SMILES CCCCCCCCCCCCCC(=O)[O-]
REMARK SMILES IDX 8 1 9 2 10 3 11 4 12 5 13 6 14 7 15 8 16 9 7 10 6 11 5 12
REMARK SMILES IDX 4 13 3 14 2 15 1 16
REMARK H PARENT
REMARK Flexibility Score: inf
ROOT
ATOM      1  C   UNL     1       3.694  -1.774 -12.897  1.00  0.00     0.000 C 
ENDROOT
BRANCH   1   2
ATOM      2  C   UNL     1       3.442  -2.661 -14.124  1.00  0.00     0.000 C 
BRANCH   2   3
ATOM      3  C   UNL     1       2.434  -3.774 -13.799  1.00  0.00     0.000 C 
BRANCH   3   4
ATOM      4  C   UNL     1       0.986  -3.377 -14.125  1.00  0.00     0.000 C 
BRANCH   4   5
ATOM      5  C   UNL     1      -0.042  -4.120 -13.259  1.00  0.00     0.006 C 
BRANCH   5   6
ATOM      6  C   UNL     1      -1.288  -4.478 -14.074  1.00  0.00     0.053 C 
BRANCH   6   7
ATOM      7  C   UNL     1      -2.103  -5.510 -13.361  1.00  0.00     0.041 C 
ATOM      8  O   UNL     1      -3.077  -6.059 -13.939  1.00  0.00    -0.550 OA
ATOM      9  O   UNL     1      -1.818  -5.830 -12.039  1.00  0.00    -0.550 OA
ENDBRANCH   6   7
ENDBRANCH   5   6
ENDBRANCH   4   5
ENDBRANCH   3   4
ENDBRANCH   2   3
ENDBRANCH   1   2
BRANCH   1  10
ATOM     10  C   UNL     1       5.190  -1.502 -12.653  1.00  0.00     0.000 C 
BRANCH  10  11
ATOM     11  C   UNL     1       6.094  -1.694 -13.887  1.00  0.00    -0.000 C 
BRANCH  11  12
ATOM     12  C   UNL     1       7.130  -2.830 -13.772  1.00  0.00    -0.000 C 
BRANCH  12  13
ATOM     13  C   UNL     1       6.547  -4.254 -13.834  1.00  0.00    -0.000 C 
BRANCH  13  14
ATOM     14  C   UNL     1       6.493  -4.935 -12.455  1.00  0.00    -0.000 C 
BRANCH  14  15
ATOM     15  C   UNL     1       6.686  -3.941 -11.299  1.00  0.00    -0.003 C 
ATOM     16  C   UNL     1       7.082  -4.622  -9.990  1.00  0.00     0.004 C 
ENDBRANCH  14  15
ENDBRANCH  13  14
ENDBRANCH  12  13
ENDBRANCH  11  12
ENDBRANCH  10  11
ENDBRANCH   1  10
TORSDOF 12
ENDMDL
MODEL 4
REMARK VINA RESULT:     2.337     14.512     17.405
REMARK INTER + INTRA:           3.721
REMARK INTER:                   4.067
REMARK INTRA:                  -0.346
REMARK UNBOUND:                -0.255
REMARK SMILES CCCCCCCCCCCCCC(=O)[O-]
REMARK SMILES IDX 8 1 9 2 10 3 11 4 12 5 13 6 14 7 15 8 16 9 7 10 6 11 5 12
REMARK SMILES IDX 4 13 3 14 2 15 1 16
REMARK H PARENT
REMARK Flexibility Score: inf
ROOT
ATOM      1  C   UNL     1      -2.503  -4.881 -13.270  1.00  0.00     0.000 C 
ENDROOT
BRANCH   1   2
ATOM      2  C   UNL     1      -1.017  -5.238 -13.419  1.00  0.00     0.000 C 
BRANCH   2   3
ATOM      3  C   UNL     1      -0.208  -4.026 -13.906  1.00  0.00     0.000 C 
BRANCH   3   4
ATOM      4  C   UNL     1       1.278  -4.353 -14.119  1.00  0.00     0.000 C 
BRANCH   4   5
ATOM      5  C   UNL     1       2.190  -3.137 -13.901  1.00  0.00     0.006 C 
BRANCH   5   6
ATOM      6  C   UNL     1       3.664  -3.523 -14.050  1.00  0.00     0.053 C 
BRANCH   6   7
ATOM      7  C   UNL     1       4.487  -2.875 -12.982  1.00  0.00     0.041 C 
ATOM      8  O   UNL     1       3.988  -1.977 -12.254  1.00  0.00    -0.550 OA
ATOM      9  O   UNL     1       5.822  -3.228 -12.823  1.00  0.00    -0.550 OA
ENDBRANCH   6   7
ENDBRANCH   5   6
ENDBRANCH   4   5
ENDBRANCH   3   4
ENDBRANCH   2   3
ENDBRANCH   1   2
BRANCH   1  10
ATOM     10  C   UNL     1      -3.429  -5.845 -14.032  1.00  0.00     0.000 C 
BRANCH  10  11
ATOM     11  C   UNL     1      -3.837  -7.109 -13.248  1.00  0.00    -0.000 C 
BRANCH  11  12
ATOM     12  C   UNL     1      -4.698  -8.120 -14.032  1.00  0.00    -0.000 C 
BRANCH  12  13
ATOM     13  C   UNL     1      -5.254  -9.289 -13.198  1.00  0.00    -0.000 C 
BRANCH  13  14
ATOM     14  C   UNL     1      -4.198 -10.371 -12.912  1.00  0.00    -0.000 C 
BRANCH  14  15
ATOM     15  C   UNL     1      -4.025 -11.348 -14.086  1.00  0.00    -0.003 C 
ATOM     16  C   UNL     1      -2.640 -11.994 -14.122  1.00  0.00     0.004 C 
ENDBRANCH  14  15
ENDBRANCH  13  14
ENDBRANCH  12  13
ENDBRANCH  11  12
ENDBRANCH  10  11
ENDBRANCH   1  10
TORSDOF 12
ENDMDL
MODEL 5
REMARK VINA RESULT:     2.379     14.583     17.265
REMARK INTER + INTRA:           3.793
REMARK INTER:                   4.124
REMARK INTRA:                  -0.330
REMARK UNBOUND:                -0.255
REMARK SMILES CCCCCCCCCCCCCC(=O)[O-]
REMARK SMILES IDX 8 1 9 2 10 3 11 4 12 5 13 6 14 7 15 8 16 9 7 10 6 11 5 12
REMARK SMILES IDX 4 13 3 14 2 15 1 16
REMARK H PARENT
REMARK Flexibility Score: inf
ROOT
ATOM      1  C   UNL     1      -0.937  -5.202 -12.764  1.00  0.00     0.000 C 
ENDROOT
BRANCH   1   2
ATOM      2  C   UNL     1      -2.459  -5.211 -12.963  1.00  0.00     0.000 C 
BRANCH   2   3
ATOM      3  C   UNL     1      -2.854  -6.136 -14.125  1.00  0.00     0.000 C 
BRANCH   3   4
ATOM      4  C   UNL     1      -4.164  -6.894 -13.860  1.00  0.00     0.000 C 
BRANCH   4   5
ATOM      5  C   UNL     1      -3.995  -8.418 -13.946  1.00  0.00     0.006 C 
BRANCH   5   6
ATOM      6  C   UNL     1      -5.224  -9.138 -13.382  1.00  0.00     0.053 C 
BRANCH   6   7
ATOM      7  C   UNL     1      -5.019 -10.619 -13.401  1.00  0.00     0.041 C 
ATOM      8  O   UNL     1      -6.001 -11.393 -13.553  1.00  0.00    -0.550 OA
ATOM      9  O   UNL     1      -3.750 -11.148 -13.202  1.00  0.00    -0.550 OA
ENDBRANCH   6   7
ENDBRANCH   5   6
ENDBRANCH   4   5
ENDBRANCH   3   4
ENDBRANCH   2   3
ENDBRANCH   1   2
BRANCH   1  10
ATOM     10  C   UNL     1      -0.285  -3.876 -13.196  1.00  0.00     0.000 C 
BRANCH  10  11
ATOM     11  C   UNL     1       0.937  -4.025 -14.124  1.00  0.00    -0.000 C 
BRANCH  11  12
ATOM     12  C   UNL     1       1.954  -2.868 -14.064  1.00  0.00    -0.000 C 
BRANCH  12  13
ATOM     13  C   UNL     1       3.427  -3.299 -13.942  1.00  0.00    -0.000 C 
BRANCH  13  14
ATOM     14  C   UNL     1       4.217  -2.442 -12.936  1.00  0.00    -0.000 C 
BRANCH  14  15
ATOM     15  C   UNL     1       5.330  -3.237 -12.234  1.00  0.00    -0.003 C 
ATOM     16  C   UNL     1       6.116  -4.130 -13.192  1.00  0.00     0.004 C 
ENDBRANCH  14  15
ENDBRANCH  13  14
ENDBRANCH  12  13
ENDBRANCH  11  12
ENDBRANCH  10  11
ENDBRANCH   1  10
TORSDOF 12
ENDMDL
MODEL 6
REMARK VINA RESULT:     3.198     19.618     21.536
REMARK INTER + INTRA:           5.187
REMARK INTER:                   5.521
REMARK INTRA:                  -0.334
REMARK UNBOUND:                -0.255
REMARK SMILES CCCCCCCCCCCCCC(=O)[O-]
REMARK SMILES IDX 8 1 9 2 10 3 11 4 12 5 13 6 14 7 15 8 16 9 7 10 6 11 5 12
REMARK SMILES IDX 4 13 3 14 2 15 1 16
REMARK H PARENT
REMARK Flexibility Score: inf
ROOT
ATOM      1  C   UNL     1      -7.218  -6.442   0.962  1.00  0.00     0.000 C 
ENDROOT
BRANCH   1   2
ATOM      2  C   UNL     1      -8.110  -7.626   0.563  1.00  0.00     0.000 C 
BRANCH   2   3
ATOM      3  C   UNL     1      -7.522  -8.374  -0.644  1.00  0.00     0.000 C 
BRANCH   3   4
ATOM      4  C   UNL     1      -8.300  -8.109  -1.941  1.00  0.00     0.000 C 
BRANCH   4   5
ATOM      5  C   UNL     1      -9.451  -7.111  -1.749  1.00  0.00     0.006 C 
BRANCH   5   6
ATOM      6  C   UNL     1     -10.772  -7.693  -2.263  1.00  0.00     0.053 C 
BRANCH   6   7
ATOM      7  C   UNL     1     -10.891  -9.136  -1.886  1.00  0.00     0.041 C 
ATOM      8  O   UNL     1     -10.745  -9.493  -0.687  1.00  0.00    -0.550 OA
ATOM      9  O   UNL     1     -11.115 -10.094  -2.867  1.00  0.00    -0.550 OA
ENDBRANCH   6   7
ENDBRANCH   5   6
ENDBRANCH   4   5
ENDBRANCH   3   4
ENDBRANCH   2   3
ENDBRANCH   1   2
BRANCH   1  10
ATOM     10  C   UNL     1      -7.715  -5.717   2.226  1.00  0.00     0.000 C 
BRANCH  10  11
ATOM     11  C   UNL     1      -6.605  -5.080   3.087  1.00  0.00    -0.000 C 
BRANCH  11  12
ATOM     12  C   UNL     1      -7.094  -4.076   4.151  1.00  0.00    -0.000 C 
BRANCH  12  13
ATOM     13  C   UNL     1      -7.572  -4.707   5.472  1.00  0.00    -0.000 C 
BRANCH  13  14
ATOM     14  C   UNL     1      -6.519  -5.633   6.105  1.00  0.00    -0.000 C 
BRANCH  14  15
ATOM     15  C   UNL     1      -5.117  -5.003   6.125  1.00  0.00    -0.003 C 
ATOM     16  C   UNL     1      -4.004  -6.026   5.901  1.00  0.00     0.004 C 
ENDBRANCH  14  15
ENDBRANCH  13  14
ENDBRANCH  12  13
ENDBRANCH  11  12
ENDBRANCH  10  11
ENDBRANCH   1  10
TORSDOF 12
ENDMDL
MODEL 7
REMARK VINA RESULT:     3.244      1.147      2.345
REMARK INTER + INTRA:           5.264
REMARK INTER:                   5.646
REMARK INTRA:                  -0.382
REMARK UNBOUND:                -0.255
REMARK SMILES CCCCCCCCCCCCCC(=O)[O-]
REMARK SMILES IDX 8 1 9 2 10 3 11 4 12 5 13 6 14 7 15 8 16 9 7 10 6 11 5 12
REMARK SMILES IDX 4 13 3 14 2 15 1 16
REMARK H PARENT
REMARK Flexibility Score: inf
ROOT
ATOM      1  C   UNL     1       4.040   7.271  -4.663  1.00  0.00     0.000 C 
ENDROOT
BRANCH   1   2
ATOM      2  C   UNL     1       4.144   8.125  -3.392  1.00  0.00     0.000 C 
BRANCH   2   3
ATOM      3  C   UNL     1       2.833   8.080  -2.592  1.00  0.00     0.000 C 
BRANCH   3   4
ATOM      4  C   UNL     1       3.066   8.062  -1.073  1.00  0.00     0.000 C 
BRANCH   4   5
ATOM      5  C   UNL     1       1.830   7.597  -0.290  1.00  0.00     0.006 C 
BRANCH   5   6
ATOM      6  C   UNL     1       1.925   6.107   0.049  1.00  0.00     0.053 C 
BRANCH   6   7
ATOM      7  C   UNL     1       2.408   5.916   1.451  1.00  0.00     0.041 C 
ATOM      8  O   UNL     1       3.569   6.281   1.777  1.00  0.00    -0.550 OA
ATOM      9  O   UNL     1       1.596   5.290   2.388  1.00  0.00    -0.550 OA
ENDBRANCH   6   7
ENDBRANCH   5   6
ENDBRANCH   4   5
ENDBRANCH   3   4
ENDBRANCH   2   3
ENDBRANCH   1   2
BRANCH   1  10
ATOM     10  C   UNL     1       2.943   7.761  -5.625  1.00  0.00     0.000 C 
BRANCH  10  11
ATOM     11  C   UNL     1       2.909   7.045  -6.991  1.00  0.00    -0.000 C 
BRANCH  11  12
ATOM     12  C   UNL     1       4.278   6.884  -7.682  1.00  0.00    -0.000 C 
BRANCH  12  13
ATOM     13  C   UNL     1       4.499   7.784  -8.911  1.00  0.00    -0.000 C 
BRANCH  13  14
ATOM     14  C   UNL     1       4.788   6.981 -10.193  1.00  0.00    -0.000 C 
BRANCH  14  15
ATOM     15  C   UNL     1       4.373   7.737 -11.465  1.00  0.00    -0.003 C 
ATOM     16  C   UNL     1       3.491   6.900 -12.391  1.00  0.00     0.004 C 
ENDBRANCH  14  15
ENDBRANCH  13  14
ENDBRANCH  12  13
ENDBRANCH  11  12
ENDBRANCH  10  11
ENDBRANCH   1  10
TORSDOF 12
ENDMDL
MODEL 8
REMARK VINA RESULT:     3.308     15.852     18.487
REMARK INTER + INTRA:           5.374
REMARK INTER:                   5.630
REMARK INTRA:                  -0.257
REMARK UNBOUND:                -0.255
REMARK SMILES CCCCCCCCCCCCCC(=O)[O-]
REMARK SMILES IDX 8 1 9 2 10 3 11 4 12 5 13 6 14 7 15 8 16 9 7 10 6 11 5 12
REMARK SMILES IDX 4 13 3 14 2 15 1 16
REMARK H PARENT
REMARK Flexibility Score: inf
ROOT
ATOM      1  C   UNL     1      -2.773  -6.457 -12.870  1.00  0.00     0.000 C 
ENDROOT
BRANCH   1   2
ATOM      2  C   UNL     1      -4.225  -6.767 -13.263  1.00  0.00     0.000 C 
BRANCH   2   3
ATOM      3  C   UNL     1      -4.340  -8.174 -13.869  1.00  0.00     0.000 C 
BRANCH   3   4
ATOM      4  C   UNL     1      -4.985  -9.183 -12.906  1.00  0.00     0.000 C 
BRANCH   4   5
ATOM      5  C   UNL     1      -5.069 -10.597 -13.497  1.00  0.00     0.006 C 
BRANCH   5   6
ATOM      6  C   UNL     1      -6.445 -10.848 -14.121  1.00  0.00     0.053 C 
BRANCH   6   7
ATOM      7  C   UNL     1      -7.425 -11.278 -13.076  1.00  0.00     0.041 C 
ATOM      8  O   UNL     1      -8.662 -11.210 -13.300  1.00  0.00    -0.550 OA
ATOM      9  O   UNL     1      -6.973 -11.708 -11.834  1.00  0.00    -0.550 OA
ENDBRANCH   6   7
ENDBRANCH   5   6
ENDBRANCH   4   5
ENDBRANCH   3   4
ENDBRANCH   2   3
ENDBRANCH   1   2
BRANCH   1  10
ATOM     10  C   UNL     1      -2.116  -5.407 -13.785  1.00  0.00     0.000 C 
BRANCH  10  11
ATOM     11  C   UNL     1      -0.657  -5.057 -13.428  1.00  0.00    -0.000 C 
BRANCH  11  12
ATOM     12  C   UNL     1      -0.098  -3.795 -14.115  1.00  0.00    -0.000 C 
BRANCH  12  13
ATOM     13  C   UNL     1       1.107  -3.147 -13.408  1.00  0.00    -0.000 C 
BRANCH  13  14
ATOM     14  C   UNL     1       2.456  -3.595 -14.000  1.00  0.00    -0.000 C 
BRANCH  14  15
ATOM     15  C   UNL     1       3.611  -2.665 -13.598  1.00  0.00    -0.003 C 
ATOM     16  C   UNL     1       4.880  -3.427 -13.216  1.00  0.00     0.004 C 
ENDBRANCH  14  15
ENDBRANCH  13  14
ENDBRANCH  12  13
ENDBRANCH  11  12
ENDBRANCH  10  11
ENDBRANCH   1  10
TORSDOF 12
ENDMDL
