MODEL 1
REMARK VINA RESULT:    -6.757      0.000      0.000
REMARK INTER + INTRA:         -13.740
REMARK INTER:                 -11.102
REMARK INTRA:                  -2.638
REMARK UNBOUND:                -2.638
REMARK SMILES COc1ccc([C@H]2CC(=O)c3c(O)cc(O[C@H]4O[C@H](CO[C@@H]5O[C@@H](C)[C@@H](O)[C@H](O)[C@H]5O)[C@H](O)[C@@H](O)[C@@H]4O)cc3O2)cc1O
REMARK SMILES IDX 19 1 32 2 34 3 36 4 17 5 18 6 20 7 21 8 22 9 25 10 24 11
REMARK SMILES IDX 26 12 23 13 28 14 30 15 27 16 29 18 31 20 33 22 35 24 16 26
REMARK SMILES IDX 15 27 14 28 38 29 12 30 39 31 11 32 40 33 9 34 7 35 10 36
REMARK SMILES IDX 8 37 13 38 6 40 41 41 5 42 42 43 4 44 3 45 43 46 2 48 1 49
REMARK SMILES IDX 37 50
REMARK H PARENT 27 17 29 19 31 21 33 23 35 25 13 39 43 47 37 51
REMARK Flexibility Score: inf
ROOT
ATOM      1  C   UNL     1      29.020   3.171  29.548  1.00  0.00     0.180 C 
ATOM      2  C   UNL     1      29.124   3.108  31.085  1.00  0.00     0.177 C 
ATOM      3  C   UNL     1      27.992   3.926  31.742  1.00  0.00     0.180 C 
ATOM      4  C   UNL     1      27.875   5.360  31.105  1.00  0.00     0.214 C 
ATOM      5  C   UNL     1      28.058   5.344  29.572  1.00  0.00     0.339 C 
ATOM      6  O   UNL     1      29.120   4.520  29.100  1.00  0.00    -0.332 OA
ENDROOT
BRANCH   1   7
ATOM      7  C   UNL     1      27.793   2.427  28.953  1.00  0.00     0.198 C 
BRANCH   7   8
ATOM      8  O   UNL     1      27.956   2.348  27.568  1.00  0.00    -0.347 OA
BRANCH   8   9
ATOM      9  C   UNL     1      26.775   2.066  26.834  1.00  0.00     0.281 C 
ATOM     10  C   UNL     1      23.393   3.530  26.693  1.00  0.00     0.041 C 
ATOM     11  C   UNL     1      24.376   2.380  26.964  1.00  0.00     0.150 C 
ATOM     12  C   UNL     1      24.311   1.345  25.816  1.00  0.00     0.174 C 
ATOM     13  O   UNL     1      25.678   2.935  27.170  1.00  0.00    -0.344 OA
ATOM     14  C   UNL     1      25.180   0.132  26.196  1.00  0.00     0.179 C 
ATOM     15  C   UNL     1      26.453   0.561  26.967  1.00  0.00     0.202 C 
BRANCH  12  16
ATOM     16  O   UNL     1      24.815   1.897  24.637  1.00  0.00    -0.388 OA
ATOM     17  H   UNL     1      25.794   1.738  24.651  1.00  0.00     0.211 HD
ENDBRANCH  12  16
BRANCH  14  18
ATOM     18  O   UNL     1      24.452  -0.751  27.028  1.00  0.00    -0.387 OA
ATOM     19  H   UNL     1      25.078  -1.161  27.682  1.00  0.00     0.211 HD
ENDBRANCH  14  18
BRANCH  15  20
ATOM     20  O   UNL     1      27.577  -0.198  26.560  1.00  0.00    -0.385 OA
ATOM     21  H   UNL     1      27.255  -1.085  26.247  1.00  0.00     0.211 HD
ENDBRANCH  15  20
ENDBRANCH   8   9
ENDBRANCH   7   8
ENDBRANCH   1   7
BRANCH   2  22
ATOM     22  O   UNL     1      29.108   1.754  31.480  1.00  0.00    -0.387 OA
ATOM     23  H   UNL     1      28.875   1.749  32.443  1.00  0.00     0.211 HD
ENDBRANCH   2  22
BRANCH   3  24
ATOM     24  O   UNL     1      28.224   4.049  33.117  1.00  0.00    -0.387 OA
ATOM     25  H   UNL     1      27.627   4.772  33.444  1.00  0.00     0.211 HD
ENDBRANCH   3  24
BRANCH   5  26
ATOM     26  O   UNL     1      28.282   6.680  29.101  1.00  0.00    -0.462 OA
BRANCH  26  27
ATOM     27  C   UNL     1      27.457   7.369  28.189  1.00  0.00     0.130 A 
ATOM     28  C   UNL     1      26.339   8.119  28.620  1.00  0.00     0.093 A 
ATOM     29  C   UNL     1      27.709   7.273  26.814  1.00  0.00     0.094 A 
ATOM     30  C   UNL     1      25.403   8.631  27.685  1.00  0.00     0.133 A 
ATOM     31  C   UNL     1      26.802   7.775  25.879  1.00  0.00     0.138 A 
ATOM     32  C   UNL     1      25.611   8.427  26.320  1.00  0.00     0.102 A 
ATOM     33  O   UNL     1      27.092   7.637  24.526  1.00  0.00    -0.484 OA
ATOM     34  C   UNL     1      24.666   8.913  25.286  1.00  0.00     0.174 C 
ATOM     35  C   UNL     1      26.163   7.973  23.475  1.00  0.00     0.211 C 
ATOM     36  O   UNL     1      23.467   9.226  25.576  1.00  0.00    -0.294 OA
ATOM     37  C   UNL     1      25.201   9.136  23.883  1.00  0.00     0.131 C 
BRANCH  30  38
ATOM     38  O   UNL     1      24.298   9.351  28.145  1.00  0.00    -0.507 OA
ATOM     39  H   UNL     1      24.162  10.319  27.913  1.00  0.00     0.293 HD
ENDBRANCH  30  38
BRANCH  35  40
ATOM     40  C   UNL     1      25.492   6.698  23.000  1.00  0.00    -0.003 A 
ATOM     41  C   UNL     1      26.158   5.491  22.704  1.00  0.00     0.057 A 
ATOM     42  C   UNL     1      24.086   6.695  22.987  1.00  0.00     0.011 A 
ATOM     43  C   UNL     1      25.430   4.318  22.428  1.00  0.00     0.158 A 
ATOM     44  C   UNL     1      23.362   5.548  22.668  1.00  0.00     0.051 A 
ATOM     45  C   UNL     1      24.036   4.332  22.432  1.00  0.00     0.160 A 
BRANCH  43  46
ATOM     46  O   UNL     1      26.085   3.120  22.118  1.00  0.00    -0.504 OA
ATOM     47  H   UNL     1      27.096   3.012  22.096  1.00  0.00     0.293 HD
ENDBRANCH  43  46
BRANCH  45  48
ATOM     48  O   UNL     1      23.366   3.117  22.206  1.00  0.00    -0.493 OA
ATOM     49  C   UNL     1      22.029   2.869  22.596  1.00  0.00     0.278 C 
ENDBRANCH  45  48
ENDBRANCH  35  40
ENDBRANCH  26  27
ENDBRANCH   5  26
BRANCH   4  50
ATOM     50  O   UNL     1      26.663   5.971  31.456  1.00  0.00    -0.384 OA
ATOM     51  H   UNL     1      26.104   6.063  30.643  1.00  0.00     0.211 HD
ENDBRANCH   4  50
TORSDOF 15
ENDMDL
MODEL 2
REMARK VINA RESULT:    -6.738      1.126      1.151
REMARK INTER + INTRA:         -13.709
REMARK INTER:                 -10.933
REMARK INTRA:                  -2.776
REMARK UNBOUND:                -2.638
REMARK SMILES COc1ccc([C@H]2CC(=O)c3c(O)cc(O[C@H]4O[C@H](CO[C@@H]5O[C@@H](C)[C@@H](O)[C@H](O)[C@H]5O)[C@H](O)[C@@H](O)[C@@H]4O)cc3O2)cc1O
REMARK SMILES IDX 19 1 32 2 34 3 36 4 17 5 18 6 20 7 21 8 22 9 25 10 24 11
REMARK SMILES IDX 26 12 23 13 28 14 30 15 27 16 29 18 31 20 33 22 35 24 16 26
REMARK SMILES IDX 15 27 14 28 38 29 12 30 39 31 11 32 40 33 9 34 7 35 10 36
REMARK SMILES IDX 8 37 13 38 6 40 41 41 5 42 42 43 4 44 3 45 43 46 2 48 1 49
REMARK SMILES IDX 37 50
REMARK H PARENT 27 17 29 19 31 21 33 23 35 25 13 39 43 47 37 51
REMARK Flexibility Score: inf
ROOT
ATOM      1  C   UNL     1      28.546   2.458  29.189  1.00  0.00     0.180 C 
ATOM      2  C   UNL     1      29.115   2.430  30.622  1.00  0.00     0.177 C 
ATOM      3  C   UNL     1      28.345   3.410  31.533  1.00  0.00     0.180 C 
ATOM      4  C   UNL     1      28.199   4.826  30.863  1.00  0.00     0.214 C 
ATOM      5  C   UNL     1      27.893   4.737  29.352  1.00  0.00     0.339 C 
ATOM      6  O   UNL     1      28.655   3.767  28.638  1.00  0.00    -0.332 OA
ENDROOT
BRANCH   1   7
ATOM      7  C   UNL     1      27.119   1.861  29.051  1.00  0.00     0.198 C 
BRANCH   7   8
ATOM      8  O   UNL     1      27.081   1.075  27.897  1.00  0.00    -0.347 OA
BRANCH   8   9
ATOM      9  C   UNL     1      26.126   1.470  26.924  1.00  0.00     0.281 C 
ATOM     10  C   UNL     1      23.532   4.084  26.745  1.00  0.00     0.041 C 
ATOM     11  C   UNL     1      24.001   2.621  26.755  1.00  0.00     0.150 C 
ATOM     12  C   UNL     1      23.949   2.039  25.323  1.00  0.00     0.174 C 
ATOM     13  O   UNL     1      25.297   2.565  27.356  1.00  0.00    -0.344 OA
ATOM     14  C   UNL     1      24.265   0.532  25.391  1.00  0.00     0.179 C 
ATOM     15  C   UNL     1      25.338   0.223  26.465  1.00  0.00     0.202 C 
BRANCH  12  16
ATOM     16  O   UNL     1      24.907   2.653  24.514  1.00  0.00    -0.388 OA
ATOM     17  H   UNL     1      25.773   2.561  24.988  1.00  0.00     0.211 HD
ENDBRANCH  12  16
BRANCH  14  18
ATOM     18  O   UNL     1      23.101  -0.198  25.727  1.00  0.00    -0.387 OA
ATOM     19  H   UNL     1      22.548  -0.310  24.909  1.00  0.00     0.211 HD
ENDBRANCH  14  18
BRANCH  15  20
ATOM     20  O   UNL     1      26.245  -0.765  26.010  1.00  0.00    -0.385 OA
ATOM     21  H   UNL     1      27.169  -0.441  26.187  1.00  0.00     0.211 HD
ENDBRANCH  15  20
ENDBRANCH   8   9
ENDBRANCH   7   8
ENDBRANCH   1   7
BRANCH   2  22
ATOM     22  O   UNL     1      29.069   1.103  31.097  1.00  0.00    -0.387 OA
ATOM     23  H   UNL     1      29.788   0.614  30.623  1.00  0.00     0.211 HD
ENDBRANCH   2  22
BRANCH   3  24
ATOM     24  O   UNL     1      29.006   3.545  32.759  1.00  0.00    -0.387 OA
ATOM     25  H   UNL     1      28.336   3.886  33.409  1.00  0.00     0.211 HD
ENDBRANCH   3  24
BRANCH   5  26
ATOM     26  O   UNL     1      28.110   6.016  28.741  1.00  0.00    -0.462 OA
BRANCH  26  27
ATOM     27  C   UNL     1      27.174   6.705  27.943  1.00  0.00     0.130 A 
ATOM     28  C   UNL     1      25.871   6.995  28.409  1.00  0.00     0.093 A 
ATOM     29  C   UNL     1      27.514   7.071  26.633  1.00  0.00     0.094 A 
ATOM     30  C   UNL     1      24.880   7.498  27.529  1.00  0.00     0.133 A 
ATOM     31  C   UNL     1      26.553   7.573  25.755  1.00  0.00     0.138 A 
ATOM     32  C   UNL     1      25.207   7.750  26.195  1.00  0.00     0.102 A 
ATOM     33  O   UNL     1      26.940   7.903  24.460  1.00  0.00    -0.484 OA
ATOM     34  C   UNL     1      24.219   8.255  25.211  1.00  0.00     0.174 C 
ATOM     35  C   UNL     1      26.009   8.278  23.424  1.00  0.00     0.211 C 
ATOM     36  O   UNL     1      22.967   8.160  25.419  1.00  0.00    -0.294 OA
ATOM     37  C   UNL     1      24.743   8.995  23.994  1.00  0.00     0.131 C 
BRANCH  30  38
ATOM     38  O   UNL     1      23.597   7.755  28.016  1.00  0.00    -0.507 OA
ATOM     39  H   UNL     1      23.414   8.505  28.660  1.00  0.00     0.293 HD
ENDBRANCH  30  38
BRANCH  35  40
ATOM     40  C   UNL     1      25.744   7.065  22.552  1.00  0.00    -0.003 A 
ATOM     41  C   UNL     1      26.274   5.777  22.770  1.00  0.00     0.057 A 
ATOM     42  C   UNL     1      24.788   7.222  21.532  1.00  0.00     0.011 A 
ATOM     43  C   UNL     1      25.838   4.682  22.000  1.00  0.00     0.158 A 
ATOM     44  C   UNL     1      24.389   6.149  20.737  1.00  0.00     0.051 A 
ATOM     45  C   UNL     1      24.881   4.854  21.001  1.00  0.00     0.160 A 
BRANCH  43  46
ATOM     46  O   UNL     1      26.371   3.403  22.200  1.00  0.00    -0.504 OA
ATOM     47  H   UNL     1      25.940   2.546  21.865  1.00  0.00     0.293 HD
ENDBRANCH  43  46
BRANCH  45  48
ATOM     48  O   UNL     1      24.444   3.713  20.306  1.00  0.00    -0.493 OA
ATOM     49  C   UNL     1      23.087   3.329  20.194  1.00  0.00     0.278 C 
ENDBRANCH  45  48
ENDBRANCH  35  40
ENDBRANCH  26  27
ENDBRANCH   5  26
BRANCH   4  50
ATOM     50  O   UNL     1      27.236   5.600  31.522  1.00  0.00    -0.384 OA
ATOM     51  H   UNL     1      26.596   4.995  31.978  1.00  0.00     0.211 HD
ENDBRANCH   4  50
TORSDOF 15
ENDMDL
MODEL 3
REMARK VINA RESULT:    -6.681      1.708      3.633
REMARK INTER + INTRA:         -13.615
REMARK INTER:                 -10.481
REMARK INTRA:                  -3.134
REMARK UNBOUND:                -2.638
REMARK SMILES COc1ccc([C@H]2CC(=O)c3c(O)cc(O[C@H]4O[C@H](CO[C@@H]5O[C@@H](C)[C@@H](O)[C@H](O)[C@H]5O)[C@H](O)[C@@H](O)[C@@H]4O)cc3O2)cc1O
REMARK SMILES IDX 19 1 32 2 34 3 36 4 17 5 18 6 20 7 21 8 22 9 25 10 24 11
REMARK SMILES IDX 26 12 23 13 28 14 30 15 27 16 29 18 31 20 33 22 35 24 16 26
REMARK SMILES IDX 15 27 14 28 38 29 12 30 39 31 11 32 40 33 9 34 7 35 10 36
REMARK SMILES IDX 8 37 13 38 6 40 41 41 5 42 42 43 4 44 3 45 43 46 2 48 1 49
REMARK SMILES IDX 37 50
REMARK H PARENT 27 17 29 19 31 21 33 23 35 25 13 39 43 47 37 51
REMARK Flexibility Score: inf
ROOT
ATOM      1  C   UNL     1      26.411   1.727  26.991  1.00  0.00     0.180 C 
ATOM      2  C   UNL     1      27.453   0.599  26.854  1.00  0.00     0.177 C 
ATOM      3  C   UNL     1      28.028   0.217  28.234  1.00  0.00     0.180 C 
ATOM      4  C   UNL     1      28.474   1.490  29.045  1.00  0.00     0.214 C 
ATOM      5  C   UNL     1      27.483   2.665  28.893  1.00  0.00     0.339 C 
ATOM      6  O   UNL     1      27.007   2.885  27.568  1.00  0.00    -0.332 OA
ENDROOT
BRANCH   1   7
ATOM      7  C   UNL     1      25.096   1.306  27.704  1.00  0.00     0.198 C 
BRANCH   7   8
ATOM      8  O   UNL     1      24.160   0.954  26.729  1.00  0.00    -0.347 OA
BRANCH   8   9
ATOM      9  C   UNL     1      24.235   1.694  25.520  1.00  0.00     0.281 C 
ATOM     10  C   UNL     1      22.960   4.966  24.397  1.00  0.00     0.041 C 
ATOM     11  C   UNL     1      23.050   3.434  24.322  1.00  0.00     0.150 C 
ATOM     12  C   UNL     1      23.921   3.014  23.114  1.00  0.00     0.174 C 
ATOM     13  O   UNL     1      23.526   2.946  25.578  1.00  0.00    -0.344 OA
ATOM     14  C   UNL     1      23.857   1.482  22.970  1.00  0.00     0.179 C 
ATOM     15  C   UNL     1      23.808   0.780  24.349  1.00  0.00     0.202 C 
BRANCH  12  16
ATOM     16  O   UNL     1      25.252   3.380  23.326  1.00  0.00    -0.388 OA
ATOM     17  H   UNL     1      25.442   4.120  22.693  1.00  0.00     0.211 HD
ENDBRANCH  12  16
BRANCH  14  18
ATOM     18  O   UNL     1      22.694   1.105  22.257  1.00  0.00    -0.387 OA
ATOM     19  H   UNL     1      21.897   1.405  22.767  1.00  0.00     0.211 HD
ENDBRANCH  14  18
BRANCH  15  20
ATOM     20  O   UNL     1      24.604  -0.392  24.355  1.00  0.00    -0.385 OA
ATOM     21  H   UNL     1      24.084  -1.121  23.922  1.00  0.00     0.211 HD
ENDBRANCH  15  20
ENDBRANCH   8   9
ENDBRANCH   7   8
ENDBRANCH   1   7
BRANCH   2  22
ATOM     22  O   UNL     1      26.847  -0.495  26.201  1.00  0.00    -0.387 OA
ATOM     23  H   UNL     1      27.523  -1.220  26.192  1.00  0.00     0.211 HD
ENDBRANCH   2  22
BRANCH   3  24
ATOM     24  O   UNL     1      29.125  -0.638  28.077  1.00  0.00    -0.387 OA
ATOM     25  H   UNL     1      29.804  -0.138  27.551  1.00  0.00     0.211 HD
ENDBRANCH   3  24
BRANCH   5  26
ATOM     26  O   UNL     1      28.099   3.875  29.355  1.00  0.00    -0.462 OA
BRANCH  26  27
ATOM     27  C   UNL     1      27.616   5.176  29.110  1.00  0.00     0.130 A 
ATOM     28  C   UNL     1      26.611   5.760  29.914  1.00  0.00     0.093 A 
ATOM     29  C   UNL     1      28.100   5.902  28.012  1.00  0.00     0.094 A 
ATOM     30  C   UNL     1      25.991   6.978  29.534  1.00  0.00     0.133 A 
ATOM     31  C   UNL     1      27.506   7.104  27.626  1.00  0.00     0.138 A 
ATOM     32  C   UNL     1      26.409   7.630  28.372  1.00  0.00     0.102 A 
ATOM     33  O   UNL     1      28.014   7.774  26.518  1.00  0.00    -0.484 OA
ATOM     34  C   UNL     1      25.794   8.893  27.900  1.00  0.00     0.174 C 
ATOM     35  C   UNL     1      27.387   8.935  25.934  1.00  0.00     0.211 C 
ATOM     36  O   UNL     1      24.649   9.269  28.310  1.00  0.00    -0.294 OA
ATOM     37  C   UNL     1      26.619   9.790  26.994  1.00  0.00     0.131 C 
BRANCH  30  38
ATOM     38  O   UNL     1      24.987   7.517  30.340  1.00  0.00    -0.507 OA
ATOM     39  H   UNL     1      24.196   8.000  29.951  1.00  0.00     0.293 HD
ENDBRANCH  30  38
BRANCH  35  40
ATOM     40  C   UNL     1      26.576   8.491  24.731  1.00  0.00    -0.003 A 
ATOM     41  C   UNL     1      26.789   7.303  24.002  1.00  0.00     0.057 A 
ATOM     42  C   UNL     1      25.446   9.267  24.414  1.00  0.00     0.011 A 
ATOM     43  C   UNL     1      25.881   6.902  23.004  1.00  0.00     0.158 A 
ATOM     44  C   UNL     1      24.571   8.897  23.395  1.00  0.00     0.051 A 
ATOM     45  C   UNL     1      24.760   7.677  22.712  1.00  0.00     0.160 A 
BRANCH  43  46
ATOM     46  O   UNL     1      26.094   5.732  22.265  1.00  0.00    -0.504 OA
ATOM     47  H   UNL     1      26.992   5.460  21.873  1.00  0.00     0.293 HD
ENDBRANCH  43  46
BRANCH  45  48
ATOM     48  O   UNL     1      23.860   7.195  21.746  1.00  0.00    -0.493 OA
ATOM     49  C   UNL     1      23.475   7.920  20.594  1.00  0.00     0.278 C 
ENDBRANCH  45  48
ENDBRANCH  35  40
ENDBRANCH  26  27
ENDBRANCH   5  26
BRANCH   4  50
ATOM     50  O   UNL     1      28.679   1.182  30.396  1.00  0.00    -0.384 OA
ATOM     51  H   UNL     1      29.474   1.679  30.720  1.00  0.00     0.211 HD
ENDBRANCH   4  50
TORSDOF 15
ENDMDL
MODEL 4
REMARK VINA RESULT:    -6.582      2.062      6.392
REMARK INTER + INTRA:         -13.452
REMARK INTER:                 -10.583
REMARK INTRA:                  -2.869
REMARK UNBOUND:                -2.638
REMARK SMILES COc1ccc([C@H]2CC(=O)c3c(O)cc(O[C@H]4O[C@H](CO[C@@H]5O[C@@H](C)[C@@H](O)[C@H](O)[C@H]5O)[C@H](O)[C@@H](O)[C@@H]4O)cc3O2)cc1O
REMARK SMILES IDX 19 1 32 2 34 3 36 4 17 5 18 6 20 7 21 8 22 9 25 10 24 11
REMARK SMILES IDX 26 12 23 13 28 14 30 15 27 16 29 18 31 20 33 22 35 24 16 26
REMARK SMILES IDX 15 27 14 28 38 29 12 30 39 31 11 32 40 33 9 34 7 35 10 36
REMARK SMILES IDX 8 37 13 38 6 40 41 41 5 42 42 43 4 44 3 45 43 46 2 48 1 49
REMARK SMILES IDX 37 50
REMARK H PARENT 27 17 29 19 31 21 33 23 35 25 13 39 43 47 37 51
REMARK Flexibility Score: inf
ROOT
ATOM      1  C   UNL     1      25.838   8.511  26.372  1.00  0.00     0.180 C 
ATOM      2  C   UNL     1      25.504  10.013  26.474  1.00  0.00     0.177 C 
ATOM      3  C   UNL     1      26.423  10.706  27.503  1.00  0.00     0.180 C 
ATOM      4  C   UNL     1      26.478   9.906  28.857  1.00  0.00     0.214 C 
ATOM      5  C   UNL     1      26.539   8.378  28.639  1.00  0.00     0.339 C 
ATOM      6  O   UNL     1      25.661   7.877  27.635  1.00  0.00    -0.332 OA
ENDROOT
BRANCH   1   7
ATOM      7  C   UNL     1      27.218   8.200  25.728  1.00  0.00     0.198 C 
BRANCH   7   8
ATOM      8  O   UNL     1      27.001   7.486  24.548  1.00  0.00    -0.347 OA
BRANCH   8   9
ATOM      9  C   UNL     1      26.458   6.186  24.715  1.00  0.00     0.281 C 
ATOM     10  C   UNL     1      27.456   3.178  26.601  1.00  0.00     0.041 C 
ATOM     11  C   UNL     1      27.145   3.938  25.302  1.00  0.00     0.150 C 
ATOM     12  C   UNL     1      25.759   3.514  24.760  1.00  0.00     0.174 C 
ATOM     13  O   UNL     1      27.263   5.339  25.557  1.00  0.00    -0.344 OA
ATOM     14  C   UNL     1      25.550   4.165  23.379  1.00  0.00     0.179 C 
ATOM     15  C   UNL     1      26.157   5.589  23.322  1.00  0.00     0.202 C 
BRANCH  12  16
ATOM     16  O   UNL     1      24.748   3.958  25.613  1.00  0.00    -0.388 OA
ATOM     17  H   UNL     1      24.447   3.164  26.127  1.00  0.00     0.211 HD
ENDBRANCH  12  16
BRANCH  14  18
ATOM     18  O   UNL     1      26.176   3.392  22.373  1.00  0.00    -0.387 OA
ATOM     19  H   UNL     1      26.118   2.434  22.625  1.00  0.00     0.211 HD
ENDBRANCH  14  18
BRANCH  15  20
ATOM     20  O   UNL     1      25.316   6.474  22.603  1.00  0.00    -0.385 OA
ATOM     21  H   UNL     1      24.420   6.466  23.034  1.00  0.00     0.211 HD
ENDBRANCH  15  20
ENDBRANCH   8   9
ENDBRANCH   7   8
ENDBRANCH   1   7
BRANCH   2  22
ATOM     22  O   UNL     1      25.608  10.584  25.189  1.00  0.00    -0.387 OA
ATOM     23  H   UNL     1      26.408  10.177  24.769  1.00  0.00     0.211 HD
ENDBRANCH   2  22
BRANCH   3  24
ATOM     24  O   UNL     1      25.967  12.006  27.754  1.00  0.00    -0.387 OA
ATOM     25  H   UNL     1      25.021  11.925  28.048  1.00  0.00     0.211 HD
ENDBRANCH   3  24
BRANCH   5  26
ATOM     26  O   UNL     1      26.244   7.705  29.870  1.00  0.00    -0.462 OA
BRANCH  26  27
ATOM     27  C   UNL     1      26.406   6.324  30.099  1.00  0.00     0.130 A 
ATOM     28  C   UNL     1      27.680   5.748  30.305  1.00  0.00     0.093 A 
ATOM     29  C   UNL     1      25.287   5.479  30.074  1.00  0.00     0.094 A 
ATOM     30  C   UNL     1      27.848   4.340  30.326  1.00  0.00     0.133 A 
ATOM     31  C   UNL     1      25.432   4.091  30.098  1.00  0.00     0.138 A 
ATOM     32  C   UNL     1      26.733   3.512  30.183  1.00  0.00     0.102 A 
ATOM     33  O   UNL     1      24.289   3.300  30.052  1.00  0.00    -0.484 OA
ATOM     34  C   UNL     1      26.833   2.033  30.174  1.00  0.00     0.174 C 
ATOM     35  C   UNL     1      24.322   1.864  29.913  1.00  0.00     0.211 C 
ATOM     36  O   UNL     1      27.937   1.443  29.945  1.00  0.00    -0.294 OA
ATOM     37  C   UNL     1      25.599   1.235  30.556  1.00  0.00     0.131 C 
BRANCH  30  38
ATOM     38  O   UNL     1      29.124   3.805  30.511  1.00  0.00    -0.507 OA
ATOM     39  H   UNL     1      29.438   3.479  31.409  1.00  0.00     0.293 HD
ENDBRANCH  30  38
BRANCH  35  40
ATOM     40  C   UNL     1      24.076   1.516  28.457  1.00  0.00    -0.003 A 
ATOM     41  C   UNL     1      24.916   0.708  27.662  1.00  0.00     0.057 A 
ATOM     42  C   UNL     1      22.845   1.924  27.912  1.00  0.00     0.011 A 
ATOM     43  C   UNL     1      24.517   0.310  26.372  1.00  0.00     0.158 A 
ATOM     44  C   UNL     1      22.468   1.571  26.618  1.00  0.00     0.051 A 
ATOM     45  C   UNL     1      23.288   0.715  25.853  1.00  0.00     0.160 A 
BRANCH  43  46
ATOM     46  O   UNL     1      25.353  -0.477  25.572  1.00  0.00    -0.504 OA
ATOM     47  H   UNL     1      25.522  -1.469  25.725  1.00  0.00     0.293 HD
ENDBRANCH  43  46
BRANCH  45  48
ATOM     48  O   UNL     1      22.921   0.238  24.584  1.00  0.00    -0.493 OA
ATOM     49  C   UNL     1      22.429   1.060  23.543  1.00  0.00     0.278 C 
ENDBRANCH  45  48
ENDBRANCH  35  40
ENDBRANCH  26  27
ENDBRANCH   5  26
BRANCH   4  50
ATOM     50  O   UNL     1      27.545  10.338  29.656  1.00  0.00    -0.384 OA
ATOM     51  H   UNL     1      28.305   9.712  29.541  1.00  0.00     0.211 HD
ENDBRANCH   4  50
TORSDOF 15
ENDMDL
MODEL 5
REMARK VINA RESULT:    -6.389      2.342      7.609
REMARK INTER + INTRA:         -13.135
REMARK INTER:                 -10.033
REMARK INTRA:                  -3.103
REMARK UNBOUND:                -2.638
REMARK SMILES COc1ccc([C@H]2CC(=O)c3c(O)cc(O[C@H]4O[C@H](CO[C@@H]5O[C@@H](C)[C@@H](O)[C@H](O)[C@H]5O)[C@H](O)[C@@H](O)[C@@H]4O)cc3O2)cc1O
REMARK SMILES IDX 19 1 32 2 34 3 36 4 17 5 18 6 20 7 21 8 22 9 25 10 24 11
REMARK SMILES IDX 26 12 23 13 28 14 30 15 27 16 29 18 31 20 33 22 35 24 16 26
REMARK SMILES IDX 15 27 14 28 38 29 12 30 39 31 11 32 40 33 9 34 7 35 10 36
REMARK SMILES IDX 8 37 13 38 6 40 41 41 5 42 42 43 4 44 3 45 43 46 2 48 1 49
REMARK SMILES IDX 37 50
REMARK H PARENT 27 17 29 19 31 21 33 23 35 25 13 39 43 47 37 51
REMARK Flexibility Score: inf
ROOT
ATOM      1  C   UNL     1      23.687   4.453  23.825  1.00  0.00     0.180 C 
ATOM      2  C   UNL     1      23.651   5.071  22.413  1.00  0.00     0.177 C 
ATOM      3  C   UNL     1      24.893   4.645  21.600  1.00  0.00     0.180 C 
ATOM      4  C   UNL     1      26.218   4.851  22.423  1.00  0.00     0.214 C 
ATOM      5  C   UNL     1      26.062   4.450  23.907  1.00  0.00     0.339 C 
ATOM      6  O   UNL     1      24.852   4.881  24.524  1.00  0.00    -0.332 OA
ENDROOT
BRANCH   1   7
ATOM      7  C   UNL     1      23.494   2.912  23.860  1.00  0.00     0.198 C 
BRANCH   7   8
ATOM      8  O   UNL     1      22.567   2.607  24.860  1.00  0.00    -0.347 OA
BRANCH   8   9
ATOM      9  C   UNL     1      23.094   1.929  25.990  1.00  0.00     0.281 C 
ATOM     10  C   UNL     1      24.675   2.989  29.148  1.00  0.00     0.041 C 
ATOM     11  C   UNL     1      24.675   2.262  27.795  1.00  0.00     0.150 C 
ATOM     12  C   UNL     1      24.545   0.736  28.014  1.00  0.00     0.174 C 
ATOM     13  O   UNL     1      23.643   2.820  26.979  1.00  0.00    -0.344 OA
ATOM     14  C   UNL     1      24.714   0.026  26.657  1.00  0.00     0.179 C 
ATOM     15  C   UNL     1      24.078   0.841  25.504  1.00  0.00     0.202 C 
BRANCH  12  16
ATOM     16  O   UNL     1      23.281   0.425  28.519  1.00  0.00    -0.388 OA
ATOM     17  H   UNL     1      23.079  -0.498  28.218  1.00  0.00     0.211 HD
ENDBRANCH  12  16
BRANCH  14  18
ATOM     18  O   UNL     1      26.087  -0.138  26.358  1.00  0.00    -0.387 OA
ATOM     19  H   UNL     1      26.533   0.748  26.412  1.00  0.00     0.211 HD
ENDBRANCH  14  18
BRANCH  15  20
ATOM     20  O   UNL     1      23.420  -0.008  24.581  1.00  0.00    -0.385 OA
ATOM     21  H   UNL     1      23.197   0.527  23.773  1.00  0.00     0.211 HD
ENDBRANCH  15  20
ENDBRANCH   8   9
ENDBRANCH   7   8
ENDBRANCH   1   7
BRANCH   2  22
ATOM     22  O   UNL     1      22.444   4.694  21.789  1.00  0.00    -0.387 OA
ATOM     23  H   UNL     1      22.699   4.168  20.988  1.00  0.00     0.211 HD
ENDBRANCH   2  22
BRANCH   3  24
ATOM     24  O   UNL     1      24.966   5.383  20.414  1.00  0.00    -0.387 OA
ATOM     25  H   UNL     1      25.684   4.972  19.865  1.00  0.00     0.211 HD
ENDBRANCH   3  24
BRANCH   5  26
ATOM     26  O   UNL     1      27.163   4.971  24.664  1.00  0.00    -0.462 OA
BRANCH  26  27
ATOM     27  C   UNL     1      27.610   4.465  25.901  1.00  0.00     0.130 A 
ATOM     28  C   UNL     1      27.884   3.091  26.086  1.00  0.00     0.093 A 
ATOM     29  C   UNL     1      27.739   5.327  26.999  1.00  0.00     0.094 A 
ATOM     30  C   UNL     1      28.130   2.566  27.381  1.00  0.00     0.133 A 
ATOM     31  C   UNL     1      27.986   4.830  28.279  1.00  0.00     0.138 A 
ATOM     32  C   UNL     1      28.142   3.426  28.481  1.00  0.00     0.102 A 
ATOM     33  O   UNL     1      28.086   5.728  29.336  1.00  0.00    -0.484 OA
ATOM     34  C   UNL     1      28.370   2.948  29.866  1.00  0.00     0.174 C 
ATOM     35  C   UNL     1      28.181   5.323  30.718  1.00  0.00     0.211 C 
ATOM     36  O   UNL     1      28.221   1.723  30.179  1.00  0.00    -0.294 OA
ATOM     37  C   UNL     1      28.897   3.944  30.883  1.00  0.00     0.131 C 
BRANCH  30  38
ATOM     38  O   UNL     1      28.378   1.201  27.532  1.00  0.00    -0.507 OA
ATOM     39  H   UNL     1      27.636   0.540  27.688  1.00  0.00     0.293 HD
ENDBRANCH  30  38
BRANCH  35  40
ATOM     40  C   UNL     1      26.805   5.432  31.347  1.00  0.00    -0.003 A 
ATOM     41  C   UNL     1      25.724   6.166  30.815  1.00  0.00     0.057 A 
ATOM     42  C   UNL     1      26.565   4.627  32.475  1.00  0.00     0.011 A 
ATOM     43  C   UNL     1      24.442   6.071  31.388  1.00  0.00     0.158 A 
ATOM     44  C   UNL     1      25.307   4.568  33.073  1.00  0.00     0.051 A 
ATOM     45  C   UNL     1      24.220   5.258  32.499  1.00  0.00     0.160 A 
BRANCH  43  46
ATOM     46  O   UNL     1      23.368   6.809  30.875  1.00  0.00    -0.504 OA
ATOM     47  H   UNL     1      22.851   6.556  30.037  1.00  0.00     0.293 HD
ENDBRANCH  43  46
BRANCH  45  48
ATOM     48  O   UNL     1      22.907   5.161  32.990  1.00  0.00    -0.493 OA
ATOM     49  C   UNL     1      22.019   4.108  32.665  1.00  0.00     0.278 C 
ENDBRANCH  45  48
ENDBRANCH  35  40
ENDBRANCH  26  27
ENDBRANCH   5  26
BRANCH   4  50
ATOM     50  O   UNL     1      27.290   4.170  21.833  1.00  0.00    -0.384 OA
ATOM     51  H   UNL     1      27.298   3.235  22.165  1.00  0.00     0.211 HD
ENDBRANCH   4  50
TORSDOF 15
ENDMDL
MODEL 6
REMARK VINA RESULT:    -6.351      1.732      2.398
REMARK INTER + INTRA:         -13.073
REMARK INTER:                 -10.766
REMARK INTRA:                  -2.307
REMARK UNBOUND:                -2.638
REMARK SMILES COc1ccc([C@H]2CC(=O)c3c(O)cc(O[C@H]4O[C@H](CO[C@@H]5O[C@@H](C)[C@@H](O)[C@H](O)[C@H]5O)[C@H](O)[C@@H](O)[C@@H]4O)cc3O2)cc1O
REMARK SMILES IDX 19 1 32 2 34 3 36 4 17 5 18 6 20 7 21 8 22 9 25 10 24 11
REMARK SMILES IDX 26 12 23 13 28 14 30 15 27 16 29 18 31 20 33 22 35 24 16 26
REMARK SMILES IDX 15 27 14 28 38 29 12 30 39 31 11 32 40 33 9 34 7 35 10 36
REMARK SMILES IDX 8 37 13 38 6 40 41 41 5 42 42 43 4 44 3 45 43 46 2 48 1 49
REMARK SMILES IDX 37 50
REMARK H PARENT 27 17 29 19 31 21 33 23 35 25 13 39 43 47 37 51
REMARK Flexibility Score: inf
ROOT
ATOM      1  C   UNL     1      28.567   2.124  29.330  1.00  0.00     0.180 C 
ATOM      2  C   UNL     1      27.913   1.044  30.214  1.00  0.00     0.177 C 
ATOM      3  C   UNL     1      26.376   1.192  30.209  1.00  0.00     0.180 C 
ATOM      4  C   UNL     1      25.941   2.680  30.480  1.00  0.00     0.214 C 
ATOM      5  C   UNL     1      26.842   3.702  29.753  1.00  0.00     0.339 C 
ATOM      6  O   UNL     1      28.238   3.424  29.810  1.00  0.00    -0.332 OA
ENDROOT
BRANCH   1   7
ATOM      7  C   UNL     1      28.303   1.958  27.808  1.00  0.00     0.198 C 
BRANCH   7   8
ATOM      8  O   UNL     1      27.247   1.060  27.640  1.00  0.00    -0.347 OA
BRANCH   8   9
ATOM      9  C   UNL     1      26.259   1.454  26.700  1.00  0.00     0.281 C 
ATOM     10  C   UNL     1      23.851   4.238  26.479  1.00  0.00     0.041 C 
ATOM     11  C   UNL     1      24.215   2.748  26.575  1.00  0.00     0.150 C 
ATOM     12  C   UNL     1      24.023   2.067  25.199  1.00  0.00     0.174 C 
ATOM     13  O   UNL     1      25.541   2.638  27.096  1.00  0.00    -0.344 OA
ATOM     14  C   UNL     1      24.235   0.550  25.366  1.00  0.00     0.179 C 
ATOM     15  C   UNL     1      25.354   0.240  26.392  1.00  0.00     0.202 C 
BRANCH  12  16
ATOM     16  O   UNL     1      24.965   2.545  24.286  1.00  0.00    -0.388 OA
ATOM     17  H   UNL     1      24.970   1.905  23.528  1.00  0.00     0.211 HD
ENDBRANCH  12  16
BRANCH  14  18
ATOM     18  O   UNL     1      23.047  -0.063  25.831  1.00  0.00    -0.387 OA
ATOM     19  H   UNL     1      22.336   0.628  25.893  1.00  0.00     0.211 HD
ENDBRANCH  14  18
BRANCH  15  20
ATOM     20  O   UNL     1      26.156  -0.845  25.960  1.00  0.00    -0.385 OA
ATOM     21  H   UNL     1      25.599  -1.428  25.377  1.00  0.00     0.211 HD
ENDBRANCH  15  20
ENDBRANCH   8   9
ENDBRANCH   7   8
ENDBRANCH   1   7
BRANCH   2  22
ATOM     22  O   UNL     1      28.333  -0.223  29.759  1.00  0.00    -0.387 OA
ATOM     23  H   UNL     1      29.294  -0.133  29.535  1.00  0.00     0.211 HD
ENDBRANCH   2  22
BRANCH   3  24
ATOM     24  O   UNL     1      25.811   0.361  31.183  1.00  0.00    -0.387 OA
ATOM     25  H   UNL     1      26.405  -0.432  31.261  1.00  0.00     0.211 HD
ENDBRANCH   3  24
BRANCH   5  26
ATOM     26  O   UNL     1      26.622   5.010  30.299  1.00  0.00    -0.462 OA
BRANCH  26  27
ATOM     27  C   UNL     1      26.668   6.214  29.567  1.00  0.00     0.130 A 
ATOM     28  C   UNL     1      26.100   7.409  30.064  1.00  0.00     0.093 A 
ATOM     29  C   UNL     1      27.245   6.228  28.288  1.00  0.00     0.094 A 
ATOM     30  C   UNL     1      25.970   8.552  29.235  1.00  0.00     0.133 A 
ATOM     31  C   UNL     1      27.131   7.346  27.461  1.00  0.00     0.138 A 
ATOM     32  C   UNL     1      26.448   8.510  27.923  1.00  0.00     0.102 A 
ATOM     33  O   UNL     1      27.705   7.299  26.195  1.00  0.00    -0.484 OA
ATOM     34  C   UNL     1      26.328   9.657  26.992  1.00  0.00     0.174 C 
ATOM     35  C   UNL     1      27.518   8.327  25.199  1.00  0.00     0.211 C 
ATOM     36  O   UNL     1      25.497  10.598  27.200  1.00  0.00    -0.294 OA
ATOM     37  C   UNL     1      27.308   9.739  25.836  1.00  0.00     0.131 C 
BRANCH  30  38
ATOM     38  O   UNL     1      25.385   9.710  29.751  1.00  0.00    -0.507 OA
ATOM     39  H   UNL     1      24.481   9.698  30.190  1.00  0.00     0.293 HD
ENDBRANCH  30  38
BRANCH  35  40
ATOM     40  C   UNL     1      26.441   7.871  24.234  1.00  0.00    -0.003 A 
ATOM     41  C   UNL     1      26.046   6.533  24.029  1.00  0.00     0.057 A 
ATOM     42  C   UNL     1      25.696   8.883  23.601  1.00  0.00     0.011 A 
ATOM     43  C   UNL     1      24.925   6.229  23.232  1.00  0.00     0.158 A 
ATOM     44  C   UNL     1      24.614   8.583  22.774  1.00  0.00     0.051 A 
ATOM     45  C   UNL     1      24.192   7.246  22.623  1.00  0.00     0.160 A 
BRANCH  43  46
ATOM     46  O   UNL     1      24.537   4.902  23.012  1.00  0.00    -0.504 OA
ATOM     47  H   UNL     1      23.931   4.374  23.635  1.00  0.00     0.293 HD
ENDBRANCH  43  46
BRANCH  45  48
ATOM     48  O   UNL     1      23.050   6.883  21.889  1.00  0.00    -0.493 OA
ATOM     49  C   UNL     1      22.730   7.411  20.616  1.00  0.00     0.278 C 
ENDBRANCH  45  48
ENDBRANCH  35  40
ENDBRANCH  26  27
ENDBRANCH   5  26
BRANCH   4  50
ATOM     50  O   UNL     1      24.594   2.880  30.152  1.00  0.00    -0.384 OA
ATOM     51  H   UNL     1      24.349   2.262  29.416  1.00  0.00     0.211 HD
ENDBRANCH   4  50
TORSDOF 15
ENDMDL
MODEL 7
REMARK VINA RESULT:    -6.220      2.861      7.138
REMARK INTER + INTRA:         -12.857
REMARK INTER:                 -10.726
REMARK INTRA:                  -2.132
REMARK UNBOUND:                -2.638
REMARK SMILES COc1ccc([C@H]2CC(=O)c3c(O)cc(O[C@H]4O[C@H](CO[C@@H]5O[C@@H](C)[C@@H](O)[C@H](O)[C@H]5O)[C@H](O)[C@@H](O)[C@@H]4O)cc3O2)cc1O
REMARK SMILES IDX 19 1 32 2 34 3 36 4 17 5 18 6 20 7 21 8 22 9 25 10 24 11
REMARK SMILES IDX 26 12 23 13 28 14 30 15 27 16 29 18 31 20 33 22 35 24 16 26
REMARK SMILES IDX 15 27 14 28 38 29 12 30 39 31 11 32 40 33 9 34 7 35 10 36
REMARK SMILES IDX 8 37 13 38 6 40 41 41 5 42 42 43 4 44 3 45 43 46 2 48 1 49
REMARK SMILES IDX 37 50
REMARK H PARENT 27 17 29 19 31 21 33 23 35 25 13 39 43 47 37 51
REMARK Flexibility Score: inf
ROOT
ATOM      1  C   UNL     1      24.506   5.574  24.542  1.00  0.00     0.180 C 
ATOM      2  C   UNL     1      24.567   6.491  23.305  1.00  0.00     0.177 C 
ATOM      3  C   UNL     1      25.924   7.225  23.236  1.00  0.00     0.180 C 
ATOM      4  C   UNL     1      26.293   7.883  24.617  1.00  0.00     0.214 C 
ATOM      5  C   UNL     1      25.937   6.978  25.818  1.00  0.00     0.339 C 
ATOM      6  O   UNL     1      24.667   6.337  25.734  1.00  0.00    -0.332 OA
ENDROOT
BRANCH   1   7
ATOM      7  C   UNL     1      25.454   4.344  24.480  1.00  0.00     0.198 C 
BRANCH   7   8
ATOM      8  O   UNL     1      25.689   3.903  25.784  1.00  0.00    -0.347 OA
BRANCH   8   9
ATOM      9  C   UNL     1      25.472   2.519  26.006  1.00  0.00     0.281 C 
ATOM     10  C   UNL     1      22.906   0.091  24.948  1.00  0.00     0.041 C 
ATOM     11  C   UNL     1      23.681   0.887  26.010  1.00  0.00     0.150 C 
ATOM     12  C   UNL     1      24.699  -0.034  26.724  1.00  0.00     0.174 C 
ATOM     13  O   UNL     1      24.273   2.026  25.379  1.00  0.00    -0.344 OA
ATOM     14  C   UNL     1      25.339   0.748  27.887  1.00  0.00     0.179 C 
ATOM     15  C   UNL     1      25.554   2.238  27.523  1.00  0.00     0.202 C 
BRANCH  12  16
ATOM     16  O   UNL     1      25.710  -0.416  25.841  1.00  0.00    -0.388 OA
ATOM     17  H   UNL     1      26.328   0.357  25.772  1.00  0.00     0.211 HD
ENDBRANCH  12  16
BRANCH  14  18
ATOM     18  O   UNL     1      24.502   0.702  29.027  1.00  0.00    -0.387 OA
ATOM     19  H   UNL     1      23.557   0.658  28.727  1.00  0.00     0.211 HD
ENDBRANCH  14  18
BRANCH  15  20
ATOM     20  O   UNL     1      26.792   2.712  28.022  1.00  0.00    -0.385 OA
ATOM     21  H   UNL     1      26.837   3.691  27.856  1.00  0.00     0.211 HD
ENDBRANCH  15  20
ENDBRANCH   8   9
ENDBRANCH   7   8
ENDBRANCH   1   7
BRANCH   2  22
ATOM     22  O   UNL     1      24.318   5.713  22.156  1.00  0.00    -0.387 OA
ATOM     23  H   UNL     1      23.830   6.300  21.524  1.00  0.00     0.211 HD
ENDBRANCH   2  22
BRANCH   3  24
ATOM     24  O   UNL     1      25.885   8.215  22.249  1.00  0.00    -0.387 OA
ATOM     25  H   UNL     1      25.141   8.829  22.489  1.00  0.00     0.211 HD
ENDBRANCH   3  24
BRANCH   5  26
ATOM     26  O   UNL     1      25.972   7.749  27.027  1.00  0.00    -0.462 OA
BRANCH  26  27
ATOM     27  C   UNL     1      26.258   7.237  28.308  1.00  0.00     0.130 A 
ATOM     28  C   UNL     1      27.571   6.877  28.688  1.00  0.00     0.093 A 
ATOM     29  C   UNL     1      25.215   7.025  29.221  1.00  0.00     0.094 A 
ATOM     30  C   UNL     1      27.811   6.174  29.897  1.00  0.00     0.133 A 
ATOM     31  C   UNL     1      25.433   6.340  30.417  1.00  0.00     0.138 A 
ATOM     32  C   UNL     1      26.741   5.870  30.741  1.00  0.00     0.102 A 
ATOM     33  O   UNL     1      24.359   6.141  31.277  1.00  0.00    -0.484 OA
ATOM     34  C   UNL     1      26.911   5.119  32.008  1.00  0.00     0.174 C 
ATOM     35  C   UNL     1      24.429   5.315  32.458  1.00  0.00     0.211 C 
ATOM     36  O   UNL     1      27.950   4.417  32.230  1.00  0.00    -0.294 OA
ATOM     37  C   UNL     1      25.860   5.300  33.088  1.00  0.00     0.131 C 
BRANCH  30  38
ATOM     38  O   UNL     1      29.118   5.815  30.233  1.00  0.00    -0.507 OA
ATOM     39  H   UNL     1      29.529   6.072  31.114  1.00  0.00     0.293 HD
ENDBRANCH  30  38
BRANCH  35  40
ATOM     40  C   UNL     1      23.838   3.957  32.132  1.00  0.00    -0.003 A 
ATOM     41  C   UNL     1      24.335   2.721  32.597  1.00  0.00     0.057 A 
ATOM     42  C   UNL     1      22.624   3.955  31.422  1.00  0.00     0.011 A 
ATOM     43  C   UNL     1      23.619   1.530  32.372  1.00  0.00     0.158 A 
ATOM     44  C   UNL     1      21.937   2.771  31.157  1.00  0.00     0.051 A 
ATOM     45  C   UNL     1      22.411   1.549  31.676  1.00  0.00     0.160 A 
BRANCH  43  46
ATOM     46  O   UNL     1      24.115   0.298  32.816  1.00  0.00    -0.504 OA
ATOM     47  H   UNL     1      24.150  -0.543  32.245  1.00  0.00     0.293 HD
ENDBRANCH  43  46
BRANCH  45  48
ATOM     48  O   UNL     1      21.716   0.336  31.534  1.00  0.00    -0.493 OA
ATOM     49  C   UNL     1      20.520   0.026  32.224  1.00  0.00     0.278 C 
ENDBRANCH  45  48
ENDBRANCH  35  40
ENDBRANCH  26  27
ENDBRANCH   5  26
BRANCH   4  50
ATOM     50  O   UNL     1      27.644   8.253  24.655  1.00  0.00    -0.384 OA
ATOM     51  H   UNL     1      27.873   8.531  25.579  1.00  0.00     0.211 HD
ENDBRANCH   4  50
TORSDOF 15
ENDMDL
MODEL 8
REMARK VINA RESULT:    -6.165     12.074     15.741
REMARK INTER + INTRA:         -12.767
REMARK INTER:                 -10.490
REMARK INTRA:                  -2.277
REMARK UNBOUND:                -2.638
REMARK SMILES COc1ccc([C@H]2CC(=O)c3c(O)cc(O[C@H]4O[C@H](CO[C@@H]5O[C@@H](C)[C@@H](O)[C@H](O)[C@H]5O)[C@H](O)[C@@H](O)[C@@H]4O)cc3O2)cc1O
REMARK SMILES IDX 19 1 32 2 34 3 36 4 17 5 18 6 20 7 21 8 22 9 25 10 24 11
REMARK SMILES IDX 26 12 23 13 28 14 30 15 27 16 29 18 31 20 33 22 35 24 16 26
REMARK SMILES IDX 15 27 14 28 38 29 12 30 39 31 11 32 40 33 9 34 7 35 10 36
REMARK SMILES IDX 8 37 13 38 6 40 41 41 5 42 42 43 4 44 3 45 43 46 2 48 1 49
REMARK SMILES IDX 37 50
REMARK H PARENT 27 17 29 19 31 21 33 23 35 25 13 39 43 47 37 51
REMARK Flexibility Score: inf
ROOT
ATOM      1  C   UNL     1      11.762  -0.849  29.406  1.00  0.00     0.180 C 
ATOM      2  C   UNL     1      10.968  -2.153  29.196  1.00  0.00     0.177 C 
ATOM      3  C   UNL     1      10.681  -2.841  30.548  1.00  0.00     0.180 C 
ATOM      4  C   UNL     1      11.981  -2.944  31.429  1.00  0.00     0.214 C 
ATOM      5  C   UNL     1      12.851  -1.670  31.353  1.00  0.00     0.339 C 
ATOM      6  O   UNL     1      13.005  -1.122  30.046  1.00  0.00    -0.332 OA
ENDROOT
BRANCH   1   7
ATOM      7  C   UNL     1      10.962   0.288  30.102  1.00  0.00     0.198 C 
BRANCH   7   8
ATOM      8  O   UNL     1      11.762   1.432  30.133  1.00  0.00    -0.347 OA
BRANCH   8   9
ATOM      9  C   UNL     1      11.735   2.158  31.352  1.00  0.00     0.281 C 
ATOM     10  C   UNL     1      10.292   1.568  34.694  1.00  0.00     0.041 C 
ATOM     11  C   UNL     1      10.423   2.353  33.379  1.00  0.00     0.150 C 
ATOM     12  C   UNL     1      11.226   3.654  33.618  1.00  0.00     0.174 C 
ATOM     13  O   UNL     1      10.995   1.492  32.392  1.00  0.00    -0.344 OA
ATOM     14  C   UNL     1      11.198   4.494  32.326  1.00  0.00     0.179 C 
ATOM     15  C   UNL     1      11.260   3.600  31.063  1.00  0.00     0.202 C 
BRANCH  12  16
ATOM     16  O   UNL     1      12.555   3.355  33.919  1.00  0.00    -0.388 OA
ATOM     17  H   UNL     1      13.097   3.694  33.162  1.00  0.00     0.211 HD
ENDBRANCH  12  16
BRANCH  14  18
ATOM     18  O   UNL     1      10.003   5.248  32.258  1.00  0.00    -0.387 OA
ATOM     19  H   UNL     1      10.234   6.213  32.284  1.00  0.00     0.211 HD
ENDBRANCH  14  18
BRANCH  15  20
ATOM     20  O   UNL     1      12.089   4.177  30.070  1.00  0.00    -0.385 OA
ATOM     21  H   UNL     1      12.376   5.074  30.389  1.00  0.00     0.211 HD
ENDBRANCH  15  20
ENDBRANCH   8   9
ENDBRANCH   7   8
ENDBRANCH   1   7
BRANCH   2  22
ATOM     22  O   UNL     1       9.788  -1.851  28.485  1.00  0.00    -0.387 OA
ATOM     23  H   UNL     1       9.703  -2.545  27.783  1.00  0.00     0.211 HD
ENDBRANCH   2  22
BRANCH   3  24
ATOM     24  O   UNL     1      10.165  -4.124  30.334  1.00  0.00    -0.387 OA
ATOM     25  H   UNL     1      10.784  -4.579  29.705  1.00  0.00     0.211 HD
ENDBRANCH   3  24
BRANCH   5  26
ATOM     26  O   UNL     1      14.155  -1.946  31.881  1.00  0.00    -0.462 OA
BRANCH  26  27
ATOM     27  C   UNL     1      14.734  -1.302  32.992  1.00  0.00     0.130 A 
ATOM     28  C   UNL     1      13.994  -0.412  33.804  1.00  0.00     0.093 A 
ATOM     29  C   UNL     1      16.092  -1.498  33.280  1.00  0.00     0.094 A 
ATOM     30  C   UNL     1      14.639   0.384  34.786  1.00  0.00     0.133 A 
ATOM     31  C   UNL     1      16.742  -0.728  34.245  1.00  0.00     0.138 A 
ATOM     32  C   UNL     1      16.016   0.257  34.980  1.00  0.00     0.102 A 
ATOM     33  O   UNL     1      18.095  -0.952  34.478  1.00  0.00    -0.484 OA
ATOM     34  C   UNL     1      16.761   1.069  35.971  1.00  0.00     0.174 C 
ATOM     35  C   UNL     1      18.903  -0.116  35.332  1.00  0.00     0.211 C 
ATOM     36  O   UNL     1      16.278   2.148  36.443  1.00  0.00    -0.294 OA
ATOM     37  C   UNL     1      18.075   0.520  36.495  1.00  0.00     0.131 C 
BRANCH  30  38
ATOM     38  O   UNL     1      13.881   1.268  35.557  1.00  0.00    -0.507 OA
ATOM     39  H   UNL     1      13.258   0.944  36.276  1.00  0.00     0.293 HD
ENDBRANCH  30  38
BRANCH  35  40
ATOM     40  C   UNL     1      19.676   0.858  34.463  1.00  0.00    -0.003 A 
ATOM     41  C   UNL     1      19.835   2.233  34.727  1.00  0.00     0.057 A 
ATOM     42  C   UNL     1      20.394   0.305  33.386  1.00  0.00     0.011 A 
ATOM     43  C   UNL     1      20.706   3.018  33.947  1.00  0.00     0.158 A 
ATOM     44  C   UNL     1      21.220   1.089  32.583  1.00  0.00     0.051 A 
ATOM     45  C   UNL     1      21.418   2.451  32.892  1.00  0.00     0.160 A 
BRANCH  43  46
ATOM     46  O   UNL     1      20.856   4.388  34.195  1.00  0.00    -0.504 OA
ATOM     47  H   UNL     1      21.755   4.854  34.294  1.00  0.00     0.293 HD
ENDBRANCH  43  46
BRANCH  45  48
ATOM     48  O   UNL     1      22.315   3.272  32.188  1.00  0.00    -0.493 OA
ATOM     49  C   UNL     1      23.718   3.242  32.364  1.00  0.00     0.278 C 
ENDBRANCH  45  48
ENDBRANCH  35  40
ENDBRANCH  26  27
ENDBRANCH   5  26
BRANCH   4  50
ATOM     50  O   UNL     1      11.667  -3.255  32.758  1.00  0.00    -0.384 OA
ATOM     51  H   UNL     1      10.681  -3.285  32.856  1.00  0.00     0.211 HD
ENDBRANCH   4  50
TORSDOF 15
ENDMDL
MODEL 9
REMARK VINA RESULT:    -6.093      2.429      7.082
REMARK INTER + INTRA:         -12.648
REMARK INTER:                  -9.900
REMARK INTRA:                  -2.748
REMARK UNBOUND:                -2.638
REMARK SMILES COc1ccc([C@H]2CC(=O)c3c(O)cc(O[C@H]4O[C@H](CO[C@@H]5O[C@@H](C)[C@@H](O)[C@H](O)[C@H]5O)[C@H](O)[C@@H](O)[C@@H]4O)cc3O2)cc1O
REMARK SMILES IDX 19 1 32 2 34 3 36 4 17 5 18 6 20 7 21 8 22 9 25 10 24 11
REMARK SMILES IDX 26 12 23 13 28 14 30 15 27 16 29 18 31 20 33 22 35 24 16 26
REMARK SMILES IDX 15 27 14 28 38 29 12 30 39 31 11 32 40 33 9 34 7 35 10 36
REMARK SMILES IDX 8 37 13 38 6 40 41 41 5 42 42 43 4 44 3 45 43 46 2 48 1 49
REMARK SMILES IDX 37 50
REMARK H PARENT 27 17 29 19 31 21 33 23 35 25 13 39 43 47 37 51
REMARK Flexibility Score: inf
ROOT
ATOM      1  C   UNL     1      23.119   3.559  22.714  1.00  0.00     0.180 C 
ATOM      2  C   UNL     1      23.493   3.426  21.225  1.00  0.00     0.177 C 
ATOM      3  C   UNL     1      25.026   3.447  21.043  1.00  0.00     0.180 C 
ATOM      4  C   UNL     1      25.682   4.643  21.828  1.00  0.00     0.214 C 
ATOM      5  C   UNL     1      25.042   4.862  23.216  1.00  0.00     0.339 C 
ATOM      6  O   UNL     1      23.619   4.784  23.244  1.00  0.00    -0.332 OA
ENDROOT
BRANCH   1   7
ATOM      7  C   UNL     1      23.491   2.328  23.585  1.00  0.00     0.198 C 
BRANCH   7   8
ATOM      8  O   UNL     1      22.918   2.493  24.848  1.00  0.00    -0.347 OA
BRANCH   8   9
ATOM      9  C   UNL     1      23.616   1.874  25.917  1.00  0.00     0.281 C 
ATOM     10  C   UNL     1      26.242   2.951  28.272  1.00  0.00     0.041 C 
ATOM     11  C   UNL     1      25.697   2.061  27.143  1.00  0.00     0.150 C 
ATOM     12  C   UNL     1      25.345   0.660  27.697  1.00  0.00     0.174 C 
ATOM     13  O   UNL     1      24.597   2.734  26.526  1.00  0.00    -0.344 OA
ATOM     14  C   UNL     1      24.960  -0.253  26.518  1.00  0.00     0.179 C 
ATOM     15  C   UNL     1      24.180   0.521  25.427  1.00  0.00     0.202 C 
BRANCH  12  16
ATOM     16  O   UNL     1      24.254   0.743  28.564  1.00  0.00    -0.388 OA
ATOM     17  H   UNL     1      24.457   1.475  29.201  1.00  0.00     0.211 HD
ENDBRANCH  12  16
BRANCH  14  18
ATOM     18  O   UNL     1      26.122  -0.789  25.914  1.00  0.00    -0.387 OA
ATOM     19  H   UNL     1      25.847  -1.450  25.226  1.00  0.00     0.211 HD
ENDBRANCH  14  18
BRANCH  15  20
ATOM     20  O   UNL     1      23.124  -0.264  24.901  1.00  0.00    -0.385 OA
ATOM     21  H   UNL     1      23.328  -0.456  23.946  1.00  0.00     0.211 HD
ENDBRANCH  15  20
ENDBRANCH   8   9
ENDBRANCH   7   8
ENDBRANCH   1   7
BRANCH   2  22
ATOM     22  O   UNL     1      22.907   2.248  20.719  1.00  0.00    -0.387 OA
ATOM     23  H   UNL     1      23.232   2.155  19.787  1.00  0.00     0.211 HD
ENDBRANCH   2  22
BRANCH   3  24
ATOM     24  O   UNL     1      25.347   3.554  19.686  1.00  0.00    -0.387 OA
ATOM     25  H   UNL     1      26.005   4.294  19.605  1.00  0.00     0.211 HD
ENDBRANCH   3  24
BRANCH   5  26
ATOM     26  O   UNL     1      25.430   6.145  23.727  1.00  0.00    -0.462 OA
BRANCH  26  27
ATOM     27  C   UNL     1      25.877   6.395  25.040  1.00  0.00     0.130 A 
ATOM     28  C   UNL     1      27.252   6.401  25.369  1.00  0.00     0.093 A 
ATOM     29  C   UNL     1      24.942   6.592  26.066  1.00  0.00     0.094 A 
ATOM     30  C   UNL     1      27.676   6.446  26.722  1.00  0.00     0.133 A 
ATOM     31  C   UNL     1      25.341   6.644  27.403  1.00  0.00     0.138 A 
ATOM     32  C   UNL     1      26.723   6.527  27.740  1.00  0.00     0.102 A 
ATOM     33  O   UNL     1      24.371   6.823  28.382  1.00  0.00    -0.484 OA
ATOM     34  C   UNL     1      27.089   6.555  29.176  1.00  0.00     0.174 C 
ATOM     35  C   UNL     1      24.643   6.734  29.796  1.00  0.00     0.211 C 
ATOM     36  O   UNL     1      28.231   6.164  29.578  1.00  0.00    -0.294 OA
ATOM     37  C   UNL     1      26.101   7.173  30.149  1.00  0.00     0.131 C 
BRANCH  30  38
ATOM     38  O   UNL     1      29.041   6.429  27.013  1.00  0.00    -0.507 OA
ATOM     39  H   UNL     1      29.472   5.658  27.492  1.00  0.00     0.293 HD
ENDBRANCH  30  38
BRANCH  35  40
ATOM     40  C   UNL     1      24.233   5.356  30.280  1.00  0.00    -0.003 A 
ATOM     41  C   UNL     1      24.674   4.750  31.475  1.00  0.00     0.057 A 
ATOM     42  C   UNL     1      23.234   4.701  29.538  1.00  0.00     0.011 A 
ATOM     43  C   UNL     1      24.110   3.537  31.915  1.00  0.00     0.158 A 
ATOM     44  C   UNL     1      22.707   3.476  29.946  1.00  0.00     0.051 A 
ATOM     45  C   UNL     1      23.112   2.909  31.172  1.00  0.00     0.160 A 
BRANCH  43  46
ATOM     46  O   UNL     1      24.554   2.923  33.092  1.00  0.00    -0.504 OA
ATOM     47  H   UNL     1      24.233   2.014  33.418  1.00  0.00     0.293 HD
ENDBRANCH  43  46
BRANCH  45  48
ATOM     48  O   UNL     1      22.548   1.732  31.693  1.00  0.00    -0.493 OA
ATOM     49  C   UNL     1      21.555   0.972  31.031  1.00  0.00     0.278 C 
ENDBRANCH  45  48
ENDBRANCH  35  40
ENDBRANCH  26  27
ENDBRANCH   5  26
BRANCH   4  50
ATOM     50  O   UNL     1      27.068   4.474  21.939  1.00  0.00    -0.384 OA
ATOM     51  H   UNL     1      27.484   4.653  21.057  1.00  0.00     0.211 HD
ENDBRANCH   4  50
TORSDOF 15
ENDMDL
