MODEL 1
REMARK VINA RESULT:    -5.810      0.000      0.000
REMARK INTER + INTRA:          -7.316
REMARK INTER:                  -6.999
REMARK INTRA:                  -0.317
REMARK UNBOUND:                -0.317
REMARK SMILES O=c1c(O)c(-c2ccc(O)c(O)c2)oc2cc(O)cc(O)c12
REMARK SMILES IDX 5 1 3 2 2 3 1 4 22 5 20 6 19 7 17 8 16 9 15 10 14 11 6 12
REMARK SMILES IDX 7 13 8 14 9 15 13 16 11 17 10 18 12 20 4 22 21 24 18 26
REMARK H PARENT 10 19 12 21 4 23 21 25 18 27
REMARK Flexibility Score: inf
ROOT
ATOM      1  C   UNL     1     -10.372  -5.688  -6.811  1.00  0.00     0.180 A 
ATOM      2  C   UNL     1     -10.853  -4.420  -6.443  1.00  0.00     0.208 A 
ATOM      3  C   UNL     1     -12.091  -4.325  -5.788  1.00  0.00     0.238 A 
ATOM      4  O   UNL     1     -12.543  -3.184  -5.510  1.00  0.00    -0.285 OA
ATOM      5  C   UNL     1     -12.824  -5.500  -5.494  1.00  0.00     0.111 A 
ATOM      6  C   UNL     1     -14.070  -5.525  -4.798  1.00  0.00     0.134 A 
ATOM      7  C   UNL     1     -14.770  -6.732  -4.678  1.00  0.00     0.093 A 
ATOM      8  C   UNL     1     -14.238  -7.926  -5.171  1.00  0.00     0.123 A 
ATOM      9  C   UNL     1     -12.994  -7.922  -5.799  1.00  0.00     0.094 A 
ATOM     10  C   UNL     1     -12.289  -6.726  -5.966  1.00  0.00     0.146 A 
ATOM     11  O   UNL     1     -11.113  -6.765  -6.581  1.00  0.00    -0.452 OA
ENDROOT
BRANCH   1  12
ATOM     12  C   UNL     1      -9.064  -5.870  -7.483  1.00  0.00     0.025 A 
ATOM     13  C   UNL     1      -7.863  -5.883  -6.754  1.00  0.00     0.016 A 
ATOM     14  C   UNL     1      -6.643  -6.081  -7.406  1.00  0.00     0.051 A 
ATOM     15  C   UNL     1      -6.606  -6.281  -8.791  1.00  0.00     0.157 A 
ATOM     16  C   UNL     1      -9.024  -6.092  -8.869  1.00  0.00     0.062 A 
ATOM     17  C   UNL     1      -7.804  -6.289  -9.526  1.00  0.00     0.158 A 
BRANCH  15  18
ATOM     18  O   UNL     1      -5.388  -6.476  -9.440  1.00  0.00    -0.504 OA
ATOM     19  H   UNL     1      -4.523  -6.097  -9.070  1.00  0.00     0.293 HD
ENDBRANCH  15  18
BRANCH  17  20
ATOM     20  O   UNL     1      -7.802  -6.494 -10.906  1.00  0.00    -0.504 OA
ATOM     21  H   UNL     1      -8.504  -6.085 -11.511  1.00  0.00     0.293 HD
ENDBRANCH  17  20
ENDBRANCH   1  12
BRANCH   2  22
ATOM     22  O   UNL     1     -10.124  -3.271  -6.763  1.00  0.00    -0.502 OA
ATOM     23  H   UNL     1      -9.163  -3.138  -6.470  1.00  0.00     0.293 HD
ENDBRANCH   2  22
BRANCH   6  24
ATOM     24  O   UNL     1     -14.646  -4.407  -4.187  1.00  0.00    -0.507 OA
ATOM     25  H   UNL     1     -14.132  -3.604  -3.858  1.00  0.00     0.293 HD
ENDBRANCH   6  24
BRANCH   8  26
ATOM     26  O   UNL     1     -14.932  -9.125  -5.033  1.00  0.00    -0.508 OA
ATOM     27  H   UNL     1     -14.921  -9.831  -5.761  1.00  0.00     0.293 HD
ENDBRANCH   8  26
TORSDOF 6
ENDMDL
MODEL 2
REMARK VINA RESULT:    -5.658      1.646      3.300
REMARK INTER + INTRA:          -7.133
REMARK INTER:                  -6.877
REMARK INTRA:                  -0.256
REMARK UNBOUND:                -0.317
REMARK SMILES O=c1c(O)c(-c2ccc(O)c(O)c2)oc2cc(O)cc(O)c12
REMARK SMILES IDX 5 1 3 2 2 3 1 4 22 5 20 6 19 7 17 8 16 9 15 10 14 11 6 12
REMARK SMILES IDX 7 13 8 14 9 15 13 16 11 17 10 18 12 20 4 22 21 24 18 26
REMARK H PARENT 10 19 12 21 4 23 21 25 18 27
REMARK Flexibility Score: inf
ROOT
ATOM      1  C   UNL     1     -11.840  -6.039  -6.031  1.00  0.00     0.180 A 
ATOM      2  C   UNL     1     -12.405  -7.259  -5.622  1.00  0.00     0.208 A 
ATOM      3  C   UNL     1     -13.750  -7.286  -5.219  1.00  0.00     0.238 A 
ATOM      4  O   UNL     1     -14.235  -8.370  -4.802  1.00  0.00    -0.285 OA
ATOM      5  C   UNL     1     -14.517  -6.097  -5.245  1.00  0.00     0.111 A 
ATOM      6  C   UNL     1     -15.899  -6.016  -4.897  1.00  0.00     0.134 A 
ATOM      7  C   UNL     1     -16.523  -4.764  -4.833  1.00  0.00     0.093 A 
ATOM      8  C   UNL     1     -15.832  -3.597  -5.169  1.00  0.00     0.123 A 
ATOM      9  C   UNL     1     -14.499  -3.672  -5.568  1.00  0.00     0.094 A 
ATOM     10  C   UNL     1     -13.840  -4.903  -5.606  1.00  0.00     0.146 A 
ATOM     11  O   UNL     1     -12.566  -4.929  -5.981  1.00  0.00    -0.452 OA
ENDROOT
BRANCH   1  12
ATOM     12  C   UNL     1     -10.437  -5.936  -6.493  1.00  0.00     0.025 A 
ATOM     13  C   UNL     1      -9.363  -6.002  -5.589  1.00  0.00     0.016 A 
ATOM     14  C   UNL     1      -8.046  -5.927  -6.051  1.00  0.00     0.051 A 
ATOM     15  C   UNL     1      -7.783  -5.799  -7.419  1.00  0.00     0.157 A 
ATOM     16  C   UNL     1     -10.167  -5.829  -7.867  1.00  0.00     0.062 A 
ATOM     17  C   UNL     1      -8.850  -5.753  -8.332  1.00  0.00     0.158 A 
BRANCH  15  18
ATOM     18  O   UNL     1      -6.468  -5.722  -7.877  1.00  0.00    -0.504 OA
ATOM     19  H   UNL     1      -5.765  -5.184  -7.383  1.00  0.00     0.293 HD
ENDBRANCH  15  18
BRANCH  17  20
ATOM     20  O   UNL     1      -8.621  -5.634  -9.703  1.00  0.00    -0.504 OA
ATOM     21  H   UNL     1      -9.101  -4.947 -10.271  1.00  0.00     0.293 HD
ENDBRANCH  17  20
ENDBRANCH   1  12
BRANCH   2  22
ATOM     22  O   UNL     1     -11.624  -8.418  -5.583  1.00  0.00    -0.502 OA
ATOM     23  H   UNL     1     -11.752  -9.137  -4.881  1.00  0.00     0.293 HD
ENDBRANCH   2  22
BRANCH   6  24
ATOM     24  O   UNL     1     -16.704  -7.128  -4.632  1.00  0.00    -0.507 OA
ATOM     25  H   UNL     1     -17.154  -7.691  -5.337  1.00  0.00     0.293 HD
ENDBRANCH   6  24
BRANCH   8  26
ATOM     26  O   UNL     1     -16.464  -2.357  -5.119  1.00  0.00    -0.508 OA
ATOM     27  H   UNL     1     -16.328  -1.662  -5.844  1.00  0.00     0.293 HD
ENDBRANCH   8  26
TORSDOF 6
ENDMDL
MODEL 3
REMARK VINA RESULT:    -5.598      2.797      5.252
REMARK INTER + INTRA:          -7.060
REMARK INTER:                  -6.786
REMARK INTRA:                  -0.274
REMARK UNBOUND:                -0.317
REMARK SMILES O=c1c(O)c(-c2ccc(O)c(O)c2)oc2cc(O)cc(O)c12
REMARK SMILES IDX 5 1 3 2 2 3 1 4 22 5 20 6 19 7 17 8 16 9 15 10 14 11 6 12
REMARK SMILES IDX 7 13 8 14 9 15 13 16 11 17 10 18 12 20 4 22 21 24 18 26
REMARK H PARENT 10 19 12 21 4 23 21 25 18 27
REMARK Flexibility Score: inf
ROOT
ATOM      1  C   UNL     1     -14.528  -6.762  -5.397  1.00  0.00     0.180 A 
ATOM      2  C   UNL     1     -15.329  -7.295  -6.420  1.00  0.00     0.208 A 
ATOM      3  C   UNL     1     -16.518  -7.960  -6.078  1.00  0.00     0.238 A 
ATOM      4  O   UNL     1     -17.204  -8.483  -6.995  1.00  0.00    -0.285 OA
ATOM      5  C   UNL     1     -16.898  -8.068  -4.719  1.00  0.00     0.111 A 
ATOM      6  C   UNL     1     -18.101  -8.684  -4.260  1.00  0.00     0.134 A 
ATOM      7  C   UNL     1     -18.311  -8.851  -2.886  1.00  0.00     0.093 A 
ATOM      8  C   UNL     1     -17.393  -8.364  -1.952  1.00  0.00     0.123 A 
ATOM      9  C   UNL     1     -16.244  -7.708  -2.389  1.00  0.00     0.094 A 
ATOM     10  C   UNL     1     -15.989  -7.559  -3.755  1.00  0.00     0.146 A 
ATOM     11  O   UNL     1     -14.877  -6.938  -4.128  1.00  0.00    -0.452 OA
ENDROOT
BRANCH   1  12
ATOM     12  C   UNL     1     -13.273  -6.027  -5.681  1.00  0.00     0.025 A 
ATOM     13  C   UNL     1     -13.208  -4.626  -5.582  1.00  0.00     0.016 A 
ATOM     14  C   UNL     1     -12.007  -3.957  -5.831  1.00  0.00     0.051 A 
ATOM     15  C   UNL     1     -10.853  -4.675  -6.168  1.00  0.00     0.157 A 
ATOM     16  C   UNL     1     -12.109  -6.744  -5.998  1.00  0.00     0.062 A 
ATOM     17  C   UNL     1     -10.904  -6.076  -6.249  1.00  0.00     0.158 A 
BRANCH  15  18
ATOM     18  O   UNL     1      -9.657  -4.003  -6.417  1.00  0.00    -0.504 OA
ATOM     19  H   UNL     1      -9.089  -3.633  -5.664  1.00  0.00     0.293 HD
ENDBRANCH  15  18
BRANCH  17  20
ATOM     20  O   UNL     1      -9.771  -6.821  -6.575  1.00  0.00    -0.504 OA
ATOM     21  H   UNL     1      -8.927  -6.389  -6.930  1.00  0.00     0.293 HD
ENDBRANCH  17  20
ENDBRANCH   1  12
BRANCH   2  22
ATOM     22  O   UNL     1     -14.925  -7.196  -7.755  1.00  0.00    -0.502 OA
ATOM     23  H   UNL     1     -15.584  -7.192  -8.524  1.00  0.00     0.293 HD
ENDBRANCH   2  22
BRANCH   6  24
ATOM     24  O   UNL     1     -19.125  -9.123  -5.105  1.00  0.00    -0.507 OA
ATOM     25  H   UNL     1     -19.328 -10.090  -5.307  1.00  0.00     0.293 HD
ENDBRANCH   6  24
BRANCH   8  26
ATOM     26  O   UNL     1     -17.617  -8.520  -0.587  1.00  0.00    -0.508 OA
ATOM     27  H   UNL     1     -18.554  -8.537  -0.202  1.00  0.00     0.293 HD
ENDBRANCH   8  26
TORSDOF 6
ENDMDL
MODEL 4
REMARK VINA RESULT:    -5.557      1.546      2.131
REMARK INTER + INTRA:          -7.012
REMARK INTER:                  -6.679
REMARK INTRA:                  -0.333
REMARK UNBOUND:                -0.317
REMARK SMILES O=c1c(O)c(-c2ccc(O)c(O)c2)oc2cc(O)cc(O)c12
REMARK SMILES IDX 5 1 3 2 2 3 1 4 22 5 20 6 19 7 17 8 16 9 15 10 14 11 6 12
REMARK SMILES IDX 7 13 8 14 9 15 13 16 11 17 10 18 12 20 4 22 21 24 18 26
REMARK H PARENT 10 19 12 21 4 23 21 25 18 27
REMARK Flexibility Score: inf
ROOT
ATOM      1  C   UNL     1     -12.137  -5.676  -5.982  1.00  0.00     0.180 A 
ATOM      2  C   UNL     1     -12.696  -4.436  -5.632  1.00  0.00     0.208 A 
ATOM      3  C   UNL     1     -14.066  -4.367  -5.332  1.00  0.00     0.238 A 
ATOM      4  O   UNL     1     -14.573  -3.244  -5.072  1.00  0.00    -0.285 OA
ATOM      5  C   UNL     1     -14.856  -5.541  -5.371  1.00  0.00     0.111 A 
ATOM      6  C   UNL     1     -16.245  -5.595  -5.047  1.00  0.00     0.134 A 
ATOM      7  C   UNL     1     -16.955  -6.785  -5.246  1.00  0.00     0.093 A 
ATOM      8  C   UNL     1     -16.312  -7.941  -5.696  1.00  0.00     0.123 A 
ATOM      9  C   UNL     1     -14.944  -7.914  -5.958  1.00  0.00     0.094 A 
ATOM     10  C   UNL     1     -14.216  -6.731  -5.803  1.00  0.00     0.146 A 
ATOM     11  O   UNL     1     -12.917  -6.747  -6.074  1.00  0.00    -0.452 OA
ENDROOT
BRANCH   1  12
ATOM     12  C   UNL     1     -10.696  -5.833  -6.288  1.00  0.00     0.025 A 
ATOM     13  C   UNL     1      -9.762  -6.121  -5.278  1.00  0.00     0.016 A 
ATOM     14  C   UNL     1      -8.410  -6.288  -5.593  1.00  0.00     0.051 A 
ATOM     15  C   UNL     1      -7.976  -6.184  -6.920  1.00  0.00     0.157 A 
ATOM     16  C   UNL     1     -10.259  -5.751  -7.619  1.00  0.00     0.062 A 
ATOM     17  C   UNL     1      -8.906  -5.918  -7.939  1.00  0.00     0.158 A 
BRANCH  15  18
ATOM     18  O   UNL     1      -6.627  -6.350  -7.231  1.00  0.00    -0.504 OA
ATOM     19  H   UNL     1      -5.921  -6.428  -6.508  1.00  0.00     0.293 HD
ENDBRANCH  15  18
BRANCH  17  20
ATOM     20  O   UNL     1      -8.506  -5.816  -9.271  1.00  0.00    -0.504 OA
ATOM     21  H   UNL     1      -7.553  -5.993  -9.562  1.00  0.00     0.293 HD
ENDBRANCH  17  20
ENDBRANCH   1  12
BRANCH   2  22
ATOM     22  O   UNL     1     -11.903  -3.285  -5.620  1.00  0.00    -0.502 OA
ATOM     23  H   UNL     1     -12.297  -2.354  -5.544  1.00  0.00     0.293 HD
ENDBRANCH   2  22
BRANCH   6  24
ATOM     24  O   UNL     1     -16.962  -4.524  -4.505  1.00  0.00    -0.507 OA
ATOM     25  H   UNL     1     -17.368  -3.774  -5.044  1.00  0.00     0.293 HD
ENDBRANCH   6  24
BRANCH   8  26
ATOM     26  O   UNL     1     -17.022  -9.125  -5.877  1.00  0.00    -0.508 OA
ATOM     27  H   UNL     1     -16.566 -10.029  -5.833  1.00  0.00     0.293 HD
ENDBRANCH   8  26
TORSDOF 6
ENDMDL
MODEL 5
REMARK VINA RESULT:    -5.556      2.556      4.305
REMARK INTER + INTRA:          -7.010
REMARK INTER:                  -6.755
REMARK INTRA:                  -0.255
REMARK UNBOUND:                -0.317
REMARK SMILES O=c1c(O)c(-c2ccc(O)c(O)c2)oc2cc(O)cc(O)c12
REMARK SMILES IDX 5 1 3 2 2 3 1 4 22 5 20 6 19 7 17 8 16 9 15 10 14 11 6 12
REMARK SMILES IDX 7 13 8 14 9 15 13 16 11 17 10 18 12 20 4 22 21 24 18 26
REMARK H PARENT 10 19 12 21 4 23 21 25 18 27
REMARK Flexibility Score: inf
ROOT
ATOM      1  C   UNL     1     -13.844  -6.100  -5.776  1.00  0.00     0.180 A 
ATOM      2  C   UNL     1     -14.646  -5.512  -4.784  1.00  0.00     0.208 A 
ATOM      3  C   UNL     1     -16.019  -5.806  -4.755  1.00  0.00     0.238 A 
ATOM      4  O   UNL     1     -16.742  -5.234  -3.898  1.00  0.00    -0.285 OA
ATOM      5  C   UNL     1     -16.569  -6.697  -5.707  1.00  0.00     0.111 A 
ATOM      6  C   UNL     1     -17.938  -7.098  -5.746  1.00  0.00     0.134 A 
ATOM      7  C   UNL     1     -18.398  -7.881  -6.812  1.00  0.00     0.093 A 
ATOM      8  C   UNL     1     -17.525  -8.332  -7.805  1.00  0.00     0.123 A 
ATOM      9  C   UNL     1     -16.174  -7.996  -7.743  1.00  0.00     0.094 A 
ATOM     10  C   UNL     1     -15.693  -7.185  -6.711  1.00  0.00     0.146 A 
ATOM     11  O   UNL     1     -14.401  -6.879  -6.696  1.00  0.00    -0.452 OA
ENDROOT
BRANCH   1  12
ATOM     12  C   UNL     1     -12.385  -5.857  -5.856  1.00  0.00     0.025 A 
ATOM     13  C   UNL     1     -11.458  -6.847  -5.488  1.00  0.00     0.016 A 
ATOM     14  C   UNL     1     -10.086  -6.603  -5.595  1.00  0.00     0.051 A 
ATOM     15  C   UNL     1      -9.621  -5.377  -6.083  1.00  0.00     0.157 A 
ATOM     16  C   UNL     1     -11.915  -4.636  -6.366  1.00  0.00     0.062 A 
ATOM     17  C   UNL     1     -10.541  -4.389  -6.474  1.00  0.00     0.158 A 
BRANCH  15  18
ATOM     18  O   UNL     1      -8.252  -5.136  -6.187  1.00  0.00    -0.504 OA
ATOM     19  H   UNL     1      -7.828  -4.850  -7.063  1.00  0.00     0.293 HD
ENDBRANCH  15  18
BRANCH  17  20
ATOM     20  O   UNL     1     -10.110  -3.159  -6.971  1.00  0.00    -0.504 OA
ATOM     21  H   UNL     1      -9.168  -3.017  -7.312  1.00  0.00     0.293 HD
ENDBRANCH  17  20
ENDBRANCH   1  12
BRANCH   2  22
ATOM     22  O   UNL     1     -14.087  -4.617  -3.866  1.00  0.00    -0.502 OA
ATOM     23  H   UNL     1     -13.124  -4.684  -3.560  1.00  0.00     0.293 HD
ENDBRANCH   2  22
BRANCH   6  24
ATOM     24  O   UNL     1     -18.874  -6.778  -4.758  1.00  0.00    -0.507 OA
ATOM     25  H   UNL     1     -19.650  -6.146  -4.885  1.00  0.00     0.293 HD
ENDBRANCH   6  24
BRANCH   8  26
ATOM     26  O   UNL     1     -17.987  -9.124  -8.853  1.00  0.00    -0.508 OA
ATOM     27  H   UNL     1     -18.955  -9.418  -8.908  1.00  0.00     0.293 HD
ENDBRANCH   8  26
TORSDOF 6
ENDMDL
MODEL 6
REMARK VINA RESULT:    -4.405      2.307      4.361
REMARK INTER + INTRA:          -5.623
REMARK INTER:                  -5.483
REMARK INTRA:                  -0.141
REMARK UNBOUND:                -0.317
REMARK SMILES O=c1c(O)c(-c2ccc(O)c(O)c2)oc2cc(O)cc(O)c12
REMARK SMILES IDX 5 1 3 2 2 3 1 4 22 5 20 6 19 7 17 8 16 9 15 10 14 11 6 12
REMARK SMILES IDX 7 13 8 14 9 15 13 16 11 17 10 18 12 20 4 22 21 24 18 26
REMARK H PARENT 10 19 12 21 4 23 21 25 18 27
REMARK Flexibility Score: inf
ROOT
ATOM      1  C   UNL     1     -13.358  -5.561  -5.331  1.00  0.00     0.180 A 
ATOM      2  C   UNL     1     -14.254  -6.445  -5.957  1.00  0.00     0.208 A 
ATOM      3  C   UNL     1     -15.488  -6.712  -5.343  1.00  0.00     0.238 A 
ATOM      4  O   UNL     1     -16.263  -7.546  -5.880  1.00  0.00    -0.285 OA
ATOM      5  C   UNL     1     -15.818  -6.080  -4.120  1.00  0.00     0.111 A 
ATOM      6  C   UNL     1     -17.056  -6.245  -3.430  1.00  0.00     0.134 A 
ATOM      7  C   UNL     1     -17.223  -5.674  -2.163  1.00  0.00     0.093 A 
ATOM      8  C   UNL     1     -16.220  -4.888  -1.589  1.00  0.00     0.123 A 
ATOM      9  C   UNL     1     -15.030  -4.671  -2.281  1.00  0.00     0.094 A 
ATOM     10  C   UNL     1     -14.821  -5.259  -3.532  1.00  0.00     0.146 A 
ATOM     11  O   UNL     1     -13.669  -5.035  -4.152  1.00  0.00    -0.452 OA
ENDROOT
BRANCH   1  12
ATOM     12  C   UNL     1     -12.049  -5.211  -5.930  1.00  0.00     0.025 A 
ATOM     13  C   UNL     1     -11.744  -3.891  -6.300  1.00  0.00     0.016 A 
ATOM     14  C   UNL     1     -10.493  -3.580  -6.841  1.00  0.00     0.051 A 
ATOM     15  C   UNL     1      -9.526  -4.579  -7.005  1.00  0.00     0.157 A 
ATOM     16  C   UNL     1     -11.069  -6.206  -6.077  1.00  0.00     0.062 A 
ATOM     17  C   UNL     1      -9.815  -5.899  -6.618  1.00  0.00     0.158 A 
BRANCH  15  18
ATOM     18  O   UNL     1      -8.280  -4.267  -7.546  1.00  0.00    -0.504 OA
ATOM     19  H   UNL     1      -7.829  -4.872  -8.224  1.00  0.00     0.293 HD
ENDBRANCH  15  18
BRANCH  17  20
ATOM     20  O   UNL     1      -8.871  -6.916  -6.762  1.00  0.00    -0.504 OA
ATOM     21  H   UNL     1      -7.998  -6.915  -6.249  1.00  0.00     0.293 HD
ENDBRANCH  17  20
ENDBRANCH   1  12
BRANCH   2  22
ATOM     22  O   UNL     1     -13.900  -7.075  -7.153  1.00  0.00    -0.502 OA
ATOM     23  H   UNL     1     -13.237  -7.841  -7.189  1.00  0.00     0.293 HD
ENDBRANCH   2  22
BRANCH   6  24
ATOM     24  O   UNL     1     -18.155  -6.933  -3.952  1.00  0.00    -0.507 OA
ATOM     25  H   UNL     1     -18.193  -7.338  -4.876  1.00  0.00     0.293 HD
ENDBRANCH   6  24
BRANCH   8  26
ATOM     26  O   UNL     1     -16.399  -4.310  -0.335  1.00  0.00    -0.508 OA
ATOM     27  H   UNL     1     -17.220  -3.757  -0.119  1.00  0.00     0.293 HD
ENDBRANCH   8  26
TORSDOF 6
ENDMDL
MODEL 7
REMARK VINA RESULT:    -3.832      1.590      6.940
REMARK INTER + INTRA:          -4.934
REMARK INTER:                  -4.654
REMARK INTRA:                  -0.279
REMARK UNBOUND:                -0.317
REMARK SMILES O=c1c(O)c(-c2ccc(O)c(O)c2)oc2cc(O)cc(O)c12
REMARK SMILES IDX 5 1 3 2 2 3 1 4 22 5 20 6 19 7 17 8 16 9 15 10 14 11 6 12
REMARK SMILES IDX 7 13 8 14 9 15 13 16 11 17 10 18 12 20 4 22 21 24 18 26
REMARK H PARENT 10 19 12 21 4 23 21 25 18 27
REMARK Flexibility Score: inf
ROOT
ATOM      1  C   UNL     1      -9.960  -5.672  -6.946  1.00  0.00     0.180 A 
ATOM      2  C   UNL     1      -8.947  -5.078  -6.174  1.00  0.00     0.208 A 
ATOM      3  C   UNL     1      -7.672  -4.909  -6.736  1.00  0.00     0.238 A 
ATOM      4  O   UNL     1      -6.755  -4.427  -6.022  1.00  0.00    -0.285 OA
ATOM      5  C   UNL     1      -7.429  -5.320  -8.069  1.00  0.00     0.111 A 
ATOM      6  C   UNL     1      -6.187  -5.160  -8.753  1.00  0.00     0.134 A 
ATOM      7  C   UNL     1      -6.022  -5.722 -10.025  1.00  0.00     0.093 A 
ATOM      8  C   UNL     1      -7.075  -6.382 -10.664  1.00  0.00     0.123 A 
ATOM      9  C   UNL     1      -8.311  -6.491 -10.028  1.00  0.00     0.094 A 
ATOM     10  C   UNL     1      -8.494  -5.972  -8.744  1.00  0.00     0.146 A 
ATOM     11  O   UNL     1      -9.683  -6.107  -8.170  1.00  0.00    -0.452 OA
ENDROOT
BRANCH   1  12
ATOM     12  C   UNL     1     -11.335  -5.861  -6.431  1.00  0.00     0.025 A 
ATOM     13  C   UNL     1     -11.774  -7.111  -5.961  1.00  0.00     0.016 A 
ATOM     14  C   UNL     1     -13.069  -7.260  -5.457  1.00  0.00     0.051 A 
ATOM     15  C   UNL     1     -13.937  -6.163  -5.401  1.00  0.00     0.157 A 
ATOM     16  C   UNL     1     -12.202  -4.759  -6.354  1.00  0.00     0.062 A 
ATOM     17  C   UNL     1     -13.500  -4.906  -5.849  1.00  0.00     0.158 A 
BRANCH  15  18
ATOM     18  O   UNL     1     -15.229  -6.316  -4.900  1.00  0.00    -0.504 OA
ATOM     19  H   UNL     1     -15.398  -6.509  -3.919  1.00  0.00     0.293 HD
ENDBRANCH  15  18
BRANCH  17  20
ATOM     20  O   UNL     1     -14.338  -3.791  -5.801  1.00  0.00    -0.504 OA
ATOM     21  H   UNL     1     -14.061  -2.930  -5.347  1.00  0.00     0.293 HD
ENDBRANCH  17  20
ENDBRANCH   1  12
BRANCH   2  22
ATOM     22  O   UNL     1      -9.201  -4.699  -4.852  1.00  0.00    -0.502 OA
ATOM     23  H   UNL     1      -8.892  -3.812  -4.472  1.00  0.00     0.293 HD
ENDBRANCH   2  22
BRANCH   6  24
ATOM     24  O   UNL     1      -5.102  -4.441  -8.244  1.00  0.00    -0.507 OA
ATOM     25  H   UNL     1      -4.559  -3.773  -8.769  1.00  0.00     0.293 HD
ENDBRANCH   6  24
BRANCH   8  26
ATOM     26  O   UNL     1      -6.908  -6.924 -11.935  1.00  0.00    -0.508 OA
ATOM     27  H   UNL     1      -6.093  -7.478 -12.173  1.00  0.00     0.293 HD
ENDBRANCH   8  26
TORSDOF 6
ENDMDL
MODEL 8
REMARK VINA RESULT:    -3.398      2.910      5.121
REMARK INTER + INTRA:          -4.410
REMARK INTER:                  -4.248
REMARK INTRA:                  -0.162
REMARK UNBOUND:                -0.317
REMARK SMILES O=c1c(O)c(-c2ccc(O)c(O)c2)oc2cc(O)cc(O)c12
REMARK SMILES IDX 5 1 3 2 2 3 1 4 22 5 20 6 19 7 17 8 16 9 15 10 14 11 6 12
REMARK SMILES IDX 7 13 8 14 9 15 13 16 11 17 10 18 12 20 4 22 21 24 18 26
REMARK H PARENT 10 19 12 21 4 23 21 25 18 27
REMARK Flexibility Score: inf
ROOT
ATOM      1  C   UNL     1     -14.331  -6.449  -4.520  1.00  0.00     0.180 A 
ATOM      2  C   UNL     1     -15.564  -6.105  -5.101  1.00  0.00     0.208 A 
ATOM      3  C   UNL     1     -16.749  -6.393  -4.406  1.00  0.00     0.238 A 
ATOM      4  O   UNL     1     -17.851  -6.131  -4.955  1.00  0.00    -0.285 OA
ATOM      5  C   UNL     1     -16.687  -7.007  -3.133  1.00  0.00     0.111 A 
ATOM      6  C   UNL     1     -17.822  -7.309  -2.322  1.00  0.00     0.134 A 
ATOM      7  C   UNL     1     -17.652  -8.036  -1.138  1.00  0.00     0.093 A 
ATOM      8  C   UNL     1     -16.380  -8.415  -0.702  1.00  0.00     0.123 A 
ATOM      9  C   UNL     1     -15.259  -8.074  -1.456  1.00  0.00     0.094 A 
ATOM     10  C   UNL     1     -15.401  -7.380  -2.661  1.00  0.00     0.146 A 
ATOM     11  O   UNL     1     -14.309  -7.085  -3.355  1.00  0.00    -0.452 OA
ENDROOT
BRANCH   1  12
ATOM     12  C   UNL     1     -13.039  -6.155  -5.181  1.00  0.00     0.025 A 
ATOM     13  C   UNL     1     -12.204  -7.186  -5.647  1.00  0.00     0.016 A 
ATOM     14  C   UNL     1     -11.000  -6.884  -6.289  1.00  0.00     0.051 A 
ATOM     15  C   UNL     1     -10.620  -5.551  -6.488  1.00  0.00     0.157 A 
ATOM     16  C   UNL     1     -12.663  -4.820  -5.402  1.00  0.00     0.062 A 
ATOM     17  C   UNL     1     -11.458  -4.514  -6.044  1.00  0.00     0.158 A 
BRANCH  15  18
ATOM     18  O   UNL     1      -9.418  -5.253  -7.127  1.00  0.00    -0.504 OA
ATOM     19  H   UNL     1      -8.531  -5.603  -6.781  1.00  0.00     0.293 HD
ENDBRANCH  15  18
BRANCH  17  20
ATOM     20  O   UNL     1     -11.112  -3.176  -6.234  1.00  0.00    -0.504 OA
ATOM     21  H   UNL     1     -10.218  -2.805  -5.937  1.00  0.00     0.293 HD
ENDBRANCH  17  20
ENDBRANCH   1  12
BRANCH   2  22
ATOM     22  O   UNL     1     -15.603  -5.518  -6.370  1.00  0.00    -0.502 OA
ATOM     23  H   UNL     1     -16.466  -5.405  -6.890  1.00  0.00     0.293 HD
ENDBRANCH   2  22
BRANCH   6  24
ATOM     24  O   UNL     1     -19.125  -6.897  -2.619  1.00  0.00    -0.507 OA
ATOM     25  H   UNL     1     -19.954  -7.238  -2.155  1.00  0.00     0.293 HD
ENDBRANCH   6  24
BRANCH   8  26
ATOM     26  O   UNL     1     -16.217  -9.125   0.486  1.00  0.00    -0.508 OA
ATOM     27  H   UNL     1     -16.450  -8.716   1.384  1.00  0.00     0.293 HD
ENDBRANCH   8  26
TORSDOF 6
ENDMDL
