MODEL 1
REMARK VINA RESULT:    -5.652      0.000      0.000
REMARK INTER + INTRA:          -7.040
REMARK INTER:                  -6.644
REMARK INTRA:                  -0.397
REMARK UNBOUND:                -0.397
REMARK SMILES C=C[C@@]1(C)CC[C@H](C(=C)C)C[C@@H]1C(=C)C
REMARK SMILES IDX 7 1 6 2 5 3 3 4 12 5 11 6 4 7 8 8 10 9 9 10 13 11 14 12
REMARK SMILES IDX 15 13 2 14 1 15
REMARK H PARENT
REMARK Flexibility Score: inf
ROOT
ATOM      1  C   UNL     1      -2.743 -37.547   4.030  1.00  0.00     0.015 C 
ATOM      2  C   UNL     1      -1.879 -36.653   3.125  1.00  0.00     0.009 C 
ATOM      3  C   UNL     1      -2.742 -35.917   2.091  1.00  0.00     0.012 C 
ATOM      4  C   UNL     1      -3.590 -36.875   1.202  1.00  0.00    -0.008 C 
ATOM      5  C   UNL     1      -4.419 -37.834   2.136  1.00  0.00     0.024 C 
ATOM      6  C   UNL     1      -3.547 -38.556   3.191  1.00  0.00     0.017 C 
ATOM      7  C   UNL     1      -2.663 -37.657   0.234  1.00  0.00     0.016 C 
ENDROOT
BRANCH   1   8
ATOM      8  C   UNL     1      -1.901 -38.248   5.088  1.00  0.00    -0.077 C 
ATOM      9  C   UNL     1      -2.426 -39.483   5.776  1.00  0.00     0.039 C 
ATOM     10  C   UNL     1      -0.685 -37.791   5.431  1.00  0.00     0.008 C 
ENDBRANCH   1   8
BRANCH   5  11
ATOM     11  C   UNL     1      -5.319 -38.828   1.388  1.00  0.00    -0.077 C 
ATOM     12  C   UNL     1      -6.642 -38.602   1.308  1.00  0.00     0.008 C 
ATOM     13  C   UNL     1      -4.781 -40.085   0.747  1.00  0.00     0.039 C 
ENDBRANCH   5  11
BRANCH   4  14
ATOM     14  C   UNL     1      -4.554 -36.023   0.375  1.00  0.00    -0.028 C 
ATOM     15  C   UNL     1      -5.340 -35.076   0.907  1.00  0.00     0.004 C 
ENDBRANCH   4  14
TORSDOF 3
ENDMDL
MODEL 2
REMARK VINA RESULT:    -5.457      7.735      9.952
REMARK INTER + INTRA:          -6.811
REMARK INTER:                  -6.487
REMARK INTRA:                  -0.324
REMARK UNBOUND:                -0.397
REMARK SMILES C=C[C@@]1(C)CC[C@H](C(=C)C)C[C@@H]1C(=C)C
REMARK SMILES IDX 7 1 6 2 5 3 3 4 12 5 11 6 4 7 8 8 10 9 9 10 13 11 14 12
REMARK SMILES IDX 15 13 2 14 1 15
REMARK H PARENT
REMARK Flexibility Score: inf
ROOT
ATOM      1  C   UNL     1       0.971 -33.075  -4.588  1.00  0.00     0.015 C 
ATOM      2  C   UNL     1       0.322 -33.724  -3.354  1.00  0.00     0.009 C 
ATOM      3  C   UNL     1       0.617 -35.230  -3.302  1.00  0.00     0.012 C 
ATOM      4  C   UNL     1       0.158 -35.992  -4.581  1.00  0.00    -0.008 C 
ATOM      5  C   UNL     1       0.770 -35.279  -5.845  1.00  0.00     0.024 C 
ATOM      6  C   UNL     1       0.488 -33.758  -5.880  1.00  0.00     0.017 C 
ATOM      7  C   UNL     1      -1.391 -36.049  -4.634  1.00  0.00     0.016 C 
ENDROOT
BRANCH   1   8
ATOM      8  C   UNL     1       0.719 -31.573  -4.625  1.00  0.00    -0.077 C 
ATOM      9  C   UNL     1       0.003 -30.955  -5.799  1.00  0.00     0.039 C 
ATOM     10  C   UNL     1       1.125 -30.771  -3.626  1.00  0.00     0.008 C 
ENDBRANCH   1   8
BRANCH   5  11
ATOM     11  C   UNL     1       0.410 -35.939  -7.183  1.00  0.00    -0.077 C 
ATOM     12  C   UNL     1       1.125 -36.989  -7.625  1.00  0.00     0.008 C 
ATOM     13  C   UNL     1      -0.716 -35.441  -8.056  1.00  0.00     0.039 C 
ENDBRANCH   5  11
BRANCH   4  14
ATOM     14  C   UNL     1       0.699 -37.420  -4.499  1.00  0.00    -0.028 C 
ATOM     15  C   UNL     1      -0.089 -38.498  -4.376  1.00  0.00     0.004 C 
ENDBRANCH   4  14
TORSDOF 3
ENDMDL
MODEL 3
REMARK VINA RESULT:    -5.328      2.033      5.245
REMARK INTER + INTRA:          -6.659
REMARK INTER:                  -6.311
REMARK INTRA:                  -0.348
REMARK UNBOUND:                -0.397
REMARK SMILES C=C[C@@]1(C)CC[C@H](C(=C)C)C[C@@H]1C(=C)C
REMARK SMILES IDX 7 1 6 2 5 3 3 4 12 5 11 6 4 7 8 8 10 9 9 10 13 11 14 12
REMARK SMILES IDX 15 13 2 14 1 15
REMARK H PARENT
REMARK Flexibility Score: inf
ROOT
ATOM      1  C   UNL     1      -6.223 -35.020   1.141  1.00  0.00     0.015 C 
ATOM      2  C   UNL     1      -6.145 -35.947   2.365  1.00  0.00     0.009 C 
ATOM      3  C   UNL     1      -4.691 -36.333   2.672  1.00  0.00     0.012 C 
ATOM      4  C   UNL     1      -3.967 -37.012   1.471  1.00  0.00    -0.008 C 
ATOM      5  C   UNL     1      -4.112 -36.089   0.203  1.00  0.00     0.024 C 
ATOM      6  C   UNL     1      -5.578 -35.684  -0.088  1.00  0.00     0.017 C 
ATOM      7  C   UNL     1      -4.552 -38.429   1.234  1.00  0.00     0.016 C 
ENDROOT
BRANCH   1   8
ATOM      8  C   UNL     1      -7.658 -34.596   0.854  1.00  0.00    -0.077 C 
ATOM      9  C   UNL     1      -8.808 -35.421   1.371  1.00  0.00     0.039 C 
ATOM     10  C   UNL     1      -7.932 -33.490   0.141  1.00  0.00     0.008 C 
ENDBRANCH   1   8
BRANCH   5  11
ATOM     11  C   UNL     1      -3.427 -36.631  -1.058  1.00  0.00    -0.077 C 
ATOM     12  C   UNL     1      -2.117 -36.402  -1.258  1.00  0.00     0.008 C 
ATOM     13  C   UNL     1      -4.174 -37.403  -2.119  1.00  0.00     0.039 C 
ENDBRANCH   5  11
BRANCH   4  14
ATOM     14  C   UNL     1      -2.486 -37.146   1.828  1.00  0.00    -0.028 C 
ATOM     15  C   UNL     1      -1.883 -36.394   2.760  1.00  0.00     0.004 C 
ENDBRANCH   4  14
TORSDOF 3
ENDMDL
MODEL 4
REMARK VINA RESULT:    -5.294      1.653      5.348
REMARK INTER + INTRA:          -6.619
REMARK INTER:                  -6.356
REMARK INTRA:                  -0.263
REMARK UNBOUND:                -0.397
REMARK SMILES C=C[C@@]1(C)CC[C@H](C(=C)C)C[C@@H]1C(=C)C
REMARK SMILES IDX 7 1 6 2 5 3 3 4 12 5 11 6 4 7 8 8 10 9 9 10 13 11 14 12
REMARK SMILES IDX 15 13 2 14 1 15
REMARK H PARENT
REMARK Flexibility Score: inf
ROOT
ATOM      1  C   UNL     1      -6.797 -36.168   1.776  1.00  0.00     0.015 C 
ATOM      2  C   UNL     1      -7.002 -37.427   0.917  1.00  0.00     0.009 C 
ATOM      3  C   UNL     1      -6.347 -38.652   1.569  1.00  0.00     0.012 C 
ATOM      4  C   UNL     1      -4.825 -38.465   1.845  1.00  0.00    -0.008 C 
ATOM      5  C   UNL     1      -4.617 -37.136   2.664  1.00  0.00     0.024 C 
ATOM      6  C   UNL     1      -5.299 -35.908   2.013  1.00  0.00     0.017 C 
ATOM      7  C   UNL     1      -4.043 -38.454   0.505  1.00  0.00     0.016 C 
ENDROOT
BRANCH   1   8
ATOM      8  C   UNL     1      -7.480 -34.954   1.158  1.00  0.00    -0.077 C 
ATOM      9  C   UNL     1      -8.974 -34.788   1.273  1.00  0.00     0.039 C 
ATOM     10  C   UNL     1      -6.778 -34.015   0.502  1.00  0.00     0.008 C 
ENDBRANCH   1   8
BRANCH   5  11
ATOM     11  C   UNL     1      -3.156 -36.832   3.022  1.00  0.00    -0.077 C 
ATOM     12  C   UNL     1      -2.491 -35.870   2.359  1.00  0.00     0.008 C 
ATOM     13  C   UNL     1      -2.406 -37.596   4.088  1.00  0.00     0.039 C 
ENDBRANCH   5  11
BRANCH   4  14
ATOM     14  C   UNL     1      -4.347 -39.651   2.682  1.00  0.00    -0.028 C 
ATOM     15  C   UNL     1      -4.790 -40.904   2.504  1.00  0.00     0.004 C 
ENDBRANCH   4  14
TORSDOF 3
ENDMDL
MODEL 5
REMARK VINA RESULT:    -5.230      2.584      4.390
REMARK INTER + INTRA:          -6.544
REMARK INTER:                  -6.240
REMARK INTRA:                  -0.304
REMARK UNBOUND:                -0.397
REMARK SMILES C=C[C@@]1(C)CC[C@H](C(=C)C)C[C@@H]1C(=C)C
REMARK SMILES IDX 7 1 6 2 5 3 3 4 12 5 11 6 4 7 8 8 10 9 9 10 13 11 14 12
REMARK SMILES IDX 15 13 2 14 1 15
REMARK H PARENT
REMARK Flexibility Score: inf
ROOT
ATOM      1  C   UNL     1      -4.884 -35.897   2.065  1.00  0.00     0.015 C 
ATOM      2  C   UNL     1      -4.935 -35.233   0.678  1.00  0.00     0.009 C 
ATOM      3  C   UNL     1      -6.159 -34.317   0.550  1.00  0.00     0.012 C 
ATOM      4  C   UNL     1      -7.509 -35.050   0.814  1.00  0.00    -0.008 C 
ATOM      5  C   UNL     1      -7.423 -35.786   2.205  1.00  0.00     0.024 C 
ATOM      6  C   UNL     1      -6.174 -36.690   2.336  1.00  0.00     0.017 C 
ATOM      7  C   UNL     1      -7.814 -36.030  -0.349  1.00  0.00     0.016 C 
ENDROOT
BRANCH   1   8
ATOM      8  C   UNL     1      -3.649 -36.775   2.217  1.00  0.00    -0.077 C 
ATOM      9  C   UNL     1      -2.300 -36.147   2.462  1.00  0.00     0.039 C 
ATOM     10  C   UNL     1      -3.728 -38.114   2.138  1.00  0.00     0.008 C 
ENDBRANCH   1   8
BRANCH   5  11
ATOM     11  C   UNL     1      -8.698 -36.541   2.603  1.00  0.00    -0.077 C 
ATOM     12  C   UNL     1      -8.730 -37.883   2.533  1.00  0.00     0.008 C 
ATOM     13  C   UNL     1      -9.953 -35.832   3.056  1.00  0.00     0.039 C 
ENDBRANCH   5  11
BRANCH   4  14
ATOM     14  C   UNL     1      -8.615 -33.997   0.871  1.00  0.00    -0.028 C 
ATOM     15  C   UNL     1      -9.484 -33.788  -0.129  1.00  0.00     0.004 C 
ENDBRANCH   4  14
TORSDOF 3
ENDMDL
MODEL 6
REMARK VINA RESULT:    -5.209      5.368      7.872
REMARK INTER + INTRA:          -6.519
REMARK INTER:                  -6.217
REMARK INTRA:                  -0.302
REMARK UNBOUND:                -0.397
REMARK SMILES C=C[C@@]1(C)CC[C@H](C(=C)C)C[C@@H]1C(=C)C
REMARK SMILES IDX 7 1 6 2 5 3 3 4 12 5 11 6 4 7 8 8 10 9 9 10 13 11 14 12
REMARK SMILES IDX 15 13 2 14 1 15
REMARK H PARENT
REMARK Flexibility Score: inf
ROOT
ATOM      1  C   UNL     1      -1.232 -37.363  -2.211  1.00  0.00     0.015 C 
ATOM      2  C   UNL     1      -1.490 -38.497  -3.217  1.00  0.00     0.009 C 
ATOM      3  C   UNL     1      -0.439 -38.491  -4.336  1.00  0.00     0.012 C 
ATOM      4  C   UNL     1      -0.360 -37.137  -5.101  1.00  0.00    -0.008 C 
ATOM      5  C   UNL     1      -0.166 -35.973  -4.058  1.00  0.00     0.024 C 
ATOM      6  C   UNL     1      -1.216 -35.998  -2.920  1.00  0.00     0.017 C 
ATOM      7  C   UNL     1      -1.635 -36.943  -5.964  1.00  0.00     0.016 C 
ENDROOT
BRANCH   1   8
ATOM      8  C   UNL     1      -2.246 -37.387  -1.073  1.00  0.00    -0.077 C 
ATOM      9  C   UNL     1      -2.629 -38.695  -0.430  1.00  0.00     0.039 C 
ATOM     10  C   UNL     1      -2.816 -36.257  -0.621  1.00  0.00     0.008 C 
ENDBRANCH   1   8
BRANCH   5  11
ATOM     11  C   UNL     1      -0.056 -34.574  -4.679  1.00  0.00    -0.077 C 
ATOM     12  C   UNL     1       1.125 -33.932  -4.676  1.00  0.00     0.008 C 
ATOM     13  C   UNL     1      -1.241 -33.860  -5.283  1.00  0.00     0.039 C 
ENDBRANCH   5  11
BRANCH   4  14
ATOM     14  C   UNL     1       0.855 -37.187  -6.028  1.00  0.00    -0.028 C 
ATOM     15  C   UNL     1       0.760 -37.297  -7.360  1.00  0.00     0.004 C 
ENDBRANCH   4  14
TORSDOF 3
ENDMDL
MODEL 7
REMARK VINA RESULT:    -5.187      9.348     11.929
REMARK INTER + INTRA:          -6.493
REMARK INTER:                  -6.219
REMARK INTRA:                  -0.274
REMARK UNBOUND:                -0.397
REMARK SMILES C=C[C@@]1(C)CC[C@H](C(=C)C)C[C@@H]1C(=C)C
REMARK SMILES IDX 7 1 6 2 5 3 3 4 12 5 11 6 4 7 8 8 10 9 9 10 13 11 14 12
REMARK SMILES IDX 15 13 2 14 1 15
REMARK H PARENT
REMARK Flexibility Score: inf
ROOT
ATOM      1  C   UNL     1      -0.299 -33.479  -8.858  1.00  0.00     0.015 C 
ATOM      2  C   UNL     1       0.630 -33.519  -7.633  1.00  0.00     0.009 C 
ATOM      3  C   UNL     1       1.125 -34.947  -7.363  1.00  0.00     0.012 C 
ATOM      4  C   UNL     1      -0.031 -35.972  -7.160  1.00  0.00    -0.008 C 
ATOM      5  C   UNL     1      -1.017 -35.875  -8.385  1.00  0.00     0.024 C 
ATOM      6  C   UNL     1      -1.494 -34.430  -8.666  1.00  0.00     0.017 C 
ATOM      7  C   UNL     1      -0.746 -35.702  -5.810  1.00  0.00     0.016 C 
ENDROOT
BRANCH   1   8
ATOM      8  C   UNL     1      -0.761 -32.059  -9.160  1.00  0.00    -0.077 C 
ATOM      9  C   UNL     1      -0.352 -30.923  -8.259  1.00  0.00     0.039 C 
ATOM     10  C   UNL     1      -1.536 -31.788 -10.224  1.00  0.00     0.008 C 
ENDBRANCH   1   8
BRANCH   5  11
ATOM     11  C   UNL     1      -2.202 -36.848  -8.325  1.00  0.00    -0.077 C 
ATOM     12  C   UNL     1      -2.282 -37.860  -9.206  1.00  0.00     0.008 C 
ATOM     13  C   UNL     1      -3.318 -36.705  -7.318  1.00  0.00     0.039 C 
ENDBRANCH   5  11
BRANCH   4  14
ATOM     14  C   UNL     1       0.582 -37.372  -7.118  1.00  0.00    -0.028 C 
ATOM     15  C   UNL     1       0.727 -38.078  -5.988  1.00  0.00     0.004 C 
ENDBRANCH   4  14
TORSDOF 3
ENDMDL
MODEL 8
REMARK VINA RESULT:    -5.137      8.432     11.003
REMARK INTER + INTRA:          -6.435
REMARK INTER:                  -6.269
REMARK INTRA:                  -0.166
REMARK UNBOUND:                -0.397
REMARK SMILES C=C[C@@]1(C)CC[C@H](C(=C)C)C[C@@H]1C(=C)C
REMARK SMILES IDX 7 1 6 2 5 3 3 4 12 5 11 6 4 7 8 8 10 9 9 10 13 11 14 12
REMARK SMILES IDX 15 13 2 14 1 15
REMARK H PARENT
REMARK Flexibility Score: inf
ROOT
ATOM      1  C   UNL     1       0.227 -34.975  -7.460  1.00  0.00     0.015 C 
ATOM      2  C   UNL     1      -0.838 -34.151  -8.203  1.00  0.00     0.009 C 
ATOM      3  C   UNL     1      -0.647 -32.649  -7.952  1.00  0.00     0.012 C 
ATOM      4  C   UNL     1      -0.669 -32.269  -6.441  1.00  0.00    -0.008 C 
ATOM      5  C   UNL     1       0.375 -33.166  -5.676  1.00  0.00     0.024 C 
ATOM      6  C   UNL     1       0.191 -34.679  -5.951  1.00  0.00     0.017 C 
ATOM      7  C   UNL     1      -2.105 -32.430  -5.877  1.00  0.00     0.016 C 
ENDROOT
BRANCH   1   8
ATOM      8  C   UNL     1       0.073 -36.465  -7.738  1.00  0.00    -0.077 C 
ATOM      9  C   UNL     1      -1.281 -37.035  -8.078  1.00  0.00     0.039 C 
ATOM     10  C   UNL     1       1.125 -37.299  -7.687  1.00  0.00     0.008 C 
ENDBRANCH   1   8
BRANCH   5  11
ATOM     11  C   UNL     1       0.471 -32.885  -4.170  1.00  0.00    -0.077 C 
ATOM     12  C   UNL     1       0.150 -33.848  -3.288  1.00  0.00     0.008 C 
ATOM     13  C   UNL     1       0.893 -31.544  -3.621  1.00  0.00     0.039 C 
ENDBRANCH   5  11
BRANCH   4  14
ATOM     14  C   UNL     1      -0.256 -30.802  -6.317  1.00  0.00    -0.028 C 
ATOM     15  C   UNL     1      -1.130 -29.807  -6.106  1.00  0.00     0.004 C 
ENDBRANCH   4  14
TORSDOF 3
ENDMDL
MODEL 9
REMARK VINA RESULT:    -5.046      8.136     10.361
REMARK INTER + INTRA:          -6.327
REMARK INTER:                  -5.947
REMARK INTRA:                  -0.380
REMARK UNBOUND:                -0.397
REMARK SMILES C=C[C@@]1(C)CC[C@H](C(=C)C)C[C@@H]1C(=C)C
REMARK SMILES IDX 7 1 6 2 5 3 3 4 12 5 11 6 4 7 8 8 10 9 9 10 13 11 14 12
REMARK SMILES IDX 15 13 2 14 1 15
REMARK H PARENT
REMARK Flexibility Score: inf
ROOT
ATOM      1  C   UNL     1      -0.300 -33.137  -6.147  1.00  0.00     0.015 C 
ATOM      2  C   UNL     1       0.507 -33.330  -7.441  1.00  0.00     0.009 C 
ATOM      3  C   UNL     1      -0.125 -34.410  -8.329  1.00  0.00     0.012 C 
ATOM      4  C   UNL     1      -0.278 -35.785  -7.613  1.00  0.00    -0.008 C 
ATOM      5  C   UNL     1      -1.044 -35.569  -6.254  1.00  0.00     0.024 C 
ATOM      6  C   UNL     1      -0.414 -34.462  -5.373  1.00  0.00     0.017 C 
ATOM      7  C   UNL     1       1.118 -36.429  -7.402  1.00  0.00     0.016 C 
ENDROOT
BRANCH   1   8
ATOM      8  C   UNL     1       0.295 -32.036  -5.278  1.00  0.00    -0.077 C 
ATOM      9  C   UNL     1       0.361 -30.620  -5.791  1.00  0.00     0.039 C 
ATOM     10  C   UNL     1       0.772 -32.295  -4.049  1.00  0.00     0.008 C 
ENDBRANCH   1   8
BRANCH   5  11
ATOM     11  C   UNL     1      -1.280 -36.852  -5.446  1.00  0.00    -0.077 C 
ATOM     12  C   UNL     1      -2.511 -37.387  -5.386  1.00  0.00     0.008 C 
ATOM     13  C   UNL     1      -0.177 -37.542  -4.679  1.00  0.00     0.039 C 
ENDBRANCH   5  11
BRANCH   4  14
ATOM     14  C   UNL     1      -1.107 -36.699  -8.516  1.00  0.00    -0.028 C 
ATOM     15  C   UNL     1      -2.215 -36.295  -9.153  1.00  0.00     0.004 C 
ENDBRANCH   4  14
TORSDOF 3
ENDMDL
