MODEL 1
REMARK VINA RESULT:    -3.762      0.000      0.000
REMARK INTER + INTRA:          -5.326
REMARK INTER:                  -5.081
REMARK INTRA:                  -0.245
REMARK UNBOUND:                -0.245
REMARK SMILES CCCCCCCC(=O)[O-]
REMARK SMILES IDX 5 1 6 2 7 3 8 4 9 5 10 6 4 7 3 8 2 9 1 10
REMARK H PARENT
REMARK Flexibility Score: inf
ROOT
ATOM      1  C   UNL     1       8.249 -17.997  32.684  1.00  0.00     0.000 C 
ENDROOT
BRANCH   1   2
ATOM      2  C   UNL     1       9.514 -17.570  33.443  1.00  0.00     0.006 C 
BRANCH   2   3
ATOM      3  C   UNL     1       9.197 -17.030  34.844  1.00  0.00     0.053 C 
BRANCH   3   4
ATOM      4  C   UNL     1      10.010 -15.815  35.167  1.00  0.00     0.041 C 
ATOM      5  O   UNL     1      10.811 -15.343  34.319  1.00  0.00    -0.550 OA
ATOM      6  O   UNL     1       9.856 -15.181  36.394  1.00  0.00    -0.550 OA
ENDBRANCH   3   4
ENDBRANCH   2   3
ENDBRANCH   1   2
BRANCH   1   7
ATOM      7  C   UNL     1       8.574 -19.076  31.639  1.00  0.00     0.000 C 
BRANCH   7   8
ATOM      8  C   UNL     1      10.083 -19.220  31.389  1.00  0.00    -0.000 C 
BRANCH   8   9
ATOM      9  C   UNL     1      10.433 -20.485  30.591  1.00  0.00    -0.003 C 
ATOM     10  C   UNL     1       9.276 -20.899  29.684  1.00  0.00     0.004 C 
ENDBRANCH   8   9
ENDBRANCH   7   8
ENDBRANCH   1   7
TORSDOF 6
ENDMDL
MODEL 2
REMARK VINA RESULT:    -3.752      4.035      6.107
REMARK INTER + INTRA:          -5.313
REMARK INTER:                  -5.008
REMARK INTRA:                  -0.305
REMARK UNBOUND:                -0.245
REMARK SMILES CCCCCCCC(=O)[O-]
REMARK SMILES IDX 5 1 6 2 7 3 8 4 9 5 10 6 4 7 3 8 2 9 1 10
REMARK H PARENT
REMARK Flexibility Score: inf
ROOT
ATOM      1  C   UNL     1      10.122 -19.250  31.445  1.00  0.00     0.000 C 
ENDROOT
BRANCH   1   2
ATOM      2  C   UNL     1      10.458 -20.449  30.545  1.00  0.00     0.006 C 
BRANCH   2   3
ATOM      3  C   UNL     1       9.254 -20.903  29.708  1.00  0.00     0.053 C 
BRANCH   3   4
ATOM      4  C   UNL     1       9.380 -20.477  28.278  1.00  0.00     0.041 C 
ATOM      5  O   UNL     1      10.218 -21.034  27.522  1.00  0.00    -0.550 OA
ATOM      6  O   UNL     1       8.545 -19.489  27.770  1.00  0.00    -0.550 OA
ENDBRANCH   3   4
ENDBRANCH   2   3
ENDBRANCH   1   2
BRANCH   1   7
ATOM      7  C   UNL     1       8.606 -19.138  31.664  1.00  0.00     0.000 C 
BRANCH   7   8
ATOM      8  C   UNL     1       8.228 -17.976  32.596  1.00  0.00    -0.000 C 
BRANCH   8   9
ATOM      9  C   UNL     1       9.445 -17.373  33.314  1.00  0.00    -0.003 C 
ATOM     10  C   UNL     1       9.186 -17.237  34.812  1.00  0.00     0.004 C 
ENDBRANCH   8   9
ENDBRANCH   7   8
ENDBRANCH   1   7
TORSDOF 6
ENDMDL
MODEL 3
REMARK VINA RESULT:    -3.699      1.195      1.894
REMARK INTER + INTRA:          -5.242
REMARK INTER:                  -4.844
REMARK INTRA:                  -0.398
REMARK UNBOUND:                -0.245
REMARK SMILES CCCCCCCC(=O)[O-]
REMARK SMILES IDX 5 1 6 2 7 3 8 4 9 5 10 6 4 7 3 8 2 9 1 10
REMARK H PARENT
REMARK Flexibility Score: inf
ROOT
ATOM      1  C   UNL     1      10.975 -18.003  31.217  1.00  0.00     0.000 C 
ENDROOT
BRANCH   1   2
ATOM      2  C   UNL     1      10.294 -16.900  32.043  1.00  0.00     0.006 C 
BRANCH   2   3
ATOM      3  C   UNL     1       9.382 -17.473  33.136  1.00  0.00     0.053 C 
BRANCH   3   4
ATOM      4  C   UNL     1       9.499 -16.703  34.415  1.00  0.00     0.041 C 
ATOM      5  O   UNL     1      10.334 -15.766  34.518  1.00  0.00    -0.550 OA
ATOM      6  O   UNL     1       8.661 -16.998  35.484  1.00  0.00    -0.550 OA
ENDBRANCH   3   4
ENDBRANCH   2   3
ENDBRANCH   1   2
BRANCH   1   7
ATOM      7  C   UNL     1      10.390 -19.382  31.557  1.00  0.00     0.000 C 
BRANCH   7   8
ATOM      8  C   UNL     1      10.357 -20.325  30.344  1.00  0.00    -0.000 C 
BRANCH   8   9
ATOM      9  C   UNL     1       8.928 -20.700  29.924  1.00  0.00    -0.003 C 
ATOM     10  C   UNL     1       7.896 -19.918  30.732  1.00  0.00     0.004 C 
ENDBRANCH   8   9
ENDBRANCH   7   8
ENDBRANCH   1   7
TORSDOF 6
ENDMDL
MODEL 4
REMARK VINA RESULT:    -3.632      4.467      6.182
REMARK INTER + INTRA:          -5.151
REMARK INTER:                  -4.820
REMARK INTRA:                  -0.331
REMARK UNBOUND:                -0.245
REMARK SMILES CCCCCCCC(=O)[O-]
REMARK SMILES IDX 5 1 6 2 7 3 8 4 9 5 10 6 4 7 3 8 2 9 1 10
REMARK H PARENT
REMARK Flexibility Score: inf
ROOT
ATOM      1  C   UNL     1      10.769 -19.706  31.302  1.00  0.00     0.000 C 
ENDROOT
BRANCH   1   2
ATOM      2  C   UNL     1      10.136 -20.451  30.117  1.00  0.00     0.006 C 
BRANCH   2   3
ATOM      3  C   UNL     1       8.608 -20.541  30.237  1.00  0.00     0.053 C 
BRANCH   3   4
ATOM      4  C   UNL     1       8.027 -21.481  29.226  1.00  0.00     0.041 C 
ATOM      5  O   UNL     1       8.634 -21.706  28.147  1.00  0.00    -0.550 OA
ATOM      6  O   UNL     1       6.831 -22.136  29.492  1.00  0.00    -0.550 OA
ENDBRANCH   3   4
ENDBRANCH   2   3
ENDBRANCH   1   2
BRANCH   1   7
ATOM      7  C   UNL     1      11.053 -18.241  30.939  1.00  0.00     0.000 C 
BRANCH   7   8
ATOM      8  C   UNL     1      10.341 -17.250  31.873  1.00  0.00    -0.000 C 
BRANCH   8   9
ATOM      9  C   UNL     1       9.320 -17.935  32.794  1.00  0.00    -0.003 C 
ATOM     10  C   UNL     1       9.237 -17.227  34.144  1.00  0.00     0.004 C 
ENDBRANCH   8   9
ENDBRANCH   7   8
ENDBRANCH   1   7
TORSDOF 6
ENDMDL
MODEL 5
REMARK VINA RESULT:    -3.626      4.477      6.113
REMARK INTER + INTRA:          -5.143
REMARK INTER:                  -4.675
REMARK INTRA:                  -0.468
REMARK UNBOUND:                -0.245
REMARK SMILES CCCCCCCC(=O)[O-]
REMARK SMILES IDX 5 1 6 2 7 3 8 4 9 5 10 6 4 7 3 8 2 9 1 10
REMARK H PARENT
REMARK Flexibility Score: inf
ROOT
ATOM      1  C   UNL     1       8.035 -19.889  30.708  1.00  0.00     0.000 C 
ENDROOT
BRANCH   1   2
ATOM      2  C   UNL     1       8.978 -20.907  30.048  1.00  0.00     0.006 C 
BRANCH   2   3
ATOM      3  C   UNL     1       8.612 -21.172  28.582  1.00  0.00     0.053 C 
BRANCH   3   4
ATOM      4  C   UNL     1       9.573 -20.512  27.642  1.00  0.00     0.041 C 
ATOM      5  O   UNL     1      10.277 -21.207  26.863  1.00  0.00    -0.550 OA
ATOM      6  O   UNL     1       9.666 -19.126  27.602  1.00  0.00    -0.550 OA
ENDBRANCH   3   4
ENDBRANCH   2   3
ENDBRANCH   1   2
BRANCH   1   7
ATOM      7  C   UNL     1       8.820 -18.909  31.593  1.00  0.00     0.000 C 
BRANCH   7   8
ATOM      8  C   UNL     1      10.336 -19.157  31.549  1.00  0.00    -0.000 C 
BRANCH   8   9
ATOM      9  C   UNL     1      11.131 -17.898  31.172  1.00  0.00    -0.003 C 
ATOM     10  C   UNL     1      10.307 -16.976  30.277  1.00  0.00     0.004 C 
ENDBRANCH   8   9
ENDBRANCH   7   8
ENDBRANCH   1   7
TORSDOF 6
ENDMDL
MODEL 6
REMARK VINA RESULT:    -3.607      3.436      5.693
REMARK INTER + INTRA:          -5.117
REMARK INTER:                  -4.786
REMARK INTRA:                  -0.330
REMARK UNBOUND:                -0.245
REMARK SMILES CCCCCCCC(=O)[O-]
REMARK SMILES IDX 5 1 6 2 7 3 8 4 9 5 10 6 4 7 3 8 2 9 1 10
REMARK H PARENT
REMARK Flexibility Score: inf
ROOT
ATOM      1  C   UNL     1      10.981 -18.067  30.884  1.00  0.00     0.000 C 
ENDROOT
BRANCH   1   2
ATOM      2  C   UNL     1      10.673 -19.446  31.488  1.00  0.00     0.006 C 
BRANCH   2   3
ATOM      3  C   UNL     1      10.349 -20.492  30.413  1.00  0.00     0.053 C 
BRANCH   3   4
ATOM      4  C   UNL     1       8.885 -20.534  30.102  1.00  0.00     0.041 C 
ATOM      5  O   UNL     1       8.051 -20.046  30.908  1.00  0.00    -0.550 OA
ATOM      6  O   UNL     1       8.444 -21.082  28.903  1.00  0.00    -0.550 OA
ENDBRANCH   3   4
ENDBRANCH   2   3
ENDBRANCH   1   2
BRANCH   1   7
ATOM      7  C   UNL     1      10.373 -16.946  31.740  1.00  0.00     0.000 C 
BRANCH   7   8
ATOM      8  C   UNL     1       9.554 -17.484  32.923  1.00  0.00    -0.000 C 
BRANCH   8   9
ATOM      9  C   UNL     1       9.563 -16.534  34.130  1.00  0.00    -0.003 C 
ATOM     10  C   UNL     1       8.849 -17.159  35.326  1.00  0.00     0.004 C 
ENDBRANCH   8   9
ENDBRANCH   7   8
ENDBRANCH   1   7
TORSDOF 6
ENDMDL
MODEL 7
REMARK VINA RESULT:    -3.595      1.236      1.814
REMARK INTER + INTRA:          -5.101
REMARK INTER:                  -4.827
REMARK INTRA:                  -0.274
REMARK UNBOUND:                -0.245
REMARK SMILES CCCCCCCC(=O)[O-]
REMARK SMILES IDX 5 1 6 2 7 3 8 4 9 5 10 6 4 7 3 8 2 9 1 10
REMARK H PARENT
REMARK Flexibility Score: inf
ROOT
ATOM      1  C   UNL     1       8.501 -19.019  31.649  1.00  0.00     0.000 C 
ENDROOT
BRANCH   1   2
ATOM      2  C   UNL     1       8.167 -17.919  32.668  1.00  0.00     0.006 C 
BRANCH   2   3
ATOM      3  C   UNL     1       9.394 -17.496  33.488  1.00  0.00     0.053 C 
BRANCH   3   4
ATOM      4  C   UNL     1       9.026 -17.151  34.898  1.00  0.00     0.041 C 
ATOM      5  O   UNL     1       9.893 -16.684  35.683  1.00  0.00    -0.550 OA
ATOM      6  O   UNL     1       7.718 -17.313  35.336  1.00  0.00    -0.550 OA
ENDBRANCH   3   4
ENDBRANCH   2   3
ENDBRANCH   1   2
BRANCH   1   7
ATOM      7  C   UNL     1      10.014 -19.277  31.597  1.00  0.00     0.000 C 
BRANCH   7   8
ATOM      8  C   UNL     1      10.409 -20.257  30.481  1.00  0.00    -0.000 C 
BRANCH   8   9
ATOM      9  C   UNL     1       9.191 -20.868  29.772  1.00  0.00    -0.003 C 
ATOM     10  C   UNL     1       9.385 -20.875  28.258  1.00  0.00     0.004 C 
ENDBRANCH   8   9
ENDBRANCH   7   8
ENDBRANCH   1   7
TORSDOF 6
ENDMDL
MODEL 8
REMARK VINA RESULT:    -3.569      3.208      4.037
REMARK INTER + INTRA:          -5.066
REMARK INTER:                  -4.536
REMARK INTRA:                  -0.529
REMARK UNBOUND:                -0.245
REMARK SMILES CCCCCCCC(=O)[O-]
REMARK SMILES IDX 5 1 6 2 7 3 8 4 9 5 10 6 4 7 3 8 2 9 1 10
REMARK H PARENT
REMARK Flexibility Score: inf
ROOT
ATOM      1  C   UNL     1       8.948 -19.297  31.543  1.00  0.00     0.000 C 
ENDROOT
BRANCH   1   2
ATOM      2  C   UNL     1      10.453 -19.366  31.240  1.00  0.00     0.006 C 
BRANCH   2   3
ATOM      3  C   UNL     1      11.086 -17.973  31.123  1.00  0.00     0.053 C 
BRANCH   3   4
ATOM      4  C   UNL     1      10.374 -17.122  30.117  1.00  0.00     0.041 C 
ATOM      5  O   UNL     1       9.843 -16.036  30.467  1.00  0.00    -0.550 OA
ATOM      6  O   UNL     1      10.328 -17.512  28.784  1.00  0.00    -0.550 OA
ENDBRANCH   3   4
ENDBRANCH   2   3
ENDBRANCH   1   2
BRANCH   1   7
ATOM      7  C   UNL     1       8.146 -20.123  30.526  1.00  0.00     0.000 C 
BRANCH   7   8
ATOM      8  C   UNL     1       9.047 -20.937  29.584  1.00  0.00    -0.000 C 
BRANCH   8   9
ATOM      9  C   UNL     1       8.814 -20.600  28.104  1.00  0.00    -0.003 C 
ATOM     10  C   UNL     1      10.017 -20.999  27.254  1.00  0.00     0.004 C 
ENDBRANCH   8   9
ENDBRANCH   7   8
ENDBRANCH   1   7
TORSDOF 6
ENDMDL
MODEL 9
REMARK VINA RESULT:    -3.552      5.440      7.180
REMARK INTER + INTRA:          -5.043
REMARK INTER:                  -4.739
REMARK INTRA:                  -0.304
REMARK UNBOUND:                -0.245
REMARK SMILES CCCCCCCC(=O)[O-]
REMARK SMILES IDX 5 1 6 2 7 3 8 4 9 5 10 6 4 7 3 8 2 9 1 10
REMARK H PARENT
REMARK Flexibility Score: inf
ROOT
ATOM      1  C   UNL     1      10.010 -20.251  28.851  1.00  0.00     0.000 C 
ENDROOT
BRANCH   1   2
ATOM      2  C   UNL     1       9.002 -21.132  28.098  1.00  0.00     0.006 C 
BRANCH   2   3
ATOM      3  C   UNL     1       7.980 -21.782  29.040  1.00  0.00     0.053 C 
BRANCH   3   4
ATOM      4  C   UNL     1       7.100 -22.754  28.318  1.00  0.00     0.041 C 
ATOM      5  O   UNL     1       6.703 -23.801  28.896  1.00  0.00    -0.550 OA
ATOM      6  O   UNL     1       6.688 -22.488  27.018  1.00  0.00    -0.550 OA
ENDBRANCH   3   4
ENDBRANCH   2   3
ENDBRANCH   1   2
BRANCH   1   7
ATOM      7  C   UNL     1      10.050 -20.617  30.343  1.00  0.00     0.000 C 
BRANCH   7   8
ATOM      8  C   UNL     1      10.736 -19.541  31.198  1.00  0.00    -0.000 C 
BRANCH   8   9
ATOM      9  C   UNL     1       9.733 -18.625  31.915  1.00  0.00    -0.003 C 
ATOM     10  C   UNL     1       8.300 -19.100  31.692  1.00  0.00     0.004 C 
ENDBRANCH   8   9
ENDBRANCH   7   8
ENDBRANCH   1   7
TORSDOF 6
ENDMDL
