MODEL 1
REMARK VINA RESULT:    -2.243      0.000      0.000
REMARK INTER + INTRA:          -2.243
REMARK INTER:                  -2.243
REMARK INTRA:                   0.000
REMARK UNBOUND:                 0.000
REMARK SMILES CC(=O)[O-]
REMARK SMILES IDX 1 1 2 2 3 3 4 4
REMARK H PARENT
REMARK Flexibility Score: inf
ROOT
ATOM      1  C   UNL     1      -5.572  -5.387  -0.689  1.00  0.00     0.063 C 
ATOM      2  C   UNL     1      -4.961  -4.768   0.522  1.00  0.00     0.038 C 
ATOM      3  O   UNL     1      -4.343  -3.675   0.429  1.00  0.00    -0.550 OA
ATOM      4  O   UNL     1      -5.118  -5.367   1.766  1.00  0.00    -0.550 OA
ENDROOT
TORSDOF 0
ENDMDL
MODEL 2
REMARK VINA RESULT:    -2.226      0.097      1.621
REMARK INTER + INTRA:          -2.226
REMARK INTER:                  -2.226
REMARK INTRA:                   0.000
REMARK UNBOUND:                 0.000
REMARK SMILES CC(=O)[O-]
REMARK SMILES IDX 1 1 2 2 3 3 4 4
REMARK H PARENT
REMARK Flexibility Score: inf
ROOT
ATOM      1  C   UNL     1      -5.573  -5.441  -0.685  1.00  0.00     0.063 C 
ATOM      2  C   UNL     1      -5.008  -4.788   0.530  1.00  0.00     0.038 C 
ATOM      3  O   UNL     1      -5.064  -5.371   1.644  1.00  0.00    -0.550 OA
ATOM      4  O   UNL     1      -4.369  -3.559   0.427  1.00  0.00    -0.550 OA
ENDROOT
TORSDOF 0
ENDMDL
MODEL 3
REMARK VINA RESULT:    -2.082      8.087      8.567
REMARK INTER + INTRA:          -2.082
REMARK INTER:                  -2.082
REMARK INTRA:                   0.000
REMARK UNBOUND:                 0.000
REMARK SMILES CC(=O)[O-]
REMARK SMILES IDX 1 1 2 2 3 3 4 4
REMARK H PARENT
REMARK Flexibility Score: inf
ROOT
ATOM      1  C   UNL     1      -0.063  -5.205  -7.978  1.00  0.00     0.063 C 
ATOM      2  C   UNL     1      -0.976  -5.084  -6.806  1.00  0.00     0.038 C 
ATOM      3  O   UNL     1      -1.721  -6.046  -6.484  1.00  0.00    -0.550 OA
ATOM      4  O   UNL     1      -0.966  -3.930  -6.032  1.00  0.00    -0.550 OA
ENDROOT
TORSDOF 0
ENDMDL
MODEL 4
REMARK VINA RESULT:    -2.033      1.382      1.751
REMARK INTER + INTRA:          -2.033
REMARK INTER:                  -2.033
REMARK INTRA:                   0.000
REMARK UNBOUND:                 0.000
REMARK SMILES CC(=O)[O-]
REMARK SMILES IDX 1 1 2 2 3 3 4 4
REMARK H PARENT
REMARK Flexibility Score: inf
ROOT
ATOM      1  C   UNL     1      -5.440  -5.015   1.971  1.00  0.00     0.063 C 
ATOM      2  C   UNL     1      -4.980  -4.630   0.606  1.00  0.00     0.038 C 
ATOM      3  O   UNL     1      -4.364  -3.545   0.429  1.00  0.00    -0.550 OA
ATOM      4  O   UNL     1      -5.180  -5.491  -0.466  1.00  0.00    -0.550 OA
ENDROOT
TORSDOF 0
ENDMDL
MODEL 5
REMARK VINA RESULT:    -1.935      1.437      2.066
REMARK INTER + INTRA:          -1.935
REMARK INTER:                  -1.935
REMARK INTRA:                   0.000
REMARK UNBOUND:                 0.000
REMARK SMILES CC(=O)[O-]
REMARK SMILES IDX 1 1 2 2 3 3 4 4
REMARK H PARENT
REMARK Flexibility Score: inf
ROOT
ATOM      1  C   UNL     1      -4.913  -2.888   2.258  1.00  0.00     0.063 C 
ATOM      2  C   UNL     1      -4.817  -3.869   1.139  1.00  0.00     0.038 C 
ATOM      3  O   UNL     1      -4.580  -3.470  -0.031  1.00  0.00    -0.550 OA
ATOM      4  O   UNL     1      -4.933  -5.230   1.394  1.00  0.00    -0.550 OA
ENDROOT
TORSDOF 0
ENDMDL
MODEL 6
REMARK VINA RESULT:    -1.893     10.769     11.062
REMARK INTER + INTRA:          -1.893
REMARK INTER:                  -1.893
REMARK INTRA:                   0.000
REMARK UNBOUND:                 0.000
REMARK SMILES CC(=O)[O-]
REMARK SMILES IDX 1 1 2 2 3 3 4 4
REMARK H PARENT
REMARK Flexibility Score: inf
ROOT
ATOM      1  C   UNL     1       5.225  -8.281  -0.881  1.00  0.00     0.063 C 
ATOM      2  C   UNL     1       5.335  -7.190  -1.891  1.00  0.00     0.038 C 
ATOM      3  O   UNL     1       4.505  -6.243  -1.891  1.00  0.00    -0.550 OA
ATOM      4  O   UNL     1       6.387  -7.184  -2.799  1.00  0.00    -0.550 OA
ENDROOT
TORSDOF 0
ENDMDL
MODEL 7
REMARK VINA RESULT:    -1.878      2.046      2.625
REMARK INTER + INTRA:          -1.878
REMARK INTER:                  -1.878
REMARK INTRA:                   0.000
REMARK UNBOUND:                 0.000
REMARK SMILES CC(=O)[O-]
REMARK SMILES IDX 1 1 2 2 3 3 4 4
REMARK H PARENT
REMARK Flexibility Score: inf
ROOT
ATOM      1  C   UNL     1      -4.777  -4.930   0.574  1.00  0.00     0.063 C 
ATOM      2  C   UNL     1      -5.818  -5.456  -0.355  1.00  0.00     0.038 C 
ATOM      3  O   UNL     1      -6.999  -5.621   0.049  1.00  0.00    -0.550 OA
ATOM      4  O   UNL     1      -5.500  -5.714  -1.682  1.00  0.00    -0.550 OA
ENDROOT
TORSDOF 0
ENDMDL
MODEL 8
REMARK VINA RESULT:    -1.866     10.776     11.175
REMARK INTER + INTRA:          -1.866
REMARK INTER:                  -1.866
REMARK INTRA:                   0.000
REMARK UNBOUND:                 0.000
REMARK SMILES CC(=O)[O-]
REMARK SMILES IDX 1 1 2 2 3 3 4 4
REMARK H PARENT
REMARK Flexibility Score: inf
ROOT
ATOM      1  C   UNL     1       5.027  -4.785  -1.395  1.00  0.00     0.063 C 
ATOM      2  C   UNL     1       5.525  -5.796  -2.372  1.00  0.00     0.038 C 
ATOM      3  O   UNL     1       4.845  -6.827  -2.617  1.00  0.00    -0.550 OA
ATOM      4  O   UNL     1       6.715  -5.577  -3.055  1.00  0.00    -0.550 OA
ENDROOT
TORSDOF 0
ENDMDL
MODEL 9
REMARK VINA RESULT:    -1.777     14.464     14.897
REMARK INTER + INTRA:          -1.777
REMARK INTER:                  -1.777
REMARK INTRA:                   0.000
REMARK UNBOUND:                 0.000
REMARK SMILES CC(=O)[O-]
REMARK SMILES IDX 1 1 2 2 3 3 4 4
REMARK H PARENT
REMARK Flexibility Score: inf
ROOT
ATOM      1  C   UNL     1       3.413   6.080   5.140  1.00  0.00     0.063 C 
ATOM      2  C   UNL     1       2.567   6.493   6.295  1.00  0.00     0.038 C 
ATOM      3  O   UNL     1       2.258   5.656   7.183  1.00  0.00    -0.550 OA
ATOM      4  O   UNL     1       2.161   7.816   6.424  1.00  0.00    -0.550 OA
ENDROOT
TORSDOF 0
ENDMDL
