MODEL 1
REMARK VINA RESULT:    -3.759      0.000      0.000
REMARK INTER + INTRA:          -3.988
REMARK INTER:                  -4.638
REMARK INTRA:                   0.650
REMARK UNBOUND:                 0.650
REMARK SMILES C=C1[C@@H]2CC[C@H]3[C@@H]2C(C)(C)CCC[C@@]13C
REMARK SMILES IDX 14 1 6 2 7 3 3 4 2 5 1 6 4 7 5 8 15 9 8 10 9 11 10 12 11 13
REMARK SMILES IDX 13 15 12 16
REMARK H PARENT
REMARK Flexibility Score: 80.00
ROOT
ATOM      1  C   UNL     1      30.692   8.738  32.884  1.00  0.00    -0.008 C 
ATOM      2  C   UNL     1      32.073   8.874  33.625  1.00  0.00     0.003 C 
ATOM      3  C   UNL     1      31.694   9.559  34.947  1.00  0.00     0.006 C 
ATOM      4  C   UNL     1      31.016  10.742  34.253  1.00  0.00     0.019 C 
ATOM      5  C   UNL     1      30.069  10.044  33.317  1.00  0.00    -0.068 C 
ATOM      6  C   UNL     1      28.908  10.553  32.883  1.00  0.00     0.009 C 
ATOM      7  C   UNL     1      32.160  11.284  33.376  1.00  0.00     0.008 C 
ATOM      8  C   UNL     1      32.932  10.004  32.991  1.00  0.00     0.005 C 
ATOM      9  C   UNL     1      30.831   8.684  31.340  1.00  0.00     0.016 C 
ENDROOT
BRANCH   3  10
ATOM     10  C   UNL     1      30.863   8.736  36.031  1.00  0.00    -0.032 C 
ATOM     11  C   UNL     1      31.564   8.947  37.403  1.00  0.00     0.011 C 
ATOM     12  C   UNL     1      29.408   9.237  36.256  1.00  0.00     0.011 C 
BRANCH  10  13
ATOM     13  C   UNL     1      30.881   7.193  35.778  1.00  0.00     0.007 CG0
ATOM     14  G   UNL     1      30.466   6.608  34.403  1.00  0.00     0.000 G0
ENDBRANCH  10  13
ENDBRANCH   3  10
BRANCH   1  15
ATOM     15  C   UNL     1      29.830   7.522  33.372  1.00  0.00     0.011 C 
BRANCH  15  16
ATOM     16  C   UNL     1      30.463   6.594  34.417  1.00  0.00     0.001 CG0
ATOM     17  G   UNL     1      30.888   7.186  35.786  1.00  0.00     0.000 G0
ENDBRANCH  15  16
ENDBRANCH   1  15
TORSDOF 0
ENDMDL
MODEL 2
REMARK VINA RESULT:    -3.568      1.819      4.028
REMARK INTER + INTRA:          -3.753
REMARK INTER:                  -4.417
REMARK INTRA:                   0.664
REMARK UNBOUND:                 0.650
REMARK SMILES C=C1[C@@H]2CC[C@H]3[C@@H]2C(C)(C)CCC[C@@]13C
REMARK SMILES IDX 14 1 6 2 7 3 3 4 2 5 1 6 4 7 5 8 15 9 8 10 9 11 10 12 11 13
REMARK SMILES IDX 13 15 12 16
REMARK H PARENT
REMARK Flexibility Score: 80.00
ROOT
ATOM      1  C   UNL     1      29.151   7.972  35.417  1.00  0.00    -0.008 C 
ATOM      2  C   UNL     1      30.476   8.593  35.993  1.00  0.00     0.003 C 
ATOM      3  C   UNL     1      31.463   8.456  34.823  1.00  0.00     0.006 C 
ATOM      4  C   UNL     1      31.254   6.946  34.695  1.00  0.00     0.019 C 
ATOM      5  C   UNL     1      29.756   6.852  34.602  1.00  0.00    -0.068 C 
ATOM      6  C   UNL     1      29.088   5.881  33.969  1.00  0.00     0.009 C 
ATOM      7  C   UNL     1      31.624   6.460  36.109  1.00  0.00     0.008 C 
ATOM      8  C   UNL     1      31.147   7.623  37.006  1.00  0.00     0.005 C 
ATOM      9  C   UNL     1      28.215   7.404  36.516  1.00  0.00     0.016 C 
ENDROOT
BRANCH   3  10
ATOM     10  C   UNL     1      31.256   9.364  33.530  1.00  0.00    -0.032 C 
ATOM     11  C   UNL     1      32.639   9.981  33.176  1.00  0.00     0.011 C 
ATOM     12  C   UNL     1      30.837   8.589  32.249  1.00  0.00     0.011 C 
BRANCH  10  13
ATOM     13  C   UNL     1      30.301  10.577  33.777  1.00  0.00     0.007 CG0
ATOM     14  G   UNL     1      28.875  10.363  34.348  1.00  0.00     0.000 G0
ENDBRANCH  10  13
ENDBRANCH   3  10
BRANCH   1  15
ATOM     15  C   UNL     1      28.340   8.951  34.499  1.00  0.00     0.011 C 
BRANCH  15  16
ATOM     16  C   UNL     1      28.888  10.377  34.347  1.00  0.00     0.001 CG0
ATOM     17  G   UNL     1      30.315  10.575  33.773  1.00  0.00     0.000 G0
ENDBRANCH  15  16
ENDBRANCH   1  15
TORSDOF 0
ENDMDL
MODEL 3
REMARK VINA RESULT:    -3.508      1.611      2.912
REMARK INTER + INTRA:          -3.679
REMARK INTER:                  -4.351
REMARK INTRA:                   0.672
REMARK UNBOUND:                 0.650
REMARK SMILES C=C1[C@@H]2CC[C@H]3[C@@H]2C(C)(C)CCC[C@@]13C
REMARK SMILES IDX 14 1 6 2 7 3 3 4 2 5 1 6 4 7 5 8 15 9 8 10 9 11 10 12 11 13
REMARK SMILES IDX 13 15 12 16
REMARK H PARENT
REMARK Flexibility Score: 80.00
ROOT
ATOM      1  C   UNL     1      30.482   9.562  32.874  1.00  0.00    -0.008 C 
ATOM      2  C   UNL     1      29.952   8.146  33.306  1.00  0.00     0.003 C 
ATOM      3  C   UNL     1      30.749   7.850  34.586  1.00  0.00     0.006 C 
ATOM      4  C   UNL     1      32.105   8.044  33.903  1.00  0.00     0.019 C 
ATOM      5  C   UNL     1      31.933   9.393  33.262  1.00  0.00    -0.068 C 
ATOM      6  C   UNL     1      32.928  10.252  33.008  1.00  0.00     0.009 C 
ATOM      7  C   UNL     1      32.025   7.016  32.759  1.00  0.00     0.008 C 
ATOM      8  C   UNL     1      30.527   7.035  32.385  1.00  0.00     0.005 C 
ATOM      9  C   UNL     1      30.351   9.824  31.351  1.00  0.00     0.016 C 
ENDROOT
BRANCH   3  10
ATOM     10  C   UNL     1      30.435   8.692  35.902  1.00  0.00    -0.032 C 
ATOM     11  C   UNL     1      30.309   7.679  37.076  1.00  0.00     0.011 C 
ATOM     12  C   UNL     1      31.569   9.660  36.345  1.00  0.00     0.011 C 
BRANCH  10  13
ATOM     13  C   UNL     1      29.065   9.442  35.840  1.00  0.00     0.007 CG0
ATOM     14  G   UNL     1      28.731  10.391  34.660  1.00  0.00     0.000 G0
ENDBRANCH  10  13
ENDBRANCH   3  10
BRANCH   1  15
ATOM     15  C   UNL     1      29.831  10.750  33.664  1.00  0.00     0.011 C 
BRANCH  15  16
ATOM     16  C   UNL     1      28.729  10.395  34.672  1.00  0.00     0.001 CG0
ATOM     17  G   UNL     1      29.065   9.434  35.842  1.00  0.00     0.000 G0
ENDBRANCH  15  16
ENDBRANCH   1  15
TORSDOF 0
ENDMDL
MODEL 4
REMARK VINA RESULT:    -3.488      1.537      3.723
REMARK INTER + INTRA:          -3.654
REMARK INTER:                  -4.323
REMARK INTRA:                   0.669
REMARK UNBOUND:                 0.650
REMARK SMILES C=C1[C@@H]2CC[C@H]3[C@@H]2C(C)(C)CCC[C@@]13C
REMARK SMILES IDX 14 1 6 2 7 3 3 4 2 5 1 6 4 7 5 8 15 9 8 10 9 11 10 12 11 13
REMARK SMILES IDX 13 15 12 16
REMARK H PARENT
REMARK Flexibility Score: 80.00
ROOT
ATOM      1  C   UNL     1      30.286   8.311  35.085  1.00  0.00    -0.008 C 
ATOM      2  C   UNL     1      29.325   9.138  34.154  1.00  0.00     0.003 C 
ATOM      3  C   UNL     1      30.178  10.355  33.764  1.00  0.00     0.006 C 
ATOM      4  C   UNL     1      30.453  10.750  35.216  1.00  0.00     0.019 C 
ATOM      5  C   UNL     1      30.967   9.460  35.792  1.00  0.00    -0.068 C 
ATOM      6  C   UNL     1      31.821   9.366  36.819  1.00  0.00     0.009 C 
ATOM      7  C   UNL     1      29.025  10.923  35.766  1.00  0.00     0.008 C 
ATOM      8  C   UNL     1      28.227   9.854  34.989  1.00  0.00     0.005 C 
ATOM      9  C   UNL     1      29.530   7.415  36.101  1.00  0.00     0.016 C 
ENDROOT
BRANCH   3  10
ATOM     10  C   UNL     1      31.419  10.145  32.786  1.00  0.00    -0.032 C 
ATOM     11  C   UNL     1      31.339  11.254  31.698  1.00  0.00     0.011 C 
ATOM     12  C   UNL     1      32.812  10.348  33.447  1.00  0.00     0.011 C 
BRANCH  10  13
ATOM     13  C   UNL     1      31.370   8.787  32.013  1.00  0.00     0.007 CG0
ATOM     14  G   UNL     1      31.225   7.444  32.773  1.00  0.00     0.000 G0
ENDBRANCH  10  13
ENDBRANCH   3  10
BRANCH   1  15
ATOM     15  C   UNL     1      31.332   7.442  34.303  1.00  0.00     0.011 C 
BRANCH  15  16
ATOM     16  C   UNL     1      31.228   7.440  32.772  1.00  0.00     0.001 CG0
ATOM     17  G   UNL     1      31.371   8.782  32.008  1.00  0.00     0.000 G0
ENDBRANCH  15  16
ENDBRANCH   1  15
TORSDOF 0
ENDMDL
MODEL 5
REMARK VINA RESULT:    -3.470      1.618      3.787
REMARK INTER + INTRA:          -3.631
REMARK INTER:                  -4.292
REMARK INTRA:                   0.661
REMARK UNBOUND:                 0.650
REMARK SMILES C=C1[C@@H]2CC[C@H]3[C@@H]2C(C)(C)CCC[C@@]13C
REMARK SMILES IDX 14 1 6 2 7 3 3 4 2 5 1 6 4 7 5 8 15 9 8 10 9 11 10 12 11 13
REMARK SMILES IDX 13 15 12 16
REMARK H PARENT
REMARK Flexibility Score: 80.00
ROOT
ATOM      1  C   UNL     1      29.820  10.239  35.710  1.00  0.00    -0.008 C 
ATOM      2  C   UNL     1      31.343   9.848  35.678  1.00  0.00     0.003 C 
ATOM      3  C   UNL     1      31.311   8.339  35.391  1.00  0.00     0.006 C 
ATOM      4  C   UNL     1      30.411   8.031  36.589  1.00  0.00     0.019 C 
ATOM      5  C   UNL     1      29.278   8.995  36.375  1.00  0.00    -0.068 C 
ATOM      6  C   UNL     1      28.019   8.801  36.790  1.00  0.00     0.009 C 
ATOM      7  C   UNL     1      31.242   8.602  37.755  1.00  0.00     0.008 C 
ATOM      8  C   UNL     1      31.938   9.821  37.114  1.00  0.00     0.005 C 
ATOM      9  C   UNL     1      29.530  11.492  36.576  1.00  0.00     0.016 C 
ENDROOT
BRANCH   3  10
ATOM     10  C   UNL     1      30.853   7.838  33.949  1.00  0.00    -0.032 C 
ATOM     11  C   UNL     1      31.892   6.779  33.479  1.00  0.00     0.011 C 
ATOM     12  C   UNL     1      29.492   7.086  33.921  1.00  0.00     0.011 C 
BRANCH  10  13
ATOM     13  C   UNL     1      30.881   8.968  32.868  1.00  0.00     0.007 CG0
ATOM     14  G   UNL     1      30.129  10.304  33.097  1.00  0.00     0.000 G0
ENDBRANCH  10  13
ENDBRANCH   3  10
BRANCH   1  15
ATOM     15  C   UNL     1      29.186  10.430  34.289  1.00  0.00     0.011 C 
BRANCH  15  16
ATOM     16  C   UNL     1      30.128  10.306  33.084  1.00  0.00     0.001 CG0
ATOM     17  G   UNL     1      30.880   8.969  32.854  1.00  0.00     0.000 G0
ENDBRANCH  15  16
ENDBRANCH   1  15
TORSDOF 0
ENDMDL
MODEL 6
REMARK VINA RESULT:    -3.421      6.799      8.994
REMARK INTER + INTRA:          -3.571
REMARK INTER:                  -4.241
REMARK INTRA:                   0.669
REMARK UNBOUND:                 0.650
REMARK SMILES C=C1[C@@H]2CC[C@H]3[C@@H]2C(C)(C)CCC[C@@]13C
REMARK SMILES IDX 14 1 6 2 7 3 3 4 2 5 1 6 4 7 5 8 15 9 8 10 9 11 10 12 11 13
REMARK SMILES IDX 13 15 12 16
REMARK H PARENT
REMARK Flexibility Score: 80.00
ROOT
ATOM      1  C   UNL     1      30.385   9.211  24.172  1.00  0.00    -0.008 C 
ATOM      2  C   UNL     1      31.223  10.137  25.128  1.00  0.00     0.003 C 
ATOM      3  C   UNL     1      30.146  10.819  25.986  1.00  0.00     0.006 C 
ATOM      4  C   UNL     1      29.387  11.365  24.775  1.00  0.00     0.019 C 
ATOM      5  C   UNL     1      29.202  10.123  23.946  1.00  0.00    -0.068 C 
ATOM      6  C   UNL     1      28.192   9.917  23.092  1.00  0.00     0.009 C 
ATOM      7  C   UNL     1      30.481  12.188  24.069  1.00  0.00     0.008 C 
ATOM      8  C   UNL     1      31.762  11.378  24.363  1.00  0.00     0.005 C 
ATOM      9  C   UNL     1      31.105   8.908  22.832  1.00  0.00     0.016 C 
ENDROOT
BRANCH   3  10
ATOM     10  C   UNL     1      29.345   9.948  27.054  1.00  0.00    -0.032 C 
ATOM     11  C   UNL     1      29.331  10.753  28.385  1.00  0.00     0.011 C 
ATOM     12  C   UNL     1      27.843   9.724  26.719  1.00  0.00     0.011 C 
BRANCH  10  13
ATOM     13  C   UNL     1      30.044   8.590  27.387  1.00  0.00     0.007 CG0
ATOM     14  G   UNL     1      30.426   7.595  26.261  1.00  0.00     0.000 G0
ENDBRANCH  10  13
ENDBRANCH   3  10
BRANCH   1  15
ATOM     15  C   UNL     1      29.930   7.865  24.834  1.00  0.00     0.011 C 
BRANCH  15  16
ATOM     16  C   UNL     1      30.425   7.589  26.261  1.00  0.00     0.001 CG0
ATOM     17  G   UNL     1      30.047   8.581  27.391  1.00  0.00     0.000 G0
ENDBRANCH  15  16
ENDBRANCH   1  15
TORSDOF 0
ENDMDL
MODEL 7
REMARK VINA RESULT:    -3.371      6.589      8.944
REMARK INTER + INTRA:          -3.509
REMARK INTER:                  -4.170
REMARK INTRA:                   0.661
REMARK UNBOUND:                 0.650
REMARK SMILES C=C1[C@@H]2CC[C@H]3[C@@H]2C(C)(C)CCC[C@@]13C
REMARK SMILES IDX 14 1 6 2 7 3 3 4 2 5 1 6 4 7 5 8 15 9 8 10 9 11 10 12 11 13
REMARK SMILES IDX 13 15 12 16
REMARK H PARENT
REMARK Flexibility Score: 80.00
ROOT
ATOM      1  C   UNL     1      28.418  12.841  27.608  1.00  0.00    -0.008 C 
ATOM      2  C   UNL     1      29.882  12.336  27.882  1.00  0.00     0.003 C 
ATOM      3  C   UNL     1      29.844  10.876  27.403  1.00  0.00     0.006 C 
ATOM      4  C   UNL     1      28.667  10.508  28.309  1.00  0.00     0.019 C 
ATOM      5  C   UNL     1      27.669  11.577  27.963  1.00  0.00    -0.068 C 
ATOM      6  C   UNL     1      26.340  11.438  28.044  1.00  0.00     0.009 C 
ATOM      7  C   UNL     1      29.220  10.875  29.700  1.00  0.00     0.008 C 
ATOM      8  C   UNL     1      30.111  12.100  29.401  1.00  0.00     0.005 C 
ATOM      9  C   UNL     1      27.991  14.008  28.537  1.00  0.00     0.016 C 
ENDROOT
BRANCH   3  10
ATOM     10  C   UNL     1      29.722  10.580  25.842  1.00  0.00    -0.032 C 
ATOM     11  C   UNL     1      30.787   9.500  25.495  1.00  0.00     0.011 C 
ATOM     12  C   UNL     1      28.371   9.949  25.401  1.00  0.00     0.011 C 
BRANCH  10  13
ATOM     13  C   UNL     1      30.068  11.818  24.952  1.00  0.00     0.007 CG0
ATOM     14  G   UNL     1      29.351  13.176  25.168  1.00  0.00     0.000 G0
ENDBRANCH  10  13
ENDBRANCH   3  10
BRANCH   1  15
ATOM     15  C   UNL     1      28.156  13.241  26.115  1.00  0.00     0.011 C 
BRANCH  15  16
ATOM     16  C   UNL     1      29.353  13.180  25.157  1.00  0.00     0.001 CG0
ATOM     17  G   UNL     1      30.071  11.823  24.940  1.00  0.00     0.000 G0
ENDBRANCH  15  16
ENDBRANCH   1  15
TORSDOF 0
ENDMDL
MODEL 8
REMARK VINA RESULT:    -3.204      2.136      3.880
REMARK INTER + INTRA:          -3.304
REMARK INTER:                  -3.974
REMARK INTRA:                   0.671
REMARK UNBOUND:                 0.650
REMARK SMILES C=C1[C@@H]2CC[C@H]3[C@@H]2C(C)(C)CCC[C@@]13C
REMARK SMILES IDX 14 1 6 2 7 3 3 4 2 5 1 6 4 7 5 8 15 9 8 10 9 11 10 12 11 13
REMARK SMILES IDX 13 15 12 16
REMARK H PARENT
REMARK Flexibility Score: 80.00
ROOT
ATOM      1  C   UNL     1      30.685   9.467  34.866  1.00  0.00    -0.008 C 
ATOM      2  C   UNL     1      30.008   8.407  33.922  1.00  0.00     0.003 C 
ATOM      3  C   UNL     1      29.190   7.544  34.896  1.00  0.00     0.006 C 
ATOM      4  C   UNL     1      30.401   7.208  35.769  1.00  0.00     0.019 C 
ATOM      5  C   UNL     1      30.959   8.575  36.055  1.00  0.00    -0.068 C 
ATOM      6  C   UNL     1      31.654   8.904  37.151  1.00  0.00     0.009 C 
ATOM      7  C   UNL     1      31.354   6.565  34.744  1.00  0.00     0.008 C 
ATOM      8  C   UNL     1      31.041   7.346  33.450  1.00  0.00     0.005 C 
ATOM      9  C   UNL     1      32.010  10.035  34.294  1.00  0.00     0.016 C 
ENDROOT
BRANCH   3  10
ATOM     10  C   UNL     1      27.903   8.176  35.592  1.00  0.00    -0.032 C 
ATOM     11  C   UNL     1      26.752   7.138  35.459  1.00  0.00     0.011 C 
ATOM     12  C   UNL     1      28.039   8.411  37.123  1.00  0.00     0.011 C 
BRANCH  10  13
ATOM     13  C   UNL     1      27.392   9.470  34.879  1.00  0.00     0.007 CG0
ATOM     14  G   UNL     1      28.343  10.670  34.632  1.00  0.00     0.000 G0
ENDBRANCH  10  13
ENDBRANCH   3  10
BRANCH   1  15
ATOM     15  C   UNL     1      29.740  10.652  35.267  1.00  0.00     0.011 C 
BRANCH  15  16
ATOM     16  C   UNL     1      28.344  10.674  34.631  1.00  0.00     0.001 CG0
ATOM     17  G   UNL     1      27.387   9.480  34.880  1.00  0.00     0.000 G0
ENDBRANCH  15  16
ENDBRANCH   1  15
TORSDOF 0
ENDMDL
MODEL 9
REMARK VINA RESULT:    -3.155     10.099     12.302
REMARK INTER + INTRA:          -3.242
REMARK INTER:                  -3.907
REMARK INTRA:                   0.664
REMARK UNBOUND:                 0.650
REMARK SMILES C=C1[C@@H]2CC[C@H]3[C@@H]2C(C)(C)CCC[C@@]13C
REMARK SMILES IDX 14 1 6 2 7 3 3 4 2 5 1 6 4 7 5 8 15 9 8 10 9 11 10 12 11 13
REMARK SMILES IDX 13 15 12 16
REMARK H PARENT
REMARK Flexibility Score: 80.00
ROOT
ATOM      1  C   UNL     1      29.974  11.832  22.824  1.00  0.00    -0.008 C 
ATOM      2  C   UNL     1      30.486  10.813  23.907  1.00  0.00     0.003 C 
ATOM      3  C   UNL     1      29.945   9.466  23.404  1.00  0.00     0.006 C 
ATOM      4  C   UNL     1      28.496   9.953  23.358  1.00  0.00     0.019 C 
ATOM      5  C   UNL     1      28.623  11.213  22.547  1.00  0.00    -0.068 C 
ATOM      6  C   UNL     1      27.655  11.729  21.779  1.00  0.00     0.009 C 
ATOM      7  C   UNL     1      28.275  10.405  24.815  1.00  0.00     0.008 C 
ATOM      8  C   UNL     1      29.665  10.942  25.220  1.00  0.00     0.005 C 
ATOM      9  C   UNL     1      29.812  13.274  23.371  1.00  0.00     0.016 C 
ENDROOT
BRANCH   3  10
ATOM     10  C   UNL     1      30.573   8.827  22.086  1.00  0.00    -0.032 C 
ATOM     11  C   UNL     1      30.866   7.331  22.395  1.00  0.00     0.011 C 
ATOM     12  C   UNL     1      29.618   8.791  20.859  1.00  0.00     0.011 C 
BRANCH  10  13
ATOM     13  C   UNL     1      31.949   9.457  21.693  1.00  0.00     0.007 CG0
ATOM     14  G   UNL     1      32.101  10.990  21.518  1.00  0.00     0.000 G0
ENDBRANCH  10  13
ENDBRANCH   3  10
BRANCH   1  15
ATOM     15  C   UNL     1      30.847  11.863  21.522  1.00  0.00     0.011 C 
BRANCH  15  16
ATOM     16  C   UNL     1      32.105  10.984  21.506  1.00  0.00     0.001 CG0
ATOM     17  G   UNL     1      31.952   9.453  21.694  1.00  0.00     0.000 G0
ENDBRANCH  15  16
ENDBRANCH   1  15
TORSDOF 0
ENDMDL
