MODEL 1
REMARK VINA RESULT:    -3.232      0.000      0.000
REMARK INTER + INTRA:          -3.817
REMARK INTER:                  -3.798
REMARK INTRA:                  -0.019
REMARK UNBOUND:                -0.019
REMARK SMILES CCCCC(=O)[O-]
REMARK SMILES IDX 4 1 5 2 6 3 7 4 3 5 2 6 1 7
REMARK H PARENT
REMARK Flexibility Score: inf
ROOT
ATOM      1  C   UNL     1      -9.600  -2.041   3.488  1.00  0.00     0.053 C 
ENDROOT
BRANCH   1   2
ATOM      2  C   UNL     1      -8.939  -0.778   3.034  1.00  0.00     0.041 C 
ATOM      3  O   UNL     1      -7.754  -0.799   2.611  1.00  0.00    -0.550 OA
ATOM      4  O   UNL     1      -9.616   0.432   3.127  1.00  0.00    -0.550 OA
ENDBRANCH   1   2
BRANCH   1   5
ATOM      5  C   UNL     1      -8.582  -2.961   4.175  1.00  0.00     0.006 C 
BRANCH   5   6
ATOM      6  C   UNL     1      -9.211  -3.803   5.296  1.00  0.00    -0.003 C 
ATOM      7  C   UNL     1      -8.265  -4.015   6.477  1.00  0.00     0.004 C 
ENDBRANCH   5   6
ENDBRANCH   1   5
TORSDOF 3
ENDMDL
MODEL 2
REMARK VINA RESULT:    -3.217      0.999      1.416
REMARK INTER + INTRA:          -3.800
REMARK INTER:                  -3.779
REMARK INTRA:                  -0.021
REMARK UNBOUND:                -0.019
REMARK SMILES CCCCC(=O)[O-]
REMARK SMILES IDX 4 1 5 2 6 3 7 4 3 5 2 6 1 7
REMARK H PARENT
REMARK Flexibility Score: inf
ROOT
ATOM      1  C   UNL     1      -9.684  -2.934   3.127  1.00  0.00     0.053 C 
ENDROOT
BRANCH   1   2
ATOM      2  C   UNL     1      -9.511  -1.578   2.521  1.00  0.00     0.041 C 
ATOM      3  O   UNL     1     -10.452  -1.047   1.875  1.00  0.00    -0.550 OA
ATOM      4  O   UNL     1      -8.290  -0.922   2.625  1.00  0.00    -0.550 OA
ENDBRANCH   1   2
BRANCH   1   5
ATOM      5  C   UNL     1      -8.676  -3.147   4.264  1.00  0.00     0.006 C 
BRANCH   5   6
ATOM      6  C   UNL     1      -9.275  -3.922   5.447  1.00  0.00    -0.003 C 
ATOM      7  C   UNL     1      -8.252  -4.209   6.545  1.00  0.00     0.004 C 
ENDBRANCH   5   6
ENDBRANCH   1   5
TORSDOF 3
ENDMDL
MODEL 3
REMARK VINA RESULT:    -3.206      0.891      1.687
REMARK INTER + INTRA:          -3.787
REMARK INTER:                  -3.738
REMARK INTRA:                  -0.049
REMARK UNBOUND:                -0.019
REMARK SMILES CCCCC(=O)[O-]
REMARK SMILES IDX 4 1 5 2 6 3 7 4 3 5 2 6 1 7
REMARK H PARENT
REMARK Flexibility Score: inf
ROOT
ATOM      1  C   UNL     1      -9.747  -2.006   2.297  1.00  0.00     0.053 C 
ENDROOT
BRANCH   1   2
ATOM      2  C   UNL     1      -9.235  -0.627   2.023  1.00  0.00     0.041 C 
ATOM      3  O   UNL     1     -10.040   0.331   1.880  1.00  0.00    -0.550 OA
ATOM      4  O   UNL     1      -7.871  -0.410   1.875  1.00  0.00    -0.550 OA
ENDBRANCH   1   2
BRANCH   1   5
ATOM      5  C   UNL     1      -9.747  -2.288   3.805  1.00  0.00     0.006 C 
BRANCH   5   6
ATOM      6  C   UNL     1      -8.536  -3.122   4.250  1.00  0.00    -0.003 C 
ATOM      7  C   UNL     1      -8.742  -3.782   5.612  1.00  0.00     0.004 C 
ENDBRANCH   5   6
ENDBRANCH   1   5
TORSDOF 3
ENDMDL
MODEL 4
REMARK VINA RESULT:    -3.141      2.269      3.865
REMARK INTER + INTRA:          -3.711
REMARK INTER:                  -3.626
REMARK INTRA:                  -0.084
REMARK UNBOUND:                -0.019
REMARK SMILES CCCCC(=O)[O-]
REMARK SMILES IDX 4 1 5 2 6 3 7 4 3 5 2 6 1 7
REMARK H PARENT
REMARK Flexibility Score: inf
ROOT
ATOM      1  C   UNL     1     -10.046  -1.766   3.523  1.00  0.00     0.053 C 
ENDROOT
BRANCH   1   2
ATOM      2  C   UNL     1      -9.403  -3.000   4.072  1.00  0.00     0.041 C 
ATOM      3  O   UNL     1      -8.155  -3.048   4.228  1.00  0.00    -0.550 OA
ATOM      4  O   UNL     1     -10.178  -4.117   4.362  1.00  0.00    -0.550 OA
ENDBRANCH   1   2
BRANCH   1   5
ATOM      5  C   UNL     1      -9.356  -1.334   2.223  1.00  0.00     0.006 C 
BRANCH   5   6
ATOM      6  C   UNL     1      -8.565  -0.026   2.381  1.00  0.00    -0.003 C 
ATOM      7  C   UNL     1      -7.126  -0.141   1.880  1.00  0.00     0.004 C 
ENDBRANCH   5   6
ENDBRANCH   1   5
TORSDOF 3
ENDMDL
MODEL 5
REMARK VINA RESULT:    -3.135      2.723      4.035
REMARK INTER + INTRA:          -3.703
REMARK INTER:                  -3.681
REMARK INTRA:                  -0.022
REMARK UNBOUND:                -0.019
REMARK SMILES CCCCC(=O)[O-]
REMARK SMILES IDX 4 1 5 2 6 3 7 4 3 5 2 6 1 7
REMARK H PARENT
REMARK Flexibility Score: inf
ROOT
ATOM      1  C   UNL     1      -8.319  -3.171   4.331  1.00  0.00     0.053 C 
ENDROOT
BRANCH   1   2
ATOM      2  C   UNL     1      -8.967  -3.607   5.607  1.00  0.00     0.041 C 
ATOM      3  O   UNL     1      -8.260  -3.965   6.586  1.00  0.00    -0.550 OA
ATOM      4  O   UNL     1     -10.352  -3.668   5.697  1.00  0.00    -0.550 OA
ENDBRANCH   1   2
BRANCH   1   5
ATOM      5  C   UNL     1      -9.296  -2.338   3.491  1.00  0.00     0.006 C 
BRANCH   5   6
ATOM      6  C   UNL     1      -8.611  -1.155   2.790  1.00  0.00    -0.003 C 
ATOM      7  C   UNL     1      -9.344   0.168   3.011  1.00  0.00     0.004 C 
ENDBRANCH   5   6
ENDBRANCH   1   5
TORSDOF 3
ENDMDL
MODEL 6
REMARK VINA RESULT:    -3.100      1.772      2.215
REMARK INTER + INTRA:          -3.663
REMARK INTER:                  -3.640
REMARK INTRA:                  -0.023
REMARK UNBOUND:                -0.019
REMARK SMILES CCCCC(=O)[O-]
REMARK SMILES IDX 4 1 5 2 6 3 7 4 3 5 2 6 1 7
REMARK H PARENT
REMARK Flexibility Score: inf
ROOT
ATOM      1  C   UNL     1      -8.636  -3.105   4.093  1.00  0.00     0.053 C 
ENDROOT
BRANCH   1   2
ATOM      2  C   UNL     1      -9.655  -2.654   3.095  1.00  0.00     0.041 C 
ATOM      3  O   UNL     1     -10.787  -3.204   3.052  1.00  0.00    -0.550 OA
ATOM      4  O   UNL     1      -9.336  -1.662   2.177  1.00  0.00    -0.550 OA
ENDBRANCH   1   2
BRANCH   1   5
ATOM      5  C   UNL     1      -9.293  -3.344   5.459  1.00  0.00     0.006 C 
BRANCH   5   6
ATOM      6  C   UNL     1      -8.422  -4.200   6.391  1.00  0.00    -0.003 C 
ATOM      7  C   UNL     1      -8.978  -5.610   6.588  1.00  0.00     0.004 C 
ENDBRANCH   5   6
ENDBRANCH   1   5
TORSDOF 3
ENDMDL
MODEL 7
REMARK VINA RESULT:    -3.027      3.188      4.423
REMARK INTER + INTRA:          -3.577
REMARK INTER:                  -3.557
REMARK INTRA:                  -0.020
REMARK UNBOUND:                -0.019
REMARK SMILES CCCCC(=O)[O-]
REMARK SMILES IDX 4 1 5 2 6 3 7 4 3 5 2 6 1 7
REMARK H PARENT
REMARK Flexibility Score: inf
ROOT
ATOM      1  C   UNL     1      -9.536  -3.605   5.174  1.00  0.00     0.053 C 
ENDROOT
BRANCH   1   2
ATOM      2  C   UNL     1      -8.809  -4.426   6.191  1.00  0.00     0.041 C 
ATOM      3  O   UNL     1      -8.001  -3.879   6.987  1.00  0.00    -0.550 OA
ATOM      4  O   UNL     1      -8.986  -5.804   6.226  1.00  0.00    -0.550 OA
ENDBRANCH   1   2
BRANCH   1   5
ATOM      5  C   UNL     1      -8.548  -3.003   4.166  1.00  0.00     0.006 C 
BRANCH   5   6
ATOM      6  C   UNL     1      -9.192  -1.928   3.277  1.00  0.00    -0.003 C 
ATOM      7  C   UNL     1     -10.317  -2.481   2.403  1.00  0.00     0.004 C 
ENDBRANCH   5   6
ENDBRANCH   1   5
TORSDOF 3
ENDMDL
MODEL 8
REMARK VINA RESULT:    -2.959      2.781      3.602
REMARK INTER + INTRA:          -3.496
REMARK INTER:                  -3.415
REMARK INTRA:                  -0.082
REMARK UNBOUND:                -0.019
REMARK SMILES CCCCC(=O)[O-]
REMARK SMILES IDX 4 1 5 2 6 3 7 4 3 5 2 6 1 7
REMARK H PARENT
REMARK Flexibility Score: inf
ROOT
ATOM      1  C   UNL     1      -8.593  -4.550   6.270  1.00  0.00     0.053 C 
ENDROOT
BRANCH   1   2
ATOM      2  C   UNL     1      -8.965  -3.538   5.233  1.00  0.00     0.041 C 
ATOM      3  O   UNL     1      -8.130  -3.190   4.357  1.00  0.00    -0.550 OA
ATOM      4  O   UNL     1     -10.219  -2.940   5.265  1.00  0.00    -0.550 OA
ENDBRANCH   1   2
BRANCH   1   5
ATOM      5  C   UNL     1      -9.631  -5.678   6.315  1.00  0.00     0.006 C 
BRANCH   5   6
ATOM      6  C   UNL     1      -9.767  -6.410   4.971  1.00  0.00    -0.003 C 
ATOM      7  C   UNL     1      -9.276  -7.855   5.032  1.00  0.00     0.004 C 
ENDBRANCH   5   6
ENDBRANCH   1   5
TORSDOF 3
ENDMDL
MODEL 9
REMARK VINA RESULT:    -2.879      2.397      3.860
REMARK INTER + INTRA:          -3.403
REMARK INTER:                  -3.345
REMARK INTRA:                  -0.058
REMARK UNBOUND:                -0.019
REMARK SMILES CCCCC(=O)[O-]
REMARK SMILES IDX 4 1 5 2 6 3 7 4 3 5 2 6 1 7
REMARK H PARENT
REMARK Flexibility Score: inf
ROOT
ATOM      1  C   UNL     1      -8.652  -0.892   2.949  1.00  0.00     0.053 C 
ENDROOT
BRANCH   1   2
ATOM      2  C   UNL     1      -9.018  -2.291   3.329  1.00  0.00     0.041 C 
ATOM      3  O   UNL     1      -8.298  -2.937   4.135  1.00  0.00    -0.550 OA
ATOM      4  O   UNL     1     -10.126  -2.900   2.754  1.00  0.00    -0.550 OA
ENDBRANCH   1   2
BRANCH   1   5
ATOM      5  C   UNL     1      -9.681  -0.317   1.966  1.00  0.00     0.006 C 
BRANCH   5   6
ATOM      6  C   UNL     1     -10.356   0.957   2.496  1.00  0.00    -0.003 C 
ATOM      7  C   UNL     1     -10.483   0.969   4.018  1.00  0.00     0.004 C 
ENDBRANCH   5   6
ENDBRANCH   1   5
TORSDOF 3
ENDMDL
