MODEL 1
REMARK VINA RESULT:    -3.277      0.000      0.000
REMARK INTER + INTRA:          -4.601
REMARK INTER:                  -4.235
REMARK INTRA:                  -0.366
REMARK UNBOUND:                -0.366
REMARK SMILES CCO[C@H]1O[C@@H](CO)[C@H](O)[C@H](O)[C@@H]1O
REMARK SMILES IDX 4 1 13 2 11 3 9 4 6 5 5 6 3 7 2 8 1 9 14 10 12 12 7 14 8 15
REMARK SMILES IDX 10 17
REMARK H PARENT 14 11 12 13 8 16 10 18
REMARK Flexibility Score: inf
ROOT
ATOM      1  C   UNL     1      14.432  -6.688   3.682  1.00  0.00     0.281 C 
ATOM      2  C   UNL     1      15.401  -5.600   4.242  1.00  0.00     0.202 C 
ATOM      3  C   UNL     1      16.835  -5.783   3.703  1.00  0.00     0.179 C 
ATOM      4  C   UNL     1      17.329  -7.245   3.844  1.00  0.00     0.177 C 
ATOM      5  C   UNL     1      16.162  -8.249   3.641  1.00  0.00     0.178 C 
ATOM      6  O   UNL     1      15.120  -7.649   2.892  1.00  0.00    -0.341 OA
ENDROOT
BRANCH   1   7
ATOM      7  O   UNL     1      13.460  -6.047   2.875  1.00  0.00    -0.350 OA
BRANCH   7   8
ATOM      8  C   UNL     1      12.516  -5.371   3.682  1.00  0.00     0.160 C 
ATOM      9  C   UNL     1      11.948  -6.342   4.704  1.00  0.00     0.035 C 
ENDBRANCH   7   8
ENDBRANCH   1   7
BRANCH   2  10
ATOM     10  O   UNL     1      15.384  -5.576   5.650  1.00  0.00    -0.385 OA
ATOM     11  H   UNL     1      16.278  -5.859   5.973  1.00  0.00     0.211 HD
ENDBRANCH   2  10
BRANCH   3  12
ATOM     12  O   UNL     1      17.706  -4.885   4.344  1.00  0.00    -0.387 OA
ATOM     13  H   UNL     1      17.285  -3.988   4.284  1.00  0.00     0.211 HD
ENDBRANCH   3  12
BRANCH   5  14
ATOM     14  C   UNL     1      16.628  -9.513   2.903  1.00  0.00     0.191 C 
BRANCH  14  15
ATOM     15  O   UNL     1      18.027  -9.604   2.902  1.00  0.00    -0.394 OA
ATOM     16  H   UNL     1      18.372  -8.688   3.067  1.00  0.00     0.210 HD
ENDBRANCH  14  15
ENDBRANCH   5  14
BRANCH   4  17
ATOM     17  O   UNL     1      17.901  -7.458   5.111  1.00  0.00    -0.387 OA
ATOM     18  H   UNL     1      18.789  -7.878   4.965  1.00  0.00     0.211 HD
ENDBRANCH   4  17
TORSDOF 7
ENDMDL
MODEL 2
REMARK VINA RESULT:    -3.107      7.944     11.161
REMARK INTER + INTRA:          -4.382
REMARK INTER:                  -4.060
REMARK INTRA:                  -0.321
REMARK UNBOUND:                -0.366
REMARK SMILES CCO[C@H]1O[C@@H](CO)[C@H](O)[C@H](O)[C@@H]1O
REMARK SMILES IDX 4 1 13 2 11 3 9 4 6 5 5 6 3 7 2 8 1 9 14 10 12 12 7 14 8 15
REMARK SMILES IDX 10 17
REMARK H PARENT 14 11 12 13 8 16 10 18
REMARK Flexibility Score: inf
ROOT
ATOM      1  C   UNL     1       6.607  -7.465   5.018  1.00  0.00     0.281 C 
ATOM      2  C   UNL     1       5.695  -7.444   3.752  1.00  0.00     0.202 C 
ATOM      3  C   UNL     1       4.199  -7.428   4.128  1.00  0.00     0.179 C 
ATOM      4  C   UNL     1       3.850  -8.512   5.178  1.00  0.00     0.177 C 
ATOM      5  C   UNL     1       5.022  -8.719   6.176  1.00  0.00     0.178 C 
ATOM      6  O   UNL     1       5.845  -7.568   6.215  1.00  0.00    -0.341 OA
ENDROOT
BRANCH   1   7
ATOM      7  O   UNL     1       7.349  -6.258   5.053  1.00  0.00    -0.350 OA
BRANCH   7   8
ATOM      8  C   UNL     1       8.173  -6.150   3.909  1.00  0.00     0.160 C 
ATOM      9  C   UNL     1       9.520  -5.576   4.318  1.00  0.00     0.035 C 
ENDBRANCH   7   8
ENDBRANCH   1   7
BRANCH   2  10
ATOM     10  O   UNL     1       5.993  -8.518   2.890  1.00  0.00    -0.385 OA
ATOM     11  H   UNL     1       5.719  -8.260   1.973  1.00  0.00     0.211 HD
ENDBRANCH   2  10
BRANCH   3  12
ATOM     12  O   UNL     1       3.412  -7.565   2.972  1.00  0.00    -0.387 OA
ATOM     13  H   UNL     1       3.804  -8.312   2.448  1.00  0.00     0.211 HD
ENDBRANCH   3  12
BRANCH   5  14
ATOM     14  C   UNL     1       4.509  -8.999   7.597  1.00  0.00     0.191 C 
BRANCH  14  15
ATOM     15  O   UNL     1       3.230  -9.575   7.564  1.00  0.00    -0.394 OA
ATOM     16  H   UNL     1       3.363 -10.559   7.568  1.00  0.00     0.210 HD
ENDBRANCH  14  15
ENDBRANCH   5  14
BRANCH   4  17
ATOM     17  O   UNL     1       3.561  -9.738   4.552  1.00  0.00    -0.387 OA
ATOM     18  H   UNL     1       3.036 -10.282   5.197  1.00  0.00     0.211 HD
ENDBRANCH   4  17
TORSDOF 7
ENDMDL
MODEL 3
REMARK VINA RESULT:    -3.084      1.555      4.466
REMARK INTER + INTRA:          -4.352
REMARK INTER:                  -4.076
REMARK INTRA:                  -0.276
REMARK UNBOUND:                -0.366
REMARK SMILES CCO[C@H]1O[C@@H](CO)[C@H](O)[C@H](O)[C@@H]1O
REMARK SMILES IDX 4 1 13 2 11 3 9 4 6 5 5 6 3 7 2 8 1 9 14 10 12 12 7 14 8 15
REMARK SMILES IDX 10 17
REMARK H PARENT 14 11 12 13 8 16 10 18
REMARK Flexibility Score: inf
ROOT
ATOM      1  C   UNL     1      16.547  -7.750   3.895  1.00  0.00     0.281 C 
ATOM      2  C   UNL     1      15.124  -7.500   3.304  1.00  0.00     0.202 C 
ATOM      3  C   UNL     1      14.777  -5.997   3.271  1.00  0.00     0.179 C 
ATOM      4  C   UNL     1      15.062  -5.303   4.627  1.00  0.00     0.177 C 
ATOM      5  C   UNL     1      16.310  -5.918   5.316  1.00  0.00     0.178 C 
ATOM      6  O   UNL     1      17.144  -6.544   4.358  1.00  0.00    -0.341 OA
ENDROOT
BRANCH   1   7
ATOM      7  O   UNL     1      17.363  -8.300   2.875  1.00  0.00    -0.350 OA
BRANCH   7   8
ATOM      8  C   UNL     1      17.491  -9.698   3.045  1.00  0.00     0.160 C 
ATOM      9  C   UNL     1      17.503 -10.019   4.531  1.00  0.00     0.035 C 
ENDBRANCH   7   8
ENDBRANCH   1   7
BRANCH   2  10
ATOM     10  O   UNL     1      14.145  -8.234   4.000  1.00  0.00    -0.385 OA
ATOM     11  H   UNL     1      13.759  -7.646   4.698  1.00  0.00     0.211 HD
ENDBRANCH   2  10
BRANCH   3  12
ATOM     12  O   UNL     1      13.439  -5.823   2.879  1.00  0.00    -0.387 OA
ATOM     13  H   UNL     1      13.285  -6.434   2.112  1.00  0.00     0.211 HD
ENDBRANCH   3  12
BRANCH   5  14
ATOM     14  C   UNL     1      17.131  -4.850   6.053  1.00  0.00     0.191 C 
BRANCH  14  15
ATOM     15  O   UNL     1      16.623  -4.628   7.341  1.00  0.00    -0.394 OA
ATOM     16  H   UNL     1      16.551  -5.518   7.774  1.00  0.00     0.210 HD
ENDBRANCH  14  15
ENDBRANCH   5  14
BRANCH   4  17
ATOM     17  O   UNL     1      13.957  -5.421   5.489  1.00  0.00    -0.387 OA
ATOM     18  H   UNL     1      14.196  -4.963   6.337  1.00  0.00     0.211 HD
ENDBRANCH   4  17
TORSDOF 7
ENDMDL
MODEL 4
REMARK VINA RESULT:    -2.967      1.492      4.355
REMARK INTER + INTRA:          -4.201
REMARK INTER:                  -3.993
REMARK INTRA:                  -0.207
REMARK UNBOUND:                -0.366
REMARK SMILES CCO[C@H]1O[C@@H](CO)[C@H](O)[C@H](O)[C@@H]1O
REMARK SMILES IDX 4 1 13 2 11 3 9 4 6 5 5 6 3 7 2 8 1 9 14 10 12 12 7 14 8 15
REMARK SMILES IDX 10 17
REMARK H PARENT 14 11 12 13 8 16 10 18
REMARK Flexibility Score: inf
ROOT
ATOM      1  C   UNL     1      16.595  -5.715   4.542  1.00  0.00     0.281 C 
ATOM      2  C   UNL     1      17.059  -7.176   4.251  1.00  0.00     0.202 C 
ATOM      3  C   UNL     1      16.269  -7.804   3.084  1.00  0.00     0.179 C 
ATOM      4  C   UNL     1      14.740  -7.615   3.247  1.00  0.00     0.177 C 
ATOM      5  C   UNL     1      14.415  -6.253   3.918  1.00  0.00     0.178 C 
ATOM      6  O   UNL     1      15.486  -5.345   3.732  1.00  0.00    -0.341 OA
ENDROOT
BRANCH   1   7
ATOM      7  O   UNL     1      17.674  -4.840   4.263  1.00  0.00    -0.350 OA
BRANCH   7   8
ATOM      8  C   UNL     1      17.583  -4.349   2.941  1.00  0.00     0.160 C 
ATOM      9  C   UNL     1      18.225  -2.972   2.876  1.00  0.00     0.035 C 
ENDBRANCH   7   8
ENDBRANCH   1   7
BRANCH   2  10
ATOM     10  O   UNL     1      16.983  -7.977   5.408  1.00  0.00    -0.385 OA
ATOM     11  H   UNL     1      16.039  -7.988   5.711  1.00  0.00     0.211 HD
ENDBRANCH   2  10
BRANCH   3  12
ATOM     12  O   UNL     1      16.606  -9.162   2.953  1.00  0.00    -0.387 OA
ATOM     13  H   UNL     1      16.095  -9.508   2.175  1.00  0.00     0.211 HD
ENDBRANCH   3  12
BRANCH   5  14
ATOM     14  C   UNL     1      13.139  -5.629   3.335  1.00  0.00     0.191 C 
BRANCH  14  15
ATOM     15  O   UNL     1      13.191  -4.228   3.401  1.00  0.00    -0.394 OA
ATOM     16  H   UNL     1      13.127  -3.988   4.362  1.00  0.00     0.210 HD
ENDBRANCH  14  15
ENDBRANCH   5  14
BRANCH   4  17
ATOM     17  O   UNL     1      14.191  -8.651   4.024  1.00  0.00    -0.387 OA
ATOM     18  H   UNL     1      13.210  -8.500   4.064  1.00  0.00     0.211 HD
ENDBRANCH   4  17
TORSDOF 7
ENDMDL
MODEL 5
REMARK VINA RESULT:    -2.910      1.680      4.022
REMARK INTER + INTRA:          -4.127
REMARK INTER:                  -3.881
REMARK INTRA:                  -0.246
REMARK UNBOUND:                -0.366
REMARK SMILES CCO[C@H]1O[C@@H](CO)[C@H](O)[C@H](O)[C@@H]1O
REMARK SMILES IDX 4 1 13 2 11 3 9 4 6 5 5 6 3 7 2 8 1 9 14 10 12 12 7 14 8 15
REMARK SMILES IDX 10 17
REMARK H PARENT 14 11 12 13 8 16 10 18
REMARK Flexibility Score: inf
ROOT
ATOM      1  C   UNL     1      16.993  -8.424   3.318  1.00  0.00     0.281 C 
ATOM      2  C   UNL     1      17.673  -7.174   3.959  1.00  0.00     0.202 C 
ATOM      3  C   UNL     1      16.677  -6.356   4.807  1.00  0.00     0.179 C 
ATOM      4  C   UNL     1      15.357  -6.074   4.046  1.00  0.00     0.177 C 
ATOM      5  C   UNL     1      14.980  -7.266   3.124  1.00  0.00     0.178 C 
ATOM      6  O   UNL     1      15.595  -8.456   3.582  1.00  0.00    -0.341 OA
ENDROOT
BRANCH   1   7
ATOM      7  O   UNL     1      17.587  -9.587   3.869  1.00  0.00    -0.350 OA
BRANCH   7   8
ATOM      8  C   UNL     1      16.767 -10.125   4.888  1.00  0.00     0.160 C 
ATOM      9  C   UNL     1      17.463  -9.952   6.229  1.00  0.00     0.035 C 
ENDBRANCH   7   8
ENDBRANCH   1   7
BRANCH   2  10
ATOM     10  O   UNL     1      18.291  -6.371   2.981  1.00  0.00    -0.385 OA
ATOM     11  H   UNL     1      18.097  -5.423   3.195  1.00  0.00     0.211 HD
ENDBRANCH   2  10
BRANCH   3  12
ATOM     12  O   UNL     1      17.282  -5.163   5.239  1.00  0.00    -0.387 OA
ATOM     13  H   UNL     1      16.861  -4.427   4.722  1.00  0.00     0.211 HD
ENDBRANCH   3  12
BRANCH   5  14
ATOM     14  C   UNL     1      13.461  -7.487   3.083  1.00  0.00     0.191 C 
BRANCH  14  15
ATOM     15  O   UNL     1      12.925  -7.530   4.378  1.00  0.00    -0.394 OA
ATOM     16  H   UNL     1      12.061  -8.015   4.311  1.00  0.00     0.210 HD
ENDBRANCH  14  15
ENDBRANCH   5  14
BRANCH   4  17
ATOM     17  O   UNL     1      15.471  -4.909   3.264  1.00  0.00    -0.387 OA
ATOM     18  H   UNL     1      15.468  -4.136   3.887  1.00  0.00     0.211 HD
ENDBRANCH   4  17
TORSDOF 7
ENDMDL
MODEL 6
REMARK VINA RESULT:    -2.900      1.464      2.975
REMARK INTER + INTRA:          -4.114
REMARK INTER:                  -3.766
REMARK INTRA:                  -0.348
REMARK UNBOUND:                -0.366
REMARK SMILES CCO[C@H]1O[C@@H](CO)[C@H](O)[C@H](O)[C@@H]1O
REMARK SMILES IDX 4 1 13 2 11 3 9 4 6 5 5 6 3 7 2 8 1 9 14 10 12 12 7 14 8 15
REMARK SMILES IDX 10 17
REMARK H PARENT 14 11 12 13 8 16 10 18
REMARK Flexibility Score: inf
ROOT
ATOM      1  C   UNL     1      14.872  -6.663   2.875  1.00  0.00     0.281 C 
ATOM      2  C   UNL     1      15.490  -7.821   3.718  1.00  0.00     0.202 C 
ATOM      3  C   UNL     1      16.543  -7.299   4.717  1.00  0.00     0.179 C 
ATOM      4  C   UNL     1      17.568  -6.352   4.043  1.00  0.00     0.177 C 
ATOM      5  C   UNL     1      16.894  -5.506   2.929  1.00  0.00     0.178 C 
ATOM      6  O   UNL     1      15.499  -5.417   3.154  1.00  0.00    -0.341 OA
ENDROOT
BRANCH   1   7
ATOM      7  O   UNL     1      13.495  -6.562   3.197  1.00  0.00    -0.350 OA
BRANCH   7   8
ATOM      8  C   UNL     1      13.325  -5.904   4.436  1.00  0.00     0.160 C 
ATOM      9  C   UNL     1      12.027  -6.373   5.074  1.00  0.00     0.035 C 
ENDBRANCH   7   8
ENDBRANCH   1   7
BRANCH   2  10
ATOM     10  O   UNL     1      16.026  -8.826   2.890  1.00  0.00    -0.385 OA
ATOM     11  H   UNL     1      15.356  -9.553   2.817  1.00  0.00     0.211 HD
ENDBRANCH   2  10
BRANCH   3  12
ATOM     12  O   UNL     1      17.184  -8.381   5.346  1.00  0.00    -0.387 OA
ATOM     13  H   UNL     1      16.506  -9.100   5.437  1.00  0.00     0.211 HD
ENDBRANCH   3  12
BRANCH   5  14
ATOM     14  C   UNL     1      17.471  -4.084   2.875  1.00  0.00     0.191 C 
BRANCH  14  15
ATOM     15  O   UNL     1      18.684  -4.008   3.576  1.00  0.00    -0.394 OA
ATOM     16  H   UNL     1      18.839  -4.906   3.970  1.00  0.00     0.210 HD
ENDBRANCH  14  15
ENDBRANCH   5  14
BRANCH   4  17
ATOM     17  O   UNL     1      18.630  -7.085   3.482  1.00  0.00    -0.387 OA
ATOM     18  H   UNL     1      18.402  -8.048   3.572  1.00  0.00     0.211 HD
ENDBRANCH   4  17
TORSDOF 7
ENDMDL
MODEL 7
REMARK VINA RESULT:    -2.900     10.032     11.681
REMARK INTER + INTRA:          -4.113
REMARK INTER:                  -3.755
REMARK INTRA:                  -0.358
REMARK UNBOUND:                -0.366
REMARK SMILES CCO[C@H]1O[C@@H](CO)[C@H](O)[C@H](O)[C@@H]1O
REMARK SMILES IDX 4 1 13 2 11 3 9 4 6 5 5 6 3 7 2 8 1 9 14 10 12 12 7 14 8 15
REMARK SMILES IDX 10 17
REMARK H PARENT 14 11 12 13 8 16 10 18
REMARK Flexibility Score: inf
ROOT
ATOM      1  C   UNL     1       4.522  -6.022   4.325  1.00  0.00     0.281 C 
ATOM      2  C   UNL     1       5.613  -6.572   5.295  1.00  0.00     0.202 C 
ATOM      3  C   UNL     1       5.783  -8.099   5.155  1.00  0.00     0.179 C 
ATOM      4  C   UNL     1       4.424  -8.843   5.197  1.00  0.00     0.177 C 
ATOM      5  C   UNL     1       3.307  -8.001   4.523  1.00  0.00     0.178 C 
ATOM      6  O   UNL     1       3.871  -7.070   3.617  1.00  0.00    -0.341 OA
ENDROOT
BRANCH   1   7
ATOM      7  O   UNL     1       5.149  -5.162   3.389  1.00  0.00    -0.350 OA
BRANCH   7   8
ATOM      8  C   UNL     1       4.323  -4.048   3.112  1.00  0.00     0.160 C 
ATOM      9  C   UNL     1       3.388  -3.816   4.289  1.00  0.00     0.035 C 
ENDBRANCH   7   8
ENDBRANCH   1   7
BRANCH   2  10
ATOM     10  O   UNL     1       5.342  -6.209   6.628  1.00  0.00    -0.385 OA
ATOM     11  H   UNL     1       6.000  -5.520   6.899  1.00  0.00     0.211 HD
ENDBRANCH   2  10
BRANCH   3  12
ATOM     12  O   UNL     1       6.658  -8.577   6.145  1.00  0.00    -0.387 OA
ATOM     13  H   UNL     1       6.093  -9.005   6.841  1.00  0.00     0.211 HD
ENDBRANCH   3  12
BRANCH   5  14
ATOM     14  C   UNL     1       2.316  -8.889   3.756  1.00  0.00     0.191 C 
BRANCH  14  15
ATOM     15  O   UNL     1       2.100 -10.098   4.433  1.00  0.00    -0.394 OA
ATOM     16  H   UNL     1       1.296 -10.512   4.024  1.00  0.00     0.210 HD
ENDBRANCH  14  15
ENDBRANCH   5  14
BRANCH   4  17
ATOM     17  O   UNL     1       4.050  -9.122   6.524  1.00  0.00    -0.387 OA
ATOM     18  H   UNL     1       3.156  -9.554   6.492  1.00  0.00     0.211 HD
ENDBRANCH   4  17
TORSDOF 7
ENDMDL
MODEL 8
REMARK VINA RESULT:    -2.877      7.902     11.260
REMARK INTER + INTRA:          -4.084
REMARK INTER:                  -3.673
REMARK INTRA:                  -0.411
REMARK UNBOUND:                -0.366
REMARK SMILES CCO[C@H]1O[C@@H](CO)[C@H](O)[C@H](O)[C@@H]1O
REMARK SMILES IDX 4 1 13 2 11 3 9 4 6 5 5 6 3 7 2 8 1 9 14 10 12 12 7 14 8 15
REMARK SMILES IDX 10 17
REMARK H PARENT 14 11 12 13 8 16 10 18
REMARK Flexibility Score: inf
ROOT
ATOM      1  C   UNL     1       6.425  -6.730   5.318  1.00  0.00     0.281 C 
ATOM      2  C   UNL     1       6.264  -8.281   5.268  1.00  0.00     0.202 C 
ATOM      3  C   UNL     1       5.272  -8.716   4.169  1.00  0.00     0.179 C 
ATOM      4  C   UNL     1       3.947  -7.915   4.230  1.00  0.00     0.177 C 
ATOM      5  C   UNL     1       4.202  -6.450   4.677  1.00  0.00     0.178 C 
ATOM      6  O   UNL     1       5.543  -6.080   4.411  1.00  0.00    -0.341 OA
ENDROOT
BRANCH   1   7
ATOM      7  O   UNL     1       7.759  -6.407   4.966  1.00  0.00    -0.350 OA
BRANCH   7   8
ATOM      8  C   UNL     1       7.810  -5.884   3.654  1.00  0.00     0.160 C 
ATOM      9  C   UNL     1       9.000  -4.943   3.539  1.00  0.00     0.035 C 
ENDBRANCH   7   8
ENDBRANCH   1   7
BRANCH   2  10
ATOM     10  O   UNL     1       5.892  -8.798   6.524  1.00  0.00    -0.385 OA
ATOM     11  H   UNL     1       4.910  -8.699   6.619  1.00  0.00     0.211 HD
ENDBRANCH   2  10
BRANCH   3  12
ATOM     12  O   UNL     1       5.038 -10.099   4.256  1.00  0.00    -0.387 OA
ATOM     13  H   UNL     1       4.983 -10.319   5.222  1.00  0.00     0.211 HD
ENDBRANCH   3  12
BRANCH   5  14
ATOM     14  C   UNL     1       3.272  -5.469   3.948  1.00  0.00     0.191 C 
BRANCH  14  15
ATOM     15  O   UNL     1       1.961  -5.967   3.894  1.00  0.00    -0.394 OA
ATOM     16  H   UNL     1       1.827  -6.313   2.973  1.00  0.00     0.210 HD
ENDBRANCH  14  15
ENDBRANCH   5  14
BRANCH   4  17
ATOM     17  O   UNL     1       3.042  -8.516   5.124  1.00  0.00    -0.387 OA
ATOM     18  H   UNL     1       2.966  -7.917   5.912  1.00  0.00     0.211 HD
ENDBRANCH   4  17
TORSDOF 7
ENDMDL
MODEL 9
REMARK VINA RESULT:    -2.856      7.071     10.123
REMARK INTER + INTRA:          -4.057
REMARK INTER:                  -3.988
REMARK INTRA:                  -0.069
REMARK UNBOUND:                -0.366
REMARK SMILES CCO[C@H]1O[C@@H](CO)[C@H](O)[C@H](O)[C@@H]1O
REMARK SMILES IDX 4 1 13 2 11 3 9 4 6 5 5 6 3 7 2 8 1 9 14 10 12 12 7 14 8 15
REMARK SMILES IDX 10 17
REMARK H PARENT 14 11 12 13 8 16 10 18
REMARK Flexibility Score: inf
ROOT
ATOM      1  C   UNL     1       6.421  -6.824   5.535  1.00  0.00     0.281 C 
ATOM      2  C   UNL     1       5.027  -6.425   4.959  1.00  0.00     0.202 C 
ATOM      3  C   UNL     1       5.062  -6.295   3.422  1.00  0.00     0.179 C 
ATOM      4  C   UNL     1       6.252  -5.430   2.936  1.00  0.00     0.177 C 
ATOM      5  C   UNL     1       7.494  -5.630   3.846  1.00  0.00     0.178 C 
ATOM      6  O   UNL     1       7.416  -6.873   4.520  1.00  0.00    -0.341 OA
ENDROOT
BRANCH   1   7
ATOM      7  O   UNL     1       6.309  -8.108   6.125  1.00  0.00    -0.350 OA
BRANCH   7   8
ATOM      8  C   UNL     1       4.954  -8.504   6.193  1.00  0.00     0.160 C 
ATOM      9  C   UNL     1       4.634  -8.942   7.613  1.00  0.00     0.035 C 
ENDBRANCH   7   8
ENDBRANCH   1   7
BRANCH   2  10
ATOM     10  O   UNL     1       4.544  -5.246   5.559  1.00  0.00    -0.385 OA
ATOM     11  H   UNL     1       4.929  -4.473   5.072  1.00  0.00     0.211 HD
ENDBRANCH   2  10
BRANCH   3  12
ATOM     12  O   UNL     1       3.837  -5.788   2.956  1.00  0.00    -0.387 OA
ATOM     13  H   UNL     1       3.856  -5.864   1.966  1.00  0.00     0.211 HD
ENDBRANCH   3  12
BRANCH   5  14
ATOM     14  C   UNL     1       8.798  -5.596   3.035  1.00  0.00     0.191 C 
BRANCH  14  15
ATOM     15  O   UNL     1       9.803  -4.908   3.731  1.00  0.00    -0.394 OA
ATOM     16  H   UNL     1      10.487  -5.583   3.980  1.00  0.00     0.210 HD
ENDBRANCH  14  15
ENDBRANCH   5  14
BRANCH   4  17
ATOM     17  O   UNL     1       5.905  -4.066   2.928  1.00  0.00    -0.387 OA
ATOM     18  H   UNL     1       5.989  -3.736   3.861  1.00  0.00     0.211 HD
ENDBRANCH   4  17
TORSDOF 7
ENDMDL
