MODEL 1
REMARK VINA RESULT:    -2.859      0.000      0.000
REMARK INTER + INTRA:          -3.978
REMARK INTER:                  -3.695
REMARK INTRA:                  -0.283
REMARK UNBOUND:                -0.283
REMARK SMILES CCCCCCC(=O)[O-]
REMARK SMILES IDX 5 1 6 2 7 3 8 4 9 5 4 6 3 7 2 8 1 9
REMARK H PARENT
REMARK Flexibility Score: inf
ROOT
ATOM      1  C   UNL     1      18.800  23.970  47.020  1.00  0.00     0.006 C 
ENDROOT
BRANCH   1   2
ATOM      2  C   UNL     1      17.670  24.083  45.989  1.00  0.00     0.053 C 
BRANCH   2   3
ATOM      3  C   UNL     1      18.233  24.303  44.620  1.00  0.00     0.041 C 
ATOM      4  O   UNL     1      17.546  24.030  43.601  1.00  0.00    -0.550 OA
ATOM      5  O   UNL     1      19.534  24.764  44.470  1.00  0.00    -0.550 OA
ENDBRANCH   2   3
ENDBRANCH   1   2
BRANCH   1   6
ATOM      6  C   UNL     1      19.375  22.547  47.114  1.00  0.00     0.000 C 
BRANCH   6   7
ATOM      7  C   UNL     1      20.912  22.530  47.125  1.00  0.00    -0.000 C 
BRANCH   7   8
ATOM      8  C   UNL     1      21.463  22.087  45.764  1.00  0.00    -0.003 C 
ATOM      9  C   UNL     1      22.725  22.864  45.401  1.00  0.00     0.004 C 
ENDBRANCH   7   8
ENDBRANCH   6   7
ENDBRANCH   1   6
TORSDOF 5
ENDMDL
MODEL 2
REMARK VINA RESULT:    -2.449      2.507      4.557
REMARK INTER + INTRA:          -3.448
REMARK INTER:                  -3.316
REMARK INTRA:                  -0.132
REMARK UNBOUND:                -0.283
REMARK SMILES CCCCCCC(=O)[O-]
REMARK SMILES IDX 5 1 6 2 7 3 8 4 9 5 4 6 3 7 2 8 1 9
REMARK H PARENT
REMARK Flexibility Score: inf
ROOT
ATOM      1  C   UNL     1      19.808  23.968  44.863  1.00  0.00     0.006 C 
ENDROOT
BRANCH   1   2
ATOM      2  C   UNL     1      19.772  23.208  46.195  1.00  0.00     0.053 C 
BRANCH   2   3
ATOM      3  C   UNL     1      20.889  22.215  46.259  1.00  0.00     0.041 C 
ATOM      4  O   UNL     1      20.727  21.118  46.855  1.00  0.00    -0.550 OA
ATOM      5  O   UNL     1      22.124  22.521  45.703  1.00  0.00    -0.550 OA
ENDBRANCH   2   3
ENDBRANCH   1   2
BRANCH   1   6
ATOM      6  C   UNL     1      18.532  24.790  44.615  1.00  0.00     0.000 C 
BRANCH   6   7
ATOM      7  C   UNL     1      17.509  24.046  43.744  1.00  0.00    -0.000 C 
BRANCH   7   8
ATOM      8  C   UNL     1      16.930  24.973  42.668  1.00  0.00    -0.003 C 
ATOM      9  C   UNL     1      17.893  25.125  41.495  1.00  0.00     0.004 C 
ENDBRANCH   7   8
ENDBRANCH   6   7
ENDBRANCH   1   6
TORSDOF 5
ENDMDL
MODEL 3
REMARK VINA RESULT:    -2.219     18.041     19.331
REMARK INTER + INTRA:          -3.150
REMARK INTER:                  -3.006
REMARK INTRA:                  -0.143
REMARK UNBOUND:                -0.283
REMARK SMILES CCCCCCC(=O)[O-]
REMARK SMILES IDX 5 1 6 2 7 3 8 4 9 5 4 6 3 7 2 8 1 9
REMARK H PARENT
REMARK Flexibility Score: inf
ROOT
ATOM      1  C   UNL     1      30.677  24.363  30.592  1.00  0.00     0.006 C 
ENDROOT
BRANCH   1   2
ATOM      2  C   UNL     1      30.898  24.870  29.161  1.00  0.00     0.053 C 
BRANCH   2   3
ATOM      3  C   UNL     1      30.836  23.733  28.190  1.00  0.00     0.041 C 
ATOM      4  O   UNL     1      31.698  22.817  28.233  1.00  0.00    -0.550 OA
ATOM      5  O   UNL     1      29.857  23.712  27.206  1.00  0.00    -0.550 OA
ENDBRANCH   2   3
ENDBRANCH   1   2
BRANCH   1   6
ATOM      6  C   UNL     1      31.522  25.125  31.626  1.00  0.00     0.000 C 
BRANCH   6   7
ATOM      7  C   UNL     1      30.961  25.005  33.052  1.00  0.00    -0.000 C 
BRANCH   7   8
ATOM      8  C   UNL     1      32.083  25.122  34.092  1.00  0.00    -0.003 C 
ATOM      9  C   UNL     1      33.456  25.017  33.435  1.00  0.00     0.004 C 
ENDBRANCH   7   8
ENDBRANCH   6   7
ENDBRANCH   1   6
TORSDOF 5
ENDMDL
MODEL 4
REMARK VINA RESULT:    -2.161     17.990     19.748
REMARK INTER + INTRA:          -3.076
REMARK INTER:                  -2.897
REMARK INTRA:                  -0.179
REMARK UNBOUND:                -0.283
REMARK SMILES CCCCCCC(=O)[O-]
REMARK SMILES IDX 5 1 6 2 7 3 8 4 9 5 4 6 3 7 2 8 1 9
REMARK H PARENT
REMARK Flexibility Score: inf
ROOT
ATOM      1  C   UNL     1      31.077  23.867  30.154  1.00  0.00     0.006 C 
ENDROOT
BRANCH   1   2
ATOM      2  C   UNL     1      32.085  24.365  29.111  1.00  0.00     0.053 C 
BRANCH   2   3
ATOM      3  C   UNL     1      31.783  23.774  27.770  1.00  0.00     0.041 C 
ATOM      4  O   UNL     1      30.713  24.068  27.176  1.00  0.00    -0.550 OA
ATOM      5  O   UNL     1      32.660  22.861  27.199  1.00  0.00    -0.550 OA
ENDBRANCH   2   3
ENDBRANCH   1   2
BRANCH   1   6
ATOM      6  C   UNL     1      30.317  25.016  30.837  1.00  0.00     0.000 C 
BRANCH   6   7
ATOM      7  C   UNL     1      30.380  24.937  32.370  1.00  0.00    -0.000 C 
BRANCH   7   8
ATOM      8  C   UNL     1      31.818  25.125  32.869  1.00  0.00    -0.003 C 
ATOM      9  C   UNL     1      31.878  25.116  34.394  1.00  0.00     0.004 C 
ENDBRANCH   7   8
ENDBRANCH   6   7
ENDBRANCH   1   6
TORSDOF 5
ENDMDL
MODEL 5
REMARK VINA RESULT:    -2.091     17.966     19.778
REMARK INTER + INTRA:          -2.985
REMARK INTER:                  -2.802
REMARK INTRA:                  -0.182
REMARK UNBOUND:                -0.283
REMARK SMILES CCCCCCC(=O)[O-]
REMARK SMILES IDX 5 1 6 2 7 3 8 4 9 5 4 6 3 7 2 8 1 9
REMARK H PARENT
REMARK Flexibility Score: inf
ROOT
ATOM      1  C   UNL     1      31.417  24.988  29.910  1.00  0.00     0.006 C 
ENDROOT
BRANCH   1   2
ATOM      2  C   UNL     1      30.441  24.089  30.681  1.00  0.00     0.053 C 
BRANCH   2   3
ATOM      3  C   UNL     1      30.202  24.636  32.053  1.00  0.00     0.041 C 
ATOM      4  O   UNL     1      29.033  24.910  32.430  1.00  0.00    -0.550 OA
ATOM      5  O   UNL     1      31.275  24.889  32.897  1.00  0.00    -0.550 OA
ENDBRANCH   2   3
ENDBRANCH   1   2
BRANCH   1   6
ATOM      6  C   UNL     1      32.555  24.194  29.248  1.00  0.00     0.000 C 
BRANCH   6   7
ATOM      7  C   UNL     1      32.068  23.324  28.079  1.00  0.00    -0.000 C 
BRANCH   7   8
ATOM      8  C   UNL     1      31.491  24.193  26.954  1.00  0.00    -0.003 C 
ATOM      9  C   UNL     1      29.974  24.056  26.876  1.00  0.00     0.004 C 
ENDBRANCH   7   8
ENDBRANCH   6   7
ENDBRANCH   1   6
TORSDOF 5
ENDMDL
MODEL 6
REMARK VINA RESULT:    -2.040     19.011     20.865
REMARK INTER + INTRA:          -2.919
REMARK INTER:                  -2.636
REMARK INTRA:                  -0.283
REMARK UNBOUND:                -0.283
REMARK SMILES CCCCCCC(=O)[O-]
REMARK SMILES IDX 5 1 6 2 7 3 8 4 9 5 4 6 3 7 2 8 1 9
REMARK H PARENT
REMARK Flexibility Score: inf
ROOT
ATOM      1  C   UNL     1      31.633  23.204  29.090  1.00  0.00     0.006 C 
ENDROOT
BRANCH   1   2
ATOM      2  C   UNL     1      32.664  23.201  27.954  1.00  0.00     0.053 C 
BRANCH   2   3
ATOM      3  C   UNL     1      33.890  23.958  28.361  1.00  0.00     0.041 C 
ATOM      4  O   UNL     1      34.928  23.911  27.650  1.00  0.00    -0.550 OA
ATOM      5  O   UNL     1      33.901  24.676  29.550  1.00  0.00    -0.550 OA
ENDBRANCH   2   3
ENDBRANCH   1   2
BRANCH   1   6
ATOM      6  C   UNL     1      30.361  23.991  28.732  1.00  0.00     0.000 C 
BRANCH   6   7
ATOM      7  C   UNL     1      30.050  25.104  29.745  1.00  0.00    -0.000 C 
BRANCH   7   8
ATOM      8  C   UNL     1      30.685  24.797  31.107  1.00  0.00    -0.003 C 
ATOM      9  C   UNL     1      29.629  24.739  32.206  1.00  0.00     0.004 C 
ENDBRANCH   7   8
ENDBRANCH   6   7
ENDBRANCH   1   6
TORSDOF 5
ENDMDL
MODEL 7
REMARK VINA RESULT:    -2.036      2.579      4.497
REMARK INTER + INTRA:          -2.914
REMARK INTER:                  -2.774
REMARK INTRA:                  -0.140
REMARK UNBOUND:                -0.283
REMARK SMILES CCCCCCC(=O)[O-]
REMARK SMILES IDX 5 1 6 2 7 3 8 4 9 5 4 6 3 7 2 8 1 9
REMARK H PARENT
REMARK Flexibility Score: inf
ROOT
ATOM      1  C   UNL     1      20.409  23.739  44.607  1.00  0.00     0.006 C 
ENDROOT
BRANCH   1   2
ATOM      2  C   UNL     1      20.176  22.912  45.878  1.00  0.00     0.053 C 
BRANCH   2   3
ATOM      3  C   UNL     1      21.332  21.992  46.121  1.00  0.00     0.041 C 
ATOM      4  O   UNL     1      22.440  22.208  45.564  1.00  0.00    -0.550 OA
ATOM      5  O   UNL     1      21.170  20.870  46.922  1.00  0.00    -0.550 OA
ENDBRANCH   2   3
ENDBRANCH   1   2
BRANCH   1   6
ATOM      6  C   UNL     1      19.279  24.747  44.341  1.00  0.00     0.000 C 
BRANCH   6   7
ATOM      7  C   UNL     1      17.948  24.064  43.992  1.00  0.00    -0.000 C 
BRANCH   7   8
ATOM      8  C   UNL     1      16.875  24.391  45.038  1.00  0.00    -0.003 C 
ATOM      9  C   UNL     1      17.478  25.121  46.235  1.00  0.00     0.004 C 
ENDBRANCH   7   8
ENDBRANCH   6   7
ENDBRANCH   1   6
TORSDOF 5
ENDMDL
MODEL 8
REMARK VINA RESULT:    -2.033     16.982     18.827
REMARK INTER + INTRA:          -2.910
REMARK INTER:                  -2.760
REMARK INTRA:                  -0.150
REMARK UNBOUND:                -0.283
REMARK SMILES CCCCCCC(=O)[O-]
REMARK SMILES IDX 5 1 6 2 7 3 8 4 9 5 4 6 3 7 2 8 1 9
REMARK H PARENT
REMARK Flexibility Score: inf
ROOT
ATOM      1  C   UNL     1      30.737  24.247  31.757  1.00  0.00     0.006 C 
ENDROOT
BRANCH   1   2
ATOM      2  C   UNL     1      30.628  25.116  33.016  1.00  0.00     0.053 C 
BRANCH   2   3
ATOM      3  C   UNL     1      31.917  25.098  33.775  1.00  0.00     0.041 C 
ATOM      4  O   UNL     1      31.911  25.125  35.034  1.00  0.00    -0.550 OA
ATOM      5  O   UNL     1      33.126  25.103  33.092  1.00  0.00    -0.550 OA
ENDBRANCH   2   3
ENDBRANCH   1   2
BRANCH   1   6
ATOM      6  C   UNL     1      30.876  25.081  30.473  1.00  0.00     0.000 C 
BRANCH   6   7
ATOM      7  C   UNL     1      31.419  24.263  29.291  1.00  0.00    -0.000 C 
BRANCH   7   8
ATOM      8  C   UNL     1      30.272  23.649  28.478  1.00  0.00    -0.003 C 
ATOM      9  C   UNL     1      29.319  24.727  27.970  1.00  0.00     0.004 C 
ENDBRANCH   7   8
ENDBRANCH   6   7
ENDBRANCH   1   6
TORSDOF 5
ENDMDL
MODEL 9
REMARK VINA RESULT:    -2.022     17.992     19.780
REMARK INTER + INTRA:          -2.896
REMARK INTER:                  -2.702
REMARK INTRA:                  -0.194
REMARK UNBOUND:                -0.283
REMARK SMILES CCCCCCC(=O)[O-]
REMARK SMILES IDX 5 1 6 2 7 3 8 4 9 5 4 6 3 7 2 8 1 9
REMARK H PARENT
REMARK Flexibility Score: inf
ROOT
ATOM      1  C   UNL     1      30.739  23.788  29.816  1.00  0.00     0.006 C 
ENDROOT
BRANCH   1   2
ATOM      2  C   UNL     1      30.322  25.111  30.472  1.00  0.00     0.053 C 
BRANCH   2   3
ATOM      3  C   UNL     1      30.158  24.932  31.948  1.00  0.00     0.041 C 
ATOM      4  O   UNL     1      31.170  24.856  32.693  1.00  0.00    -0.550 OA
ATOM      5  O   UNL     1      28.888  24.800  32.495  1.00  0.00    -0.550 OA
ENDBRANCH   2   3
ENDBRANCH   1   2
BRANCH   1   6
ATOM      6  C   UNL     1      30.433  23.752  28.310  1.00  0.00     0.000 C 
BRANCH   6   7
ATOM      7  C   UNL     1      31.703  23.671  27.450  1.00  0.00    -0.000 C 
BRANCH   7   8
ATOM      8  C   UNL     1      32.889  23.151  28.273  1.00  0.00    -0.003 C 
ATOM      9  C   UNL     1      34.026  24.169  28.304  1.00  0.00     0.004 C 
ENDBRANCH   7   8
ENDBRANCH   6   7
ENDBRANCH   1   6
TORSDOF 5
ENDMDL
