MODEL 1
REMARK VINA RESULT:    -1.545      0.000      0.000
REMARK INTER + INTRA:          -1.349
REMARK INTER:                  -1.907
REMARK INTRA:                   0.558
REMARK UNBOUND:                 0.558
REMARK SMILES [NH3+][C@H](Cc1ccc(O)cc1)C(=O)[O-]
REMARK SMILES IDX 3 1 2 2 1 3 11 7 12 8 13 9 4 10 5 11 10 12 6 13 9 14 7 15
REMARK SMILES IDX 8 16
REMARK H PARENT 1 4 1 5 1 6 8 17
REMARK Flexibility Score: inf
ROOT
ATOM      1  C   UNL     1       7.573  25.693  33.593  1.00  0.00     0.107 C 
ENDROOT
BRANCH   1   2
ATOM      2  C   UNL     1       7.965  24.562  32.620  1.00  0.00     0.232 C 
BRANCH   2   3
ATOM      3  N   UNL     1       7.130  24.611  31.414  1.00  0.00    -0.350 N 
ATOM      4  H   UNL     1       6.164  24.926  31.664  1.00  0.00     0.345 HD
ATOM      5  H   UNL     1       7.531  25.297  30.734  1.00  0.00     0.345 HD
ATOM      6  H   UNL     1       7.079  23.670  30.961  1.00  0.00     0.345 HD
ENDBRANCH   2   3
BRANCH   2   7
ATOM      7  C   UNL     1       9.421  24.655  32.246  1.00  0.00     0.099 C 
ATOM      8  O   UNL     1       9.902  23.875  31.382  1.00  0.00    -0.544 OA
ATOM      9  O   UNL     1      10.246  25.587  32.863  1.00  0.00    -0.544 OA
ENDBRANCH   2   7
ENDBRANCH   1   2
BRANCH   1  10
ATOM     10  C   UNL     1       7.887  25.335  35.024  1.00  0.00    -0.041 A 
ATOM     11  C   UNL     1       6.886  24.807  35.856  1.00  0.00     0.008 A 
ATOM     12  C   UNL     1       9.191  25.482  35.525  1.00  0.00     0.008 A 
ATOM     13  C   UNL     1       7.182  24.447  37.174  1.00  0.00     0.046 A 
ATOM     14  C   UNL     1       9.485  25.121  36.844  1.00  0.00     0.046 A 
ATOM     15  C   UNL     1       8.483  24.604  37.671  1.00  0.00     0.115 A 
BRANCH  15  16
ATOM     16  O   UNL     1       8.790  24.248  38.983  1.00  0.00    -0.508 OA
ATOM     17  H   UNL     1       8.122  24.370  39.735  1.00  0.00     0.293 HD
ENDBRANCH  15  16
ENDBRANCH   1  10
TORSDOF 5
ENDMDL
MODEL 2
REMARK VINA RESULT:    -1.136      1.645      4.721
REMARK INTER + INTRA:          -0.844
REMARK INTER:                  -1.636
REMARK INTRA:                   0.791
REMARK UNBOUND:                 0.558
REMARK SMILES [NH3+][C@H](Cc1ccc(O)cc1)C(=O)[O-]
REMARK SMILES IDX 3 1 2 2 1 3 11 7 12 8 13 9 4 10 5 11 10 12 6 13 9 14 7 15
REMARK SMILES IDX 8 16
REMARK H PARENT 1 4 1 5 1 6 8 17
REMARK Flexibility Score: inf
ROOT
ATOM      1  C   UNL     1       7.784  26.062  35.382  1.00  0.00     0.107 C 
ENDROOT
BRANCH   1   2
ATOM      2  C   UNL     1       7.288  24.974  36.356  1.00  0.00     0.232 C 
BRANCH   2   3
ATOM      3  N   UNL     1       6.628  23.889  35.620  1.00  0.00    -0.350 N 
ATOM      4  H   UNL     1       5.938  24.290  34.943  1.00  0.00     0.345 HD
ATOM      5  H   UNL     1       7.338  23.346  35.079  1.00  0.00     0.345 HD
ATOM      6  H   UNL     1       6.131  23.245  36.278  1.00  0.00     0.345 HD
ENDBRANCH   2   3
BRANCH   2   7
ATOM      7  C   UNL     1       8.428  24.425  37.174  1.00  0.00     0.099 C 
ATOM      8  O   UNL     1       9.408  23.876  36.604  1.00  0.00    -0.544 OA
ATOM      9  O   UNL     1       8.398  24.505  38.561  1.00  0.00    -0.544 OA
ENDBRANCH   2   7
ENDBRANCH   1   2
BRANCH   1  10
ATOM     10  C   UNL     1       8.412  25.464  34.148  1.00  0.00    -0.041 A 
ATOM     11  C   UNL     1       7.605  24.891  33.152  1.00  0.00     0.008 A 
ATOM     12  C   UNL     1       9.804  25.514  33.962  1.00  0.00     0.008 A 
ATOM     13  C   UNL     1       8.183  24.362  31.993  1.00  0.00     0.046 A 
ATOM     14  C   UNL     1      10.380  24.984  32.802  1.00  0.00     0.046 A 
ATOM     15  C   UNL     1       9.573  24.407  31.817  1.00  0.00     0.115 A 
BRANCH  15  16
ATOM     16  O   UNL     1      10.160  23.884  30.667  1.00  0.00    -0.508 OA
ATOM     17  H   UNL     1       9.737  24.006  29.754  1.00  0.00     0.293 HD
ENDBRANCH  15  16
ENDBRANCH   1  10
TORSDOF 5
ENDMDL
MODEL 3
REMARK VINA RESULT:    -0.959      2.384      5.297
REMARK INTER + INTRA:          -0.625
REMARK INTER:                  -0.474
REMARK INTRA:                  -0.151
REMARK UNBOUND:                 0.558
REMARK SMILES [NH3+][C@H](Cc1ccc(O)cc1)C(=O)[O-]
REMARK SMILES IDX 3 1 2 2 1 3 11 7 12 8 13 9 4 10 5 11 10 12 6 13 9 14 7 15
REMARK SMILES IDX 8 16
REMARK H PARENT 1 4 1 5 1 6 8 17
REMARK Flexibility Score: inf
ROOT
ATOM      1  C   UNL     1       7.204  25.436  35.820  1.00  0.00     0.107 C 
ENDROOT
BRANCH   1   2
ATOM      2  C   UNL     1       7.357  24.399  36.951  1.00  0.00     0.232 C 
BRANCH   2   3
ATOM      3  N   UNL     1       8.532  24.709  37.774  1.00  0.00    -0.350 N 
ATOM      4  H   UNL     1       9.395  24.689  37.182  1.00  0.00     0.345 HD
ATOM      5  H   UNL     1       8.438  25.668  38.180  1.00  0.00     0.345 HD
ATOM      6  H   UNL     1       8.632  24.016  38.551  1.00  0.00     0.345 HD
ENDBRANCH   2   3
BRANCH   2   7
ATOM      7  C   UNL     1       6.121  24.355  37.811  1.00  0.00     0.099 C 
ATOM      8  O   UNL     1       4.986  24.539  37.297  1.00  0.00    -0.544 OA
ATOM      9  O   UNL     1       6.225  24.129  39.179  1.00  0.00    -0.544 OA
ENDBRANCH   2   7
ENDBRANCH   1   2
BRANCH   1  10
ATOM     10  C   UNL     1       7.970  25.033  34.585  1.00  0.00    -0.041 A 
ATOM     11  C   UNL     1       7.362  24.226  33.609  1.00  0.00     0.008 A 
ATOM     12  C   UNL     1       9.280  25.496  34.376  1.00  0.00     0.008 A 
ATOM     13  C   UNL     1       8.059  23.875  32.448  1.00  0.00     0.046 A 
ATOM     14  C   UNL     1       9.976  25.143  33.215  1.00  0.00     0.046 A 
ATOM     15  C   UNL     1       9.369  24.333  32.250  1.00  0.00     0.115 A 
BRANCH  15  16
ATOM     16  O   UNL     1      10.074  23.991  31.098  1.00  0.00    -0.508 OA
ATOM     17  H   UNL     1       9.900  24.454  30.213  1.00  0.00     0.293 HD
ENDBRANCH  15  16
ENDBRANCH   1  10
TORSDOF 5
ENDMDL
MODEL 4
REMARK VINA RESULT:    -0.055     13.884     14.619
REMARK INTER + INTRA:           0.489
REMARK INTER:                   0.710
REMARK INTRA:                  -0.221
REMARK UNBOUND:                 0.558
REMARK SMILES [NH3+][C@H](Cc1ccc(O)cc1)C(=O)[O-]
REMARK SMILES IDX 3 1 2 2 1 3 11 7 12 8 13 9 4 10 5 11 10 12 6 13 9 14 7 15
REMARK SMILES IDX 8 16
REMARK H PARENT 1 4 1 5 1 6 8 17
REMARK Flexibility Score: inf
ROOT
ATOM      1  C   UNL     1       9.491  38.945  33.241  1.00  0.00     0.107 C 
ENDROOT
BRANCH   1   2
ATOM      2  C   UNL     1       8.907  40.365  33.381  1.00  0.00     0.232 C 
BRANCH   2   3
ATOM      3  N   UNL     1       8.272  40.784  32.126  1.00  0.00    -0.350 N 
ATOM      4  H   UNL     1       8.752  41.636  31.753  1.00  0.00     0.345 HD
ATOM      5  H   UNL     1       8.359  40.024  31.414  1.00  0.00     0.345 HD
ATOM      6  H   UNL     1       7.260  40.998  32.277  1.00  0.00     0.345 HD
ENDBRANCH   2   3
BRANCH   2   7
ATOM      7  C   UNL     1       7.911  40.428  34.510  1.00  0.00     0.099 C 
ATOM      8  O   UNL     1       8.167  41.105  35.541  1.00  0.00    -0.544 OA
ATOM      9  O   UNL     1       6.714  39.728  34.429  1.00  0.00    -0.544 OA
ENDBRANCH   2   7
ENDBRANCH   1   2
BRANCH   1  10
ATOM     10  C   UNL     1      10.234  38.520  34.483  1.00  0.00    -0.041 A 
ATOM     11  C   UNL     1      11.249  39.334  35.012  1.00  0.00     0.008 A 
ATOM     12  C   UNL     1       9.888  37.332  35.148  1.00  0.00     0.008 A 
ATOM     13  C   UNL     1      11.919  38.957  36.180  1.00  0.00     0.046 A 
ATOM     14  C   UNL     1      10.559  36.957  36.317  1.00  0.00     0.046 A 
ATOM     15  C   UNL     1      11.575  37.766  36.835  1.00  0.00     0.115 A 
BRANCH  15  16
ATOM     16  O   UNL     1      12.235  37.381  38.000  1.00  0.00    -0.508 OA
ATOM     17  H   UNL     1      12.979  37.943  38.398  1.00  0.00     0.293 HD
ENDBRANCH  15  16
ENDBRANCH   1  10
TORSDOF 5
ENDMDL
MODEL 5
REMARK VINA RESULT:     0.008     13.893     14.579
REMARK INTER + INTRA:           0.567
REMARK INTER:                   0.781
REMARK INTRA:                  -0.214
REMARK UNBOUND:                 0.558
REMARK SMILES [NH3+][C@H](Cc1ccc(O)cc1)C(=O)[O-]
REMARK SMILES IDX 3 1 2 2 1 3 11 7 12 8 13 9 4 10 5 11 10 12 6 13 9 14 7 15
REMARK SMILES IDX 8 16
REMARK H PARENT 1 4 1 5 1 6 8 17
REMARK Flexibility Score: inf
ROOT
ATOM      1  C   UNL     1       9.507  38.978  33.238  1.00  0.00     0.107 C 
ENDROOT
BRANCH   1   2
ATOM      2  C   UNL     1       8.889  40.386  33.358  1.00  0.00     0.232 C 
BRANCH   2   3
ATOM      3  N   UNL     1       8.244  40.771  32.097  1.00  0.00    -0.350 N 
ATOM      4  H   UNL     1       7.885  41.752  32.167  1.00  0.00     0.345 HD
ATOM      5  H   UNL     1       8.940  40.734  31.318  1.00  0.00     0.345 HD
ATOM      6  H   UNL     1       7.449  40.129  31.877  1.00  0.00     0.345 HD
ENDBRANCH   2   3
BRANCH   2   7
ATOM      7  C   UNL     1       7.892  40.442  34.486  1.00  0.00     0.099 C 
ATOM      8  O   UNL     1       8.134  41.136  35.509  1.00  0.00    -0.544 OA
ATOM      9  O   UNL     1       6.710  39.715  34.415  1.00  0.00    -0.544 OA
ENDBRANCH   2   7
ENDBRANCH   1   2
BRANCH   1  10
ATOM     10  C   UNL     1      10.208  38.565  34.508  1.00  0.00    -0.041 A 
ATOM     11  C   UNL     1       9.879  37.350  35.132  1.00  0.00     0.008 A 
ATOM     12  C   UNL     1      11.224  39.366  35.054  1.00  0.00     0.008 A 
ATOM     13  C   UNL     1      10.548  36.950  36.294  1.00  0.00     0.046 A 
ATOM     14  C   UNL     1      11.892  38.964  36.216  1.00  0.00     0.046 A 
ATOM     15  C   UNL     1      11.556  37.757  36.839  1.00  0.00     0.115 A 
BRANCH  15  16
ATOM     16  O   UNL     1      12.229  37.369  37.995  1.00  0.00    -0.508 OA
ATOM     17  H   UNL     1      12.918  36.626  37.982  1.00  0.00     0.293 HD
ENDBRANCH  15  16
ENDBRANCH   1  10
TORSDOF 5
ENDMDL
MODEL 6
REMARK VINA RESULT:     0.913     14.038     15.046
REMARK INTER + INTRA:           1.684
REMARK INTER:                   1.930
REMARK INTRA:                  -0.246
REMARK UNBOUND:                 0.558
REMARK SMILES [NH3+][C@H](Cc1ccc(O)cc1)C(=O)[O-]
REMARK SMILES IDX 3 1 2 2 1 3 11 7 12 8 13 9 4 10 5 11 10 12 6 13 9 14 7 15
REMARK SMILES IDX 8 16
REMARK H PARENT 1 4 1 5 1 6 8 17
REMARK Flexibility Score: inf
ROOT
ATOM      1  C   UNL     1      10.737  39.971  35.698  1.00  0.00     0.107 C 
ENDROOT
BRANCH   1   2
ATOM      2  C   UNL     1      11.630  38.758  35.366  1.00  0.00     0.232 C 
BRANCH   2   3
ATOM      3  N   UNL     1      13.048  39.119  35.483  1.00  0.00    -0.350 N 
ATOM      4  H   UNL     1      13.432  38.759  36.387  1.00  0.00     0.345 HD
ATOM      5  H   UNL     1      13.590  38.684  34.702  1.00  0.00     0.345 HD
ATOM      6  H   UNL     1      13.169  40.158  35.447  1.00  0.00     0.345 HD
ENDBRANCH   2   3
BRANCH   2   7
ATOM      7  C   UNL     1      11.316  37.596  36.271  1.00  0.00     0.099 C 
ATOM      8  O   UNL     1      10.624  36.633  35.846  1.00  0.00    -0.544 OA
ATOM      9  O   UNL     1      11.773  37.585  37.584  1.00  0.00    -0.544 OA
ENDBRANCH   2   7
ENDBRANCH   1   2
BRANCH   1  10
ATOM     10  C   UNL     1       9.462  39.965  34.891  1.00  0.00    -0.041 A 
ATOM     11  C   UNL     1       9.487  39.598  33.536  1.00  0.00     0.008 A 
ATOM     12  C   UNL     1       8.235  40.280  35.497  1.00  0.00     0.008 A 
ATOM     13  C   UNL     1       8.302  39.563  32.793  1.00  0.00     0.046 A 
ATOM     14  C   UNL     1       7.051  40.244  34.752  1.00  0.00     0.046 A 
ATOM     15  C   UNL     1       7.081  39.886  33.401  1.00  0.00     0.115 A 
BRANCH  15  16
ATOM     16  O   UNL     1       5.894  39.854  32.671  1.00  0.00    -0.508 OA
ATOM     17  H   UNL     1       5.659  40.585  32.010  1.00  0.00     0.293 HD
ENDBRANCH  15  16
ENDBRANCH   1  10
TORSDOF 5
ENDMDL
MODEL 7
REMARK VINA RESULT:     1.043     13.952     15.009
REMARK INTER + INTRA:           1.844
REMARK INTER:                   1.882
REMARK INTRA:                  -0.039
REMARK UNBOUND:                 0.558
REMARK SMILES [NH3+][C@H](Cc1ccc(O)cc1)C(=O)[O-]
REMARK SMILES IDX 3 1 2 2 1 3 11 7 12 8 13 9 4 10 5 11 10 12 6 13 9 14 7 15
REMARK SMILES IDX 8 16
REMARK H PARENT 1 4 1 5 1 6 8 17
REMARK Flexibility Score: inf
ROOT
ATOM      1  C   UNL     1      10.121  39.776  35.096  1.00  0.00     0.107 C 
ENDROOT
BRANCH   1   2
ATOM      2  C   UNL     1      10.533  38.351  35.515  1.00  0.00     0.232 C 
BRANCH   2   3
ATOM      3  N   UNL     1      10.616  37.475  34.340  1.00  0.00    -0.350 N 
ATOM      4  H   UNL     1      10.815  38.046  33.486  1.00  0.00     0.345 HD
ATOM      5  H   UNL     1      11.396  36.790  34.463  1.00  0.00     0.345 HD
ATOM      6  H   UNL     1       9.719  36.953  34.204  1.00  0.00     0.345 HD
ENDBRANCH   2   3
BRANCH   2   7
ATOM      7  C   UNL     1      11.851  38.364  36.244  1.00  0.00     0.099 C 
ATOM      8  O   UNL     1      11.957  37.808  37.369  1.00  0.00    -0.544 OA
ATOM      9  O   UNL     1      12.953  39.003  35.689  1.00  0.00    -0.544 OA
ENDBRANCH   2   7
ENDBRANCH   1   2
BRANCH   1  10
ATOM     10  C   UNL     1       8.768  39.795  34.430  1.00  0.00    -0.041 A 
ATOM     11  C   UNL     1       8.672  39.825  33.029  1.00  0.00     0.008 A 
ATOM     12  C   UNL     1       7.594  39.737  35.199  1.00  0.00     0.008 A 
ATOM     13  C   UNL     1       7.418  39.812  32.407  1.00  0.00     0.046 A 
ATOM     14  C   UNL     1       6.342  39.724  34.575  1.00  0.00     0.046 A 
ATOM     15  C   UNL     1       6.250  39.762  33.181  1.00  0.00     0.115 A 
BRANCH  15  16
ATOM     16  O   UNL     1       4.997  39.749  32.573  1.00  0.00    -0.508 OA
ATOM     17  H   UNL     1       4.801  40.307  31.750  1.00  0.00     0.293 HD
ENDBRANCH  15  16
ENDBRANCH   1  10
TORSDOF 5
ENDMDL
MODEL 8
REMARK VINA RESULT:     1.286      1.255      2.119
REMARK INTER + INTRA:           2.144
REMARK INTER:                   1.767
REMARK INTRA:                   0.376
REMARK UNBOUND:                 0.558
REMARK SMILES [NH3+][C@H](Cc1ccc(O)cc1)C(=O)[O-]
REMARK SMILES IDX 3 1 2 2 1 3 11 7 12 8 13 9 4 10 5 11 10 12 6 13 9 14 7 15
REMARK SMILES IDX 8 16
REMARK H PARENT 1 4 1 5 1 6 8 17
REMARK Flexibility Score: inf
ROOT
ATOM      1  C   UNL     1       9.059  25.323  34.856  1.00  0.00     0.107 C 
ENDROOT
BRANCH   1   2
ATOM      2  C   UNL     1       8.728  24.392  33.671  1.00  0.00     0.232 C 
BRANCH   2   3
ATOM      3  N   UNL     1       7.351  24.616  33.214  1.00  0.00    -0.350 N 
ATOM      4  H   UNL     1       6.999  23.764  32.719  1.00  0.00     0.345 HD
ATOM      5  H   UNL     1       6.730  24.795  34.036  1.00  0.00     0.345 HD
ATOM      6  H   UNL     1       7.305  25.434  32.564  1.00  0.00     0.345 HD
ENDBRANCH   2   3
BRANCH   2   7
ATOM      7  C   UNL     1       9.691  24.606  32.533  1.00  0.00     0.099 C 
ATOM      8  O   UNL     1      10.612  25.459  32.636  1.00  0.00    -0.544 OA
ATOM      9  O   UNL     1       9.560  23.878  31.356  1.00  0.00    -0.544 OA
ENDBRANCH   2   7
ENDBRANCH   1   2
BRANCH   1  10
ATOM     10  C   UNL     1       8.271  24.961  36.089  1.00  0.00    -0.041 A 
ATOM     11  C   UNL     1       8.937  24.642  37.284  1.00  0.00     0.008 A 
ATOM     12  C   UNL     1       6.866  24.981  36.069  1.00  0.00     0.008 A 
ATOM     13  C   UNL     1       8.208  24.334  38.438  1.00  0.00     0.046 A 
ATOM     14  C   UNL     1       6.140  24.673  37.224  1.00  0.00     0.046 A 
ATOM     15  C   UNL     1       6.807  24.349  38.409  1.00  0.00     0.115 A 
BRANCH  15  16
ATOM     16  O   UNL     1       6.070  24.044  39.552  1.00  0.00    -0.508 OA
ATOM     17  H   UNL     1       5.073  24.217  39.600  1.00  0.00     0.293 HD
ENDBRANCH  15  16
ENDBRANCH   1  10
TORSDOF 5
ENDMDL
MODEL 9
REMARK VINA RESULT:     1.453     14.028     15.109
REMARK INTER + INTRA:           2.351
REMARK INTER:                   2.611
REMARK INTRA:                  -0.260
REMARK UNBOUND:                 0.558
REMARK SMILES [NH3+][C@H](Cc1ccc(O)cc1)C(=O)[O-]
REMARK SMILES IDX 3 1 2 2 1 3 11 7 12 8 13 9 4 10 5 11 10 12 6 13 9 14 7 15
REMARK SMILES IDX 8 16
REMARK H PARENT 1 4 1 5 1 6 8 17
REMARK Flexibility Score: inf
ROOT
ATOM      1  C   UNL     1      10.360  37.784  35.721  1.00  0.00     0.107 C 
ENDROOT
BRANCH   1   2
ATOM      2  C   UNL     1      11.463  38.486  36.539  1.00  0.00     0.232 C 
BRANCH   2   3
ATOM      3  N   UNL     1      11.754  37.729  37.762  1.00  0.00    -0.350 N 
ATOM      4  H   UNL     1      11.528  36.718  37.615  1.00  0.00     0.345 HD
ATOM      5  H   UNL     1      12.771  37.806  37.992  1.00  0.00     0.345 HD
ATOM      6  H   UNL     1      11.193  38.094  38.565  1.00  0.00     0.345 HD
ENDBRANCH   2   3
BRANCH   2   7
ATOM      7  C   UNL     1      12.718  38.650  35.721  1.00  0.00     0.099 C 
ATOM      8  O   UNL     1      13.503  37.678  35.567  1.00  0.00    -0.544 OA
ATOM      9  O   UNL     1      13.025  39.877  35.146  1.00  0.00    -0.544 OA
ENDBRANCH   2   7
ENDBRANCH   1   2
BRANCH   1  10
ATOM     10  C   UNL     1       9.759  38.704  34.687  1.00  0.00    -0.041 A 
ATOM     11  C   UNL     1       9.642  38.283  33.352  1.00  0.00     0.008 A 
ATOM     12  C   UNL     1       9.271  39.968  35.055  1.00  0.00     0.008 A 
ATOM     13  C   UNL     1       9.059  39.122  32.396  1.00  0.00     0.046 A 
ATOM     14  C   UNL     1       8.688  40.805  34.098  1.00  0.00     0.046 A 
ATOM     15  C   UNL     1       8.581  40.386  32.769  1.00  0.00     0.115 A 
BRANCH  15  16
ATOM     16  O   UNL     1       7.998  41.230  31.826  1.00  0.00    -0.508 OA
ATOM     17  H   UNL     1       7.050  41.572  31.936  1.00  0.00     0.293 HD
ENDBRANCH  15  16
ENDBRANCH   1  10
TORSDOF 5
ENDMDL
