MODEL 1
REMARK VINA RESULT:    -3.598      0.000      0.000
REMARK INTER + INTRA:          -4.590
REMARK INTER:                  -4.440
REMARK INTRA:                  -0.150
REMARK UNBOUND:                -0.150
REMARK SMILES CCCCCC(=O)[O-]
REMARK SMILES IDX 4 1 5 2 6 3 7 4 8 5 3 6 2 7 1 8
REMARK H PARENT
REMARK Flexibility Score: inf
ROOT
ATOM      1  C   UNL     1       8.791  -4.002  -3.951  1.00  0.00     0.006 C 
ENDROOT
BRANCH   1   2
ATOM      2  C   UNL     1       7.642  -4.310  -4.916  1.00  0.00     0.053 C 
BRANCH   2   3
ATOM      3  C   UNL     1       8.023  -3.951  -6.317  1.00  0.00     0.041 C 
ATOM      4  O   UNL     1       7.323  -3.137  -6.976  1.00  0.00    -0.550 OA
ATOM      5  O   UNL     1       9.124  -4.552  -6.914  1.00  0.00    -0.550 OA
ENDBRANCH   2   3
ENDBRANCH   1   2
BRANCH   1   6
ATOM      6  C   UNL     1       9.063  -5.194  -3.022  1.00  0.00     0.000 C 
BRANCH   6   7
ATOM      7  C   UNL     1       8.290  -6.455  -3.438  1.00  0.00    -0.003 C 
ATOM      8  C   UNL     1       8.281  -7.528  -2.350  1.00  0.00     0.004 C 
ENDBRANCH   6   7
ENDBRANCH   1   6
TORSDOF 4
ENDMDL
MODEL 2
REMARK VINA RESULT:    -3.493     20.049     20.923
REMARK INTER + INTRA:          -4.459
REMARK INTER:                  -4.327
REMARK INTRA:                  -0.133
REMARK UNBOUND:                -0.150
REMARK SMILES CCCCCC(=O)[O-]
REMARK SMILES IDX 4 1 5 2 6 3 7 4 8 5 3 6 2 7 1 8
REMARK H PARENT
REMARK Flexibility Score: inf
ROOT
ATOM      1  C   UNL     1      -7.972   7.995  -8.818  1.00  0.00     0.006 C 
ENDROOT
BRANCH   1   2
ATOM      2  C   UNL     1      -8.407   7.211  -7.576  1.00  0.00     0.053 C 
BRANCH   2   3
ATOM      3  C   UNL     1      -9.559   6.315  -7.899  1.00  0.00     0.041 C 
ATOM      4  O   UNL     1     -10.582   6.307  -7.164  1.00  0.00    -0.550 OA
ATOM      5  O   UNL     1      -9.485   5.451  -8.984  1.00  0.00    -0.550 OA
ENDBRANCH   2   3
ENDBRANCH   1   2
BRANCH   1   6
ATOM      6  C   UNL     1      -6.567   7.570  -9.271  1.00  0.00     0.000 C 
BRANCH   6   7
ATOM      7  C   UNL     1      -6.583   6.800 -10.601  1.00  0.00    -0.003 C 
ATOM      8  C   UNL     1      -5.376   7.118 -11.482  1.00  0.00     0.004 C 
ENDBRANCH   6   7
ENDBRANCH   1   6
TORSDOF 4
ENDMDL
MODEL 3
REMARK VINA RESULT:    -3.472     20.041     21.009
REMARK INTER + INTRA:          -4.434
REMARK INTER:                  -4.309
REMARK INTRA:                  -0.125
REMARK UNBOUND:                -0.150
REMARK SMILES CCCCCC(=O)[O-]
REMARK SMILES IDX 4 1 5 2 6 3 7 4 8 5 3 6 2 7 1 8
REMARK H PARENT
REMARK Flexibility Score: inf
ROOT
ATOM      1  C   UNL     1      -8.039   7.953  -8.798  1.00  0.00     0.006 C 
ENDROOT
BRANCH   1   2
ATOM      2  C   UNL     1      -8.447   7.116  -7.581  1.00  0.00     0.053 C 
BRANCH   2   3
ATOM      3  C   UNL     1      -9.653   6.290  -7.894  1.00  0.00     0.041 C 
ATOM      4  O   UNL     1      -9.593   5.384  -8.767  1.00  0.00    -0.550 OA
ATOM      5  O   UNL     1     -10.859   6.551  -7.255  1.00  0.00    -0.550 OA
ENDBRANCH   2   3
ENDBRANCH   1   2
BRANCH   1   6
ATOM      6  C   UNL     1      -6.617   7.598  -9.257  1.00  0.00     0.000 C 
BRANCH   6   7
ATOM      7  C   UNL     1      -6.601   6.814 -10.579  1.00  0.00    -0.003 C 
ATOM      8  C   UNL     1      -5.369   7.117 -11.430  1.00  0.00     0.004 C 
ENDBRANCH   6   7
ENDBRANCH   1   6
TORSDOF 4
ENDMDL
MODEL 4
REMARK VINA RESULT:    -3.423      8.192      9.796
REMARK INTER + INTRA:          -4.374
REMARK INTER:                  -4.222
REMARK INTRA:                  -0.152
REMARK UNBOUND:                -0.150
REMARK SMILES CCCCCC(=O)[O-]
REMARK SMILES IDX 4 1 5 2 6 3 7 4 8 5 3 6 2 7 1 8
REMARK H PARENT
REMARK Flexibility Score: inf
ROOT
ATOM      1  C   UNL     1       6.188 -10.033   3.875  1.00  0.00     0.006 C 
ENDROOT
BRANCH   1   2
ATOM      2  C   UNL     1       6.956 -10.717   2.740  1.00  0.00     0.053 C 
BRANCH   2   3
ATOM      3  C   UNL     1       6.879  -9.901   1.489  1.00  0.00     0.041 C 
ATOM      4  O   UNL     1       7.928  -9.435   0.971  1.00  0.00    -0.550 OA
ATOM      5  O   UNL     1       5.644  -9.614   0.921  1.00  0.00    -0.550 OA
ENDBRANCH   2   3
ENDBRANCH   1   2
BRANCH   1   6
ATOM      6  C   UNL     1       4.921 -10.823   4.235  1.00  0.00     0.000 C 
BRANCH   6   7
ATOM      7  C   UNL     1       3.635 -10.118   3.776  1.00  0.00    -0.003 C 
ATOM      8  C   UNL     1       3.322  -8.868   4.597  1.00  0.00     0.004 C 
ENDBRANCH   6   7
ENDBRANCH   1   6
TORSDOF 4
ENDMDL
MODEL 5
REMARK VINA RESULT:    -3.372      9.021     10.681
REMARK INTER + INTRA:          -4.310
REMARK INTER:                  -4.211
REMARK INTRA:                  -0.099
REMARK UNBOUND:                -0.150
REMARK SMILES CCCCCC(=O)[O-]
REMARK SMILES IDX 4 1 5 2 6 3 7 4 8 5 3 6 2 7 1 8
REMARK H PARENT
REMARK Flexibility Score: inf
ROOT
ATOM      1  C   UNL     1       5.358 -10.947   3.778  1.00  0.00     0.006 C 
ENDROOT
BRANCH   1   2
ATOM      2  C   UNL     1       5.029  -9.618   4.464  1.00  0.00     0.053 C 
BRANCH   2   3
ATOM      3  C   UNL     1       3.564  -9.331   4.376  1.00  0.00     0.041 C 
ATOM      4  O   UNL     1       2.746 -10.265   4.165  1.00  0.00    -0.550 OA
ATOM      5  O   UNL     1       3.105  -8.023   4.477  1.00  0.00    -0.550 OA
ENDBRANCH   2   3
ENDBRANCH   1   2
BRANCH   1   6
ATOM      6  C   UNL     1       6.681 -10.853   3.003  1.00  0.00     0.000 C 
BRANCH   6   7
ATOM      7  C   UNL     1       6.612  -9.856   1.836  1.00  0.00    -0.003 C 
ATOM      8  C   UNL     1       7.900  -9.820   1.014  1.00  0.00     0.004 C 
ENDBRANCH   6   7
ENDBRANCH   1   6
TORSDOF 4
ENDMDL
MODEL 6
REMARK VINA RESULT:    -3.333      3.378      4.815
REMARK INTER + INTRA:          -4.262
REMARK INTER:                  -4.179
REMARK INTRA:                  -0.083
REMARK UNBOUND:                -0.150
REMARK SMILES CCCCCC(=O)[O-]
REMARK SMILES IDX 4 1 5 2 6 3 7 4 8 5 3 6 2 7 1 8
REMARK H PARENT
REMARK Flexibility Score: inf
ROOT
ATOM      1  C   UNL     1       8.358  -6.658  -3.519  1.00  0.00     0.006 C 
ENDROOT
BRANCH   1   2
ATOM      2  C   UNL     1       8.255  -7.687  -2.390  1.00  0.00     0.053 C 
BRANCH   2   3
ATOM      3  C   UNL     1       7.718  -8.983  -2.908  1.00  0.00     0.041 C 
ATOM      4  O   UNL     1       7.296  -9.066  -4.092  1.00  0.00    -0.550 OA
ATOM      5  O   UNL     1       7.637 -10.087  -2.069  1.00  0.00    -0.550 OA
ENDBRANCH   2   3
ENDBRANCH   1   2
BRANCH   1   6
ATOM      6  C   UNL     1       8.881  -5.314  -2.991  1.00  0.00     0.000 C 
BRANCH   6   7
ATOM      7  C   UNL     1       8.634  -4.157  -3.972  1.00  0.00    -0.003 C 
ATOM      8  C   UNL     1       7.209  -4.144  -4.522  1.00  0.00     0.004 C 
ENDBRANCH   6   7
ENDBRANCH   1   6
TORSDOF 4
ENDMDL
MODEL 7
REMARK VINA RESULT:    -3.329      7.145      8.886
REMARK INTER + INTRA:          -4.257
REMARK INTER:                  -4.172
REMARK INTRA:                  -0.085
REMARK UNBOUND:                -0.150
REMARK SMILES CCCCCC(=O)[O-]
REMARK SMILES IDX 4 1 5 2 6 3 7 4 8 5 3 6 2 7 1 8
REMARK H PARENT
REMARK Flexibility Score: inf
ROOT
ATOM      1  C   UNL     1       7.135  -9.574   1.047  1.00  0.00     0.006 C 
ENDROOT
BRANCH   1   2
ATOM      2  C   UNL     1       6.832 -10.400   2.300  1.00  0.00     0.053 C 
BRANCH   2   3
ATOM      3  C   UNL     1       5.375 -10.730   2.371  1.00  0.00     0.041 C 
ATOM      4  O   UNL     1       4.648 -10.611   1.350  1.00  0.00    -0.550 OA
ATOM      5  O   UNL     1       4.810 -11.124   3.577  1.00  0.00    -0.550 OA
ENDBRANCH   2   3
ENDBRANCH   1   2
BRANCH   1   6
ATOM      6  C   UNL     1       8.629  -9.634   0.697  1.00  0.00     0.000 C 
BRANCH   6   7
ATOM      7  C   UNL     1       8.966  -8.870  -0.593  1.00  0.00    -0.003 C 
ATOM      8  C   UNL     1       7.754  -8.693  -1.507  1.00  0.00     0.004 C 
ENDBRANCH   6   7
ENDBRANCH   1   6
TORSDOF 4
ENDMDL
MODEL 8
REMARK VINA RESULT:    -3.300      8.411     10.063
REMARK INTER + INTRA:          -4.222
REMARK INTER:                  -4.109
REMARK INTRA:                  -0.113
REMARK UNBOUND:                -0.150
REMARK SMILES CCCCCC(=O)[O-]
REMARK SMILES IDX 4 1 5 2 6 3 7 4 8 5 3 6 2 7 1 8
REMARK H PARENT
REMARK Flexibility Score: inf
ROOT
ATOM      1  C   UNL     1       6.362  -9.969   1.864  1.00  0.00     0.006 C 
ENDROOT
BRANCH   1   2
ATOM      2  C   UNL     1       5.133 -10.721   2.383  1.00  0.00     0.053 C 
BRANCH   2   3
ATOM      3  C   UNL     1       4.883 -10.389   3.820  1.00  0.00     0.041 C 
ATOM      4  O   UNL     1       5.345 -11.125   4.731  1.00  0.00    -0.550 OA
ATOM      5  O   UNL     1       4.097  -9.292   4.152  1.00  0.00    -0.550 OA
ENDBRANCH   2   3
ENDBRANCH   1   2
BRANCH   1   6
ATOM      6  C   UNL     1       7.642 -10.789   2.081  1.00  0.00     0.000 C 
BRANCH   6   7
ATOM      7  C   UNL     1       8.760 -10.411   1.097  1.00  0.00    -0.003 C 
ATOM      8  C   UNL     1       8.369  -9.259   0.174  1.00  0.00     0.004 C 
ENDBRANCH   6   7
ENDBRANCH   1   6
TORSDOF 4
ENDMDL
MODEL 9
REMARK VINA RESULT:    -3.081      2.634      4.187
REMARK INTER + INTRA:          -3.951
REMARK INTER:                  -3.799
REMARK INTRA:                  -0.152
REMARK UNBOUND:                -0.150
REMARK SMILES CCCCCC(=O)[O-]
REMARK SMILES IDX 4 1 5 2 6 3 7 4 8 5 3 6 2 7 1 8
REMARK H PARENT
REMARK Flexibility Score: inf
ROOT
ATOM      1  C   UNL     1       7.565  -4.773  -3.997  1.00  0.00     0.006 C 
ENDROOT
BRANCH   1   2
ATOM      2  C   UNL     1       8.561  -5.553  -3.133  1.00  0.00     0.053 C 
BRANCH   2   3
ATOM      3  C   UNL     1       8.308  -7.023  -3.238  1.00  0.00     0.041 C 
ATOM      4  O   UNL     1       8.302  -7.586  -4.364  1.00  0.00    -0.550 OA
ATOM      5  O   UNL     1       8.028  -7.763  -2.096  1.00  0.00    -0.550 OA
ENDBRANCH   2   3
ENDBRANCH   1   2
BRANCH   1   6
ATOM      6  C   UNL     1       8.278  -3.675  -4.800  1.00  0.00     0.000 C 
BRANCH   6   7
ATOM      7  C   UNL     1       7.920  -3.710  -6.294  1.00  0.00    -0.003 C 
ATOM      8  C   UNL     1       8.621  -4.842  -7.042  1.00  0.00     0.004 C 
ENDBRANCH   6   7
ENDBRANCH   1   6
TORSDOF 4
ENDMDL
