MODEL 1
REMARK VINA RESULT:    -4.081      0.000      0.000
REMARK INTER + INTRA:          -5.463
REMARK INTER:                  -5.274
REMARK INTRA:                  -0.188
REMARK UNBOUND:                -0.188
REMARK SMILES CCCCCCC(=O)[O-]
REMARK SMILES IDX 5 1 6 2 7 3 8 4 9 5 4 6 3 7 2 8 1 9
REMARK H PARENT
REMARK Flexibility Score: inf
ROOT
ATOM      1  C   UNL     1      33.209  20.070  13.040  1.00  0.00     0.006 C 
ENDROOT
BRANCH   1   2
ATOM      2  C   UNL     1      33.169  21.278  13.981  1.00  0.00     0.053 C 
BRANCH   2   3
ATOM      3  C   UNL     1      34.468  21.422  14.706  1.00  0.00     0.041 C 
ATOM      4  O   UNL     1      35.466  20.734  14.363  1.00  0.00    -0.550 OA
ATOM      5  O   UNL     1      34.566  22.279  15.795  1.00  0.00    -0.550 OA
ENDBRANCH   2   3
ENDBRANCH   1   2
BRANCH   1   6
ATOM      6  C   UNL     1      32.000  19.154  13.270  1.00  0.00     0.000 C 
BRANCH   6   7
ATOM      7  C   UNL     1      31.104  19.104  12.027  1.00  0.00    -0.000 C 
BRANCH   7   8
ATOM      8  C   UNL     1      31.941  19.160  10.743  1.00  0.00    -0.003 C 
ATOM      9  C   UNL     1      31.773  17.887   9.920  1.00  0.00     0.004 C 
ENDBRANCH   7   8
ENDBRANCH   6   7
ENDBRANCH   1   6
TORSDOF 5
ENDMDL
MODEL 2
REMARK VINA RESULT:    -4.049      3.515      5.240
REMARK INTER + INTRA:          -5.421
REMARK INTER:                  -5.258
REMARK INTRA:                  -0.164
REMARK UNBOUND:                -0.188
REMARK SMILES CCCCCCC(=O)[O-]
REMARK SMILES IDX 5 1 6 2 7 3 8 4 9 5 4 6 3 7 2 8 1 9
REMARK H PARENT
REMARK Flexibility Score: inf
ROOT
ATOM      1  C   UNL     1      31.278  19.467  12.609  1.00  0.00     0.006 C 
ENDROOT
BRANCH   1   2
ATOM      2  C   UNL     1      31.832  19.408  11.182  1.00  0.00     0.053 C 
BRANCH   2   3
ATOM      3  C   UNL     1      31.240  18.255  10.437  1.00  0.00     0.041 C 
ATOM      4  O   UNL     1      31.987  17.411   9.876  1.00  0.00    -0.550 OA
ATOM      5  O   UNL     1      29.860  18.139  10.317  1.00  0.00    -0.550 OA
ENDBRANCH   2   3
ENDBRANCH   1   2
BRANCH   1   6
ATOM      6  C   UNL     1      32.379  19.182  13.638  1.00  0.00     0.000 C 
BRANCH   6   7
ATOM      7  C   UNL     1      33.567  20.134  13.450  1.00  0.00    -0.000 C 
BRANCH   7   8
ATOM      8  C   UNL     1      33.341  21.451  14.202  1.00  0.00    -0.003 C 
ATOM      9  C   UNL     1      34.407  21.664  15.272  1.00  0.00     0.004 C 
ENDBRANCH   7   8
ENDBRANCH   6   7
ENDBRANCH   1   6
TORSDOF 5
ENDMDL
MODEL 3
REMARK VINA RESULT:    -3.973      2.820      5.032
REMARK INTER + INTRA:          -5.322
REMARK INTER:                  -5.153
REMARK INTRA:                  -0.170
REMARK UNBOUND:                -0.188
REMARK SMILES CCCCCCC(=O)[O-]
REMARK SMILES IDX 5 1 6 2 7 3 8 4 9 5 4 6 3 7 2 8 1 9
REMARK H PARENT
REMARK Flexibility Score: inf
ROOT
ATOM      1  C   UNL     1      32.215  19.105  13.493  1.00  0.00     0.006 C 
ENDROOT
BRANCH   1   2
ATOM      2  C   UNL     1      31.090  19.176  12.456  1.00  0.00     0.053 C 
BRANCH   2   3
ATOM      3  C   UNL     1      31.605  18.818  11.099  1.00  0.00     0.041 C 
ATOM      4  O   UNL     1      30.971  18.006  10.373  1.00  0.00    -0.550 OA
ATOM      5  O   UNL     1      32.812  19.341  10.653  1.00  0.00    -0.550 OA
ENDBRANCH   2   3
ENDBRANCH   1   2
BRANCH   1   6
ATOM      6  C   UNL     1      32.692  20.509  13.885  1.00  0.00     0.000 C 
BRANCH   6   7
ATOM      7  C   UNL     1      34.220  20.612  13.806  1.00  0.00    -0.000 C 
BRANCH   7   8
ATOM      8  C   UNL     1      34.781  21.385  15.005  1.00  0.00    -0.003 C 
ATOM      9  C   UNL     1      33.836  22.503  15.432  1.00  0.00     0.004 C 
ENDBRANCH   7   8
ENDBRANCH   6   7
ENDBRANCH   1   6
TORSDOF 5
ENDMDL
MODEL 4
REMARK VINA RESULT:    -3.830      3.316      5.142
REMARK INTER + INTRA:          -5.138
REMARK INTER:                  -4.966
REMARK INTRA:                  -0.172
REMARK UNBOUND:                -0.188
REMARK SMILES CCCCCCC(=O)[O-]
REMARK SMILES IDX 5 1 6 2 7 3 8 4 9 5 4 6 3 7 2 8 1 9
REMARK H PARENT
REMARK Flexibility Score: inf
ROOT
ATOM      1  C   UNL     1      31.871  19.004  13.302  1.00  0.00     0.006 C 
ENDROOT
BRANCH   1   2
ATOM      2  C   UNL     1      31.683  19.008  11.782  1.00  0.00     0.053 C 
BRANCH   2   3
ATOM      3  C   UNL     1      30.299  19.445  11.425  1.00  0.00     0.041 C 
ATOM      4  O   UNL     1      29.311  18.718  11.712  1.00  0.00    -0.550 OA
ATOM      5  O   UNL     1      30.101  20.631  10.729  1.00  0.00    -0.550 OA
ENDBRANCH   2   3
ENDBRANCH   1   2
BRANCH   1   6
ATOM      6  C   UNL     1      32.378  20.363  13.798  1.00  0.00     0.000 C 
BRANCH   6   7
ATOM      7  C   UNL     1      33.900  20.470  13.647  1.00  0.00    -0.000 C 
BRANCH   7   8
ATOM      8  C   UNL     1      34.507  21.314  14.775  1.00  0.00    -0.003 C 
ATOM      9  C   UNL     1      33.552  22.421  15.210  1.00  0.00     0.004 C 
ENDBRANCH   7   8
ENDBRANCH   6   7
ENDBRANCH   1   6
TORSDOF 5
ENDMDL
MODEL 5
REMARK VINA RESULT:    -3.645     13.943     14.725
REMARK INTER + INTRA:          -4.898
REMARK INTER:                  -4.691
REMARK INTRA:                  -0.207
REMARK UNBOUND:                -0.188
REMARK SMILES CCCCCCC(=O)[O-]
REMARK SMILES IDX 5 1 6 2 7 3 8 4 9 5 4 6 3 7 2 8 1 9
REMARK H PARENT
REMARK Flexibility Score: inf
ROOT
ATOM      1  C   UNL     1      29.781   5.999  13.087  1.00  0.00     0.006 C 
ENDROOT
BRANCH   1   2
ATOM      2  C   UNL     1      30.812   6.165  14.207  1.00  0.00     0.053 C 
BRANCH   2   3
ATOM      3  C   UNL     1      31.462   4.855  14.520  1.00  0.00     0.041 C 
ATOM      4  O   UNL     1      31.845   4.600  15.692  1.00  0.00    -0.550 OA
ATOM      5  O   UNL     1      31.691   3.933  13.506  1.00  0.00    -0.550 OA
ENDBRANCH   2   3
ENDBRANCH   1   2
BRANCH   1   6
ATOM      6  C   UNL     1      28.356   6.200  13.617  1.00  0.00     0.000 C 
BRANCH   6   7
ATOM      7  C   UNL     1      27.647   7.336  12.870  1.00  0.00    -0.000 C 
BRANCH   7   8
ATOM      8  C   UNL     1      28.460   7.784  11.650  1.00  0.00    -0.003 C 
ATOM      9  C   UNL     1      27.696   7.529  10.355  1.00  0.00     0.004 C 
ENDBRANCH   7   8
ENDBRANCH   6   7
ENDBRANCH   1   6
TORSDOF 5
ENDMDL
MODEL 6
REMARK VINA RESULT:    -3.619     13.716     14.911
REMARK INTER + INTRA:          -4.865
REMARK INTER:                  -4.657
REMARK INTRA:                  -0.208
REMARK UNBOUND:                -0.188
REMARK SMILES CCCCCCC(=O)[O-]
REMARK SMILES IDX 5 1 6 2 7 3 8 4 9 5 4 6 3 7 2 8 1 9
REMARK H PARENT
REMARK Flexibility Score: inf
ROOT
ATOM      1  C   UNL     1      28.728   6.194  13.566  1.00  0.00     0.006 C 
ENDROOT
BRANCH   1   2
ATOM      2  C   UNL     1      28.163   7.447  12.889  1.00  0.00     0.053 C 
BRANCH   2   3
ATOM      3  C   UNL     1      28.197   7.299  11.402  1.00  0.00     0.041 C 
ATOM      4  O   UNL     1      27.492   6.423  10.834  1.00  0.00    -0.550 OA
ATOM      5  O   UNL     1      29.045   8.096  10.643  1.00  0.00    -0.550 OA
ENDBRANCH   2   3
ENDBRANCH   1   2
BRANCH   1   6
ATOM      6  C   UNL     1      30.190   5.965  13.165  1.00  0.00     0.000 C 
BRANCH   6   7
ATOM      7  C   UNL     1      31.134   6.260  14.337  1.00  0.00    -0.000 C 
BRANCH   7   8
ATOM      8  C   UNL     1      31.589   4.963  15.017  1.00  0.00    -0.003 C 
ATOM      9  C   UNL     1      31.700   3.822  14.010  1.00  0.00     0.004 C 
ENDBRANCH   7   8
ENDBRANCH   6   7
ENDBRANCH   1   6
TORSDOF 5
ENDMDL
MODEL 7
REMARK VINA RESULT:    -3.528      4.066      5.392
REMARK INTER + INTRA:          -4.748
REMARK INTER:                  -4.382
REMARK INTRA:                  -0.366
REMARK UNBOUND:                -0.188
REMARK SMILES CCCCCCC(=O)[O-]
REMARK SMILES IDX 5 1 6 2 7 3 8 4 9 5 4 6 3 7 2 8 1 9
REMARK H PARENT
REMARK Flexibility Score: inf
ROOT
ATOM      1  C   UNL     1      29.400  18.685  11.360  1.00  0.00     0.006 C 
ENDROOT
BRANCH   1   2
ATOM      2  C   UNL     1      28.480  19.652  10.608  1.00  0.00     0.053 C 
BRANCH   2   3
ATOM      3  C   UNL     1      28.242  20.886  11.418  1.00  0.00     0.041 C 
ATOM      4  O   UNL     1      29.216  21.548  11.867  1.00  0.00    -0.550 OA
ATOM      5  O   UNL     1      26.945  21.280  11.722  1.00  0.00    -0.550 OA
ENDBRANCH   2   3
ENDBRANCH   1   2
BRANCH   1   6
ATOM      6  C   UNL     1      30.742  18.527  10.635  1.00  0.00     0.000 C 
BRANCH   6   7
ATOM      7  C   UNL     1      31.887  19.123  11.463  1.00  0.00    -0.000 C 
BRANCH   7   8
ATOM      8  C   UNL     1      31.567  19.069  12.962  1.00  0.00    -0.003 C 
ATOM      9  C   UNL     1      32.216  20.232  13.705  1.00  0.00     0.004 C 
ENDBRANCH   7   8
ENDBRANCH   6   7
ENDBRANCH   1   6
TORSDOF 5
ENDMDL
MODEL 8
REMARK VINA RESULT:    -3.503      2.327      3.186
REMARK INTER + INTRA:          -4.715
REMARK INTER:                  -4.573
REMARK INTRA:                  -0.142
REMARK UNBOUND:                -0.188
REMARK SMILES CCCCCCC(=O)[O-]
REMARK SMILES IDX 5 1 6 2 7 3 8 4 9 5 4 6 3 7 2 8 1 9
REMARK H PARENT
REMARK Flexibility Score: inf
ROOT
ATOM      1  C   UNL     1      31.597  18.860  11.853  1.00  0.00     0.006 C 
ENDROOT
BRANCH   1   2
ATOM      2  C   UNL     1      31.899  19.070  13.340  1.00  0.00     0.053 C 
BRANCH   2   3
ATOM      3  C   UNL     1      32.822  20.231  13.529  1.00  0.00     0.041 C 
ATOM      4  O   UNL     1      32.381  21.330  13.957  1.00  0.00    -0.550 OA
ATOM      5  O   UNL     1      34.164  20.116  13.183  1.00  0.00    -0.550 OA
ENDBRANCH   2   3
ENDBRANCH   1   2
BRANCH   1   6
ATOM      6  C   UNL     1      30.313  19.592  11.444  1.00  0.00     0.000 C 
BRANCH   6   7
ATOM      7  C   UNL     1      29.118  18.631  11.416  1.00  0.00    -0.000 C 
BRANCH   7   8
ATOM      8  C   UNL     1      27.793  19.402  11.442  1.00  0.00    -0.003 C 
ATOM      9  C   UNL     1      27.386  19.845  10.040  1.00  0.00     0.004 C 
ENDBRANCH   7   8
ENDBRANCH   6   7
ENDBRANCH   1   6
TORSDOF 5
ENDMDL
MODEL 9
REMARK VINA RESULT:    -3.430      4.010      5.255
REMARK INTER + INTRA:          -4.621
REMARK INTER:                  -4.262
REMARK INTRA:                  -0.359
REMARK UNBOUND:                -0.188
REMARK SMILES CCCCCCC(=O)[O-]
REMARK SMILES IDX 5 1 6 2 7 3 8 4 9 5 4 6 3 7 2 8 1 9
REMARK H PARENT
REMARK Flexibility Score: inf
ROOT
ATOM      1  C   UNL     1      29.826  21.352  11.688  1.00  0.00     0.006 C 
ENDROOT
BRANCH   1   2
ATOM      2  C   UNL     1      30.236  20.272  10.683  1.00  0.00     0.053 C 
BRANCH   2   3
ATOM      3  C   UNL     1      29.448  19.021  10.906  1.00  0.00     0.041 C 
ATOM      4  O   UNL     1      28.465  19.022  11.695  1.00  0.00    -0.550 OA
ATOM      5  O   UNL     1      29.827  17.839  10.283  1.00  0.00    -0.550 OA
ENDBRANCH   2   3
ENDBRANCH   1   2
BRANCH   1   6
ATOM      6  C   UNL     1      30.920  21.567  12.741  1.00  0.00     0.000 C 
BRANCH   6   7
ATOM      7  C   UNL     1      32.272  21.041  12.245  1.00  0.00    -0.000 C 
BRANCH   7   8
ATOM      8  C   UNL     1      32.950  20.175  13.314  1.00  0.00    -0.003 C 
ATOM      9  C   UNL     1      32.115  18.940  13.635  1.00  0.00     0.004 C 
ENDBRANCH   7   8
ENDBRANCH   6   7
ENDBRANCH   1   6
TORSDOF 5
ENDMDL
