MODEL 1
REMARK VINA RESULT:     8.247      0.000      0.000
REMARK INTER + INTRA:          11.534
REMARK INTER:                  11.140
REMARK INTRA:                   0.394
REMARK UNBOUND:                 0.394
REMARK SMILES CC[C@@H](CC[C@@H](C)[C@H]1CC[C@H]2[C@@H]3CC(=O)C4=CC(=O)CC[C@]4(C)[C@H]3CC[C@@]12C)C(C)C
REMARK SMILES IDX 4 1 3 2 2 3 1 4 29 5 30 6 31 7 5 8 6 9 7 10 8 11 9 12 27 13
REMARK SMILES IDX 10 14 11 15 26 16 28 17 12 18 25 19 24 20 13 21 22 22 14 23
REMARK SMILES IDX 16 24 21 25 23 26 15 27 17 28 20 29 18 30 19 31
REMARK H PARENT
REMARK Flexibility Score: inf
ROOT
ATOM      1  C   UNL     1       1.276  45.755  19.045  1.00  0.00     0.004 C 
ENDROOT
BRANCH   1   2
ATOM      2  C   UNL     1       2.202  44.526  19.277  1.00  0.00    -0.009 C 
BRANCH   2   3
ATOM      3  C   UNL     1       1.606  43.564  20.346  1.00  0.00     0.000 C 
ATOM      4  C   UNL     1       2.595  43.189  21.449  1.00  0.00     0.004 C 
ENDBRANCH   2   3
BRANCH   2   5
ATOM      5  C   UNL     1       3.710  44.938  19.469  1.00  0.00    -0.014 C 
ATOM      6  C   UNL     1       4.475  45.275  18.173  1.00  0.00     0.007 C 
ATOM      7  C   UNL     1       3.855  46.094  20.474  1.00  0.00     0.007 C 
ENDBRANCH   2   5
ENDBRANCH   1   2
BRANCH   1   8
ATOM      8  C   UNL     1      -0.089  45.708  19.779  1.00  0.00     0.004 C 
BRANCH   8   9
ATOM      9  C   UNL     1      -1.128  46.793  19.368  1.00  0.00    -0.011 C 
ATOM     10  C   UNL     1      -1.362  47.783  20.533  1.00  0.00     0.008 C 
BRANCH   9  11
ATOM     11  C   UNL     1      -0.857  47.563  18.008  1.00  0.00    -0.002 C 
ATOM     12  C   UNL     1       0.546  47.398  17.427  1.00  0.00     0.005 C 
ATOM     13  C   UNL     1      -1.809  47.264  16.785  1.00  0.00    -0.026 C 
ATOM     14  C   UNL     1       0.460  47.987  16.037  1.00  0.00     0.005 C 
ATOM     15  C   UNL     1      -0.960  47.693  15.528  1.00  0.00    -0.001 C 
ATOM     16  C   UNL     1      -2.212  45.759  16.689  1.00  0.00     0.007 C 
ATOM     17  C   UNL     1      -3.095  48.125  16.878  1.00  0.00     0.012 C 
ATOM     18  C   UNL     1      -0.923  46.648  14.370  1.00  0.00     0.004 C 
ATOM     19  C   UNL     1      -2.885  45.353  15.363  1.00  0.00     0.005 C 
ATOM     20  C   UNL     1      -2.350  46.100  14.111  1.00  0.00     0.003 C 
ATOM     21  C   UNL     1      -0.227  47.234  13.103  1.00  0.00     0.085 C 
ATOM     22  C   UNL     1      -2.465  45.273  12.778  1.00  0.00    -0.000 C 
ATOM     23  C   UNL     1      -1.064  47.245  11.855  1.00  0.00     0.159 C 
ATOM     24  C   UNL     1      -2.100  46.210  11.626  1.00  0.00     0.005 C 
ATOM     25  C   UNL     1      -3.935  44.770  12.604  1.00  0.00     0.020 C 
ATOM     26  C   UNL     1      -1.489  44.066  12.751  1.00  0.00     0.017 C 
ATOM     27  O   UNL     1      -0.828  48.119  10.977  1.00  0.00    -0.295 OA
ATOM     28  C   UNL     1      -2.661  46.080  10.408  1.00  0.00     0.055 C 
ATOM     29  C   UNL     1      -4.210  44.178  11.217  1.00  0.00     0.081 C 
ATOM     30  C   UNL     1      -3.717  45.091  10.140  1.00  0.00     0.156 C 
ATOM     31  O   UNL     1      -4.204  45.001   8.980  1.00  0.00    -0.295 OA
ENDBRANCH   9  11
ENDBRANCH   8   9
ENDBRANCH   1   8
TORSDOF 6
ENDMDL
MODEL 2
REMARK VINA RESULT:     9.057      3.684      9.203
REMARK INTER + INTRA:          12.628
REMARK INTER:                  12.241
REMARK INTRA:                   0.387
REMARK UNBOUND:                 0.394
REMARK SMILES CC[C@@H](CC[C@@H](C)[C@H]1CC[C@H]2[C@@H]3CC(=O)C4=CC(=O)CC[C@]4(C)[C@H]3CC[C@@]12C)C(C)C
REMARK SMILES IDX 4 1 3 2 2 3 1 4 29 5 30 6 31 7 5 8 6 9 7 10 8 11 9 12 27 13
REMARK SMILES IDX 10 14 11 15 26 16 28 17 12 18 25 19 24 20 13 21 22 22 14 23
REMARK SMILES IDX 16 24 21 25 23 26 15 27 17 28 20 29 18 30 19 31
REMARK H PARENT
REMARK Flexibility Score: inf
ROOT
ATOM      1  C   UNL     1      -2.608  46.616  12.447  1.00  0.00     0.004 C 
ENDROOT
BRANCH   1   2
ATOM      2  C   UNL     1      -3.542  47.172  11.333  1.00  0.00    -0.009 C 
BRANCH   2   3
ATOM      3  C   UNL     1      -5.020  47.240  11.816  1.00  0.00     0.000 C 
ATOM      4  C   UNL     1      -5.954  47.935  10.827  1.00  0.00     0.004 C 
ENDBRANCH   2   3
BRANCH   2   5
ATOM      5  C   UNL     1      -3.291  46.481   9.939  1.00  0.00    -0.014 C 
ATOM      6  C   UNL     1      -2.259  47.178   9.030  1.00  0.00     0.007 C 
ATOM      7  C   UNL     1      -2.920  44.997  10.105  1.00  0.00     0.007 C 
ENDBRANCH   2   5
ENDBRANCH   1   2
BRANCH   1   8
ATOM      8  C   UNL     1      -2.506  47.487  13.725  1.00  0.00     0.004 C 
BRANCH   8   9
ATOM      9  C   UNL     1      -2.712  46.747  15.081  1.00  0.00    -0.011 C 
ATOM     10  C   UNL     1      -2.065  45.344  15.032  1.00  0.00     0.008 C 
BRANCH   9  11
ATOM     11  C   UNL     1      -2.287  47.530  16.393  1.00  0.00    -0.002 C 
ATOM     12  C   UNL     1      -3.242  47.397  17.577  1.00  0.00     0.005 C 
ATOM     13  C   UNL     1      -0.870  47.218  17.016  1.00  0.00    -0.026 C 
ATOM     14  C   UNL     1      -2.492  47.992  18.747  1.00  0.00     0.005 C 
ATOM     15  C   UNL     1      -1.006  47.671  18.518  1.00  0.00    -0.001 C 
ATOM     16  C   UNL     1      -0.495  45.704  16.929  1.00  0.00     0.007 C 
ATOM     17  C   UNL     1       0.228  48.050  16.305  1.00  0.00     0.012 C 
ATOM     18  C   UNL     1      -0.501  46.634  19.569  1.00  0.00     0.004 C 
ATOM     19  C   UNL     1       0.725  45.291  17.777  1.00  0.00     0.005 C 
ATOM     20  C   UNL     1       0.866  46.057  19.121  1.00  0.00     0.003 C 
ATOM     21  C   UNL     1      -0.496  47.241  21.006  1.00  0.00     0.085 C 
ATOM     22  C   UNL     1       1.593  45.234  20.248  1.00  0.00    -0.000 C 
ATOM     23  C   UNL     1       0.837  47.240  21.700  1.00  0.00     0.159 C 
ATOM     24  C   UNL     1       1.840  46.185  21.420  1.00  0.00     0.005 C 
ATOM     25  C   UNL     1       2.958  44.701  19.704  1.00  0.00     0.020 C 
ATOM     26  C   UNL     1       0.730  44.049  20.758  1.00  0.00     0.017 C 
ATOM     27  O   UNL     1       1.065  48.125  22.570  1.00  0.00    -0.295 OA
ATOM     28  C   UNL     1       2.913  46.050  22.222  1.00  0.00     0.055 C 
ATOM     29  C   UNL     1       3.854  44.110  20.799  1.00  0.00     0.081 C 
ATOM     30  C   UNL     1       3.952  45.040  21.967  1.00  0.00     0.156 C 
ATOM     31  O   UNL     1       4.934  44.946  22.753  1.00  0.00    -0.295 OA
ENDBRANCH   9  11
ENDBRANCH   8   9
ENDBRANCH   1   8
TORSDOF 6
ENDMDL
MODEL 3
REMARK VINA RESULT:    10.419      2.110      4.354
REMARK INTER + INTRA:          14.468
REMARK INTER:                  14.646
REMARK INTRA:                  -0.178
REMARK UNBOUND:                 0.394
REMARK SMILES CC[C@@H](CC[C@@H](C)[C@H]1CC[C@H]2[C@@H]3CC(=O)C4=CC(=O)CC[C@]4(C)[C@H]3CC[C@@]12C)C(C)C
REMARK SMILES IDX 4 1 3 2 2 3 1 4 29 5 30 6 31 7 5 8 6 9 7 10 8 11 9 12 27 13
REMARK SMILES IDX 10 14 11 15 26 16 28 17 12 18 25 19 24 20 13 21 22 22 14 23
REMARK SMILES IDX 16 24 21 25 23 26 15 27 17 28 20 29 18 30 19 31
REMARK H PARENT
REMARK Flexibility Score: inf
ROOT
ATOM      1  C   UNL     1       4.288  48.117  19.101  1.00  0.00     0.004 C 
ENDROOT
BRANCH   1   2
ATOM      2  C   UNL     1       4.619  46.856  18.252  1.00  0.00    -0.009 C 
BRANCH   2   3
ATOM      3  C   UNL     1       5.607  45.914  19.000  1.00  0.00     0.000 C 
ATOM      4  C   UNL     1       5.554  44.465  18.517  1.00  0.00     0.004 C 
ENDBRANCH   2   3
BRANCH   2   5
ATOM      5  C   UNL     1       4.986  47.215  16.763  1.00  0.00    -0.014 C 
ATOM      6  C   UNL     1       5.719  46.109  15.976  1.00  0.00     0.007 C 
ATOM      7  C   UNL     1       3.749  47.680  15.974  1.00  0.00     0.007 C 
ENDBRANCH   2   5
ENDBRANCH   1   2
BRANCH   1   8
ATOM      8  C   UNL     1       3.977  47.849  20.597  1.00  0.00     0.004 C 
BRANCH   8   9
ATOM      9  C   UNL     1       3.140  46.573  20.908  1.00  0.00    -0.011 C 
ATOM     10  C   UNL     1       3.536  45.992  22.285  1.00  0.00     0.008 C 
BRANCH   9  11
ATOM     11  C   UNL     1       1.565  46.701  20.771  1.00  0.00    -0.002 C 
ATOM     12  C   UNL     1       1.012  48.122  20.846  1.00  0.00     0.005 C 
ATOM     13  C   UNL     1       0.882  46.099  19.482  1.00  0.00    -0.026 C 
ATOM     14  C   UNL     1      -0.435  47.996  20.427  1.00  0.00     0.005 C 
ATOM     15  C   UNL     1      -0.487  46.872  19.380  1.00  0.00    -0.001 C 
ATOM     16  C   UNL     1       1.734  46.316  18.192  1.00  0.00     0.007 C 
ATOM     17  C   UNL     1       0.624  44.581  19.665  1.00  0.00     0.012 C 
ATOM     18  C   UNL     1      -0.814  47.453  17.968  1.00  0.00     0.004 C 
ATOM     19  C   UNL     1       0.994  46.023  16.871  1.00  0.00     0.005 C 
ATOM     20  C   UNL     1      -0.516  46.388  16.882  1.00  0.00     0.003 C 
ATOM     21  C   UNL     1      -2.263  48.028  17.915  1.00  0.00     0.085 C 
ATOM     22  C   UNL     1      -1.089  46.767  15.466  1.00  0.00    -0.000 C 
ATOM     23  C   UNL     1      -3.160  47.416  16.877  1.00  0.00     0.159 C 
ATOM     24  C   UNL     1      -2.606  46.891  15.606  1.00  0.00     0.005 C 
ATOM     25  C   UNL     1      -0.743  45.635  14.445  1.00  0.00     0.020 C 
ATOM     26  C   UNL     1      -0.536  48.125  14.955  1.00  0.00     0.017 C 
ATOM     27  O   UNL     1      -4.405  47.410  17.083  1.00  0.00    -0.295 OA
ATOM     28  C   UNL     1      -3.434  46.582  14.590  1.00  0.00     0.055 C 
ATOM     29  C   UNL     1      -1.476  45.786  13.107  1.00  0.00     0.081 C 
ATOM     30  C   UNL     1      -2.936  46.026  13.322  1.00  0.00     0.156 C 
ATOM     31  O   UNL     1      -3.751  45.762  12.397  1.00  0.00    -0.295 OA
ENDBRANCH   9  11
ENDBRANCH   8   9
ENDBRANCH   1   8
TORSDOF 6
ENDMDL
