MODEL 1
REMARK VINA RESULT:    -2.590      0.000      0.000
REMARK INTER + INTRA:          -2.944
REMARK INTER:                  -2.892
REMARK INTRA:                  -0.052
REMARK UNBOUND:                -0.052
REMARK SMILES CCCC(=O)[O-]
REMARK SMILES IDX 3 1 4 2 5 3 6 4 2 5 1 6
REMARK H PARENT
REMARK Flexibility Score: inf
ROOT
ATOM      1  C   UNL     1      35.002   5.334 -31.401  1.00  0.00     0.052 C 
ENDROOT
BRANCH   1   2
ATOM      2  C   UNL     1      34.888   5.118 -32.877  1.00  0.00     0.041 C 
ATOM      3  O   UNL     1      35.741   5.617 -33.658  1.00  0.00    -0.550 OA
ATOM      4  O   UNL     1      33.869   4.324 -33.387  1.00  0.00    -0.550 OA
ENDBRANCH   1   2
BRANCH   1   5
ATOM      5  C   UNL     1      35.413   6.778 -31.101  1.00  0.00     0.003 C 
ATOM      6  C   UNL     1      34.210   7.715 -31.149  1.00  0.00     0.004 C 
ENDBRANCH   1   5
TORSDOF 2
ENDMDL
MODEL 2
REMARK VINA RESULT:    -2.461      2.343      3.083
REMARK INTER + INTRA:          -2.800
REMARK INTER:                  -2.739
REMARK INTRA:                  -0.062
REMARK UNBOUND:                -0.052
REMARK SMILES CCCC(=O)[O-]
REMARK SMILES IDX 3 1 4 2 5 3 6 4 2 5 1 6
REMARK H PARENT
REMARK Flexibility Score: inf
ROOT
ATOM      1  C   UNL     1      35.514   5.975 -31.556  1.00  0.00     0.052 C 
ENDROOT
BRANCH   1   2
ATOM      2  C   UNL     1      34.454   6.809 -30.907  1.00  0.00     0.041 C 
ATOM      3  O   UNL     1      34.156   7.936 -31.382  1.00  0.00    -0.550 OA
ATOM      4  O   UNL     1      33.762   6.320 -29.808  1.00  0.00    -0.550 OA
ENDBRANCH   1   2
BRANCH   1   5
ATOM      5  C   UNL     1      35.054   5.505 -32.939  1.00  0.00     0.003 C 
ATOM      6  C   UNL     1      34.105   4.315 -32.830  1.00  0.00     0.004 C 
ENDBRANCH   1   5
TORSDOF 2
ENDMDL
MODEL 3
REMARK VINA RESULT:    -2.441      1.761      2.072
REMARK INTER + INTRA:          -2.778
REMARK INTER:                  -2.771
REMARK INTRA:                  -0.007
REMARK UNBOUND:                -0.052
REMARK SMILES CCCC(=O)[O-]
REMARK SMILES IDX 3 1 4 2 5 3 6 4 2 5 1 6
REMARK H PARENT
REMARK Flexibility Score: inf
ROOT
ATOM      1  C   UNL     1      34.779   5.066 -32.886  1.00  0.00     0.052 C 
ENDROOT
BRANCH   1   2
ATOM      2  C   UNL     1      33.559   4.223 -33.082  1.00  0.00     0.041 C 
ATOM      3  O   UNL     1      32.415   4.748 -33.052  1.00  0.00    -0.550 OA
ATOM      4  O   UNL     1      33.687   2.866 -33.348  1.00  0.00    -0.550 OA
ENDBRANCH   1   2
BRANCH   1   5
ATOM      5  C   UNL     1      34.982   5.376 -31.400  1.00  0.00     0.003 C 
ATOM      6  C   UNL     1      35.918   6.567 -31.208  1.00  0.00     0.004 C 
ENDBRANCH   1   5
TORSDOF 2
ENDMDL
MODEL 4
REMARK VINA RESULT:    -2.400     15.926     16.757
REMARK INTER + INTRA:          -2.732
REMARK INTER:                  -2.707
REMARK INTRA:                  -0.024
REMARK UNBOUND:                -0.052
REMARK SMILES CCCC(=O)[O-]
REMARK SMILES IDX 3 1 4 2 5 3 6 4 2 5 1 6
REMARK H PARENT
REMARK Flexibility Score: inf
ROOT
ATOM      1  C   UNL     1      25.126  -7.703 -28.936  1.00  0.00     0.052 C 
ENDROOT
BRANCH   1   2
ATOM      2  C   UNL     1      24.824  -6.357 -29.515  1.00  0.00     0.041 C 
ATOM      3  O   UNL     1      25.656  -5.418 -29.402  1.00  0.00    -0.550 OA
ATOM      4  O   UNL     1      23.646  -6.152 -30.220  1.00  0.00    -0.550 OA
ENDBRANCH   1   2
BRANCH   1   5
ATOM      5  C   UNL     1      24.330  -7.922 -27.646  1.00  0.00     0.003 C 
ATOM      6  C   UNL     1      25.257  -8.030 -26.438  1.00  0.00     0.004 C 
ENDBRANCH   1   5
TORSDOF 2
ENDMDL
MODEL 5
REMARK VINA RESULT:    -2.246      3.770      4.486
REMARK INTER + INTRA:          -2.560
REMARK INTER:                  -2.546
REMARK INTRA:                  -0.014
REMARK UNBOUND:                -0.052
REMARK SMILES CCCC(=O)[O-]
REMARK SMILES IDX 3 1 4 2 5 3 6 4 2 5 1 6
REMARK H PARENT
REMARK Flexibility Score: inf
ROOT
ATOM      1  C   UNL     1      33.237   7.632 -30.372  1.00  0.00     0.052 C 
ENDROOT
BRANCH   1   2
ATOM      2  C   UNL     1      33.009   9.099 -30.190  1.00  0.00     0.041 C 
ATOM      3  O   UNL     1      33.200   9.894 -31.148  1.00  0.00    -0.550 OA
ATOM      4  O   UNL     1      32.539   9.584 -28.977  1.00  0.00    -0.550 OA
ENDBRANCH   1   2
BRANCH   1   5
ATOM      5  C   UNL     1      34.417   7.387 -31.319  1.00  0.00     0.003 C 
ATOM      6  C   UNL     1      35.422   6.416 -30.707  1.00  0.00     0.004 C 
ENDBRANCH   1   5
TORSDOF 2
ENDMDL
MODEL 6
REMARK VINA RESULT:    -2.244     16.705     17.281
REMARK INTER + INTRA:          -2.558
REMARK INTER:                  -2.511
REMARK INTRA:                  -0.047
REMARK UNBOUND:                -0.052
REMARK SMILES CCCC(=O)[O-]
REMARK SMILES IDX 3 1 4 2 5 3 6 4 2 5 1 6
REMARK H PARENT
REMARK Flexibility Score: inf
ROOT
ATOM      1  C   UNL     1      24.522  -7.916 -27.832  1.00  0.00     0.052 C 
ENDROOT
BRANCH   1   2
ATOM      2  C   UNL     1      24.301  -6.795 -26.865  1.00  0.00     0.041 C 
ATOM      3  O   UNL     1      24.507  -6.970 -25.636  1.00  0.00    -0.550 OA
ATOM      4  O   UNL     1      23.914  -5.545 -27.327  1.00  0.00    -0.550 OA
ENDBRANCH   1   2
BRANCH   1   5
ATOM      5  C   UNL     1      25.814  -7.693 -28.623  1.00  0.00     0.003 C 
ATOM      6  C   UNL     1      27.035  -8.125 -27.816  1.00  0.00     0.004 C 
ENDBRANCH   1   5
TORSDOF 2
ENDMDL
MODEL 7
REMARK VINA RESULT:    -2.233     15.833     16.625
REMARK INTER + INTRA:          -2.546
REMARK INTER:                  -2.481
REMARK INTRA:                  -0.065
REMARK UNBOUND:                -0.052
REMARK SMILES CCCC(=O)[O-]
REMARK SMILES IDX 3 1 4 2 5 3 6 4 2 5 1 6
REMARK H PARENT
REMARK Flexibility Score: inf
ROOT
ATOM      1  C   UNL     1      25.198  -7.757 -28.682  1.00  0.00     0.052 C 
ENDROOT
BRANCH   1   2
ATOM      2  C   UNL     1      26.617  -7.329 -28.474  1.00  0.00     0.041 C 
ATOM      3  O   UNL     1      27.021  -6.229 -28.934  1.00  0.00    -0.550 OA
ATOM      4  O   UNL     1      27.479  -8.122 -27.729  1.00  0.00    -0.550 OA
ENDBRANCH   1   2
BRANCH   1   5
ATOM      5  C   UNL     1      24.484  -7.915 -27.337  1.00  0.00     0.003 C 
ATOM      6  C   UNL     1      24.125  -6.557 -26.740  1.00  0.00     0.004 C 
ENDBRANCH   1   5
TORSDOF 2
ENDMDL
