MODEL 1
REMARK VINA RESULT:    -4.414      0.000      0.000
REMARK INTER + INTRA:          -4.544
REMARK INTER:                  -4.544
REMARK INTRA:                   0.000
REMARK UNBOUND:                 0.000
REMARK SMILES Nc1ncnc2nc[nH]c12
REMARK SMILES IDX 8 1 7 2 6 3 5 4 4 5 3 6 2 7 10 8 9 9 1 11
REMARK H PARENT 9 10 1 12 1 13
REMARK Flexibility Score: inf
ROOT
ATOM      1  C   UNL     1       6.574   3.534   1.119  1.00  0.00     0.199 A 
ATOM      2  N   UNL     1       6.723   4.866   1.363  1.00  0.00    -0.217 NA
ATOM      3  C   UNL     1       6.763   5.380   0.122  1.00  0.00     0.182 A 
ATOM      4  N   UNL     1       6.901   6.687  -0.207  1.00  0.00    -0.215 NA
ATOM      5  C   UNL     1       6.919   7.020  -1.534  1.00  0.00     0.226 A 
ATOM      6  N   UNL     1       6.801   6.050  -2.496  1.00  0.00    -0.217 NA
ATOM      7  C   UNL     1       6.661   4.731  -2.166  1.00  0.00     0.152 A 
ATOM      8  C   UNL     1       6.644   4.409  -0.811  1.00  0.00     0.127 A 
ATOM      9  N   UNL     1       6.523   3.223  -0.200  1.00  0.00    -0.340 N 
ATOM     10  H   UNL     1       6.413   2.277  -0.627  1.00  0.00     0.168 HD
ENDROOT
BRANCH   7  11
ATOM     11  N   UNL     1       6.538   3.739  -3.186  1.00  0.00    -0.382 N 
ATOM     12  H   UNL     1       6.250   2.761  -2.962  1.00  0.00     0.158 HD
ATOM     13  H   UNL     1       6.740   3.984  -4.180  1.00  0.00     0.158 HD
ENDBRANCH   7  11
TORSDOF 1
ENDMDL
MODEL 2
REMARK VINA RESULT:    -3.999      0.698      2.844
REMARK INTER + INTRA:          -4.116
REMARK INTER:                  -4.116
REMARK INTRA:                   0.000
REMARK UNBOUND:                 0.000
REMARK SMILES Nc1ncnc2nc[nH]c12
REMARK SMILES IDX 8 1 7 2 6 3 5 4 4 5 3 6 2 7 10 8 9 9 1 11
REMARK H PARENT 9 10 1 12 1 13
REMARK Flexibility Score: inf
ROOT
ATOM      1  C   UNL     1       6.988   7.705  -1.567  1.00  0.00     0.199 A 
ATOM      2  N   UNL     1       6.981   7.349  -0.254  1.00  0.00    -0.217 NA
ATOM      3  C   UNL     1       6.838   6.015  -0.320  1.00  0.00     0.182 A 
ATOM      4  N   UNL     1       6.772   5.156   0.726  1.00  0.00    -0.215 NA
ATOM      5  C   UNL     1       6.625   3.823   0.457  1.00  0.00     0.226 A 
ATOM      6  N   UNL     1       6.547   3.378  -0.838  1.00  0.00    -0.217 NA
ATOM      7  C   UNL     1       6.614   4.243  -1.894  1.00  0.00     0.152 A 
ATOM      8  C   UNL     1       6.764   5.597  -1.604  1.00  0.00     0.127 A 
ATOM      9  N   UNL     1       6.857   6.656  -2.418  1.00  0.00    -0.340 N 
ATOM     10  H   UNL     1       6.836   6.681  -3.461  1.00  0.00     0.168 HD
ENDROOT
BRANCH   7  11
ATOM     11  N   UNL     1       6.532   3.756  -3.234  1.00  0.00    -0.382 N 
ATOM     12  H   UNL     1       5.829   3.035  -3.508  1.00  0.00     0.158 HD
ATOM     13  H   UNL     1       7.184   4.121  -3.964  1.00  0.00     0.158 HD
ENDBRANCH   7  11
TORSDOF 1
ENDMDL
MODEL 3
REMARK VINA RESULT:    -3.886     15.339     16.920
REMARK INTER + INTRA:          -4.000
REMARK INTER:                  -4.000
REMARK INTRA:                   0.000
REMARK UNBOUND:                 0.000
REMARK SMILES Nc1ncnc2nc[nH]c12
REMARK SMILES IDX 8 1 7 2 6 3 5 4 4 5 3 6 2 7 10 8 9 9 1 11
REMARK H PARENT 9 10 1 12 1 13
REMARK Flexibility Score: inf
ROOT
ATOM      1  C   UNL     1      -2.838  -1.995   7.988  1.00  0.00     0.199 A 
ATOM      2  N   UNL     1      -3.153  -3.196   8.545  1.00  0.00    -0.217 NA
ATOM      3  C   UNL     1      -4.496  -3.190   8.494  1.00  0.00     0.182 A 
ATOM      4  N   UNL     1      -5.325  -4.170   8.927  1.00  0.00    -0.215 NA
ATOM      5  C   UNL     1      -6.674  -3.982   8.789  1.00  0.00     0.226 A 
ATOM      6  N   UNL     1      -7.162  -2.830   8.226  1.00  0.00    -0.217 NA
ATOM      7  C   UNL     1      -6.326  -1.841   7.787  1.00  0.00     0.152 A 
ATOM      8  C   UNL     1      -4.957  -2.048   7.935  1.00  0.00     0.127 A 
ATOM      9  N   UNL     1      -3.918  -1.269   7.604  1.00  0.00    -0.340 N 
ATOM     10  H   UNL     1      -3.926  -0.327   7.157  1.00  0.00     0.168 HD
ENDROOT
BRANCH   7  11
ATOM     11  N   UNL     1      -6.857  -0.651   7.203  1.00  0.00    -0.382 N 
ATOM     12  H   UNL     1      -6.255   0.183   7.025  1.00  0.00     0.158 HD
ATOM     13  H   UNL     1      -7.868  -0.602   6.946  1.00  0.00     0.158 HD
ENDBRANCH   7  11
TORSDOF 1
ENDMDL
MODEL 4
REMARK VINA RESULT:    -3.868      0.874      3.536
REMARK INTER + INTRA:          -3.981
REMARK INTER:                  -3.981
REMARK INTRA:                   0.000
REMARK UNBOUND:                 0.000
REMARK SMILES Nc1ncnc2nc[nH]c12
REMARK SMILES IDX 8 1 7 2 6 3 5 4 4 5 3 6 2 7 10 8 9 9 1 11
REMARK H PARENT 9 10 1 12 1 13
REMARK Flexibility Score: inf
ROOT
ATOM      1  C   UNL     1       6.712   4.607  -3.611  1.00  0.00     0.199 A 
ATOM      2  N   UNL     1       6.637   3.520  -2.795  1.00  0.00    -0.217 NA
ATOM      3  C   UNL     1       6.700   4.076  -1.573  1.00  0.00     0.182 A 
ATOM      4  N   UNL     1       6.666   3.425  -0.386  1.00  0.00    -0.215 NA
ATOM      5  C   UNL     1       6.743   4.168   0.761  1.00  0.00     0.226 A 
ATOM      6  N   UNL     1       6.851   5.534   0.699  1.00  0.00    -0.217 NA
ATOM      7  C   UNL     1       6.885   6.193  -0.499  1.00  0.00     0.152 A 
ATOM      8  C   UNL     1       6.806   5.422  -1.656  1.00  0.00     0.127 A 
ATOM      9  N   UNL     1       6.815   5.785  -2.945  1.00  0.00    -0.340 N 
ATOM     10  H   UNL     1       6.885   6.742  -3.353  1.00  0.00     0.168 HD
ENDROOT
BRANCH   7  11
ATOM     11  N   UNL     1       6.998   7.616  -0.538  1.00  0.00    -0.382 N 
ATOM     12  H   UNL     1       7.894   8.097  -0.306  1.00  0.00     0.158 HD
ATOM     13  H   UNL     1       6.172   8.198  -0.802  1.00  0.00     0.158 HD
ENDBRANCH   7  11
TORSDOF 1
ENDMDL
MODEL 5
REMARK VINA RESULT:    -3.767      1.089      2.534
REMARK INTER + INTRA:          -3.877
REMARK INTER:                  -3.877
REMARK INTRA:                   0.000
REMARK UNBOUND:                 0.000
REMARK SMILES Nc1ncnc2nc[nH]c12
REMARK SMILES IDX 8 1 7 2 6 3 5 4 4 5 3 6 2 7 10 8 9 9 1 11
REMARK H PARENT 9 10 1 12 1 13
REMARK Flexibility Score: inf
ROOT
ATOM      1  C   UNL     1       6.731   4.503   0.771  1.00  0.00     0.199 A 
ATOM      2  N   UNL     1       6.513   3.527  -0.151  1.00  0.00    -0.217 NA
ATOM      3  C   UNL     1       6.651   4.193  -1.310  1.00  0.00     0.182 A 
ATOM      4  N   UNL     1       6.531   3.678  -2.557  1.00  0.00    -0.215 NA
ATOM      5  C   UNL     1       6.709   4.519  -3.622  1.00  0.00     0.226 A 
ATOM      6  N   UNL     1       6.999   5.844  -3.421  1.00  0.00    -0.217 NA
ATOM      7  C   UNL     1       7.120   6.365  -2.163  1.00  0.00     0.152 A 
ATOM      8  C   UNL     1       6.937   5.496  -1.091  1.00  0.00     0.127 A 
ATOM      9  N   UNL     1       6.993   5.719   0.229  1.00  0.00    -0.340 N 
ATOM     10  H   UNL     1       7.191   6.611   0.732  1.00  0.00     0.168 HD
ENDROOT
BRANCH   7  11
ATOM     11  N   UNL     1       7.424   7.749  -1.979  1.00  0.00    -0.382 N 
ATOM     12  H   UNL     1       7.834   8.101  -1.087  1.00  0.00     0.158 HD
ATOM     13  H   UNL     1       7.235   8.431  -2.746  1.00  0.00     0.158 HD
ENDBRANCH   7  11
TORSDOF 1
ENDMDL
MODEL 6
REMARK VINA RESULT:    -3.720      1.476      2.024
REMARK INTER + INTRA:          -3.829
REMARK INTER:                  -3.829
REMARK INTRA:                   0.000
REMARK UNBOUND:                 0.000
REMARK SMILES Nc1ncnc2nc[nH]c12
REMARK SMILES IDX 8 1 7 2 6 3 5 4 4 5 3 6 2 7 10 8 9 9 1 11
REMARK H PARENT 9 10 1 12 1 13
REMARK Flexibility Score: inf
ROOT
ATOM      1  C   UNL     1       6.472   4.010  -1.091  1.00  0.00     0.199 A 
ATOM      2  N   UNL     1       6.317   5.078  -0.261  1.00  0.00    -0.217 NA
ATOM      3  C   UNL     1       6.657   6.108  -1.055  1.00  0.00     0.182 A 
ATOM      4  N   UNL     1       6.675   7.418  -0.714  1.00  0.00    -0.215 NA
ATOM      5  C   UNL     1       7.051   8.327  -1.665  1.00  0.00     0.226 A 
ATOM      6  N   UNL     1       7.400   7.912  -2.925  1.00  0.00    -0.217 NA
ATOM      7  C   UNL     1       7.381   6.589  -3.270  1.00  0.00     0.152 A 
ATOM      8  C   UNL     1       6.996   5.678  -2.291  1.00  0.00     0.127 A 
ATOM      9  N   UNL     1       6.886   4.344  -2.340  1.00  0.00    -0.340 N 
ATOM     10  H   UNL     1       7.072   3.702  -3.141  1.00  0.00     0.168 HD
ENDROOT
BRANCH   7  11
ATOM     11  N   UNL     1       7.747   6.181  -4.590  1.00  0.00    -0.382 N 
ATOM     12  H   UNL     1       8.659   6.463  -5.012  1.00  0.00     0.158 HD
ATOM     13  H   UNL     1       7.097   5.590  -5.153  1.00  0.00     0.158 HD
ENDBRANCH   7  11
TORSDOF 1
ENDMDL
MODEL 7
REMARK VINA RESULT:    -3.706      8.502     10.502
REMARK INTER + INTRA:          -3.814
REMARK INTER:                  -3.814
REMARK INTRA:                   0.000
REMARK UNBOUND:                 0.000
REMARK SMILES Nc1ncnc2nc[nH]c12
REMARK SMILES IDX 8 1 7 2 6 3 5 4 4 5 3 6 2 7 10 8 9 9 1 11
REMARK H PARENT 9 10 1 12 1 13
REMARK Flexibility Score: inf
ROOT
ATOM      1  C   UNL     1      10.801  -0.067 -10.304  1.00  0.00     0.199 A 
ATOM      2  N   UNL     1       9.732  -0.256 -11.125  1.00  0.00    -0.217 NA
ATOM      3  C   UNL     1       8.848   0.640 -10.654  1.00  0.00     0.182 A 
ATOM      4  N   UNL     1       7.599   0.867 -11.125  1.00  0.00    -0.215 NA
ATOM      5  C   UNL     1       6.843   1.829 -10.511  1.00  0.00     0.226 A 
ATOM      6  N   UNL     1       7.346   2.537  -9.450  1.00  0.00    -0.217 NA
ATOM      7  C   UNL     1       8.607   2.309  -8.974  1.00  0.00     0.152 A 
ATOM      8  C   UNL     1       9.363   1.328  -9.610  1.00  0.00     0.127 A 
ATOM      9  N   UNL     1      10.607   0.895  -9.367  1.00  0.00    -0.340 N 
ATOM     10  H   UNL     1      11.278   1.214  -8.634  1.00  0.00     0.168 HD
ENDROOT
BRANCH   7  11
ATOM     11  N   UNL     1       9.109   3.061  -7.868  1.00  0.00    -0.382 N 
ATOM     12  H   UNL     1       8.923   2.769  -6.884  1.00  0.00     0.158 HD
ATOM     13  H   UNL     1       9.675   3.922  -8.035  1.00  0.00     0.158 HD
ENDBRANCH   7  11
TORSDOF 1
ENDMDL
MODEL 8
REMARK VINA RESULT:    -3.659     12.846     14.422
REMARK INTER + INTRA:          -3.766
REMARK INTER:                  -3.766
REMARK INTRA:                   0.000
REMARK UNBOUND:                 0.000
REMARK SMILES Nc1ncnc2nc[nH]c12
REMARK SMILES IDX 8 1 7 2 6 3 5 4 4 5 3 6 2 7 10 8 9 9 1 11
REMARK H PARENT 9 10 1 12 1 13
REMARK Flexibility Score: inf
ROOT
ATOM      1  C   UNL     1       5.145  -5.410  -6.286  1.00  0.00     0.199 A 
ATOM      2  N   UNL     1       5.405  -6.026  -7.472  1.00  0.00    -0.217 NA
ATOM      3  C   UNL     1       5.200  -7.320  -7.173  1.00  0.00     0.182 A 
ATOM      4  N   UNL     1       5.326  -8.373  -8.014  1.00  0.00    -0.215 NA
ATOM      5  C   UNL     1       5.072  -9.625  -7.523  1.00  0.00     0.226 A 
ATOM      6  N   UNL     1       4.703  -9.797  -6.214  1.00  0.00    -0.217 NA
ATOM      7  C   UNL     1       4.576  -8.734  -5.363  1.00  0.00     0.152 A 
ATOM      8  C   UNL     1       4.837  -7.468  -5.878  1.00  0.00     0.127 A 
ATOM      9  N   UNL     1       4.795  -6.264  -5.292  1.00  0.00    -0.340 N 
ATOM     10  H   UNL     1       4.551  -6.027  -4.306  1.00  0.00     0.168 HD
ENDROOT
BRANCH   7  11
ATOM     11  N   UNL     1       4.189  -8.939  -4.003  1.00  0.00    -0.382 N 
ATOM     12  H   UNL     1       4.877  -8.853  -3.224  1.00  0.00     0.158 HD
ATOM     13  H   UNL     1       3.200  -9.180  -3.772  1.00  0.00     0.158 HD
ENDBRANCH   7  11
TORSDOF 1
ENDMDL
MODEL 9
REMARK VINA RESULT:    -3.586     15.864     17.279
REMARK INTER + INTRA:          -3.691
REMARK INTER:                  -3.691
REMARK INTRA:                   0.000
REMARK UNBOUND:                 0.000
REMARK SMILES Nc1ncnc2nc[nH]c12
REMARK SMILES IDX 8 1 7 2 6 3 5 4 4 5 3 6 2 7 10 8 9 9 1 11
REMARK H PARENT 9 10 1 12 1 13
REMARK Flexibility Score: inf
ROOT
ATOM      1  C   UNL     1      -6.071   0.832   8.025  1.00  0.00     0.199 A 
ATOM      2  N   UNL     1      -7.265   0.294   8.396  1.00  0.00    -0.217 NA
ATOM      3  C   UNL     1      -6.993  -1.022   8.410  1.00  0.00     0.182 A 
ATOM      4  N   UNL     1      -7.853  -2.021   8.720  1.00  0.00    -0.215 NA
ATOM      5  C   UNL     1      -7.389  -3.307   8.680  1.00  0.00     0.226 A 
ATOM      6  N   UNL     1      -6.087  -3.567   8.334  1.00  0.00    -0.217 NA
ATOM      7  C   UNL     1      -5.218  -2.559   8.022  1.00  0.00     0.152 A 
ATOM      8  C   UNL     1      -5.706  -1.256   8.068  1.00  0.00     0.127 A 
ATOM      9  N   UNL     1      -5.097  -0.090   7.817  1.00  0.00    -0.340 N 
ATOM     10  H   UNL     1      -4.109   0.082   7.530  1.00  0.00     0.168 HD
ENDROOT
BRANCH   7  11
ATOM     11  N   UNL     1      -3.866  -2.854   7.666  1.00  0.00    -0.382 N 
ATOM     12  H   UNL     1      -3.637  -3.613   6.987  1.00  0.00     0.158 HD
ATOM     13  H   UNL     1      -3.084  -2.307   8.087  1.00  0.00     0.158 HD
ENDBRANCH   7  11
TORSDOF 1
ENDMDL
