MODEL 1
REMARK VINA RESULT:    -5.077      0.000      0.000
REMARK INTER + INTRA:          -5.887
REMARK INTER:                  -5.671
REMARK INTRA:                  -0.216
REMARK UNBOUND:                -0.216
REMARK SMILES CC(C)c1ccc(C(=O)[O-])cc1
REMARK SMILES IDX 7 1 6 2 11 3 5 4 12 5 4 6 8 7 9 8 10 9 2 10 1 11 3 12
REMARK H PARENT
REMARK Flexibility Score: inf
ROOT
ATOM      1  C   UNL     1     -19.696   1.022 -24.839  1.00  0.00    -0.003 A 
ATOM      2  C   UNL     1     -19.977   1.225 -23.477  1.00  0.00     0.010 A 
ATOM      3  C   UNL     1     -18.527   0.330 -25.197  1.00  0.00     0.010 A 
ATOM      4  C   UNL     1     -19.108   0.745 -22.494  1.00  0.00     0.004 A 
ATOM      5  C   UNL     1     -17.657  -0.150 -24.214  1.00  0.00     0.004 A 
ATOM      6  C   UNL     1     -17.938   0.052 -22.851  1.00  0.00    -0.045 A 
ENDROOT
BRANCH   1   7
ATOM      7  C   UNL     1     -20.613   1.528 -25.884  1.00  0.00     0.071 C 
ATOM      8  O   UNL     1     -20.316   1.424 -27.104  1.00  0.00    -0.545 OA
ATOM      9  O   UNL     1     -21.819   2.125 -25.533  1.00  0.00    -0.545 OA
ENDBRANCH   1   7
BRANCH   6  10
ATOM     10  C   UNL     1     -17.002  -0.463 -21.773  1.00  0.00     0.013 C 
ATOM     11  C   UNL     1     -15.881  -1.316 -22.376  1.00  0.00     0.012 C 
ATOM     12  C   UNL     1     -16.432   0.689 -20.938  1.00  0.00     0.012 C 
ENDBRANCH   6  10
TORSDOF 2
ENDMDL
MODEL 2
REMARK VINA RESULT:    -4.935      0.984      1.717
REMARK INTER + INTRA:          -5.729
REMARK INTER:                  -5.524
REMARK INTRA:                  -0.205
REMARK UNBOUND:                -0.216
REMARK SMILES CC(C)c1ccc(C(=O)[O-])cc1
REMARK SMILES IDX 7 1 6 2 11 3 5 4 12 5 4 6 8 7 9 8 10 9 2 10 1 11 3 12
REMARK H PARENT
REMARK Flexibility Score: inf
ROOT
ATOM      1  C   UNL     1     -19.634   1.412 -24.632  1.00  0.00    -0.003 A 
ATOM      2  C   UNL     1     -19.756   0.373 -23.694  1.00  0.00     0.010 A 
ATOM      3  C   UNL     1     -18.425   2.123 -24.707  1.00  0.00     0.010 A 
ATOM      4  C   UNL     1     -18.691   0.051 -22.849  1.00  0.00     0.004 A 
ATOM      5  C   UNL     1     -17.359   1.802 -23.862  1.00  0.00     0.004 A 
ATOM      6  C   UNL     1     -17.481   0.762 -22.923  1.00  0.00    -0.045 A 
ENDROOT
BRANCH   1   7
ATOM      7  C   UNL     1     -20.759   1.756 -25.530  1.00  0.00     0.071 C 
ATOM      8  O   UNL     1     -21.867   2.125 -25.056  1.00  0.00    -0.545 OA
ATOM      9  O   UNL     1     -20.609   1.677 -26.910  1.00  0.00    -0.545 OA
ENDBRANCH   1   7
BRANCH   6  10
ATOM     10  C   UNL     1     -16.331   0.402 -21.999  1.00  0.00     0.013 C 
ATOM     11  C   UNL     1     -16.504   1.055 -20.623  1.00  0.00     0.012 C 
ATOM     12  C   UNL     1     -16.177  -1.118 -21.875  1.00  0.00     0.012 C 
ENDBRANCH   6  10
TORSDOF 2
ENDMDL
MODEL 3
REMARK VINA RESULT:    -4.723      8.257      9.958
REMARK INTER + INTRA:          -5.492
REMARK INTER:                  -5.278
REMARK INTRA:                  -0.213
REMARK UNBOUND:                -0.216
REMARK SMILES CC(C)c1ccc(C(=O)[O-])cc1
REMARK SMILES IDX 7 1 6 2 11 3 5 4 12 5 4 6 8 7 9 8 10 9 2 10 1 11 3 12
REMARK H PARENT
REMARK Flexibility Score: inf
ROOT
ATOM      1  C   UNL     1     -17.067  -8.522 -19.639  1.00  0.00    -0.003 A 
ATOM      2  C   UNL     1     -15.810  -8.344 -19.036  1.00  0.00     0.010 A 
ATOM      3  C   UNL     1     -17.761  -7.396 -20.111  1.00  0.00     0.010 A 
ATOM      4  C   UNL     1     -15.258  -7.067 -18.911  1.00  0.00     0.004 A 
ATOM      5  C   UNL     1     -17.209  -6.118 -19.986  1.00  0.00     0.004 A 
ATOM      6  C   UNL     1     -15.951  -5.939 -19.383  1.00  0.00    -0.045 A 
ENDROOT
BRANCH   1   7
ATOM      7  C   UNL     1     -17.656  -9.873 -19.774  1.00  0.00     0.071 C 
ATOM      8  O   UNL     1     -17.808 -10.395 -20.911  1.00  0.00    -0.545 OA
ATOM      9  O   UNL     1     -18.049 -10.587 -18.648  1.00  0.00    -0.545 OA
ENDBRANCH   1   7
BRANCH   6  10
ATOM     10  C   UNL     1     -15.339  -4.557 -19.240  1.00  0.00     0.013 C 
ATOM     11  C   UNL     1     -13.825  -4.643 -19.022  1.00  0.00     0.012 C 
ATOM     12  C   UNL     1     -15.675  -3.677 -20.450  1.00  0.00     0.012 C 
ENDBRANCH   6  10
TORSDOF 2
ENDMDL
MODEL 4
REMARK VINA RESULT:    -4.444     13.874     14.779
REMARK INTER + INTRA:          -5.180
REMARK INTER:                  -4.962
REMARK INTRA:                  -0.218
REMARK UNBOUND:                -0.216
REMARK SMILES CC(C)c1ccc(C(=O)[O-])cc1
REMARK SMILES IDX 7 1 6 2 11 3 5 4 12 5 4 6 8 7 9 8 10 9 2 10 1 11 3 12
REMARK H PARENT
REMARK Flexibility Score: inf
ROOT
ATOM      1  C   UNL     1      -4.778  -4.192 -24.985  1.00  0.00    -0.003 A 
ATOM      2  C   UNL     1      -4.564  -3.793 -23.655  1.00  0.00     0.010 A 
ATOM      3  C   UNL     1      -5.319  -3.269 -25.894  1.00  0.00     0.010 A 
ATOM      4  C   UNL     1      -4.884  -2.496 -23.243  1.00  0.00     0.004 A 
ATOM      5  C   UNL     1      -5.639  -1.972 -25.483  1.00  0.00     0.004 A 
ATOM      6  C   UNL     1      -5.425  -1.571 -24.152  1.00  0.00    -0.045 A 
ENDROOT
BRANCH   1   7
ATOM      7  C   UNL     1      -4.441  -5.564 -25.426  1.00  0.00     0.071 C 
ATOM      8  O   UNL     1      -4.614  -6.546 -24.655  1.00  0.00    -0.545 OA
ATOM      9  O   UNL     1      -3.927  -5.790 -26.698  1.00  0.00    -0.545 OA
ENDBRANCH   1   7
BRANCH   6  10
ATOM     10  C   UNL     1      -5.768  -0.166 -23.692  1.00  0.00     0.013 C 
ATOM     11  C   UNL     1      -5.034   0.184 -22.392  1.00  0.00     0.012 C 
ATOM     12  C   UNL     1      -5.471   0.863 -24.789  1.00  0.00     0.012 C 
ENDBRANCH   6  10
TORSDOF 2
ENDMDL
MODEL 5
REMARK VINA RESULT:    -4.430      3.135      5.006
REMARK INTER + INTRA:          -5.164
REMARK INTER:                  -4.948
REMARK INTRA:                  -0.216
REMARK UNBOUND:                -0.216
REMARK SMILES CC(C)c1ccc(C(=O)[O-])cc1
REMARK SMILES IDX 7 1 6 2 11 3 5 4 12 5 4 6 8 7 9 8 10 9 2 10 1 11 3 12
REMARK H PARENT
REMARK Flexibility Score: inf
ROOT
ATOM      1  C   UNL     1     -17.680   0.427 -22.602  1.00  0.00    -0.003 A 
ATOM      2  C   UNL     1     -18.471   1.543 -22.281  1.00  0.00     0.010 A 
ATOM      3  C   UNL     1     -17.792  -0.141 -23.882  1.00  0.00     0.010 A 
ATOM      4  C   UNL     1     -19.355   2.080 -23.220  1.00  0.00     0.004 A 
ATOM      5  C   UNL     1     -18.676   0.395 -24.821  1.00  0.00     0.004 A 
ATOM      6  C   UNL     1     -19.468   1.512 -24.501  1.00  0.00    -0.045 A 
ENDROOT
BRANCH   1   7
ATOM      7  C   UNL     1     -16.742  -0.145 -21.611  1.00  0.00     0.071 C 
ATOM      8  O   UNL     1     -16.360  -1.343 -21.706  1.00  0.00    -0.545 OA
ATOM      9  O   UNL     1     -16.266   0.632 -20.560  1.00  0.00    -0.545 OA
ENDBRANCH   1   7
BRANCH   6  10
ATOM     10  C   UNL     1     -20.432   2.106 -25.512  1.00  0.00     0.013 C 
ATOM     11  C   UNL     1     -20.354   1.365 -26.851  1.00  0.00     0.012 C 
ATOM     12  C   UNL     1     -21.866   2.116 -24.968  1.00  0.00     0.012 C 
ENDBRANCH   6  10
TORSDOF 2
ENDMDL
MODEL 6
REMARK VINA RESULT:    -4.389     11.997     13.556
REMARK INTER + INTRA:          -5.118
REMARK INTER:                  -4.901
REMARK INTRA:                  -0.217
REMARK UNBOUND:                -0.216
REMARK SMILES CC(C)c1ccc(C(=O)[O-])cc1
REMARK SMILES IDX 7 1 6 2 11 3 5 4 12 5 4 6 8 7 9 8 10 9 2 10 1 11 3 12
REMARK H PARENT
REMARK Flexibility Score: inf
ROOT
ATOM      1  C   UNL     1     -17.887 -10.469 -19.718  1.00  0.00    -0.003 A 
ATOM      2  C   UNL     1     -17.835 -11.286 -20.860  1.00  0.00     0.010 A 
ATOM      3  C   UNL     1     -17.790 -11.065 -18.450  1.00  0.00     0.010 A 
ATOM      4  C   UNL     1     -17.688 -12.670 -20.737  1.00  0.00     0.004 A 
ATOM      5  C   UNL     1     -17.642 -12.449 -18.326  1.00  0.00     0.004 A 
ATOM      6  C   UNL     1     -17.590 -13.267 -19.469  1.00  0.00    -0.045 A 
ENDROOT
BRANCH   1   7
ATOM      7  C   UNL     1     -18.042  -9.003 -19.843  1.00  0.00     0.071 C 
ATOM      8  O   UNL     1     -18.723  -8.356 -19.003  1.00  0.00    -0.545 OA
ATOM      9  O   UNL     1     -17.438  -8.317 -20.891  1.00  0.00    -0.545 OA
ENDBRANCH   1   7
BRANCH   6  10
ATOM     10  C   UNL     1     -17.431 -14.772 -19.350  1.00  0.00     0.013 C 
ATOM     11  C   UNL     1     -16.368 -15.294 -20.323  1.00  0.00     0.012 C 
ATOM     12  C   UNL     1     -17.109 -15.181 -17.908  1.00  0.00     0.012 C 
ENDBRANCH   6  10
TORSDOF 2
ENDMDL
MODEL 7
REMARK VINA RESULT:    -4.381     12.030     13.534
REMARK INTER + INTRA:          -5.109
REMARK INTER:                  -4.892
REMARK INTRA:                  -0.217
REMARK UNBOUND:                -0.216
REMARK SMILES CC(C)c1ccc(C(=O)[O-])cc1
REMARK SMILES IDX 7 1 6 2 11 3 5 4 12 5 4 6 8 7 9 8 10 9 2 10 1 11 3 12
REMARK H PARENT
REMARK Flexibility Score: inf
ROOT
ATOM      1  C   UNL     1     -17.872 -10.500 -19.725  1.00  0.00    -0.003 A 
ATOM      2  C   UNL     1     -17.773 -11.073 -18.446  1.00  0.00     0.010 A 
ATOM      3  C   UNL     1     -17.837 -11.338 -20.851  1.00  0.00     0.010 A 
ATOM      4  C   UNL     1     -17.644 -12.457 -18.296  1.00  0.00     0.004 A 
ATOM      5  C   UNL     1     -17.707 -12.721 -20.702  1.00  0.00     0.004 A 
ATOM      6  C   UNL     1     -17.609 -13.296 -19.422  1.00  0.00    -0.045 A 
ENDROOT
BRANCH   1   7
ATOM      7  C   UNL     1     -18.009  -9.035 -19.888  1.00  0.00     0.071 C 
ATOM      8  O   UNL     1     -18.663  -8.356 -19.052  1.00  0.00    -0.545 OA
ATOM      9  O   UNL     1     -17.418  -8.387 -20.967  1.00  0.00    -0.545 OA
ENDBRANCH   1   7
BRANCH   6  10
ATOM     10  C   UNL     1     -17.468 -14.797 -19.246  1.00  0.00     0.013 C 
ATOM     11  C   UNL     1     -16.414 -15.370 -20.201  1.00  0.00     0.012 C 
ATOM     12  C   UNL     1     -17.146 -15.155 -17.790  1.00  0.00     0.012 C 
ENDBRANCH   6  10
TORSDOF 2
ENDMDL
MODEL 8
REMARK VINA RESULT:    -4.357     13.714     15.126
REMARK INTER + INTRA:          -5.083
REMARK INTER:                  -4.874
REMARK INTRA:                  -0.208
REMARK UNBOUND:                -0.216
REMARK SMILES CC(C)c1ccc(C(=O)[O-])cc1
REMARK SMILES IDX 7 1 6 2 11 3 5 4 12 5 4 6 8 7 9 8 10 9 2 10 1 11 3 12
REMARK H PARENT
REMARK Flexibility Score: inf
ROOT
ATOM      1  C   UNL     1     -17.684 -13.293 -19.480  1.00  0.00    -0.003 A 
ATOM      2  C   UNL     1     -18.185 -14.245 -18.577  1.00  0.00     0.010 A 
ATOM      3  C   UNL     1     -17.696 -11.936 -19.115  1.00  0.00     0.010 A 
ATOM      4  C   UNL     1     -18.686 -13.850 -17.333  1.00  0.00     0.004 A 
ATOM      5  C   UNL     1     -18.197 -11.540 -17.873  1.00  0.00     0.004 A 
ATOM      6  C   UNL     1     -18.698 -12.493 -16.968  1.00  0.00    -0.045 A 
ENDROOT
BRANCH   1   7
ATOM      7  C   UNL     1     -17.152 -13.707 -20.797  1.00  0.00     0.071 C 
ATOM      8  O   UNL     1     -17.357 -13.003 -21.822  1.00  0.00    -0.545 OA
ATOM      9  O   UNL     1     -16.416 -14.880 -20.923  1.00  0.00    -0.545 OA
ENDBRANCH   1   7
BRANCH   6  10
ATOM     10  C   UNL     1     -19.245 -12.077 -15.614  1.00  0.00     0.013 C 
ATOM     11  C   UNL     1     -20.777 -12.018 -15.632  1.00  0.00     0.012 C 
ATOM     12  C   UNL     1     -18.741 -13.006 -14.504  1.00  0.00     0.012 C 
ENDBRANCH   6  10
TORSDOF 2
ENDMDL
MODEL 9
REMARK VINA RESULT:    -4.306     13.551     15.018
REMARK INTER + INTRA:          -5.026
REMARK INTER:                  -4.804
REMARK INTRA:                  -0.221
REMARK UNBOUND:                -0.216
REMARK SMILES CC(C)c1ccc(C(=O)[O-])cc1
REMARK SMILES IDX 7 1 6 2 11 3 5 4 12 5 4 6 8 7 9 8 10 9 2 10 1 11 3 12
REMARK H PARENT
REMARK Flexibility Score: inf
ROOT
ATOM      1  C   UNL     1     -17.742 -12.265 -18.790  1.00  0.00    -0.003 A 
ATOM      2  C   UNL     1     -18.186 -13.592 -18.659  1.00  0.00     0.010 A 
ATOM      3  C   UNL     1     -18.111 -11.325 -17.815  1.00  0.00     0.010 A 
ATOM      4  C   UNL     1     -18.982 -13.970 -17.574  1.00  0.00     0.004 A 
ATOM      5  C   UNL     1     -18.907 -11.702 -16.730  1.00  0.00     0.004 A 
ATOM      6  C   UNL     1     -19.352 -13.030 -16.598  1.00  0.00    -0.045 A 
ENDROOT
BRANCH   1   7
ATOM      7  C   UNL     1     -16.899 -11.861 -19.937  1.00  0.00     0.071 C 
ATOM      8  O   UNL     1     -16.476 -12.719 -20.756  1.00  0.00    -0.545 OA
ATOM      9  O   UNL     1     -16.562 -10.525 -20.127  1.00  0.00    -0.545 OA
ENDBRANCH   1   7
BRANCH   6  10
ATOM     10  C   UNL     1     -20.217 -13.454 -15.424  1.00  0.00     0.013 C 
ATOM     11  C   UNL     1     -21.173 -12.330 -15.008  1.00  0.00     0.012 C 
ATOM     12  C   UNL     1     -20.983 -14.743 -15.741  1.00  0.00     0.012 C 
ENDBRANCH   6  10
TORSDOF 2
ENDMDL
