MODEL 1
REMARK VINA RESULT:    -3.087      0.000      0.000
REMARK INTER + INTRA:          -3.358
REMARK INTER:                  -3.358
REMARK INTRA:                   0.000
REMARK UNBOUND:                 0.000
REMARK SMILES [NH3+]CC(=O)[O-]
REMARK SMILES IDX 2 1 1 2 3 6 4 7 5 8
REMARK H PARENT 1 3 1 4 1 5
REMARK Flexibility Score: inf
ROOT
ATOM      1  C   UNL     1     159.022 150.248 166.528  1.00  0.00     0.312 C 
ENDROOT
BRANCH   1   2
ATOM      2  N   UNL     1     159.495 148.875 166.699  1.00  0.00    -0.353 N 
ATOM      3  H   UNL     1     160.473 148.877 167.073  1.00  0.00     0.344 HD
ATOM      4  H   UNL     1     158.874 148.381 167.379  1.00  0.00     0.344 HD
ATOM      5  H   UNL     1     159.467 148.369 165.783  1.00  0.00     0.344 HD
ENDBRANCH   1   2
BRANCH   1   6
ATOM      6  C   UNL     1     158.765 150.888 167.857  1.00  0.00     0.096 C 
ATOM      7  O   UNL     1     157.985 151.872 167.946  1.00  0.00    -0.544 OA
ATOM      8  O   UNL     1     159.347 150.365 169.005  1.00  0.00    -0.544 OA
ENDBRANCH   1   6
TORSDOF 2
ENDMDL
MODEL 2
REMARK VINA RESULT:    -3.086     23.946     24.416
REMARK INTER + INTRA:          -3.356
REMARK INTER:                  -3.356
REMARK INTRA:                   0.000
REMARK UNBOUND:                 0.000
REMARK SMILES [NH3+]CC(=O)[O-]
REMARK SMILES IDX 2 1 1 2 3 6 4 7 5 8
REMARK H PARENT 1 3 1 4 1 5
REMARK Flexibility Score: inf
ROOT
ATOM      1  C   UNL     1     158.967 167.769 151.475  1.00  0.00     0.312 C 
ENDROOT
BRANCH   1   2
ATOM      2  N   UNL     1     159.486 169.125 151.308  1.00  0.00    -0.353 N 
ATOM      3  H   UNL     1     160.490 169.164 151.601  1.00  0.00     0.344 HD
ATOM      4  H   UNL     1     159.417 169.396 150.301  1.00  0.00     0.344 HD
ATOM      5  H   UNL     1     158.924 169.797 151.880  1.00  0.00     0.344 HD
ENDBRANCH   1   2
BRANCH   1   6
ATOM      6  C   UNL     1     158.734 167.123 150.145  1.00  0.00     0.096 C 
ATOM      7  O   UNL     1     158.001 166.105 150.054  1.00  0.00    -0.544 OA
ATOM      8  O   UNL     1     159.286 167.679 148.997  1.00  0.00    -0.544 OA
ENDBRANCH   1   6
TORSDOF 2
ENDMDL
MODEL 3
REMARK VINA RESULT:    -3.079     16.880     17.372
REMARK INTER + INTRA:          -3.349
REMARK INTER:                  -3.349
REMARK INTRA:                   0.000
REMARK UNBOUND:                 0.000
REMARK SMILES [NH3+]CC(=O)[O-]
REMARK SMILES IDX 2 1 1 2 3 6 4 7 5 8
REMARK H PARENT 1 3 1 4 1 5
REMARK Flexibility Score: inf
ROOT
ATOM      1  C   UNL     1     158.904 150.272 151.443  1.00  0.00     0.312 C 
ENDROOT
BRANCH   1   2
ATOM      2  N   UNL     1     158.500 148.876 151.290  1.00  0.00    -0.353 N 
ATOM      3  H   UNL     1     158.550 148.384 152.213  1.00  0.00     0.344 HD
ATOM      4  H   UNL     1     157.516 148.841 150.939  1.00  0.00     0.344 HD
ATOM      5  H   UNL     1     159.124 148.396 150.599  1.00  0.00     0.344 HD
ENDBRANCH   1   2
BRANCH   1   6
ATOM      6  C   UNL     1     159.193 150.888 150.109  1.00  0.00     0.096 C 
ATOM      7  O   UNL     1     159.971 151.873 150.021  1.00  0.00    -0.544 OA
ATOM      8  O   UNL     1     158.642 150.341 148.957  1.00  0.00    -0.544 OA
ENDBRANCH   1   6
TORSDOF 2
ENDMDL
MODEL 4
REMARK VINA RESULT:    -3.047     16.836     17.213
REMARK INTER + INTRA:          -3.314
REMARK INTER:                  -3.314
REMARK INTRA:                   0.000
REMARK UNBOUND:                 0.000
REMARK SMILES [NH3+]CC(=O)[O-]
REMARK SMILES IDX 2 1 1 2 3 6 4 7 5 8
REMARK H PARENT 1 3 1 4 1 5
REMARK Flexibility Score: inf
ROOT
ATOM      1  C   UNL     1     158.835 167.684 166.571  1.00  0.00     0.312 C 
ENDROOT
BRANCH   1   2
ATOM      2  N   UNL     1     158.500 169.098 166.730  1.00  0.00    -0.353 N 
ATOM      3  H   UNL     1     159.374 169.665 166.827  1.00  0.00     0.344 HD
ATOM      4  H   UNL     1     157.976 169.422 165.886  1.00  0.00     0.344 HD
ATOM      5  H   UNL     1     157.897 169.230 167.576  1.00  0.00     0.344 HD
ENDBRANCH   1   2
BRANCH   1   6
ATOM      6  C   UNL     1     159.219 167.080 167.887  1.00  0.00     0.096 C 
ATOM      7  O   UNL     1     160.075 166.160 167.936  1.00  0.00    -0.544 OA
ATOM      8  O   UNL     1     158.668 167.571 169.064  1.00  0.00    -0.544 OA
ENDBRANCH   1   6
TORSDOF 2
ENDMDL
MODEL 5
REMARK VINA RESULT:    -2.883     17.359     17.483
REMARK INTER + INTRA:          -3.136
REMARK INTER:                  -3.136
REMARK INTRA:                   0.000
REMARK UNBOUND:                 0.000
REMARK SMILES [NH3+]CC(=O)[O-]
REMARK SMILES IDX 2 1 1 2 3 6 4 7 5 8
REMARK H PARENT 1 3 1 4 1 5
REMARK Flexibility Score: inf
ROOT
ATOM      1  C   UNL     1     158.950 167.691 166.716  1.00  0.00     0.312 C 
ENDROOT
BRANCH   1   2
ATOM      2  N   UNL     1     160.298 167.277 167.099  1.00  0.00    -0.353 N 
ATOM      3  H   UNL     1     160.821 168.089 167.504  1.00  0.00     0.344 HD
ATOM      4  H   UNL     1     160.233 166.522 167.818  1.00  0.00     0.344 HD
ATOM      5  H   UNL     1     160.810 166.908 166.264  1.00  0.00     0.344 HD
ENDBRANCH   1   2
BRANCH   1   6
ATOM      6  C   UNL     1     158.125 167.993 167.929  1.00  0.00     0.096 C 
ATOM      7  O   UNL     1     158.670 168.088 169.059  1.00  0.00    -0.544 OA
ATOM      8  O   UNL     1     156.760 168.219 167.802  1.00  0.00    -0.544 OA
ENDBRANCH   1   6
TORSDOF 2
ENDMDL
MODEL 6
REMARK VINA RESULT:    -2.881     17.000     17.497
REMARK INTER + INTRA:          -3.134
REMARK INTER:                  -3.134
REMARK INTRA:                   0.000
REMARK UNBOUND:                 0.000
REMARK SMILES [NH3+]CC(=O)[O-]
REMARK SMILES IDX 2 1 1 2 3 6 4 7 5 8
REMARK H PARENT 1 3 1 4 1 5
REMARK Flexibility Score: inf
ROOT
ATOM      1  C   UNL     1     158.946 150.322 151.278  1.00  0.00     0.312 C 
ENDROOT
BRANCH   1   2
ATOM      2  N   UNL     1     160.296 150.730 150.896  1.00  0.00    -0.353 N 
ATOM      3  H   UNL     1     160.268 151.663 150.422  1.00  0.00     0.344 HD
ATOM      4  H   UNL     1     160.887 150.804 151.755  1.00  0.00     0.344 HD
ATOM      5  H   UNL     1     160.717 150.019 150.254  1.00  0.00     0.344 HD
ENDBRANCH   1   2
BRANCH   1   6
ATOM      6  C   UNL     1     158.125 150.010 150.066  1.00  0.00     0.096 C 
ATOM      7  O   UNL     1     158.671 149.925 148.935  1.00  0.00    -0.544 OA
ATOM      8  O   UNL     1     156.763 149.762 150.193  1.00  0.00    -0.544 OA
ENDBRANCH   1   6
TORSDOF 2
ENDMDL
MODEL 7
REMARK VINA RESULT:    -2.854      1.578      2.130
REMARK INTER + INTRA:          -3.104
REMARK INTER:                  -3.104
REMARK INTRA:                   0.000
REMARK UNBOUND:                 0.000
REMARK SMILES [NH3+]CC(=O)[O-]
REMARK SMILES IDX 2 1 1 2 3 6 4 7 5 8
REMARK H PARENT 1 3 1 4 1 5
REMARK Flexibility Score: inf
ROOT
ATOM      1  C   UNL     1     159.415 150.284 167.070  1.00  0.00     0.312 C 
ENDROOT
BRANCH   1   2
ATOM      2  N   UNL     1     159.432 148.880 166.663  1.00  0.00    -0.353 N 
ATOM      3  H   UNL     1     160.413 148.515 166.676  1.00  0.00     0.344 HD
ATOM      4  H   UNL     1     158.854 148.323 167.331  1.00  0.00     0.344 HD
ATOM      5  H   UNL     1     159.030 148.781 165.701  1.00  0.00     0.344 HD
ENDBRANCH   1   2
BRANCH   1   6
ATOM      6  C   UNL     1     160.518 150.566 168.042  1.00  0.00     0.096 C 
ATOM      7  O   UNL     1     161.638 150.009 167.908  1.00  0.00    -0.544 OA
ATOM      8  O   UNL     1     160.323 151.483 169.067  1.00  0.00    -0.544 OA
ENDBRANCH   1   6
TORSDOF 2
ENDMDL
MODEL 8
REMARK VINA RESULT:    -2.852     16.321     16.830
REMARK INTER + INTRA:          -3.103
REMARK INTER:                  -3.103
REMARK INTRA:                   0.000
REMARK UNBOUND:                 0.000
REMARK SMILES [NH3+]CC(=O)[O-]
REMARK SMILES IDX 2 1 1 2 3 6 4 7 5 8
REMARK H PARENT 1 3 1 4 1 5
REMARK Flexibility Score: inf
ROOT
ATOM      1  C   UNL     1     159.008 150.162 151.490  1.00  0.00     0.312 C 
ENDROOT
BRANCH   1   2
ATOM      2  N   UNL     1     158.418 148.875 151.127  1.00  0.00    -0.353 N 
ATOM      3  H   UNL     1     159.149 148.126 151.149  1.00  0.00     0.344 HD
ATOM      4  H   UNL     1     157.667 148.637 151.814  1.00  0.00     0.344 HD
ATOM      5  H   UNL     1     157.997 148.931 150.170  1.00  0.00     0.344 HD
ENDBRANCH   1   2
BRANCH   1   6
ATOM      6  C   UNL     1     158.282 151.286 150.818  1.00  0.00     0.096 C 
ATOM      7  O   UNL     1     157.692 152.160 151.504  1.00  0.00    -0.544 OA
ATOM      8  O   UNL     1     158.300 151.394 149.433  1.00  0.00    -0.544 OA
ENDBRANCH   1   6
TORSDOF 2
ENDMDL
MODEL 9
REMARK VINA RESULT:    -2.844      1.765      2.052
REMARK INTER + INTRA:          -3.093
REMARK INTER:                  -3.093
REMARK INTRA:                   0.000
REMARK UNBOUND:                 0.000
REMARK SMILES [NH3+]CC(=O)[O-]
REMARK SMILES IDX 2 1 1 2 3 6 4 7 5 8
REMARK H PARENT 1 3 1 4 1 5
REMARK Flexibility Score: inf
ROOT
ATOM      1  C   UNL     1     159.009 150.385 166.788  1.00  0.00     0.312 C 
ENDROOT
BRANCH   1   2
ATOM      2  N   UNL     1     157.661 150.764 167.210  1.00  0.00    -0.353 N 
ATOM      3  H   UNL     1     157.709 151.546 167.904  1.00  0.00     0.344 HD
ATOM      4  H   UNL     1     157.119 151.084 166.376  1.00  0.00     0.344 HD
ATOM      5  H   UNL     1     157.175 149.941 167.637  1.00  0.00     0.344 HD
ENDBRANCH   1   2
BRANCH   1   6
ATOM      6  C   UNL     1     159.887 150.145 167.977  1.00  0.00     0.096 C 
ATOM      7  O   UNL     1     159.383 150.032 169.125  1.00  0.00    -0.544 OA
ATOM      8  O   UNL     1     161.258 149.993 167.810  1.00  0.00    -0.544 OA
ENDBRANCH   1   6
TORSDOF 2
ENDMDL
