MODEL 1
REMARK VINA RESULT:    -4.546      0.000      0.000
REMARK INTER + INTRA:          -5.707
REMARK INTER:                  -5.077
REMARK INTRA:                  -0.630
REMARK UNBOUND:                -0.630
REMARK SMILES CC=C(C)C=CC=C(C)C
REMARK SMILES IDX 5 1 6 2 3 3 1 4 2 5 4 6 7 7 8 8 9 9 10 10
REMARK H PARENT
REMARK Flexibility Score: inf
ROOT
ATOM      1  C   UNL     1     143.354 144.605 132.734  1.00  0.00     0.003 C 
ATOM      2  C   UNL     1     143.506 145.917 132.504  1.00  0.00     0.000 C 
ENDROOT
BRANCH   1   3
ATOM      3  C   UNL     1     144.261 143.549 132.218  1.00  0.00    -0.055 C 
ATOM      4  C   UNL     1     145.845 143.914 134.121  1.00  0.00     0.036 C 
ATOM      5  C   UNL     1     145.417 143.263 132.840  1.00  0.00    -0.027 C 
ATOM      6  C   UNL     1     143.944 142.853 130.922  1.00  0.00     0.044 C 
ENDBRANCH   1   3
BRANCH   2   7
ATOM      7  C   UNL     1     144.527 146.480 131.589  1.00  0.00    -0.001 C 
ATOM      8  C   UNL     1     145.560 147.238 132.001  1.00  0.00    -0.076 C 
ATOM      9  C   UNL     1     145.783 147.562 133.456  1.00  0.00     0.039 C 
ATOM     10  C   UNL     1     146.524 147.762 130.970  1.00  0.00     0.039 C 
ENDBRANCH   2   7
TORSDOF 2
ENDMDL
MODEL 2
REMARK VINA RESULT:    -4.477      1.347      4.256
REMARK INTER + INTRA:          -5.631
REMARK INTER:                  -5.019
REMARK INTRA:                  -0.611
REMARK UNBOUND:                -0.630
REMARK SMILES CC=C(C)C=CC=C(C)C
REMARK SMILES IDX 5 1 6 2 3 3 1 4 2 5 4 6 7 7 8 8 9 9 10 10
REMARK H PARENT
REMARK Flexibility Score: inf
ROOT
ATOM      1  C   UNL     1     147.326 146.157 132.878  1.00  0.00     0.003 C 
ATOM      2  C   UNL     1     147.157 144.855 132.606  1.00  0.00     0.000 C 
ENDROOT
BRANCH   1   3
ATOM      3  C   UNL     1     146.473 147.247 132.342  1.00  0.00    -0.055 C 
ATOM      4  C   UNL     1     144.761 146.848 134.124  1.00  0.00     0.036 C 
ATOM      5  C   UNL     1     145.283 147.534 132.897  1.00  0.00    -0.027 C 
ATOM      6  C   UNL     1     146.886 147.980 131.095  1.00  0.00     0.044 C 
ENDBRANCH   1   3
BRANCH   2   7
ATOM      7  C   UNL     1     146.176 144.340 131.622  1.00  0.00    -0.001 C 
ATOM      8  C   UNL     1     145.092 143.616 131.959  1.00  0.00    -0.076 C 
ATOM      9  C   UNL     1     144.767 143.286 133.394  1.00  0.00     0.039 C 
ATOM     10  C   UNL     1     144.177 143.140 130.864  1.00  0.00     0.039 C 
ENDBRANCH   2   7
TORSDOF 2
ENDMDL
MODEL 3
REMARK VINA RESULT:    -4.434      0.990      4.227
REMARK INTER + INTRA:          -5.582
REMARK INTER:                  -4.882
REMARK INTRA:                  -0.701
REMARK UNBOUND:                -0.630
REMARK SMILES CC=C(C)C=CC=C(C)C
REMARK SMILES IDX 5 1 6 2 3 3 1 4 2 5 4 6 7 7 8 8 9 9 10 10
REMARK H PARENT
REMARK Flexibility Score: inf
ROOT
ATOM      1  C   UNL     1     143.798 147.006 132.548  1.00  0.00     0.003 C 
ATOM      2  C   UNL     1     143.259 145.832 132.906  1.00  0.00     0.000 C 
ENDROOT
BRANCH   1   3
ATOM      3  C   UNL     1     145.221 147.376 132.748  1.00  0.00    -0.055 C 
ATOM      4  C   UNL     1     145.798 146.595 130.441  1.00  0.00     0.036 C 
ATOM      5  C   UNL     1     146.138 147.151 131.792  1.00  0.00    -0.027 C 
ATOM      6  C   UNL     1     145.679 147.913 134.078  1.00  0.00     0.044 C 
ENDBRANCH   1   3
BRANCH   2   7
ATOM      7  C   UNL     1     143.984 144.794 133.674  1.00  0.00    -0.001 C 
ATOM      8  C   UNL     1     144.535 143.701 133.114  1.00  0.00    -0.076 C 
ATOM      9  C   UNL     1     144.482 143.452 131.629  1.00  0.00     0.039 C 
ATOM     10  C   UNL     1     145.236 142.712 134.006  1.00  0.00     0.039 C 
ENDBRANCH   2   7
TORSDOF 2
ENDMDL
MODEL 4
REMARK VINA RESULT:    -4.430      1.352      2.590
REMARK INTER + INTRA:          -5.578
REMARK INTER:                  -4.897
REMARK INTRA:                  -0.681
REMARK UNBOUND:                -0.630
REMARK SMILES CC=C(C)C=CC=C(C)C
REMARK SMILES IDX 5 1 6 2 3 3 1 4 2 5 4 6 7 7 8 8 9 9 10 10
REMARK H PARENT
REMARK Flexibility Score: inf
ROOT
ATOM      1  C   UNL     1     145.915 144.647 130.821  1.00  0.00     0.003 C 
ATOM      2  C   UNL     1     145.760 145.978 130.780  1.00  0.00     0.000 C 
ENDROOT
BRANCH   1   3
ATOM      3  C   UNL     1     146.212 143.872 132.051  1.00  0.00    -0.055 C 
ATOM      4  C   UNL     1     143.807 143.215 132.274  1.00  0.00     0.036 C 
ATOM      5  C   UNL     1     145.235 143.248 132.731  1.00  0.00    -0.027 C 
ATOM      6  C   UNL     1     147.607 143.862 132.617  1.00  0.00     0.044 C 
ENDBRANCH   1   3
BRANCH   2   7
ATOM      7  C   UNL     1     145.997 146.871 131.938  1.00  0.00    -0.001 C 
ATOM      8  C   UNL     1     145.029 147.264 132.788  1.00  0.00    -0.076 C 
ATOM      9  C   UNL     1     143.603 146.797 132.643  1.00  0.00     0.039 C 
ATOM     10  C   UNL     1     145.397 148.184 133.920  1.00  0.00     0.039 C 
ENDBRANCH   2   7
TORSDOF 2
ENDMDL
MODEL 5
REMARK VINA RESULT:    -4.429      1.416      2.909
REMARK INTER + INTRA:          -5.577
REMARK INTER:                  -4.877
REMARK INTRA:                  -0.700
REMARK UNBOUND:                -0.630
REMARK SMILES CC=C(C)C=CC=C(C)C
REMARK SMILES IDX 5 1 6 2 3 3 1 4 2 5 4 6 7 7 8 8 9 9 10 10
REMARK H PARENT
REMARK Flexibility Score: inf
ROOT
ATOM      1  C   UNL     1     146.941 143.832 132.552  1.00  0.00     0.003 C 
ATOM      2  C   UNL     1     147.462 145.003 132.944  1.00  0.00     0.000 C 
ENDROOT
BRANCH   1   3
ATOM      3  C   UNL     1     145.514 143.454 132.701  1.00  0.00    -0.055 C 
ATOM      4  C   UNL     1     145.002 144.290 130.398  1.00  0.00     0.036 C 
ATOM      5  C   UNL     1     144.625 143.699 131.723  1.00  0.00    -0.027 C 
ATOM      6  C   UNL     1     145.019 142.881 134.002  1.00  0.00     0.044 C 
ENDBRANCH   1   3
BRANCH   2   7
ATOM      7  C   UNL     1     146.707 146.028 133.703  1.00  0.00    -0.001 C 
ATOM      8  C   UNL     1     146.178 147.132 133.144  1.00  0.00    -0.076 C 
ATOM      9  C   UNL     1     146.290 147.410 131.666  1.00  0.00     0.039 C 
ATOM     10  C   UNL     1     145.443 148.104 134.027  1.00  0.00     0.039 C 
ENDBRANCH   2   7
TORSDOF 2
ENDMDL
MODEL 6
REMARK VINA RESULT:    -4.426      1.198      3.947
REMARK INTER + INTRA:          -5.574
REMARK INTER:                  -4.891
REMARK INTRA:                  -0.683
REMARK UNBOUND:                -0.630
REMARK SMILES CC=C(C)C=CC=C(C)C
REMARK SMILES IDX 5 1 6 2 3 3 1 4 2 5 4 6 7 7 8 8 9 9 10 10
REMARK H PARENT
REMARK Flexibility Score: inf
ROOT
ATOM      1  C   UNL     1     144.864 146.133 130.809  1.00  0.00     0.003 C 
ATOM      2  C   UNL     1     145.018 144.803 130.771  1.00  0.00     0.000 C 
ENDROOT
BRANCH   1   3
ATOM      3  C   UNL     1     144.540 146.909 132.032  1.00  0.00    -0.055 C 
ATOM      4  C   UNL     1     146.938 147.576 132.302  1.00  0.00     0.036 C 
ATOM      5  C   UNL     1     145.501 147.538 132.731  1.00  0.00    -0.027 C 
ATOM      6  C   UNL     1     143.134 146.913 132.570  1.00  0.00     0.044 C 
ENDBRANCH   1   3
BRANCH   2   7
ATOM      7  C   UNL     1     144.752 143.909 131.923  1.00  0.00    -0.001 C 
ATOM      8  C   UNL     1     145.698 143.512 132.794  1.00  0.00    -0.076 C 
ATOM      9  C   UNL     1     147.129 143.973 132.681  1.00  0.00     0.039 C 
ATOM     10  C   UNL     1     145.302 142.593 133.917  1.00  0.00     0.039 C 
ENDBRANCH   2   7
TORSDOF 2
ENDMDL
MODEL 7
REMARK VINA RESULT:    -4.423      1.686      3.535
REMARK INTER + INTRA:          -5.571
REMARK INTER:                  -4.908
REMARK INTRA:                  -0.662
REMARK UNBOUND:                -0.630
REMARK SMILES CC=C(C)C=CC=C(C)C
REMARK SMILES IDX 5 1 6 2 3 3 1 4 2 5 4 6 7 7 8 8 9 9 10 10
REMARK H PARENT
REMARK Flexibility Score: inf
ROOT
ATOM      1  C   UNL     1     143.791 143.851 132.488  1.00  0.00     0.003 C 
ATOM      2  C   UNL     1     144.887 143.236 132.955  1.00  0.00     0.000 C 
ENDROOT
BRANCH   1   3
ATOM      3  C   UNL     1     143.543 145.311 132.578  1.00  0.00    -0.055 C 
ATOM      4  C   UNL     1     144.450 145.655 130.270  1.00  0.00     0.036 C 
ATOM      5  C   UNL     1     143.880 146.136 131.572  1.00  0.00    -0.027 C 
ATOM      6  C   UNL     1     143.003 145.906 133.851  1.00  0.00     0.044 C 
ENDBRANCH   1   3
BRANCH   2   7
ATOM      7  C   UNL     1     145.939 143.916 133.746  1.00  0.00    -0.001 C 
ATOM      8  C   UNL     1     147.069 144.414 133.211  1.00  0.00    -0.076 C 
ATOM      9  C   UNL     1     147.351 144.344 131.732  1.00  0.00     0.039 C 
ATOM     10  C   UNL     1     148.068 145.073 134.124  1.00  0.00     0.039 C 
ENDBRANCH   2   7
TORSDOF 2
ENDMDL
MODEL 8
REMARK VINA RESULT:    -4.387      1.237      3.676
REMARK INTER + INTRA:          -5.529
REMARK INTER:                  -4.987
REMARK INTRA:                  -0.543
REMARK UNBOUND:                -0.630
REMARK SMILES CC=C(C)C=CC=C(C)C
REMARK SMILES IDX 5 1 6 2 3 3 1 4 2 5 4 6 7 7 8 8 9 9 10 10
REMARK H PARENT
REMARK Flexibility Score: inf
ROOT
ATOM      1  C   UNL     1     145.218 146.680 133.588  1.00  0.00     0.003 C 
ATOM      2  C   UNL     1     144.076 146.015 133.361  1.00  0.00     0.000 C 
ENDROOT
BRANCH   1   3
ATOM      3  C   UNL     1     146.381 146.694 132.668  1.00  0.00    -0.055 C 
ATOM      4  C   UNL     1     147.556 144.970 134.050  1.00  0.00     0.036 C 
ATOM      5  C   UNL     1     147.464 145.934 132.905  1.00  0.00    -0.027 C 
ATOM      6  C   UNL     1     146.407 147.647 131.503  1.00  0.00     0.044 C 
ENDBRANCH   1   3
BRANCH   2   7
ATOM      7  C   UNL     1     143.873 145.092 132.219  1.00  0.00    -0.001 C 
ATOM      8  C   UNL     1     144.229 143.795 132.237  1.00  0.00    -0.076 C 
ATOM      9  C   UNL     1     144.852 143.154 133.451  1.00  0.00     0.039 C 
ATOM     10  C   UNL     1     143.981 142.964 131.007  1.00  0.00     0.039 C 
ENDBRANCH   2   7
TORSDOF 2
ENDMDL
MODEL 9
REMARK VINA RESULT:    -4.373      1.071      2.080
REMARK INTER + INTRA:          -5.514
REMARK INTER:                  -4.911
REMARK INTRA:                  -0.603
REMARK UNBOUND:                -0.630
REMARK SMILES CC=C(C)C=CC=C(C)C
REMARK SMILES IDX 5 1 6 2 3 3 1 4 2 5 4 6 7 7 8 8 9 9 10 10
REMARK H PARENT
REMARK Flexibility Score: inf
ROOT
ATOM      1  C   UNL     1     145.602 144.099 133.478  1.00  0.00     0.003 C 
ATOM      2  C   UNL     1     146.722 144.781 133.202  1.00  0.00     0.000 C 
ENDROOT
BRANCH   1   3
ATOM      3  C   UNL     1     144.397 144.072 132.612  1.00  0.00    -0.055 C 
ATOM      4  C   UNL     1     143.273 145.792 134.041  1.00  0.00     0.036 C 
ATOM      5  C   UNL     1     143.321 144.824 132.896  1.00  0.00    -0.027 C 
ATOM      6  C   UNL     1     144.326 143.114 131.453  1.00  0.00     0.044 C 
ENDBRANCH   1   3
BRANCH   2   7
ATOM      7  C   UNL     1     146.860 145.711 132.056  1.00  0.00    -0.001 C 
ATOM      8  C   UNL     1     146.528 147.014 132.110  1.00  0.00    -0.076 C 
ATOM      9  C   UNL     1     146.005 147.654 133.371  1.00  0.00     0.039 C 
ATOM     10  C   UNL     1     146.703 147.852 130.872  1.00  0.00     0.039 C 
ENDBRANCH   2   7
TORSDOF 2
ENDMDL
