MODEL 1
REMARK VINA RESULT:    -4.582      0.000      0.000
REMARK INTER + INTRA:          -4.716
REMARK INTER:                  -4.716
REMARK INTRA:                   0.000
REMARK UNBOUND:                 0.000
REMARK SMILES Oc1ccc2[nH]ccc2c1
REMARK SMILES IDX 3 1 4 2 5 3 9 4 8 5 7 6 6 7 10 8 2 9 1 11
REMARK H PARENT 6 10 1 12
REMARK Flexibility Score: inf
ROOT
ATOM      1  C   UNL     1       5.367  40.140  45.658  1.00  0.00     0.048 A 
ATOM      2  C   UNL     1       6.773  40.094  45.675  1.00  0.00     0.030 A 
ATOM      3  C   UNL     1       7.446  40.349  44.481  1.00  0.00     0.046 A 
ATOM      4  C   UNL     1       6.774  40.635  43.322  1.00  0.00     0.003 A 
ATOM      5  C   UNL     1       7.718  40.832  42.338  1.00  0.00     0.028 A 
ATOM      6  C   UNL     1       8.945  40.651  42.968  1.00  0.00     0.083 A 
ATOM      7  N   UNL     1       8.773  40.355  44.277  1.00  0.00    -0.361 N 
ATOM      8  C   UNL     1       5.383  40.688  43.271  1.00  0.00     0.056 A 
ATOM      9  C   UNL     1       4.670  40.437  44.459  1.00  0.00     0.116 A 
ATOM     10  H   UNL     1       9.523  40.172  44.981  1.00  0.00     0.166 HD
ENDROOT
BRANCH   9  11
ATOM     11  O   UNL     1       3.279  40.481  44.444  1.00  0.00    -0.508 OA
ATOM     12  H   UNL     1       2.775  41.053  43.776  1.00  0.00     0.293 HD
ENDBRANCH   9  11
TORSDOF 1
ENDMDL
MODEL 2
REMARK VINA RESULT:    -4.537      2.612      3.513
REMARK INTER + INTRA:          -4.669
REMARK INTER:                  -4.669
REMARK INTRA:                   0.000
REMARK UNBOUND:                 0.000
REMARK SMILES Oc1ccc2[nH]ccc2c1
REMARK SMILES IDX 3 1 4 2 5 3 9 4 8 5 7 6 6 7 10 8 2 9 1 11
REMARK H PARENT 6 10 1 12
REMARK Flexibility Score: inf
ROOT
ATOM      1  C   UNL     1       6.658  40.001  45.612  1.00  0.00     0.048 A 
ATOM      2  C   UNL     1       5.279  40.266  45.530  1.00  0.00     0.030 A 
ATOM      3  C   UNL     1       4.807  40.917  44.390  1.00  0.00     0.046 A 
ATOM      4  C   UNL     1       5.648  41.292  43.376  1.00  0.00     0.003 A 
ATOM      5  C   UNL     1       4.880  41.904  42.410  1.00  0.00     0.028 A 
ATOM      6  C   UNL     1       3.579  41.866  42.902  1.00  0.00     0.083 A 
ATOM      7  N   UNL     1       3.540  41.262  44.112  1.00  0.00    -0.361 N 
ATOM      8  C   UNL     1       7.019  41.045  43.426  1.00  0.00     0.056 A 
ATOM      9  C   UNL     1       7.529  40.390  44.563  1.00  0.00     0.116 A 
ATOM     10  H   UNL     1       2.695  41.100  44.704  1.00  0.00     0.166 HD
ENDROOT
BRANCH   9  11
ATOM     11  O   UNL     1       8.894  40.128  44.646  1.00  0.00    -0.508 OA
ATOM     12  H   UNL     1       9.288  39.619  45.429  1.00  0.00     0.293 HD
ENDBRANCH   9  11
TORSDOF 1
ENDMDL
MODEL 3
REMARK VINA RESULT:    -4.188     10.434     11.881
REMARK INTER + INTRA:          -4.311
REMARK INTER:                  -4.311
REMARK INTRA:                   0.000
REMARK UNBOUND:                 0.000
REMARK SMILES Oc1ccc2[nH]ccc2c1
REMARK SMILES IDX 3 1 4 2 5 3 9 4 8 5 7 6 6 7 10 8 2 9 1 11
REMARK H PARENT 6 10 1 12
REMARK Flexibility Score: inf
ROOT
ATOM      1  C   UNL     1      13.395  39.928  32.947  1.00  0.00     0.048 A 
ATOM      2  C   UNL     1      13.474  38.690  33.611  1.00  0.00     0.030 A 
ATOM      3  C   UNL     1      12.413  38.327  34.439  1.00  0.00     0.046 A 
ATOM      4  C   UNL     1      11.324  39.139  34.612  1.00  0.00     0.003 A 
ATOM      5  C   UNL     1      10.468  38.499  35.481  1.00  0.00     0.028 A 
ATOM      6  C   UNL     1      11.099  37.300  35.798  1.00  0.00     0.083 A 
ATOM      7  N   UNL     1      12.288  37.201  35.159  1.00  0.00    -0.361 N 
ATOM      8  C   UNL     1      11.215  40.371  33.971  1.00  0.00     0.056 A 
ATOM      9  C   UNL     1      12.268  40.770  33.125  1.00  0.00     0.116 A 
ATOM     10  H   UNL     1      12.965  36.407  35.216  1.00  0.00     0.166 HD
ENDROOT
BRANCH   9  11
ATOM     11  O   UNL     1      12.192  41.995  32.469  1.00  0.00    -0.508 OA
ATOM     12  H   UNL     1      12.110  42.050  31.460  1.00  0.00     0.293 HD
ENDBRANCH   9  11
TORSDOF 1
ENDMDL
MODEL 4
REMARK VINA RESULT:    -4.134     11.060     12.158
REMARK INTER + INTRA:          -4.255
REMARK INTER:                  -4.255
REMARK INTRA:                   0.000
REMARK UNBOUND:                 0.000
REMARK SMILES Oc1ccc2[nH]ccc2c1
REMARK SMILES IDX 3 1 4 2 5 3 9 4 8 5 7 6 6 7 10 8 2 9 1 11
REMARK H PARENT 6 10 1 12
REMARK Flexibility Score: inf
ROOT
ATOM      1  C   UNL     1      11.090  40.320  33.941  1.00  0.00     0.048 A 
ATOM      2  C   UNL     1      11.033  39.134  34.694  1.00  0.00     0.030 A 
ATOM      3  C   UNL     1      12.119  38.262  34.618  1.00  0.00     0.046 A 
ATOM      4  C   UNL     1      13.210  38.538  33.839  1.00  0.00     0.003 A 
ATOM      5  C   UNL     1      14.093  37.491  33.982  1.00  0.00     0.028 A 
ATOM      6  C   UNL     1      13.474  36.611  34.864  1.00  0.00     0.083 A 
ATOM      7  N   UNL     1      12.268  37.087  35.249  1.00  0.00    -0.361 N 
ATOM      8  C   UNL     1      13.298  39.704  33.080  1.00  0.00     0.056 A 
ATOM      9  C   UNL     1      12.220  40.607  33.134  1.00  0.00     0.116 A 
ATOM     10  H   UNL     1      11.595  36.630  35.905  1.00  0.00     0.166 HD
ENDROOT
BRANCH   9  11
ATOM     11  O   UNL     1      12.274  41.782  32.388  1.00  0.00    -0.508 OA
ATOM     12  H   UNL     1      13.084  42.391  32.419  1.00  0.00     0.293 HD
ENDBRANCH   9  11
TORSDOF 1
ENDMDL
MODEL 5
REMARK VINA RESULT:    -4.082      1.106      2.075
REMARK INTER + INTRA:          -4.201
REMARK INTER:                  -4.201
REMARK INTRA:                   0.000
REMARK UNBOUND:                 0.000
REMARK SMILES Oc1ccc2[nH]ccc2c1
REMARK SMILES IDX 3 1 4 2 5 3 9 4 8 5 7 6 6 7 10 8 2 9 1 11
REMARK H PARENT 6 10 1 12
REMARK Flexibility Score: inf
ROOT
ATOM      1  C   UNL     1       4.599  41.434  42.877  1.00  0.00     0.048 A 
ATOM      2  C   UNL     1       5.882  41.787  42.419  1.00  0.00     0.030 A 
ATOM      3  C   UNL     1       6.977  41.417  43.199  1.00  0.00     0.046 A 
ATOM      4  C   UNL     1       6.824  40.733  44.376  1.00  0.00     0.003 A 
ATOM      5  C   UNL     1       8.082  40.524  44.896  1.00  0.00     0.028 A 
ATOM      6  C   UNL     1       8.955  41.108  43.983  1.00  0.00     0.083 A 
ATOM      7  N   UNL     1       8.275  41.652  42.949  1.00  0.00    -0.361 N 
ATOM      8  C   UNL     1       5.568  40.369  44.858  1.00  0.00     0.056 A 
ATOM      9  C   UNL     1       4.440  40.726  44.095  1.00  0.00     0.116 A 
ATOM     10  H   UNL     1       8.680  42.151  42.125  1.00  0.00     0.166 HD
ENDROOT
BRANCH   9  11
ATOM     11  O   UNL     1       3.170  40.378  44.548  1.00  0.00    -0.508 OA
ATOM     12  H   UNL     1       2.415  41.053  44.576  1.00  0.00     0.293 HD
ENDBRANCH   9  11
TORSDOF 1
ENDMDL
MODEL 6
REMARK VINA RESULT:    -4.047      2.591      3.993
REMARK INTER + INTRA:          -4.165
REMARK INTER:                  -4.165
REMARK INTRA:                   0.000
REMARK UNBOUND:                 0.000
REMARK SMILES Oc1ccc2[nH]ccc2c1
REMARK SMILES IDX 3 1 4 2 5 3 9 4 8 5 7 6 6 7 10 8 2 9 1 11
REMARK H PARENT 6 10 1 12
REMARK Flexibility Score: inf
ROOT
ATOM      1  C   UNL     1       8.487  40.726  43.004  1.00  0.00     0.048 A 
ATOM      2  C   UNL     1       7.224  41.050  42.475  1.00  0.00     0.030 A 
ATOM      3  C   UNL     1       6.115  40.914  43.308  1.00  0.00     0.046 A 
ATOM      4  C   UNL     1       6.235  40.479  44.601  1.00  0.00     0.003 A 
ATOM      5  C   UNL     1       4.970  40.456  45.146  1.00  0.00     0.028 A 
ATOM      6  C   UNL     1       4.127  40.889  44.127  1.00  0.00     0.083 A 
ATOM      7  N   UNL     1       4.831  41.167  43.007  1.00  0.00    -0.361 N 
ATOM      8  C   UNL     1       7.470  40.150  45.156  1.00  0.00     0.056 A 
ATOM      9  C   UNL     1       8.612  40.276  44.343  1.00  0.00     0.116 A 
ATOM     10  H   UNL     1       4.450  41.509  42.097  1.00  0.00     0.166 HD
ENDROOT
BRANCH   9  11
ATOM     11  O   UNL     1       9.862  39.954  44.865  1.00  0.00    -0.508 OA
ATOM     12  H   UNL     1      10.005  39.838  45.861  1.00  0.00     0.293 HD
ENDBRANCH   9  11
TORSDOF 1
ENDMDL
MODEL 7
REMARK VINA RESULT:    -3.984     10.787     11.809
REMARK INTER + INTRA:          -4.101
REMARK INTER:                  -4.101
REMARK INTRA:                   0.000
REMARK UNBOUND:                 0.000
REMARK SMILES Oc1ccc2[nH]ccc2c1
REMARK SMILES IDX 3 1 4 2 5 3 9 4 8 5 7 6 6 7 10 8 2 9 1 11
REMARK H PARENT 6 10 1 12
REMARK Flexibility Score: inf
ROOT
ATOM      1  C   UNL     1      13.082  36.973  34.936  1.00  0.00     0.048 A 
ATOM      2  C   UNL     1      13.701  37.803  33.983  1.00  0.00     0.030 A 
ATOM      3  C   UNL     1      13.027  38.959  33.592  1.00  0.00     0.046 A 
ATOM      4  C   UNL     1      11.802  39.288  34.109  1.00  0.00     0.003 A 
ATOM      5  C   UNL     1      11.414  40.473  33.523  1.00  0.00     0.028 A 
ATOM      6  C   UNL     1      12.451  40.809  32.658  1.00  0.00     0.083 A 
ATOM      7  N   UNL     1      13.433  39.880  32.704  1.00  0.00    -0.361 N 
ATOM      8  C   UNL     1      11.162  38.489  35.054  1.00  0.00     0.056 A 
ATOM      9  C   UNL     1      11.815  37.313  35.472  1.00  0.00     0.116 A 
ATOM     10  H   UNL     1      14.324  39.885  32.159  1.00  0.00     0.166 HD
ENDROOT
BRANCH   9  11
ATOM     11  O   UNL     1      11.204  36.491  36.415  1.00  0.00    -0.508 OA
ATOM     12  H   UNL     1      10.377  36.789  36.920  1.00  0.00     0.293 HD
ENDBRANCH   9  11
TORSDOF 1
ENDMDL
MODEL 8
REMARK VINA RESULT:    -3.968     12.315     12.948
REMARK INTER + INTRA:          -4.084
REMARK INTER:                  -4.084
REMARK INTRA:                   0.000
REMARK UNBOUND:                 0.000
REMARK SMILES Oc1ccc2[nH]ccc2c1
REMARK SMILES IDX 3 1 4 2 5 3 9 4 8 5 7 6 6 7 10 8 2 9 1 11
REMARK H PARENT 6 10 1 12
REMARK Flexibility Score: inf
ROOT
ATOM      1  C   UNL     1      15.125  38.462  33.976  1.00  0.00     0.048 A 
ATOM      2  C   UNL     1      14.894  39.832  33.752  1.00  0.00     0.030 A 
ATOM      3  C   UNL     1      13.580  40.242  33.529  1.00  0.00     0.046 A 
ATOM      4  C   UNL     1      12.539  39.352  33.524  1.00  0.00     0.003 A 
ATOM      5  C   UNL     1      11.388  40.067  33.278  1.00  0.00     0.028 A 
ATOM      6  C   UNL     1      11.802  41.388  33.142  1.00  0.00     0.083 A 
ATOM      7  N   UNL     1      13.142  41.489  33.296  1.00  0.00    -0.361 N 
ATOM      8  C   UNL     1      12.733  37.989  33.743  1.00  0.00     0.056 A 
ATOM      9  C   UNL     1      14.048  37.540  33.972  1.00  0.00     0.116 A 
ATOM     10  H   UNL     1      13.714  42.362  33.244  1.00  0.00     0.166 HD
ENDROOT
BRANCH   9  11
ATOM     11  O   UNL     1      14.278  36.185  34.193  1.00  0.00    -0.508 OA
ATOM     12  H   UNL     1      15.155  35.853  34.578  1.00  0.00     0.293 HD
ENDBRANCH   9  11
TORSDOF 1
ENDMDL
MODEL 9
REMARK VINA RESULT:    -3.927     10.667     11.808
REMARK INTER + INTRA:          -4.042
REMARK INTER:                  -4.042
REMARK INTRA:                   0.000
REMARK UNBOUND:                 0.000
REMARK SMILES Oc1ccc2[nH]ccc2c1
REMARK SMILES IDX 3 1 4 2 5 3 9 4 8 5 7 6 6 7 10 8 2 9 1 11
REMARK H PARENT 6 10 1 12
REMARK Flexibility Score: inf
ROOT
ATOM      1  C   UNL     1      11.209  37.634  35.533  1.00  0.00     0.048 A 
ATOM      2  C   UNL     1      10.754  38.874  35.050  1.00  0.00     0.030 A 
ATOM      3  C   UNL     1      11.555  39.549  34.129  1.00  0.00     0.046 A 
ATOM      4  C   UNL     1      12.750  39.033  33.702  1.00  0.00     0.003 A 
ATOM      5  C   UNL     1      13.289  39.932  32.808  1.00  0.00     0.028 A 
ATOM      6  C   UNL     1      12.368  40.973  32.739  1.00  0.00     0.083 A 
ATOM      7  N   UNL     1      11.312  40.734  33.548  1.00  0.00    -0.361 N 
ATOM      8  C   UNL     1      13.230  37.808  34.160  1.00  0.00     0.056 A 
ATOM      9  C   UNL     1      12.446  37.099  35.090  1.00  0.00     0.116 A 
ATOM     10  H   UNL     1      10.479  41.348  33.689  1.00  0.00     0.166 HD
ENDROOT
BRANCH   9  11
ATOM     11  O   UNL     1      12.896  35.872  35.569  1.00  0.00    -0.508 OA
ATOM     12  H   UNL     1      12.916  35.667  36.561  1.00  0.00     0.293 HD
ENDBRANCH   9  11
TORSDOF 1
ENDMDL
