MODEL 1
REMARK VINA RESULT:    -5.177      0.000      0.000
REMARK INTER + INTRA:          -6.182
REMARK INTER:                  -5.934
REMARK INTRA:                  -0.248
REMARK UNBOUND:                -0.248
REMARK SMILES O=C([O-])C=Cc1ccc(O)cc1
REMARK SMILES IDX 6 1 7 2 12 3 8 4 11 5 9 6 5 7 4 8 2 9 1 10 3 11 10 12
REMARK H PARENT 10 13
REMARK Flexibility Score: inf
ROOT
ATOM      1  C   UNL     1     -12.211  48.182  51.437  1.00  0.00    -0.025 A 
ATOM      2  C   UNL     1     -11.211  48.525  52.360  1.00  0.00     0.012 A 
ATOM      3  C   UNL     1     -13.559  48.221  51.837  1.00  0.00     0.012 A 
ATOM      4  C   UNL     1     -11.548  48.850  53.678  1.00  0.00     0.047 A 
ATOM      5  C   UNL     1     -13.893  48.547  53.154  1.00  0.00     0.047 A 
ATOM      6  C   UNL     1     -12.889  48.859  54.080  1.00  0.00     0.115 A 
ENDROOT
BRANCH   1   7
ATOM      7  C   UNL     1     -11.836  47.894  50.038  1.00  0.00     0.010 C 
ATOM      8  C   UNL     1     -11.469  48.807  49.126  1.00  0.00     0.025 C 
BRANCH   8   9
ATOM      9  C   UNL     1     -11.545  50.272  49.293  1.00  0.00     0.064 C 
ATOM     10  O   UNL     1     -12.602  50.909  49.044  1.00  0.00    -0.545 OA
ATOM     11  O   UNL     1     -10.406  50.970  49.669  1.00  0.00    -0.545 OA
ENDBRANCH   8   9
ENDBRANCH   1   7
BRANCH   6  12
ATOM     12  O   UNL     1     -13.209  49.183  55.396  1.00  0.00    -0.508 OA
ATOM     13  H   UNL     1     -12.490  49.393  56.079  1.00  0.00     0.293 HD
ENDBRANCH   6  12
TORSDOF 3
ENDMDL
MODEL 2
REMARK VINA RESULT:    -5.175      2.313      4.978
REMARK INTER + INTRA:          -6.180
REMARK INTER:                  -6.111
REMARK INTRA:                  -0.069
REMARK UNBOUND:                -0.248
REMARK SMILES O=C([O-])C=Cc1ccc(O)cc1
REMARK SMILES IDX 6 1 7 2 12 3 8 4 11 5 9 6 5 7 4 8 2 9 1 10 3 11 10 12
REMARK H PARENT 10 13
REMARK Flexibility Score: inf
ROOT
ATOM      1  C   UNL     1     -11.743  48.068  50.625  1.00  0.00    -0.025 A 
ATOM      2  C   UNL     1     -11.223  48.963  49.677  1.00  0.00     0.012 A 
ATOM      3  C   UNL     1     -12.343  46.874  50.188  1.00  0.00     0.012 A 
ATOM      4  C   UNL     1     -11.348  48.694  48.310  1.00  0.00     0.047 A 
ATOM      5  C   UNL     1     -12.466  46.607  48.821  1.00  0.00     0.047 A 
ATOM      6  C   UNL     1     -11.972  47.518  47.878  1.00  0.00     0.115 A 
ENDROOT
BRANCH   1   7
ATOM      7  C   UNL     1     -11.554  48.348  52.063  1.00  0.00     0.010 C 
ATOM      8  C   UNL     1     -12.522  48.338  52.992  1.00  0.00     0.025 C 
BRANCH   8   9
ATOM      9  C   UNL     1     -13.970  48.225  52.728  1.00  0.00     0.064 C 
ATOM     10  O   UNL     1     -14.650  49.217  52.353  1.00  0.00    -0.545 OA
ATOM     11  O   UNL     1     -14.608  47.015  52.962  1.00  0.00    -0.545 OA
ENDBRANCH   8   9
ENDBRANCH   1   7
BRANCH   6  12
ATOM     12  O   UNL     1     -12.090  47.265  46.514  1.00  0.00    -0.508 OA
ATOM     13  H   UNL     1     -11.282  47.275  45.902  1.00  0.00     0.293 HD
ENDBRANCH   6  12
TORSDOF 3
ENDMDL
MODEL 3
REMARK VINA RESULT:    -4.933      2.283      3.368
REMARK INTER + INTRA:          -5.902
REMARK INTER:                  -5.640
REMARK INTRA:                  -0.262
REMARK UNBOUND:                -0.248
REMARK SMILES O=C([O-])C=Cc1ccc(O)cc1
REMARK SMILES IDX 6 1 7 2 12 3 8 4 11 5 9 6 5 7 4 8 2 9 1 10 3 11 10 12
REMARK H PARENT 10 13
REMARK Flexibility Score: inf
ROOT
ATOM      1  C   UNL     1     -11.437  48.177  48.697  1.00  0.00    -0.025 A 
ATOM      2  C   UNL     1     -12.254  47.046  48.547  1.00  0.00     0.012 A 
ATOM      3  C   UNL     1     -11.325  48.781  49.962  1.00  0.00     0.012 A 
ATOM      4  C   UNL     1     -12.990  46.557  49.632  1.00  0.00     0.047 A 
ATOM      5  C   UNL     1     -12.060  48.291  51.045  1.00  0.00     0.047 A 
ATOM      6  C   UNL     1     -12.898  47.179  50.882  1.00  0.00     0.115 A 
ENDROOT
BRANCH   1   7
ATOM      7  C   UNL     1     -10.630  48.643  47.551  1.00  0.00     0.010 C 
ATOM      8  C   UNL     1     -10.905  49.712  46.789  1.00  0.00     0.025 C 
BRANCH   8   9
ATOM      9  C   UNL     1     -12.148  50.508  46.836  1.00  0.00     0.064 C 
ATOM     10  O   UNL     1     -13.051  50.371  45.969  1.00  0.00    -0.545 OA
ATOM     11  O   UNL     1     -12.293  51.476  47.820  1.00  0.00    -0.545 OA
ENDBRANCH   8   9
ENDBRANCH   1   7
BRANCH   6  12
ATOM     12  O   UNL     1     -13.638  46.683  51.952  1.00  0.00    -0.508 OA
ATOM     13  H   UNL     1     -13.297  45.915  52.520  1.00  0.00     0.293 HD
ENDBRANCH   6  12
TORSDOF 3
ENDMDL
MODEL 4
REMARK VINA RESULT:    -4.869      3.030      4.072
REMARK INTER + INTRA:          -5.828
REMARK INTER:                  -5.561
REMARK INTRA:                  -0.267
REMARK UNBOUND:                -0.248
REMARK SMILES O=C([O-])C=Cc1ccc(O)cc1
REMARK SMILES IDX 6 1 7 2 12 3 8 4 11 5 9 6 5 7 4 8 2 9 1 10 3 11 10 12
REMARK H PARENT 10 13
REMARK Flexibility Score: inf
ROOT
ATOM      1  C   UNL     1     -11.413  49.124  49.196  1.00  0.00    -0.025 A 
ATOM      2  C   UNL     1     -11.906  48.548  50.377  1.00  0.00     0.012 A 
ATOM      3  C   UNL     1     -11.512  48.410  47.989  1.00  0.00     0.012 A 
ATOM      4  C   UNL     1     -12.442  47.256  50.362  1.00  0.00     0.047 A 
ATOM      5  C   UNL     1     -12.049  47.119  47.976  1.00  0.00     0.047 A 
ATOM      6  C   UNL     1     -12.512  46.537  49.164  1.00  0.00     0.115 A 
ENDROOT
BRANCH   1   7
ATOM      7  C   UNL     1     -10.898  50.508  49.227  1.00  0.00     0.010 C 
ATOM      8  C   UNL     1     -11.614  51.611  48.957  1.00  0.00     0.025 C 
BRANCH   8   9
ATOM      9  C   UNL     1     -12.985  51.636  48.409  1.00  0.00     0.064 C 
ATOM     10  O   UNL     1     -13.995  51.620  49.161  1.00  0.00    -0.545 OA
ATOM     11  O   UNL     1     -13.164  51.608  47.033  1.00  0.00    -0.545 OA
ENDBRANCH   8   9
ENDBRANCH   1   7
BRANCH   6  12
ATOM     12  O   UNL     1     -13.048  45.252  49.165  1.00  0.00    -0.508 OA
ATOM     13  H   UNL     1     -13.456  44.849  50.001  1.00  0.00     0.293 HD
ENDBRANCH   6  12
TORSDOF 3
ENDMDL
MODEL 5
REMARK VINA RESULT:    -4.835      9.944     10.888
REMARK INTER + INTRA:          -5.789
REMARK INTER:                  -5.514
REMARK INTRA:                  -0.275
REMARK UNBOUND:                -0.248
REMARK SMILES O=C([O-])C=Cc1ccc(O)cc1
REMARK SMILES IDX 6 1 7 2 12 3 8 4 11 5 9 6 5 7 4 8 2 9 1 10 3 11 10 12
REMARK H PARENT 10 13
REMARK Flexibility Score: inf
ROOT
ATOM      1  C   UNL     1     -19.403  45.517  45.655  1.00  0.00    -0.025 A 
ATOM      2  C   UNL     1     -19.594  44.536  46.640  1.00  0.00     0.012 A 
ATOM      3  C   UNL     1     -19.732  46.854  45.943  1.00  0.00     0.012 A 
ATOM      4  C   UNL     1     -20.156  44.875  47.875  1.00  0.00     0.047 A 
ATOM      5  C   UNL     1     -20.292  47.191  47.179  1.00  0.00     0.047 A 
ATOM      6  C   UNL     1     -20.509  46.201  48.147  1.00  0.00     0.115 A 
ENDROOT
BRANCH   1   7
ATOM      7  C   UNL     1     -18.761  45.145  44.378  1.00  0.00     0.010 C 
ATOM      8  C   UNL     1     -19.402  44.712  43.282  1.00  0.00     0.025 C 
BRANCH   8   9
ATOM      9  C   UNL     1     -20.833  44.358  43.203  1.00  0.00     0.064 C 
ATOM     10  O   UNL     1     -21.679  45.144  42.701  1.00  0.00    -0.545 OA
ATOM     11  O   UNL     1     -21.264  43.160  43.756  1.00  0.00    -0.545 OA
ENDBRANCH   8   9
ENDBRANCH   1   7
BRANCH   6  12
ATOM     12  O   UNL     1     -21.068  46.524  49.381  1.00  0.00    -0.508 OA
ATOM     13  H   UNL     1     -21.073  45.862  50.149  1.00  0.00     0.293 HD
ENDBRANCH   6  12
TORSDOF 3
ENDMDL
MODEL 6
REMARK VINA RESULT:    -4.751      2.909      4.120
REMARK INTER + INTRA:          -5.693
REMARK INTER:                  -5.500
REMARK INTRA:                  -0.193
REMARK UNBOUND:                -0.248
REMARK SMILES O=C([O-])C=Cc1ccc(O)cc1
REMARK SMILES IDX 6 1 7 2 12 3 8 4 11 5 9 6 5 7 4 8 2 9 1 10 3 11 10 12
REMARK H PARENT 10 13
REMARK Flexibility Score: inf
ROOT
ATOM      1  C   UNL     1     -11.588  48.819  48.033  1.00  0.00    -0.025 A 
ATOM      2  C   UNL     1     -11.865  47.494  47.667  1.00  0.00     0.012 A 
ATOM      3  C   UNL     1     -11.741  49.208  49.376  1.00  0.00     0.012 A 
ATOM      4  C   UNL     1     -12.340  46.583  48.617  1.00  0.00     0.047 A 
ATOM      5  C   UNL     1     -12.214  48.296  50.324  1.00  0.00     0.047 A 
ATOM      6  C   UNL     1     -12.519  46.982  49.946  1.00  0.00     0.115 A 
ENDROOT
BRANCH   1   7
ATOM      7  C   UNL     1     -11.039  49.748  47.025  1.00  0.00     0.010 C 
ATOM      8  C   UNL     1      -9.754  50.122  46.928  1.00  0.00     0.025 C 
BRANCH   8   9
ATOM      9  C   UNL     1      -8.692  49.822  47.910  1.00  0.00     0.064 C 
ATOM     10  O   UNL     1      -8.008  48.767  47.838  1.00  0.00    -0.545 OA
ATOM     11  O   UNL     1      -8.491  50.689  48.974  1.00  0.00    -0.545 OA
ENDBRANCH   8   9
ENDBRANCH   1   7
BRANCH   6  12
ATOM     12  O   UNL     1     -12.993  46.065  50.881  1.00  0.00    -0.508 OA
ATOM     13  H   UNL     1     -12.596  45.135  50.958  1.00  0.00     0.293 HD
ENDBRANCH   6  12
TORSDOF 3
ENDMDL
MODEL 7
REMARK VINA RESULT:    -4.666      9.518     10.461
REMARK INTER + INTRA:          -5.596
REMARK INTER:                  -5.304
REMARK INTRA:                  -0.292
REMARK UNBOUND:                -0.248
REMARK SMILES O=C([O-])C=Cc1ccc(O)cc1
REMARK SMILES IDX 6 1 7 2 12 3 8 4 11 5 9 6 5 7 4 8 2 9 1 10 3 11 10 12
REMARK H PARENT 10 13
REMARK Flexibility Score: inf
ROOT
ATOM      1  C   UNL     1     -20.499  45.042  45.432  1.00  0.00    -0.025 A 
ATOM      2  C   UNL     1     -20.105  44.020  46.310  1.00  0.00     0.012 A 
ATOM      3  C   UNL     1     -20.497  46.374  45.882  1.00  0.00     0.012 A 
ATOM      4  C   UNL     1     -19.764  44.319  47.633  1.00  0.00     0.047 A 
ATOM      5  C   UNL     1     -20.155  46.670  47.205  1.00  0.00     0.047 A 
ATOM      6  C   UNL     1     -19.791  45.643  48.085  1.00  0.00     0.115 A 
ENDROOT
BRANCH   1   7
ATOM      7  C   UNL     1     -20.805  44.709  44.026  1.00  0.00     0.010 C 
ATOM      8  C   UNL     1     -19.910  44.652  43.027  1.00  0.00     0.025 C 
BRANCH   8   9
ATOM      9  C   UNL     1     -18.500  45.083  43.107  1.00  0.00     0.064 C 
ATOM     10  O   UNL     1     -17.580  44.275  43.403  1.00  0.00    -0.545 OA
ATOM     11  O   UNL     1     -18.191  46.423  42.919  1.00  0.00    -0.545 OA
ENDBRANCH   8   9
ENDBRANCH   1   7
BRANCH   6  12
ATOM     12  O   UNL     1     -19.450  45.924  49.406  1.00  0.00    -0.508 OA
ATOM     13  H   UNL     1     -19.932  46.642  49.935  1.00  0.00     0.293 HD
ENDBRANCH   6  12
TORSDOF 3
ENDMDL
MODEL 8
REMARK VINA RESULT:    -4.556      1.715      4.457
REMARK INTER + INTRA:          -5.470
REMARK INTER:                  -5.309
REMARK INTRA:                  -0.161
REMARK UNBOUND:                -0.248
REMARK SMILES O=C([O-])C=Cc1ccc(O)cc1
REMARK SMILES IDX 6 1 7 2 12 3 8 4 11 5 9 6 5 7 4 8 2 9 1 10 3 11 10 12
REMARK H PARENT 10 13
REMARK Flexibility Score: inf
ROOT
ATOM      1  C   UNL     1     -11.636  48.512  50.301  1.00  0.00    -0.025 A 
ATOM      2  C   UNL     1     -11.881  49.330  49.188  1.00  0.00     0.012 A 
ATOM      3  C   UNL     1     -10.709  48.932  51.272  1.00  0.00     0.012 A 
ATOM      4  C   UNL     1     -11.172  50.524  49.019  1.00  0.00     0.047 A 
ATOM      5  C   UNL     1     -10.002  50.126  51.102  1.00  0.00     0.047 A 
ATOM      6  C   UNL     1     -10.229  50.924  49.972  1.00  0.00     0.115 A 
ENDROOT
BRANCH   1   7
ATOM      7  C   UNL     1     -12.434  47.283  50.485  1.00  0.00     0.010 C 
ATOM      8  C   UNL     1     -13.457  47.139  51.341  1.00  0.00     0.025 C 
BRANCH   8   9
ATOM      9  C   UNL     1     -13.858  48.112  52.377  1.00  0.00     0.064 C 
ATOM     10  O   UNL     1     -13.677  47.882  53.602  1.00  0.00    -0.545 OA
ATOM     11  O   UNL     1     -14.510  49.276  51.995  1.00  0.00    -0.545 OA
ENDBRANCH   8   9
ENDBRANCH   1   7
BRANCH   6  12
ATOM     12  O   UNL     1      -9.530  52.114  49.790  1.00  0.00    -0.508 OA
ATOM     13  H   UNL     1      -9.204  52.663  50.578  1.00  0.00     0.293 HD
ENDBRANCH   6  12
TORSDOF 3
ENDMDL
MODEL 9
REMARK VINA RESULT:    -4.511      2.485      5.426
REMARK INTER + INTRA:          -5.418
REMARK INTER:                  -5.127
REMARK INTRA:                  -0.290
REMARK UNBOUND:                -0.248
REMARK SMILES O=C([O-])C=Cc1ccc(O)cc1
REMARK SMILES IDX 6 1 7 2 12 3 8 4 11 5 9 6 5 7 4 8 2 9 1 10 3 11 10 12
REMARK H PARENT 10 13
REMARK Flexibility Score: inf
ROOT
ATOM      1  C   UNL     1     -11.394  49.424  49.135  1.00  0.00    -0.025 A 
ATOM      2  C   UNL     1     -11.906  50.725  49.018  1.00  0.00     0.012 A 
ATOM      3  C   UNL     1     -11.287  48.621  47.985  1.00  0.00     0.012 A 
ATOM      4  C   UNL     1     -12.354  51.200  47.781  1.00  0.00     0.047 A 
ATOM      5  C   UNL     1     -11.734  49.098  46.749  1.00  0.00     0.047 A 
ATOM      6  C   UNL     1     -12.272  50.388  46.644  1.00  0.00     0.115 A 
ENDROOT
BRANCH   1   7
ATOM      7  C   UNL     1     -10.880  48.963  50.441  1.00  0.00     0.010 C 
ATOM      8  C   UNL     1     -11.560  48.220  51.327  1.00  0.00     0.025 C 
BRANCH   8   9
ATOM      9  C   UNL     1     -12.994  47.879  51.246  1.00  0.00     0.064 C 
ATOM     10  O   UNL     1     -13.863  48.529  51.885  1.00  0.00    -0.545 OA
ATOM     11  O   UNL     1     -13.386  46.774  50.502  1.00  0.00    -0.545 OA
ENDBRANCH   8   9
ENDBRANCH   1   7
BRANCH   6  12
ATOM     12  O   UNL     1     -12.723  50.873  45.419  1.00  0.00    -0.508 OA
ATOM     13  H   UNL     1     -13.423  50.377  44.879  1.00  0.00     0.293 HD
ENDBRANCH   6  12
TORSDOF 3
ENDMDL
