MODEL 1
REMARK VINA RESULT:     6.559      0.000      0.000
REMARK INTER + INTRA:          12.358
REMARK INTER:                  10.010
REMARK INTRA:                   2.348
REMARK UNBOUND:                 2.348
REMARK SMILES CC1=CCC[C@H](C)C(=O)C[C@H](C(C)C)C(=O)C1
REMARK SMILES IDX 8 1 9 2 6 3 7 4 5 5 4 6 3 7 2 8 1 9 10 11 11 12 15 13 16 14
REMARK SMILES IDX 17 15 12 17 13 18 14 19
REMARK H PARENT
REMARK Flexibility Score: 70.00
ROOT
ATOM      1  C   UNL     1      -3.599   5.829   9.290  1.00  0.00     0.136 C 
ATOM      2  O   UNL     1      -2.913   5.068   9.959  1.00  0.00    -0.299 OA
ENDROOT
BRANCH   1   3
ATOM      3  C   UNL     1      -2.923   6.801   8.350  1.00  0.00     0.053 C 
ATOM      4  C   UNL     1      -1.403   6.796   8.562  1.00  0.00     0.016 C 
BRANCH   3   5
ATOM      5  C   UNL     1      -3.294   6.441   6.886  1.00  0.00     0.015 C 
BRANCH   5   6
ATOM      6  C   UNL     1      -2.553   5.221   6.313  1.00  0.00     0.028 C 
BRANCH   6   7
ATOM      7  C   UNL     1      -3.411   4.012   6.011  1.00  0.00    -0.028 C 
ATOM      8  C   UNL     1      -3.799   3.055   6.888  1.00  0.00    -0.070 CG0
ATOM      9  C   UNL     1      -4.523   1.855   6.331  1.00  0.00     0.039 C 
ATOM     10  G   UNL     1      -3.512   3.110   8.380  1.00  0.00     0.000 G0
ENDBRANCH   6   7
ENDBRANCH   5   6
ENDBRANCH   3   5
ENDBRANCH   1   3
BRANCH   1  11
ATOM     11  C   UNL     1      -5.104   5.768   9.427  1.00  0.00     0.087 C 
BRANCH  11  12
ATOM     12  C   UNL     1      -5.729   4.365   9.173  1.00  0.00     0.066 C 
BRANCH  12  13
ATOM     13  C   UNL     1      -4.705   3.234   9.273  1.00  0.00     0.140 C 
ATOM     14  O   UNL     1      -4.869   2.372  10.124  1.00  0.00    -0.299 OA
BRANCH  13  15
ATOM     15  C   UNL     1      -3.495   3.097   8.358  1.00  0.00     0.106 CG0
ATOM     16  G   UNL     1      -3.800   3.104   6.869  1.00  0.00     0.000 G0
ENDBRANCH  13  15
ENDBRANCH  12  13
BRANCH  12  17
ATOM     17  C   UNL     1      -6.968   4.136  10.102  1.00  0.00    -0.006 C 
ATOM     18  C   UNL     1      -7.772   2.860   9.787  1.00  0.00     0.008 C 
ATOM     19  C   UNL     1      -7.911   5.346  10.097  1.00  0.00     0.008 C 
ENDBRANCH  12  17
ENDBRANCH  11  12
ENDBRANCH   1  11
TORSDOF 1
ENDMDL
