MODEL 1
REMARK VINA RESULT:    -5.152      0.000      0.000
REMARK INTER + INTRA:         -10.127
REMARK INTER:                  -9.671
REMARK INTRA:                  -0.456
REMARK UNBOUND:                -0.456
REMARK SMILES O=C([O-])CCCCCCCCCCCCCCC(=O)[O-]
REMARK SMILES IDX 10 1 9 2 8 3 7 4 6 5 5 6 4 7 2 8 1 9 3 10 11 11 12 12 13 13
REMARK SMILES IDX 14 14 15 15 16 16 17 17 18 18 19 19 20 20
REMARK H PARENT
REMARK Flexibility Score: inf
ROOT
ATOM      1  C   UNL     1       1.177  -2.989   0.304  1.00  0.00     0.000 C 
ENDROOT
BRANCH   1   2
ATOM      2  C   UNL     1       0.711  -3.882  -0.855  1.00  0.00     0.000 C 
BRANCH   2   3
ATOM      3  C   UNL     1       0.489  -5.345  -0.432  1.00  0.00     0.000 C 
BRANCH   3   4
ATOM      4  C   UNL     1      -0.020  -6.274  -1.551  1.00  0.00     0.000 C 
BRANCH   4   5
ATOM      5  C   UNL     1      -0.086  -7.770  -1.182  1.00  0.00     0.000 C 
BRANCH   5   6
ATOM      6  C   UNL     1      -1.494  -8.397  -1.252  1.00  0.00     0.006 C 
BRANCH   6   7
ATOM      7  C   UNL     1      -1.580  -9.826  -0.696  1.00  0.00     0.053 C 
BRANCH   7   8
ATOM      8  C   UNL     1      -1.504  -9.850   0.800  1.00  0.00     0.041 C 
ATOM      9  O   UNL     1      -2.541  -9.668   1.491  1.00  0.00    -0.550 OA
ATOM     10  O   UNL     1      -0.292 -10.104   1.430  1.00  0.00    -0.550 OA
ENDBRANCH   7   8
ENDBRANCH   6   7
ENDBRANCH   5   6
ENDBRANCH   4   5
ENDBRANCH   3   4
ENDBRANCH   2   3
ENDBRANCH   1   2
BRANCH   1  11
ATOM     11  C   UNL     1       0.313  -1.723   0.403  1.00  0.00     0.000 C 
BRANCH  11  12
ATOM     12  C   UNL     1       0.880  -0.688   1.391  1.00  0.00     0.000 C 
BRANCH  12  13
ATOM     13  C   UNL     1       0.348   0.749   1.208  1.00  0.00     0.000 C 
BRANCH  13  14
ATOM     14  C   UNL     1      -0.246   1.054  -0.179  1.00  0.00     0.000 C 
BRANCH  14  15
ATOM     15  C   UNL     1      -1.507   1.926  -0.110  1.00  0.00     0.000 C 
BRANCH  15  16
ATOM     16  C   UNL     1      -1.550   2.924  -1.272  1.00  0.00     0.006 C 
BRANCH  16  17
ATOM     17  C   UNL     1      -0.909   2.331  -2.530  1.00  0.00     0.053 C 
BRANCH  17  18
ATOM     18  C   UNL     1       0.369   3.040  -2.852  1.00  0.00     0.041 C 
ATOM     19  O   UNL     1       1.142   2.584  -3.735  1.00  0.00    -0.550 OA
ATOM     20  O   UNL     1       0.729   4.180  -2.143  1.00  0.00    -0.550 OA
ENDBRANCH  17  18
ENDBRANCH  16  17
ENDBRANCH  15  16
ENDBRANCH  14  15
ENDBRANCH  13  14
ENDBRANCH  12  13
ENDBRANCH  11  12
ENDBRANCH   1  11
TORSDOF 15
ENDMDL
MODEL 2
REMARK VINA RESULT:    -5.124      0.601     10.559
REMARK INTER + INTRA:         -10.073
REMARK INTER:                  -9.585
REMARK INTRA:                  -0.488
REMARK UNBOUND:                -0.456
REMARK SMILES O=C([O-])CCCCCCCCCCCCCCC(=O)[O-]
REMARK SMILES IDX 10 1 9 2 8 3 7 4 6 5 5 6 4 7 2 8 1 9 3 10 11 11 12 12 13 13
REMARK SMILES IDX 14 14 15 15 16 16 17 17 18 18 19 19 20 20
REMARK H PARENT
REMARK Flexibility Score: inf
ROOT
ATOM      1  C   UNL     1       0.369  -1.649   0.199  1.00  0.00     0.000 C 
ENDROOT
BRANCH   1   2
ATOM      2  C   UNL     1       0.757  -0.725   1.363  1.00  0.00     0.000 C 
BRANCH   2   3
ATOM      3  C   UNL     1       0.365   0.744   1.117  1.00  0.00     0.000 C 
BRANCH   3   4
ATOM      4  C   UNL     1      -0.522   0.980  -0.121  1.00  0.00     0.000 C 
BRANCH   4   5
ATOM      5  C   UNL     1      -1.644   2.021   0.065  1.00  0.00     0.000 C 
BRANCH   5   6
ATOM      6  C   UNL     1      -1.977   2.851  -1.192  1.00  0.00     0.006 C 
BRANCH   6   7
ATOM      7  C   UNL     1      -1.010   4.014  -1.458  1.00  0.00     0.053 C 
BRANCH   7   8
ATOM      8  C   UNL     1      -0.086   3.724  -2.601  1.00  0.00     0.041 C 
ATOM      9  O   UNL     1       1.043   4.278  -2.660  1.00  0.00    -0.550 OA
ATOM     10  O   UNL     1      -0.462   2.817  -3.584  1.00  0.00    -0.550 OA
ENDBRANCH   7   8
ENDBRANCH   6   7
ENDBRANCH   5   6
ENDBRANCH   4   5
ENDBRANCH   3   4
ENDBRANCH   2   3
ENDBRANCH   1   2
BRANCH   1  11
ATOM     11  C   UNL     1       1.103  -2.994   0.300  1.00  0.00     0.000 C 
BRANCH  11  12
ATOM     12  C   UNL     1       0.736  -3.962  -0.840  1.00  0.00     0.000 C 
BRANCH  12  13
ATOM     13  C   UNL     1       0.395  -5.398  -0.392  1.00  0.00     0.000 C 
BRANCH  13  14
ATOM     14  C   UNL     1       0.015  -6.364  -1.530  1.00  0.00     0.000 C 
BRANCH  14  15
ATOM     15  C   UNL     1      -0.021  -7.831  -1.080  1.00  0.00     0.000 C 
BRANCH  15  16
ATOM     16  C   UNL     1      -1.456  -8.370  -1.076  1.00  0.00     0.006 C 
BRANCH  16  17
ATOM     17  C   UNL     1      -1.496  -9.826  -0.602  1.00  0.00     0.053 C 
BRANCH  17  18
ATOM     18  C   UNL     1      -1.229  -9.906   0.868  1.00  0.00     0.041 C 
ATOM     19  O   UNL     1      -0.062 -10.125   1.290  1.00  0.00    -0.550 OA
ATOM     20  O   UNL     1      -2.276  -9.784   1.772  1.00  0.00    -0.550 OA
ENDBRANCH  17  18
ENDBRANCH  16  17
ENDBRANCH  15  16
ENDBRANCH  14  15
ENDBRANCH  13  14
ENDBRANCH  12  13
ENDBRANCH  11  12
ENDBRANCH   1  11
TORSDOF 15
ENDMDL
MODEL 3
REMARK VINA RESULT:    -4.948      0.964     10.217
REMARK INTER + INTRA:          -9.743
REMARK INTER:                  -9.080
REMARK INTRA:                  -0.664
REMARK UNBOUND:                -0.456
REMARK SMILES O=C([O-])CCCCCCCCCCCCCCC(=O)[O-]
REMARK SMILES IDX 10 1 9 2 8 3 7 4 6 5 5 6 4 7 2 8 1 9 3 10 11 11 12 12 13 13
REMARK SMILES IDX 14 14 15 15 16 16 17 17 18 18 19 19 20 20
REMARK H PARENT
REMARK Flexibility Score: inf
ROOT
ATOM      1  C   UNL     1       1.093  -1.504   1.220  1.00  0.00     0.000 C 
ENDROOT
BRANCH   1   2
ATOM      2  C   UNL     1       0.716  -0.032   1.446  1.00  0.00     0.000 C 
BRANCH   2   3
ATOM      3  C   UNL     1       0.033   0.605   0.221  1.00  0.00     0.000 C 
BRANCH   3   4
ATOM      4  C   UNL     1      -0.804   1.863   0.526  1.00  0.00     0.000 C 
BRANCH   4   5
ATOM      5  C   UNL     1      -1.826   2.250  -0.561  1.00  0.00     0.000 C 
BRANCH   5   6
ATOM      6  C   UNL     1      -1.426   3.459  -1.432  1.00  0.00     0.006 C 
BRANCH   6   7
ATOM      7  C   UNL     1       0.080   3.566  -1.713  1.00  0.00     0.053 C 
BRANCH   7   8
ATOM      8  C   UNL     1       0.389   3.421  -3.173  1.00  0.00     0.041 C 
ATOM      9  O   UNL     1      -0.338   2.701  -3.906  1.00  0.00    -0.550 OA
ATOM     10  O   UNL     1       1.461   4.108  -3.727  1.00  0.00    -0.550 OA
ENDBRANCH   7   8
ENDBRANCH   6   7
ENDBRANCH   5   6
ENDBRANCH   4   5
ENDBRANCH   3   4
ENDBRANCH   2   3
ENDBRANCH   1   2
BRANCH   1  11
ATOM     11  C   UNL     1       0.342  -2.083   0.013  1.00  0.00     0.000 C 
BRANCH  11  12
ATOM     12  C   UNL     1       0.885  -3.455  -0.428  1.00  0.00     0.000 C 
BRANCH  12  13
ATOM     13  C   UNL     1       0.720  -3.771  -1.928  1.00  0.00     0.000 C 
BRANCH  13  14
ATOM     14  C   UNL     1       0.217  -5.191  -2.245  1.00  0.00     0.000 C 
BRANCH  14  15
ATOM     15  C   UNL     1       0.005  -6.044  -0.986  1.00  0.00     0.000 C 
BRANCH  15  16
ATOM     16  C   UNL     1      -0.072  -7.534  -1.337  1.00  0.00     0.006 C 
BRANCH  16  17
ATOM     17  C   UNL     1      -1.470  -8.094  -1.058  1.00  0.00     0.053 C 
BRANCH  17  18
ATOM     18  C   UNL     1      -1.406  -9.166  -0.017  1.00  0.00     0.041 C 
ATOM     19  O   UNL     1      -2.300  -9.247   0.867  1.00  0.00    -0.550 OA
ATOM     20  O   UNL     1      -0.334 -10.050   0.006  1.00  0.00    -0.550 OA
ENDBRANCH  17  18
ENDBRANCH  16  17
ENDBRANCH  15  16
ENDBRANCH  14  15
ENDBRANCH  13  14
ENDBRANCH  12  13
ENDBRANCH  11  12
ENDBRANCH   1  11
TORSDOF 15
ENDMDL
MODEL 4
REMARK VINA RESULT:    -4.946      1.206      2.046
REMARK INTER + INTRA:          -9.738
REMARK INTER:                  -8.743
REMARK INTRA:                  -0.996
REMARK UNBOUND:                -0.456
REMARK SMILES O=C([O-])CCCCCCCCCCCCCCC(=O)[O-]
REMARK SMILES IDX 10 1 9 2 8 3 7 4 6 5 5 6 4 7 2 8 1 9 3 10 11 11 12 12 13 13
REMARK SMILES IDX 14 14 15 15 16 16 17 17 18 18 19 19 20 20
REMARK H PARENT
REMARK Flexibility Score: inf
ROOT
ATOM      1  C   UNL     1       1.063  -1.469   1.281  1.00  0.00     0.000 C 
ENDROOT
BRANCH   1   2
ATOM      2  C   UNL     1       0.381  -1.958  -0.005  1.00  0.00     0.000 C 
BRANCH   2   3
ATOM      3  C   UNL     1       0.756  -3.407  -0.367  1.00  0.00     0.000 C 
BRANCH   3   4
ATOM      4  C   UNL     1       0.773  -3.715  -1.878  1.00  0.00     0.000 C 
BRANCH   4   5
ATOM      5  C   UNL     1       0.162  -5.074  -2.276  1.00  0.00     0.000 C 
BRANCH   5   6
ATOM      6  C   UNL     1      -0.018  -6.073  -1.115  1.00  0.00     0.006 C 
BRANCH   6   7
ATOM      7  C   UNL     1       0.262  -7.536  -1.488  1.00  0.00     0.053 C 
BRANCH   7   8
ATOM      8  C   UNL     1      -0.653  -8.482  -0.772  1.00  0.00     0.041 C 
ATOM      9  O   UNL     1      -1.861  -8.178  -0.589  1.00  0.00    -0.550 OA
ATOM     10  O   UNL     1      -0.178  -9.711  -0.335  1.00  0.00    -0.550 OA
ENDBRANCH   7   8
ENDBRANCH   6   7
ENDBRANCH   5   6
ENDBRANCH   4   5
ENDBRANCH   3   4
ENDBRANCH   2   3
ENDBRANCH   1   2
BRANCH   1  11
ATOM     11  C   UNL     1       0.755   0.014   1.534  1.00  0.00     0.000 C 
BRANCH  11  12
ATOM     12  C   UNL     1       0.183   0.726   0.294  1.00  0.00     0.000 C 
BRANCH  12  13
ATOM     13  C   UNL     1      -0.795   1.879   0.597  1.00  0.00     0.000 C 
BRANCH  13  14
ATOM     14  C   UNL     1      -2.040   1.934  -0.308  1.00  0.00     0.000 C 
BRANCH  14  15
ATOM     15  C   UNL     1      -1.789   1.349  -1.705  1.00  0.00     0.000 C 
BRANCH  15  16
ATOM     16  C   UNL     1      -1.439   2.453  -2.709  1.00  0.00     0.006 C 
BRANCH  16  17
ATOM     17  C   UNL     1      -0.066   2.209  -3.341  1.00  0.00     0.053 C 
BRANCH  17  18
ATOM     18  C   UNL     1       0.795   3.424  -3.209  1.00  0.00     0.041 C 
ATOM     19  O   UNL     1       1.554   3.770  -4.154  1.00  0.00    -0.550 OA
ATOM     20  O   UNL     1       0.796   4.152  -2.025  1.00  0.00    -0.550 OA
ENDBRANCH  17  18
ENDBRANCH  16  17
ENDBRANCH  15  16
ENDBRANCH  14  15
ENDBRANCH  13  14
ENDBRANCH  12  13
ENDBRANCH  11  12
ENDBRANCH   1  11
TORSDOF 15
ENDMDL
MODEL 5
REMARK VINA RESULT:    -4.740      3.280      4.320
REMARK INTER + INTRA:          -9.352
REMARK INTER:                  -8.647
REMARK INTRA:                  -0.705
REMARK UNBOUND:                -0.456
REMARK SMILES O=C([O-])CCCCCCCCCCCCCCC(=O)[O-]
REMARK SMILES IDX 10 1 9 2 8 3 7 4 6 5 5 6 4 7 2 8 1 9 3 10 11 11 12 12 13 13
REMARK SMILES IDX 14 14 15 15 16 16 17 17 18 18 19 19 20 20
REMARK H PARENT
REMARK Flexibility Score: inf
ROOT
ATOM      1  C   UNL     1       0.245  -4.830  -2.309  1.00  0.00     0.000 C 
ENDROOT
BRANCH   1   2
ATOM      2  C   UNL     1       0.224  -5.808  -1.125  1.00  0.00     0.000 C 
BRANCH   2   3
ATOM      3  C   UNL     1       0.018  -7.270  -1.560  1.00  0.00     0.000 C 
BRANCH   3   4
ATOM      4  C   UNL     1       0.610  -8.322  -0.601  1.00  0.00     0.000 C 
BRANCH   4   5
ATOM      5  C   UNL     1       1.542  -9.359  -1.260  1.00  0.00     0.000 C 
BRANCH   5   6
ATOM      6  C   UNL     1       1.742  -9.182  -2.779  1.00  0.00     0.006 C 
BRANCH   6   7
ATOM      7  C   UNL     1       3.159  -9.507  -3.273  1.00  0.00     0.053 C 
BRANCH   7   8
ATOM      8  C   UNL     1       3.603  -8.571  -4.356  1.00  0.00     0.041 C 
ATOM      9  O   UNL     1       4.827  -8.441  -4.619  1.00  0.00    -0.550 OA
ATOM     10  O   UNL     1       2.661  -7.866  -5.093  1.00  0.00    -0.550 OA
ENDBRANCH   7   8
ENDBRANCH   6   7
ENDBRANCH   5   6
ENDBRANCH   4   5
ENDBRANCH   3   4
ENDBRANCH   2   3
ENDBRANCH   1   2
BRANCH   1  11
ATOM     11  C   UNL     1       0.859  -3.484  -1.897  1.00  0.00     0.000 C 
BRANCH  11  12
ATOM     12  C   UNL     1       0.800  -3.239  -0.379  1.00  0.00     0.000 C 
BRANCH  12  13
ATOM     13  C   UNL     1       0.107  -1.928   0.045  1.00  0.00     0.000 C 
BRANCH  13  14
ATOM     14  C   UNL     1       0.842  -1.122   1.131  1.00  0.00     0.000 C 
BRANCH  14  15
ATOM     15  C   UNL     1       0.559   0.385   1.050  1.00  0.00     0.000 C 
BRANCH  15  16
ATOM     16  C   UNL     1      -0.526   0.686   0.010  1.00  0.00     0.006 C 
BRANCH  16  17
ATOM     17  C   UNL     1      -0.876   2.176  -0.005  1.00  0.00     0.053 C 
BRANCH  17  18
ATOM     18  C   UNL     1      -1.982   2.445  -0.976  1.00  0.00     0.041 C 
ATOM     19  O   UNL     1      -1.924   1.986  -2.148  1.00  0.00    -0.550 OA
ATOM     20  O   UNL     1      -3.057   3.241  -0.601  1.00  0.00    -0.550 OA
ENDBRANCH  17  18
ENDBRANCH  16  17
ENDBRANCH  15  16
ENDBRANCH  14  15
ENDBRANCH  13  14
ENDBRANCH  12  13
ENDBRANCH  11  12
ENDBRANCH   1  11
TORSDOF 15
ENDMDL
MODEL 6
REMARK VINA RESULT:    -4.725      3.422     10.165
REMARK INTER + INTRA:          -9.325
REMARK INTER:                  -8.780
REMARK INTRA:                  -0.545
REMARK UNBOUND:                -0.456
REMARK SMILES O=C([O-])CCCCCCCCCCCCCCC(=O)[O-]
REMARK SMILES IDX 10 1 9 2 8 3 7 4 6 5 5 6 4 7 2 8 1 9 3 10 11 11 12 12 13 13
REMARK SMILES IDX 14 14 15 15 16 16 17 17 18 18 19 19 20 20
REMARK H PARENT
REMARK Flexibility Score: inf
ROOT
ATOM      1  C   UNL     1       0.750  -3.893  -1.177  1.00  0.00     0.000 C 
ENDROOT
BRANCH   1   2
ATOM      2  C   UNL     1       1.270  -3.008  -0.033  1.00  0.00     0.000 C 
BRANCH   2   3
ATOM      3  C   UNL     1       0.340  -1.820   0.273  1.00  0.00     0.000 C 
BRANCH   3   4
ATOM      4  C   UNL     1       0.874  -0.835   1.332  1.00  0.00     0.000 C 
BRANCH   4   5
ATOM      5  C   UNL     1       0.394   0.622   1.174  1.00  0.00     0.000 C 
BRANCH   5   6
ATOM      6  C   UNL     1      -0.531   0.875  -0.035  1.00  0.00     0.006 C 
BRANCH   6   7
ATOM      7  C   UNL     1      -0.426   2.288  -0.628  1.00  0.00     0.053 C 
BRANCH   7   8
ATOM      8  C   UNL     1      -1.591   2.611  -1.513  1.00  0.00     0.041 C 
ATOM      9  O   UNL     1      -2.703   2.920  -1.010  1.00  0.00    -0.550 OA
ATOM     10  O   UNL     1      -1.438   2.601  -2.893  1.00  0.00    -0.550 OA
ENDBRANCH   7   8
ENDBRANCH   6   7
ENDBRANCH   5   6
ENDBRANCH   4   5
ENDBRANCH   3   4
ENDBRANCH   2   3
ENDBRANCH   1   2
BRANCH   1  11
ATOM     11  C   UNL     1       0.199  -5.220  -0.636  1.00  0.00     0.000 C 
BRANCH  11  12
ATOM     12  C   UNL     1       0.174  -6.334  -1.699  1.00  0.00     0.000 C 
BRANCH  12  13
ATOM     13  C   UNL     1      -0.246  -7.724  -1.178  1.00  0.00     0.000 C 
BRANCH  13  14
ATOM     14  C   UNL     1       0.884  -8.767  -1.116  1.00  0.00     0.000 C 
BRANCH  14  15
ATOM     15  C   UNL     1       1.241  -9.344  -2.493  1.00  0.00     0.000 C 
BRANCH  15  16
ATOM     16  C   UNL     1       2.756  -9.328  -2.721  1.00  0.00     0.006 C 
BRANCH  16  17
ATOM     17  C   UNL     1       3.092  -8.941  -4.163  1.00  0.00     0.053 C 
BRANCH  17  18
ATOM     18  C   UNL     1       4.574  -8.887  -4.360  1.00  0.00     0.041 C 
ATOM     19  O   UNL     1       5.247  -9.950  -4.411  1.00  0.00    -0.550 OA
ATOM     20  O   UNL     1       5.220  -7.659  -4.442  1.00  0.00    -0.550 OA
ENDBRANCH  17  18
ENDBRANCH  16  17
ENDBRANCH  15  16
ENDBRANCH  14  15
ENDBRANCH  13  14
ENDBRANCH  12  13
ENDBRANCH  11  12
ENDBRANCH   1  11
TORSDOF 15
ENDMDL
MODEL 7
REMARK VINA RESULT:    -4.551      2.705      3.441
REMARK INTER + INTRA:          -8.998
REMARK INTER:                  -8.426
REMARK INTRA:                  -0.571
REMARK UNBOUND:                -0.456
REMARK SMILES O=C([O-])CCCCCCCCCCCCCCC(=O)[O-]
REMARK SMILES IDX 10 1 9 2 8 3 7 4 6 5 5 6 4 7 2 8 1 9 3 10 11 11 12 12 13 13
REMARK SMILES IDX 14 14 15 15 16 16 17 17 18 18 19 19 20 20
REMARK H PARENT
REMARK Flexibility Score: inf
ROOT
ATOM      1  C   UNL     1       0.574  -3.980  -1.188  1.00  0.00     0.000 C 
ENDROOT
BRANCH   1   2
ATOM      2  C   UNL     1       0.352  -5.388  -0.615  1.00  0.00     0.000 C 
BRANCH   2   3
ATOM      3  C   UNL     1      -0.004  -6.424  -1.696  1.00  0.00     0.000 C 
BRANCH   3   4
ATOM      4  C   UNL     1      -0.280  -7.846  -1.167  1.00  0.00     0.000 C 
BRANCH   4   5
ATOM      5  C   UNL     1       0.975  -8.702  -0.902  1.00  0.00     0.000 C 
BRANCH   5   6
ATOM      6  C   UNL     1       1.460  -9.537  -2.105  1.00  0.00     0.006 C 
BRANCH   6   7
ATOM      7  C   UNL     1       2.789  -9.063  -2.711  1.00  0.00     0.053 C 
BRANCH   7   8
ATOM      8  C   UNL     1       2.830  -9.260  -4.196  1.00  0.00     0.041 C 
ATOM      9  O   UNL     1       2.091 -10.121  -4.742  1.00  0.00    -0.550 OA
ATOM     10  O   UNL     1       3.662  -8.471  -4.978  1.00  0.00    -0.550 OA
ENDBRANCH   7   8
ENDBRANCH   6   7
ENDBRANCH   5   6
ENDBRANCH   4   5
ENDBRANCH   3   4
ENDBRANCH   2   3
ENDBRANCH   1   2
BRANCH   1  11
ATOM     11  C   UNL     1       1.142  -3.037  -0.118  1.00  0.00     0.000 C 
BRANCH  11  12
ATOM     12  C   UNL     1       0.248  -1.809   0.132  1.00  0.00     0.000 C 
BRANCH  12  13
ATOM     13  C   UNL     1       0.797  -0.800   1.162  1.00  0.00     0.000 C 
BRANCH  13  14
ATOM     14  C   UNL     1       0.453   0.674   0.880  1.00  0.00     0.000 C 
BRANCH  14  15
ATOM     15  C   UNL     1      -0.616   0.839  -0.210  1.00  0.00     0.000 C 
BRANCH  15  16
ATOM     16  C   UNL     1      -0.654   2.282  -0.727  1.00  0.00     0.006 C 
BRANCH  16  17
ATOM     17  C   UNL     1      -0.612   2.319  -2.257  1.00  0.00     0.053 C 
BRANCH  17  18
ATOM     18  C   UNL     1       0.463   3.245  -2.730  1.00  0.00     0.041 C 
ATOM     19  O   UNL     1       0.792   4.243  -2.035  1.00  0.00    -0.550 OA
ATOM     20  O   UNL     1       1.073   3.032  -3.960  1.00  0.00    -0.550 OA
ENDBRANCH  17  18
ENDBRANCH  16  17
ENDBRANCH  15  16
ENDBRANCH  14  15
ENDBRANCH  13  14
ENDBRANCH  12  13
ENDBRANCH  11  12
ENDBRANCH   1  11
TORSDOF 15
ENDMDL
MODEL 8
REMARK VINA RESULT:    -4.483      2.635     10.198
REMARK INTER + INTRA:          -8.870
REMARK INTER:                  -8.286
REMARK INTRA:                  -0.584
REMARK UNBOUND:                -0.456
REMARK SMILES O=C([O-])CCCCCCCCCCCCCCC(=O)[O-]
REMARK SMILES IDX 10 1 9 2 8 3 7 4 6 5 5 6 4 7 2 8 1 9 3 10 11 11 12 12 13 13
REMARK SMILES IDX 14 14 15 15 16 16 17 17 18 18 19 19 20 20
REMARK H PARENT
REMARK Flexibility Score: inf
ROOT
ATOM      1  C   UNL     1       1.125  -2.795   0.234  1.00  0.00     0.000 C 
ENDROOT
BRANCH   1   2
ATOM      2  C   UNL     1       0.223  -1.553   0.273  1.00  0.00     0.000 C 
BRANCH   2   3
ATOM      3  C   UNL     1       0.766  -0.447   1.196  1.00  0.00     0.000 C 
BRANCH   3   4
ATOM      4  C   UNL     1       0.370   0.987   0.794  1.00  0.00     0.000 C 
BRANCH   4   5
ATOM      5  C   UNL     1      -0.855   1.092  -0.137  1.00  0.00     0.000 C 
BRANCH   5   6
ATOM      6  C   UNL     1      -1.009   2.447  -0.860  1.00  0.00     0.006 C 
BRANCH   6   7
ATOM      7  C   UNL     1      -0.813   2.379  -2.382  1.00  0.00     0.053 C 
BRANCH   7   8
ATOM      8  C   UNL     1       0.446   3.067  -2.815  1.00  0.00     0.041 C 
ATOM      9  O   UNL     1       1.105   2.626  -3.793  1.00  0.00    -0.550 OA
ATOM     10  O   UNL     1       0.873   4.212  -2.156  1.00  0.00    -0.550 OA
ENDBRANCH   7   8
ENDBRANCH   6   7
ENDBRANCH   5   6
ENDBRANCH   4   5
ENDBRANCH   3   4
ENDBRANCH   2   3
ENDBRANCH   1   2
BRANCH   1  11
ATOM     11  C   UNL     1       0.732  -3.722  -0.925  1.00  0.00     0.000 C 
BRANCH  11  12
ATOM     12  C   UNL     1       0.333  -5.132  -0.454  1.00  0.00     0.000 C 
BRANCH  12  13
ATOM     13  C   UNL     1       0.139  -6.167  -1.581  1.00  0.00     0.000 C 
BRANCH  13  14
ATOM     14  C   UNL     1      -0.499  -7.498  -1.144  1.00  0.00     0.000 C 
BRANCH  14  15
ATOM     15  C   UNL     1       0.092  -8.712  -1.873  1.00  0.00     0.000 C 
BRANCH  15  16
ATOM     16  C   UNL     1       1.624  -8.652  -1.889  1.00  0.00     0.006 C 
BRANCH  16  17
ATOM     17  C   UNL     1       2.205  -9.670  -2.873  1.00  0.00     0.053 C 
BRANCH  17  18
ATOM     18  C   UNL     1       3.144  -9.001  -3.826  1.00  0.00     0.041 C 
ATOM     19  O   UNL     1       4.389  -9.086  -3.655  1.00  0.00    -0.550 OA
ATOM     20  O   UNL     1       2.644  -8.245  -4.879  1.00  0.00    -0.550 OA
ENDBRANCH  17  18
ENDBRANCH  16  17
ENDBRANCH  15  16
ENDBRANCH  14  15
ENDBRANCH  13  14
ENDBRANCH  12  13
ENDBRANCH  11  12
ENDBRANCH   1  11
TORSDOF 15
ENDMDL
MODEL 9
REMARK VINA RESULT:    -4.462      1.203      1.924
REMARK INTER + INTRA:          -8.830
REMARK INTER:                  -8.571
REMARK INTRA:                  -0.259
REMARK UNBOUND:                -0.456
REMARK SMILES O=C([O-])CCCCCCCCCCCCCCC(=O)[O-]
REMARK SMILES IDX 10 1 9 2 8 3 7 4 6 5 5 6 4 7 2 8 1 9 3 10 11 11 12 12 13 13
REMARK SMILES IDX 14 14 15 15 16 16 17 17 18 18 19 19 20 20
REMARK H PARENT
REMARK Flexibility Score: inf
ROOT
ATOM      1  C   UNL     1       0.610  -4.846  -0.413  1.00  0.00     0.000 C 
ENDROOT
BRANCH   1   2
ATOM      2  C   UNL     1       0.150  -5.683  -1.616  1.00  0.00     0.000 C 
BRANCH   2   3
ATOM      3  C   UNL     1      -0.069  -7.166  -1.264  1.00  0.00     0.000 C 
BRANCH   3   4
ATOM      4  C   UNL     1       0.912  -8.145  -1.938  1.00  0.00     0.000 C 
BRANCH   4   5
ATOM      5  C   UNL     1       1.193  -9.439  -1.148  1.00  0.00     0.000 C 
BRANCH   5   6
ATOM      6  C   UNL     1       0.339  -9.624   0.123  1.00  0.00     0.006 C 
BRANCH   6   7
ATOM      7  C   UNL     1      -1.088 -10.125  -0.140  1.00  0.00     0.053 C 
BRANCH   7   8
ATOM      8  C   UNL     1      -2.095  -9.427   0.724  1.00  0.00     0.041 C 
ATOM      9  O   UNL     1      -2.529  -8.291   0.400  1.00  0.00    -0.550 OA
ATOM     10  O   UNL     1      -2.573 -10.047   1.871  1.00  0.00    -0.550 OA
ENDBRANCH   7   8
ENDBRANCH   6   7
ENDBRANCH   5   6
ENDBRANCH   4   5
ENDBRANCH   3   4
ENDBRANCH   2   3
ENDBRANCH   1   2
BRANCH   1  11
ATOM     11  C   UNL     1       0.754  -3.366  -0.799  1.00  0.00     0.000 C 
BRANCH  11  12
ATOM     12  C   UNL     1       0.790  -2.431   0.423  1.00  0.00     0.000 C 
BRANCH  12  13
ATOM     13  C   UNL     1       0.119  -1.058   0.215  1.00  0.00     0.000 C 
BRANCH  13  14
ATOM     14  C   UNL     1       0.721   0.095   1.037  1.00  0.00     0.000 C 
BRANCH  14  15
ATOM     15  C   UNL     1      -0.153   1.358   1.025  1.00  0.00     0.000 C 
BRANCH  15  16
ATOM     16  C   UNL     1      -0.756   1.595  -0.364  1.00  0.00     0.006 C 
BRANCH  16  17
ATOM     17  C   UNL     1      -0.182   2.861  -1.005  1.00  0.00     0.053 C 
BRANCH  17  18
ATOM     18  C   UNL     1      -0.332   2.811  -2.492  1.00  0.00     0.041 C 
ATOM     19  O   UNL     1      -1.411   2.417  -3.009  1.00  0.00    -0.550 OA
ATOM     20  O   UNL     1       0.737   3.156  -3.311  1.00  0.00    -0.550 OA
ENDBRANCH  17  18
ENDBRANCH  16  17
ENDBRANCH  15  16
ENDBRANCH  14  15
ENDBRANCH  13  14
ENDBRANCH  12  13
ENDBRANCH  11  12
ENDBRANCH   1  11
TORSDOF 15
ENDMDL
