MODEL 1
REMARK VINA RESULT:    73.295      0.000      0.000
REMARK INTER + INTRA:         116.043
REMARK INTER:                 109.716
REMARK INTRA:                   6.327
REMARK UNBOUND:                 6.327
REMARK SMILES C[C@H]1O[C@H](O[C@@H]2CC[C@]3(C)[C@@H](CC[C@@]4(C)[C@@H]3C=C[C@@]35OC[C@]6(CCC(C)(C)C[C@H]63)[C@@H](O)C[C@@]45C)[C@]2(C)CO)[C@H](O)[C@H](O[C@H]2O[C@@H](CO)[C@@H](O)[C@@H](O)[C@@H]2O)[C@H]1O
REMARK SMILES IDX 1 1 2 2 54 3 41 4 39 5 4 6 3 7 55 8 42 10 43 11 52 12 44 13
REMARK SMILES IDX 50 14 45 15 48 16 53 17 51 19 46 21 47 22 49 24 5 26 6 27
REMARK SMILES IDX 7 28 35 29 8 30 11 31 36 32 9 33 12 34 10 35 16 36 13 37
REMARK SMILES IDX 14 38 17 39 15 40 33 41 18 42 19 43 32 44 34 45 29 46 20 47
REMARK SMILES IDX 30 48 22 49 28 50 21 51 23 52 25 53 24 54 26 55 27 56 37 57
REMARK SMILES IDX 38 58 31 60 40 62
REMARK H PARENT 55 9 53 18 51 20 47 23 49 25 38 59 31 61 40 63
REMARK Flexibility Score: inf
ROOT
ATOM      1  C   UNL     1      24.430  33.917  45.348  1.00  0.00     0.041 C 
ATOM      2  C   UNL     1      23.825  33.955  43.895  1.00  0.00     0.150 C 
ATOM      3  C   UNL     1      23.850  32.533  43.274  1.00  0.00     0.175 C 
ATOM      4  C   UNL     1      23.535  32.651  41.782  1.00  0.00     0.186 C 
ATOM      5  C   UNL     1      24.752  33.564  41.277  1.00  0.00     0.202 C 
ATOM      6  C   UNL     1      24.600  34.947  41.659  1.00  0.00     0.282 C 
ATOM      7  O   UNL     1      24.426  35.026  43.129  1.00  0.00    -0.344 OA
ENDROOT
BRANCH   3   8
ATOM      8  O   UNL     1      25.123  31.877  43.437  1.00  0.00    -0.388 OA
ATOM      9  H   UNL     1      25.769  32.615  43.485  1.00  0.00     0.211 HD
ENDBRANCH   3   8
BRANCH   4  10
ATOM     10  O   UNL     1      22.171  33.159  41.782  1.00  0.00    -0.341 OA
BRANCH  10  11
ATOM     11  C   UNL     1      21.252  32.576  40.855  1.00  0.00     0.282 C 
ATOM     12  C   UNL     1      21.262  33.044  39.314  1.00  0.00     0.202 C 
ATOM     13  O   UNL     1      19.999  32.287  41.484  1.00  0.00    -0.341 OA
ATOM     14  C   UNL     1      19.895  33.239  38.663  1.00  0.00     0.179 C 
ATOM     15  C   UNL     1      18.851  32.176  40.648  1.00  0.00     0.178 C 
ATOM     16  C   UNL     1      19.097  32.037  39.151  1.00  0.00     0.177 C 
BRANCH  12  17
ATOM     17  O   UNL     1      21.730  31.913  38.549  1.00  0.00    -0.385 OA
ATOM     18  H   UNL     1      22.605  31.980  38.050  1.00  0.00     0.211 HD
ENDBRANCH  12  17
BRANCH  14  19
ATOM     19  O   UNL     1      19.490  34.519  39.110  1.00  0.00    -0.387 OA
ATOM     20  H   UNL     1      19.446  35.089  38.270  1.00  0.00     0.211 HD
ENDBRANCH  14  19
BRANCH  15  21
ATOM     21  C   UNL     1      17.630  33.053  41.375  1.00  0.00     0.191 C 
BRANCH  21  22
ATOM     22  O   UNL     1      16.398  32.321  41.607  1.00  0.00    -0.394 OA
ATOM     23  H   UNL     1      16.909  31.400  41.581  1.00  0.00     0.210 HD
ENDBRANCH  21  22
ENDBRANCH  15  21
BRANCH  16  24
ATOM     24  O   UNL     1      17.873  31.920  38.396  1.00  0.00    -0.387 OA
ATOM     25  H   UNL     1      17.164  31.625  39.047  1.00  0.00     0.211 HD
ENDBRANCH  16  24
ENDBRANCH  10  11
ENDBRANCH   4  10
BRANCH   6  26
ATOM     26  O   UNL     1      23.462  35.505  40.904  1.00  0.00    -0.346 OA
BRANCH  26  27
ATOM     27  C   UNL     1      23.812  36.663  40.118  1.00  0.00     0.130 C 
ATOM     28  C   UNL     1      24.822  37.546  40.911  1.00  0.00     0.033 C 
ATOM     29  C   UNL     1      22.589  37.529  39.870  1.00  0.00     0.020 C 
ATOM     30  C   UNL     1      24.631  37.422  42.438  1.00  0.00     0.010 C 
ATOM     31  C   UNL     1      22.051  37.717  41.361  1.00  0.00     0.006 C 
ATOM     32  C   UNL     1      23.075  39.143  39.389  1.00  0.00     0.017 C 
ATOM     33  C   UNL     1      23.046  37.433  42.669  1.00  0.00    -0.022 C 
ATOM     34  C   UNL     1      21.182  39.054  41.480  1.00  0.00     0.005 C 
ATOM     35  C   UNL     1      22.758  35.998  43.410  1.00  0.00     0.012 C 
ATOM     36  C   UNL     1      22.618  38.414  43.782  1.00  0.00     0.024 C 
ATOM     37  C   UNL     1      20.495  39.311  42.894  1.00  0.00     0.008 C 
ATOM     38  C   UNL     1      21.025  38.369  44.066  1.00  0.00    -0.017 C 
ATOM     39  C   UNL     1      23.084  39.869  43.871  1.00  0.00    -0.024 C 
ATOM     40  C   UNL     1      20.121  37.122  43.839  1.00  0.00     0.013 C 
ATOM     41  C   UNL     1      20.893  38.821  45.568  1.00  0.00     0.009 C 
ATOM     42  C   UNL     1      22.537  40.705  44.820  1.00  0.00     0.005 C 
ATOM     43  C   UNL     1      21.406  40.338  45.803  1.00  0.00     0.096 C 
ATOM     44  C   UNL     1      19.387  38.592  46.013  1.00  0.00     0.043 C 
ATOM     45  C   UNL     1      21.764  37.927  46.574  1.00  0.00     0.015 C 
ATOM     46  C   UNL     1      20.119  41.238  45.804  1.00  0.00     0.037 C 
ATOM     47  O   UNL     1      21.899  40.509  47.153  1.00  0.00    -0.369 OA
ATOM     48  C   UNL     1      18.896  39.426  47.216  1.00  0.00     0.124 C 
ATOM     49  C   UNL     1      19.475  40.879  47.185  1.00  0.00     0.026 C 
ATOM     50  C   UNL     1      20.476  42.744  45.723  1.00  0.00     0.014 C 
ATOM     51  C   UNL     1      20.782  40.906  48.015  1.00  0.00     0.171 C 
ATOM     52  C   UNL     1      18.383  41.848  47.664  1.00  0.00     0.013 C 
ATOM     53  C   UNL     1      19.298  43.682  46.130  1.00  0.00    -0.035 C 
ATOM     54  C   UNL     1      18.741  43.307  47.513  1.00  0.00     0.007 C 
ATOM     55  C   UNL     1      18.185  43.685  45.091  1.00  0.00     0.011 C 
ATOM     56  C   UNL     1      19.829  45.134  46.281  1.00  0.00     0.011 C 
BRANCH  29  57
ATOM     57  C   UNL     1      21.696  36.356  38.877  1.00  0.00     0.165 C 
BRANCH  57  58
ATOM     58  O   UNL     1      20.413  36.812  38.328  1.00  0.00    -0.396 OA
ATOM     59  H   UNL     1      19.967  37.107  37.362  1.00  0.00     0.210 HD
ENDBRANCH  57  58
ENDBRANCH  29  57
BRANCH  48  60
ATOM     60  O   UNL     1      17.496  39.342  47.155  1.00  0.00    -0.392 OA
ATOM     61  H   UNL     1      17.214  39.796  46.286  1.00  0.00     0.210 HD
ENDBRANCH  48  60
ENDBRANCH  26  27
ENDBRANCH   6  26
BRANCH   5  62
ATOM     62  O   UNL     1      25.120  33.354  39.927  1.00  0.00    -0.385 OA
ATOM     63  H   UNL     1      24.453  32.733  39.480  1.00  0.00     0.211 HD
ENDBRANCH   5  62
TORSDOF 14
ENDMDL
MODEL 2
REMARK VINA RESULT:    74.887      1.594      2.055
REMARK INTER + INTRA:         118.426
REMARK INTER:                  99.222
REMARK INTRA:                  19.203
REMARK UNBOUND:                 6.327
REMARK SMILES C[C@H]1O[C@H](O[C@@H]2CC[C@]3(C)[C@@H](CC[C@@]4(C)[C@@H]3C=C[C@@]35OC[C@]6(CCC(C)(C)C[C@H]63)[C@@H](O)C[C@@]45C)[C@]2(C)CO)[C@H](O)[C@H](O[C@H]2O[C@@H](CO)[C@@H](O)[C@@H](O)[C@@H]2O)[C@H]1O
REMARK SMILES IDX 1 1 2 2 54 3 41 4 39 5 4 6 3 7 55 8 42 10 43 11 52 12 44 13
REMARK SMILES IDX 50 14 45 15 48 16 53 17 51 19 46 21 47 22 49 24 5 26 6 27
REMARK SMILES IDX 7 28 35 29 8 30 11 31 36 32 9 33 12 34 10 35 16 36 13 37
REMARK SMILES IDX 14 38 17 39 15 40 33 41 18 42 19 43 32 44 34 45 29 46 20 47
REMARK SMILES IDX 30 48 22 49 28 50 21 51 23 52 25 53 24 54 26 55 27 56 37 57
REMARK SMILES IDX 38 58 31 60 40 62
REMARK H PARENT 55 9 53 18 51 20 47 23 49 25 38 59 31 61 40 63
REMARK Flexibility Score: inf
ROOT
ATOM      1  C   UNL     1      19.821  33.557  42.617  1.00  0.00     0.041 C 
ATOM      2  C   UNL     1      20.916  33.925  41.546  1.00  0.00     0.150 C 
ATOM      3  C   UNL     1      21.705  32.651  41.140  1.00  0.00     0.175 C 
ATOM      4  C   UNL     1      22.934  33.081  40.335  1.00  0.00     0.186 C 
ATOM      5  C   UNL     1      23.717  33.973  41.413  1.00  0.00     0.202 C 
ATOM      6  C   UNL     1      23.104  35.263  41.612  1.00  0.00     0.282 C 
ATOM      7  O   UNL     1      21.683  35.070  41.986  1.00  0.00    -0.344 OA
ENDROOT
BRANCH   3   8
ATOM      8  O   UNL     1      22.134  31.875  42.275  1.00  0.00    -0.388 OA
ATOM      9  H   UNL     1      22.392  32.548  42.943  1.00  0.00     0.211 HD
ENDBRANCH   3   8
BRANCH   4  10
ATOM     10  O   UNL     1      22.344  33.688  39.151  1.00  0.00    -0.341 OA
BRANCH  10  11
ATOM     11  C   UNL     1      21.282  32.980  38.507  1.00  0.00     0.282 C 
ATOM     12  C   UNL     1      20.817  33.406  37.026  1.00  0.00     0.202 C 
ATOM     13  O   UNL     1      20.291  32.565  39.454  1.00  0.00    -0.341 OA
ATOM     14  C   UNL     1      19.312  33.425  36.775  1.00  0.00     0.179 C 
ATOM     15  C   UNL     1      18.980  32.301  38.962  1.00  0.00     0.178 C 
ATOM     16  C   UNL     1      18.824  32.153  37.455  1.00  0.00     0.177 C 
BRANCH  12  17
ATOM     17  O   UNL     1      21.189  32.317  36.154  1.00  0.00    -0.385 OA
ATOM     18  H   UNL     1      21.775  31.575  36.510  1.00  0.00     0.211 HD
ENDBRANCH  12  17
BRANCH  14  19
ATOM     19  O   UNL     1      18.896  34.661  37.324  1.00  0.00    -0.387 OA
ATOM     20  H   UNL     1      18.535  34.431  38.246  1.00  0.00     0.211 HD
ENDBRANCH  14  19
BRANCH  15  21
ATOM     21  C   UNL     1      17.909  33.050  40.001  1.00  0.00     0.191 C 
BRANCH  21  22
ATOM     22  O   UNL     1      16.550  33.172  39.505  1.00  0.00    -0.394 OA
ATOM     23  H   UNL     1      16.817  33.990  38.898  1.00  0.00     0.210 HD
ENDBRANCH  21  22
ENDBRANCH  15  21
BRANCH  16  24
ATOM     24  O   UNL     1      17.463  31.876  37.062  1.00  0.00    -0.387 OA
ATOM     25  H   UNL     1      17.489  31.022  36.530  1.00  0.00     0.211 HD
ENDBRANCH  16  24
ENDBRANCH  10  11
ENDBRANCH   4  10
BRANCH   6  26
ATOM     26  O   UNL     1      23.283  36.047  40.375  1.00  0.00    -0.346 OA
BRANCH  26  27
ATOM     27  C   UNL     1      24.390  36.970  40.440  1.00  0.00     0.130 C 
ATOM     28  C   UNL     1      25.099  36.838  41.820  1.00  0.00     0.033 C 
ATOM     29  C   UNL     1      23.896  38.403  40.347  1.00  0.00     0.020 C 
ATOM     30  C   UNL     1      24.127  36.399  42.936  1.00  0.00     0.010 C 
ATOM     31  C   UNL     1      22.790  38.411  41.498  1.00  0.00     0.006 C 
ATOM     32  C   UNL     1      25.124  39.509  40.932  1.00  0.00     0.017 C 
ATOM     33  C   UNL     1      22.787  37.240  42.685  1.00  0.00    -0.022 C 
ATOM     34  C   UNL     1      22.560  39.896  42.045  1.00  0.00     0.005 C 
ATOM     35  C   UNL     1      21.647  36.082  42.458  1.00  0.00     0.012 C 
ATOM     36  C   UNL     1      22.258  37.906  43.974  1.00  0.00     0.024 C 
ATOM     37  C   UNL     1      21.405  40.064  43.129  1.00  0.00     0.008 C 
ATOM     38  C   UNL     1      20.864  38.692  43.735  1.00  0.00    -0.017 C 
ATOM     39  C   UNL     1      23.120  38.731  44.932  1.00  0.00    -0.024 C 
ATOM     40  C   UNL     1      19.810  38.317  42.652  1.00  0.00     0.013 C 
ATOM     41  C   UNL     1      20.166  38.669  45.146  1.00  0.00     0.009 C 
ATOM     42  C   UNL     1      22.528  39.402  45.979  1.00  0.00     0.005 C 
ATOM     43  C   UNL     1      21.014  39.472  46.266  1.00  0.00     0.096 C 
ATOM     44  C   UNL     1      18.687  39.217  44.966  1.00  0.00     0.043 C 
ATOM     45  C   UNL     1      19.991  37.190  45.738  1.00  0.00     0.015 C 
ATOM     46  C   UNL     1      20.356  40.895  46.375  1.00  0.00     0.037 C 
ATOM     47  O   UNL     1      20.772  38.923  47.584  1.00  0.00    -0.369 OA
ATOM     48  C   UNL     1      18.009  39.780  46.233  1.00  0.00     0.124 C 
ATOM     49  C   UNL     1      19.019  40.575  47.124  1.00  0.00     0.026 C 
ATOM     50  C   UNL     1      21.240  41.871  47.191  1.00  0.00     0.014 C 
ATOM     51  C   UNL     1      19.618  39.607  48.173  1.00  0.00     0.171 C 
ATOM     52  C   UNL     1      18.295  41.797  47.709  1.00  0.00     0.013 C 
ATOM     53  C   UNL     1      20.475  43.140  47.677  1.00  0.00    -0.035 C 
ATOM     54  C   UNL     1      19.198  42.758  48.445  1.00  0.00     0.007 C 
ATOM     55  C   UNL     1      20.144  44.083  46.529  1.00  0.00     0.011 C 
ATOM     56  C   UNL     1      21.355  43.908  48.701  1.00  0.00     0.011 C 
BRANCH  29  57
ATOM     57  C   UNL     1      23.270  38.305  38.686  1.00  0.00     0.165 C 
BRANCH  57  58
ATOM     58  O   UNL     1      24.021  39.042  37.663  1.00  0.00    -0.396 OA
ATOM     59  H   UNL     1      24.100  39.115  36.564  1.00  0.00     0.210 HD
ENDBRANCH  57  58
ENDBRANCH  29  57
BRANCH  48  60
ATOM     60  O   UNL     1      16.924  40.529  45.749  1.00  0.00    -0.392 OA
ATOM     61  H   UNL     1      16.956  41.430  46.229  1.00  0.00     0.210 HD
ENDBRANCH  48  60
ENDBRANCH  26  27
ENDBRANCH   6  26
BRANCH   5  62
ATOM     62  O   UNL     1      25.121  33.998  41.241  1.00  0.00    -0.385 OA
ATOM     63  H   UNL     1      25.348  34.291  40.296  1.00  0.00     0.211 HD
ENDBRANCH   5  62
TORSDOF 14
ENDMDL
MODEL 3
REMARK VINA RESULT:    75.292      1.837      3.763
REMARK INTER + INTRA:         119.033
REMARK INTER:                 119.881
REMARK INTRA:                  -0.848
REMARK UNBOUND:                 6.327
REMARK SMILES C[C@H]1O[C@H](O[C@@H]2CC[C@]3(C)[C@@H](CC[C@@]4(C)[C@@H]3C=C[C@@]35OC[C@]6(CCC(C)(C)C[C@H]63)[C@@H](O)C[C@@]45C)[C@]2(C)CO)[C@H](O)[C@H](O[C@H]2O[C@@H](CO)[C@@H](O)[C@@H](O)[C@@H]2O)[C@H]1O
REMARK SMILES IDX 1 1 2 2 54 3 41 4 39 5 4 6 3 7 55 8 42 10 43 11 52 12 44 13
REMARK SMILES IDX 50 14 45 15 48 16 53 17 51 19 46 21 47 22 49 24 5 26 6 27
REMARK SMILES IDX 7 28 35 29 8 30 11 31 36 32 9 33 12 34 10 35 16 36 13 37
REMARK SMILES IDX 14 38 17 39 15 40 33 41 18 42 19 43 32 44 34 45 29 46 20 47
REMARK SMILES IDX 30 48 22 49 28 50 21 51 23 52 25 53 24 54 26 55 27 56 37 57
REMARK SMILES IDX 38 58 31 60 40 62
REMARK H PARENT 55 9 53 18 51 20 47 23 49 25 38 59 31 61 40 63
REMARK Flexibility Score: inf
ROOT
ATOM      1  C   UNL     1      24.040  32.439  38.188  1.00  0.00     0.041 C 
ATOM      2  C   UNL     1      23.115  33.420  39.002  1.00  0.00     0.150 C 
ATOM      3  C   UNL     1      21.649  33.293  38.510  1.00  0.00     0.175 C 
ATOM      4  C   UNL     1      20.839  34.448  39.103  1.00  0.00     0.186 C 
ATOM      5  C   UNL     1      21.592  35.715  38.473  1.00  0.00     0.202 C 
ATOM      6  C   UNL     1      22.863  35.971  39.105  1.00  0.00     0.282 C 
ATOM      7  O   UNL     1      23.694  34.746  39.034  1.00  0.00    -0.344 OA
ENDROOT
BRANCH   3   8
ATOM      8  O   UNL     1      21.538  33.329  37.074  1.00  0.00    -0.388 OA
ATOM      9  H   UNL     1      22.351  33.798  36.782  1.00  0.00     0.211 HD
ENDBRANCH   3   8
BRANCH   4  10
ATOM     10  O   UNL     1      20.898  34.179  40.532  1.00  0.00    -0.341 OA
BRANCH  10  11
ATOM     11  C   UNL     1      19.681  33.807  41.183  1.00  0.00     0.282 C 
ATOM     12  C   UNL     1      19.281  32.251  41.307  1.00  0.00     0.202 C 
ATOM     13  O   UNL     1      18.651  34.770  40.941  1.00  0.00    -0.341 OA
ATOM     14  C   UNL     1      17.815  31.913  41.054  1.00  0.00     0.179 C 
ATOM     15  C   UNL     1      17.299  34.340  41.080  1.00  0.00     0.178 C 
ATOM     16  C   UNL     1      17.066  33.015  41.792  1.00  0.00     0.177 C 
BRANCH  12  17
ATOM     17  O   UNL     1      19.362  31.922  42.711  1.00  0.00    -0.385 OA
ATOM     18  H   UNL     1      19.528  30.964  42.986  1.00  0.00     0.211 HD
ENDBRANCH  12  17
BRANCH  14  19
ATOM     19  O   UNL     1      17.715  31.886  39.643  1.00  0.00    -0.387 OA
ATOM     20  H   UNL     1      18.246  31.068  39.357  1.00  0.00     0.211 HD
ENDBRANCH  14  19
BRANCH  15  21
ATOM     21  C   UNL     1      16.465  34.913  39.752  1.00  0.00     0.191 C 
BRANCH  21  22
ATOM     22  O   UNL     1      16.185  36.337  39.766  1.00  0.00    -0.394 OA
ATOM     23  H   UNL     1      17.163  36.559  39.445  1.00  0.00     0.210 HD
ENDBRANCH  21  22
ENDBRANCH  15  21
BRANCH  16  24
ATOM     24  O   UNL     1      15.667  32.677  41.891  1.00  0.00    -0.387 OA
ATOM     25  H   UNL     1      15.164  33.397  41.399  1.00  0.00     0.211 HD
ENDBRANCH  16  24
ENDBRANCH  10  11
ENDBRANCH   4  10
BRANCH   6  26
ATOM     26  O   UNL     1      22.602  36.423  40.484  1.00  0.00    -0.346 OA
BRANCH  26  27
ATOM     27  C   UNL     1      23.589  35.962  41.431  1.00  0.00     0.130 C 
ATOM     28  C   UNL     1      22.883  35.204  42.595  1.00  0.00     0.033 C 
ATOM     29  C   UNL     1      24.313  37.138  42.063  1.00  0.00     0.020 C 
ATOM     30  C   UNL     1      21.455  35.730  42.851  1.00  0.00     0.010 C 
ATOM     31  C   UNL     1      23.075  38.010  42.570  1.00  0.00     0.006 C 
ATOM     32  C   UNL     1      25.112  36.638  43.540  1.00  0.00     0.017 C 
ATOM     33  C   UNL     1      21.565  37.325  42.747  1.00  0.00    -0.022 C 
ATOM     34  C   UNL     1      23.513  38.949  43.788  1.00  0.00     0.005 C 
ATOM     35  C   UNL     1      20.531  37.701  41.530  1.00  0.00     0.012 C 
ATOM     36  C   UNL     1      20.880  38.043  43.929  1.00  0.00     0.024 C 
ATOM     37  C   UNL     1      22.397  39.951  44.326  1.00  0.00     0.008 C 
ATOM     38  C   UNL     1      20.927  39.654  43.785  1.00  0.00    -0.017 C 
ATOM     39  C   UNL     1      21.104  37.683  45.400  1.00  0.00    -0.024 C 
ATOM     40  C   UNL     1      20.979  40.420  42.430  1.00  0.00     0.013 C 
ATOM     41  C   UNL     1      19.669  40.147  44.594  1.00  0.00     0.009 C 
ATOM     42  C   UNL     1      20.557  38.472  46.388  1.00  0.00     0.005 C 
ATOM     43  C   UNL     1      19.765  39.777  46.166  1.00  0.00     0.096 C 
ATOM     44  C   UNL     1      19.496  41.701  44.323  1.00  0.00     0.043 C 
ATOM     45  C   UNL     1      18.299  39.483  44.093  1.00  0.00     0.015 C 
ATOM     46  C   UNL     1      20.277  41.075  46.889  1.00  0.00     0.037 C 
ATOM     47  O   UNL     1      18.443  39.613  46.735  1.00  0.00    -0.369 OA
ATOM     48  C   UNL     1      18.700  42.494  45.382  1.00  0.00     0.124 C 
ATOM     49  C   UNL     1      19.012  41.996  46.832  1.00  0.00     0.026 C 
ATOM     50  C   UNL     1      20.697  40.784  48.352  1.00  0.00     0.014 C 
ATOM     51  C   UNL     1      17.973  40.915  47.216  1.00  0.00     0.171 C 
ATOM     52  C   UNL     1      19.055  43.215  47.765  1.00  0.00     0.013 C 
ATOM     53  C   UNL     1      20.817  42.069  49.227  1.00  0.00    -0.035 C 
ATOM     54  C   UNL     1      19.528  42.906  49.166  1.00  0.00     0.007 C 
ATOM     55  C   UNL     1      22.021  42.916  48.839  1.00  0.00     0.011 C 
ATOM     56  C   UNL     1      20.969  41.660  50.718  1.00  0.00     0.011 C 
BRANCH  29  57
ATOM     57  C   UNL     1      25.103  37.722  40.581  1.00  0.00     0.165 C 
BRANCH  57  58
ATOM     58  O   UNL     1      24.801  39.103  40.184  1.00  0.00    -0.396 OA
ATOM     59  H   UNL     1      25.297  40.087  40.113  1.00  0.00     0.210 HD
ENDBRANCH  57  58
ENDBRANCH  29  57
BRANCH  48  60
ATOM     60  O   UNL     1      19.020  43.837  45.131  1.00  0.00    -0.392 OA
ATOM     61  H   UNL     1      18.353  44.399  45.662  1.00  0.00     0.210 HD
ENDBRANCH  48  60
ENDBRANCH  26  27
ENDBRANCH   6  26
BRANCH   5  62
ATOM     62  O   UNL     1      20.772  36.854  38.296  1.00  0.00    -0.385 OA
ATOM     63  H   UNL     1      20.569  37.277  39.196  1.00  0.00     0.211 HD
ENDBRANCH   5  62
TORSDOF 14
ENDMDL
MODEL 4
REMARK VINA RESULT:    75.545      1.816      4.227
REMARK INTER + INTRA:         119.411
REMARK INTER:                 108.945
REMARK INTRA:                  10.466
REMARK UNBOUND:                 6.327
REMARK SMILES C[C@H]1O[C@H](O[C@@H]2CC[C@]3(C)[C@@H](CC[C@@]4(C)[C@@H]3C=C[C@@]35OC[C@]6(CCC(C)(C)C[C@H]63)[C@@H](O)C[C@@]45C)[C@]2(C)CO)[C@H](O)[C@H](O[C@H]2O[C@@H](CO)[C@@H](O)[C@@H](O)[C@@H]2O)[C@H]1O
REMARK SMILES IDX 1 1 2 2 54 3 41 4 39 5 4 6 3 7 55 8 42 10 43 11 52 12 44 13
REMARK SMILES IDX 50 14 45 15 48 16 53 17 51 19 46 21 47 22 49 24 5 26 6 27
REMARK SMILES IDX 7 28 35 29 8 30 11 31 36 32 9 33 12 34 10 35 16 36 13 37
REMARK SMILES IDX 14 38 17 39 15 40 33 41 18 42 19 43 32 44 34 45 29 46 20 47
REMARK SMILES IDX 30 48 22 49 28 50 21 51 23 52 25 53 24 54 26 55 27 56 37 57
REMARK SMILES IDX 38 58 31 60 40 62
REMARK H PARENT 55 9 53 18 51 20 47 23 49 25 38 59 31 61 40 63
REMARK Flexibility Score: inf
ROOT
ATOM      1  C   UNL     1      18.757  33.078  38.465  1.00  0.00     0.041 C 
ATOM      2  C   UNL     1      20.172  33.619  38.896  1.00  0.00     0.150 C 
ATOM      3  C   UNL     1      21.227  33.254  37.818  1.00  0.00     0.175 C 
ATOM      4  C   UNL     1      22.619  33.529  38.393  1.00  0.00     0.186 C 
ATOM      5  C   UNL     1      22.644  32.525  39.643  1.00  0.00     0.202 C 
ATOM      6  C   UNL     1      21.839  32.995  40.744  1.00  0.00     0.282 C 
ATOM      7  O   UNL     1      20.458  33.240  40.263  1.00  0.00    -0.344 OA
ENDROOT
BRANCH   3   8
ATOM      8  O   UNL     1      21.151  31.876  37.407  1.00  0.00    -0.388 OA
ATOM      9  H   UNL     1      20.624  31.443  38.115  1.00  0.00     0.211 HD
ENDBRANCH   3   8
BRANCH   4  10
ATOM     10  O   UNL     1      22.604  34.970  38.593  1.00  0.00    -0.341 OA
BRANCH  10  11
ATOM     11  C   UNL     1      21.563  35.713  37.953  1.00  0.00     0.282 C 
ATOM     12  C   UNL     1      20.485  36.511  38.844  1.00  0.00     0.202 C 
ATOM     13  O   UNL     1      21.129  35.063  36.754  1.00  0.00    -0.341 OA
ATOM     14  C   UNL     1      19.035  36.428  38.376  1.00  0.00     0.179 C 
ATOM     15  C   UNL     1      19.823  35.372  36.273  1.00  0.00     0.178 C 
ATOM     16  C   UNL     1      19.140  36.597  36.866  1.00  0.00     0.177 C 
BRANCH  12  17
ATOM     17  O   UNL     1      20.728  37.916  38.613  1.00  0.00    -0.385 OA
ATOM     18  H   UNL     1      21.173  38.206  37.754  1.00  0.00     0.211 HD
ENDBRANCH  12  17
BRANCH  14  19
ATOM     19  O   UNL     1      18.596  35.174  38.864  1.00  0.00    -0.387 OA
ATOM     20  H   UNL     1      17.591  35.170  38.713  1.00  0.00     0.211 HD
ENDBRANCH  14  19
BRANCH  15  21
ATOM     21  C   UNL     1      19.093  33.924  35.876  1.00  0.00     0.191 C 
BRANCH  21  22
ATOM     22  O   UNL     1      17.813  33.682  36.516  1.00  0.00    -0.394 OA
ATOM     23  H   UNL     1      17.775  32.703  36.130  1.00  0.00     0.210 HD
ENDBRANCH  21  22
ENDBRANCH  15  21
BRANCH  16  24
ATOM     24  O   UNL     1      17.832  36.829  36.304  1.00  0.00    -0.387 OA
ATOM     25  H   UNL     1      17.430  37.591  36.824  1.00  0.00     0.211 HD
ENDBRANCH  16  24
ENDBRANCH  10  11
ENDBRANCH   4  10
BRANCH   6  26
ATOM     26  O   UNL     1      22.487  34.197  41.301  1.00  0.00    -0.346 OA
BRANCH  26  27
ATOM     27  C   UNL     1      23.363  33.910  42.411  1.00  0.00     0.130 C 
ATOM     28  C   UNL     1      22.514  33.583  43.675  1.00  0.00     0.033 C 
ATOM     29  C   UNL     1      24.199  35.129  42.760  1.00  0.00     0.020 C 
ATOM     30  C   UNL     1      21.153  34.311  43.668  1.00  0.00     0.010 C 
ATOM     31  C   UNL     1      23.059  36.236  42.917  1.00  0.00     0.006 C 
ATOM     32  C   UNL     1      24.861  34.970  44.376  1.00  0.00     0.017 C 
ATOM     33  C   UNL     1      21.469  35.794  43.150  1.00  0.00    -0.022 C 
ATOM     34  C   UNL     1      23.555  37.420  43.870  1.00  0.00     0.005 C 
ATOM     35  C   UNL     1      20.547  35.931  41.800  1.00  0.00     0.012 C 
ATOM     36  C   UNL     1      20.826  36.880  44.040  1.00  0.00     0.024 C 
ATOM     37  C   UNL     1      22.551  38.647  44.030  1.00  0.00     0.008 C 
ATOM     38  C   UNL     1      21.082  38.374  43.474  1.00  0.00    -0.017 C 
ATOM     39  C   UNL     1      20.934  36.916  45.567  1.00  0.00    -0.024 C 
ATOM     40  C   UNL     1      21.293  38.727  41.973  1.00  0.00     0.013 C 
ATOM     41  C   UNL     1      19.860  39.203  44.020  1.00  0.00     0.009 C 
ATOM     42  C   UNL     1      20.446  38.001  46.261  1.00  0.00     0.005 C 
ATOM     43  C   UNL     1      19.836  39.272  45.637  1.00  0.00     0.096 C 
ATOM     44  C   UNL     1      19.897  40.633  43.331  1.00  0.00     0.043 C 
ATOM     45  C   UNL     1      18.442  38.581  43.609  1.00  0.00     0.015 C 
ATOM     46  C   UNL     1      20.473  40.655  46.024  1.00  0.00     0.037 C 
ATOM     47  O   UNL     1      18.479  39.416  46.123  1.00  0.00    -0.369 OA
ATOM     48  C   UNL     1      19.159  41.767  44.073  1.00  0.00     0.124 C 
ATOM     49  C   UNL     1      19.339  41.657  45.623  1.00  0.00     0.026 C 
ATOM     50  C   UNL     1      20.785  40.734  47.540  1.00  0.00     0.014 C 
ATOM     51  C   UNL     1      18.156  40.842  46.200  1.00  0.00     0.171 C 
ATOM     52  C   UNL     1      19.492  43.074  46.197  1.00  0.00     0.013 C 
ATOM     53  C   UNL     1      21.026  42.189  48.047  1.00  0.00    -0.035 C 
ATOM     54  C   UNL     1      19.857  43.112  47.662  1.00  0.00     0.007 C 
ATOM     55  C   UNL     1      22.343  42.760  47.542  1.00  0.00     0.011 C 
ATOM     56  C   UNL     1      21.056  42.192  49.600  1.00  0.00     0.011 C 
BRANCH  29  57
ATOM     57  C   UNL     1      25.125  35.194  41.243  1.00  0.00     0.165 C 
BRANCH  57  58
ATOM     58  O   UNL     1      25.026  36.440  40.474  1.00  0.00    -0.396 OA
ATOM     59  H   UNL     1      24.288  37.224  40.231  1.00  0.00     0.210 HD
ENDBRANCH  57  58
ENDBRANCH  29  57
BRANCH  48  60
ATOM     60  O   UNL     1      19.657  42.947  43.499  1.00  0.00    -0.392 OA
ATOM     61  H   UNL     1      20.544  42.704  43.056  1.00  0.00     0.210 HD
ENDBRANCH  48  60
ENDBRANCH  26  27
ENDBRANCH   6  26
BRANCH   5  62
ATOM     62  O   UNL     1      23.934  32.067  39.999  1.00  0.00    -0.385 OA
ATOM     63  H   UNL     1      24.003  31.068  39.838  1.00  0.00     0.211 HD
ENDBRANCH   5  62
TORSDOF 14
ENDMDL
