MODEL 1
REMARK VINA RESULT:    -5.243      0.000      0.000
REMARK INTER + INTRA:          -8.315
REMARK INTER:                  -7.083
REMARK INTRA:                  -1.233
REMARK UNBOUND:                -1.233
REMARK SMILES CC(=O)CCC=C(C)CCC=C(C)C
REMARK SMILES IDX 7 1 6 2 8 3 9 4 10 5 11 6 13 7 12 8 14 9 5 10 4 11 2 12 3 13
REMARK SMILES IDX 1 14
REMARK H PARENT
REMARK Flexibility Score: inf
ROOT
ATOM      1  C   UNL     1      -2.969 -13.820  -8.390  1.00  0.00    -0.077 C 
ATOM      2  C   UNL     1      -2.234 -13.984  -7.264  1.00  0.00    -0.028 C 
ATOM      3  C   UNL     1      -2.849 -12.509  -9.125  1.00  0.00     0.039 C 
ENDROOT
BRANCH   1   4
ATOM      4  C   UNL     1      -3.908 -14.879  -8.937  1.00  0.00     0.034 C 
BRANCH   4   5
ATOM      5  C   UNL     1      -5.370 -14.425  -8.852  1.00  0.00     0.032 C 
BRANCH   5   6
ATOM      6  C   UNL     1      -5.733 -14.024  -7.445  1.00  0.00    -0.028 C 
ATOM      7  C   UNL     1      -5.986 -11.597  -8.018  1.00  0.00     0.039 C 
ATOM      8  C   UNL     1      -6.025 -12.762  -7.056  1.00  0.00    -0.080 C 
ATOM      9  C   UNL     1      -6.381 -12.521  -5.612  1.00  0.00     0.039 C 
ENDBRANCH   5   6
ENDBRANCH   4   5
ENDBRANCH   1   4
BRANCH   2  10
ATOM     10  C   UNL     1      -2.203 -15.227  -6.401  1.00  0.00     0.035 C 
BRANCH  10  11
ATOM     11  C   UNL     1      -3.221 -15.133  -5.259  1.00  0.00     0.079 C 
BRANCH  11  12
ATOM     12  C   UNL     1      -4.049 -16.388  -5.140  1.00  0.00     0.130 C 
ATOM     13  O   UNL     1      -4.874 -16.484  -4.244  1.00  0.00    -0.300 OA
ATOM     14  C   UNL     1      -3.886 -17.524  -6.107  1.00  0.00     0.087 C 
ENDBRANCH  11  12
ENDBRANCH  10  11
ENDBRANCH   2  10
TORSDOF 6
ENDMDL
MODEL 2
REMARK VINA RESULT:    -4.802      2.034      4.668
REMARK INTER + INTRA:          -7.719
REMARK INTER:                  -6.791
REMARK INTRA:                  -0.927
REMARK UNBOUND:                -1.233
REMARK SMILES CC(=O)CCC=C(C)CCC=C(C)C
REMARK SMILES IDX 7 1 6 2 8 3 9 4 10 5 11 6 13 7 12 8 14 9 5 10 4 11 2 12 3 13
REMARK SMILES IDX 1 14
REMARK H PARENT
REMARK Flexibility Score: inf
ROOT
ATOM      1  C   UNL     1      -3.168 -14.314  -8.407  1.00  0.00    -0.077 C 
ATOM      2  C   UNL     1      -4.276 -14.627  -9.121  1.00  0.00    -0.028 C 
ATOM      3  C   UNL     1      -1.840 -14.343  -9.120  1.00  0.00     0.039 C 
ENDROOT
BRANCH   1   4
ATOM      4  C   UNL     1      -3.198 -13.948  -6.935  1.00  0.00     0.034 C 
BRANCH   4   5
ATOM      5  C   UNL     1      -2.291 -14.872  -6.113  1.00  0.00     0.032 C 
BRANCH   5   6
ATOM      6  C   UNL     1      -2.657 -16.320  -6.324  1.00  0.00    -0.028 C 
ATOM      7  C   UNL     1      -4.643 -16.219  -4.797  1.00  0.00     0.039 C 
ATOM      8  C   UNL     1      -3.715 -16.937  -5.751  1.00  0.00    -0.080 C 
ATOM      9  C   UNL     1      -3.956 -18.390  -6.068  1.00  0.00     0.039 C 
ENDBRANCH   5   6
ENDBRANCH   4   5
ENDBRANCH   1   4
BRANCH   2  10
ATOM     10  C   UNL     1      -5.694 -14.637  -8.593  1.00  0.00     0.035 C 
BRANCH  10  11
ATOM     11  C   UNL     1      -6.424 -13.335  -8.942  1.00  0.00     0.079 C 
BRANCH  11  12
ATOM     12  C   UNL     1      -5.988 -12.193  -8.060  1.00  0.00     0.130 C 
ATOM     13  O   UNL     1      -5.307 -11.295  -8.531  1.00  0.00    -0.300 OA
ATOM     14  C   UNL     1      -6.379 -12.132  -6.613  1.00  0.00     0.087 C 
ENDBRANCH  11  12
ENDBRANCH  10  11
ENDBRANCH   2  10
TORSDOF 6
ENDMDL
MODEL 3
REMARK VINA RESULT:    -4.594      1.908      4.503
REMARK INTER + INTRA:          -7.438
REMARK INTER:                  -6.281
REMARK INTRA:                  -1.157
REMARK UNBOUND:                -1.233
REMARK SMILES CC(=O)CCC=C(C)CCC=C(C)C
REMARK SMILES IDX 7 1 6 2 8 3 9 4 10 5 11 6 13 7 12 8 14 9 5 10 4 11 2 12 3 13
REMARK SMILES IDX 1 14
REMARK H PARENT
REMARK Flexibility Score: inf
ROOT
ATOM      1  C   UNL     1      -2.728 -13.964  -7.717  1.00  0.00    -0.077 C 
ATOM      2  C   UNL     1      -2.921 -12.647  -7.969  1.00  0.00    -0.028 C 
ATOM      3  C   UNL     1      -1.894 -14.337  -6.518  1.00  0.00     0.039 C 
ENDROOT
BRANCH   1   4
ATOM      4  C   UNL     1      -3.300 -15.072  -8.582  1.00  0.00     0.034 C 
BRANCH   4   5
ATOM      5  C   UNL     1      -4.488 -15.757  -7.896  1.00  0.00     0.032 C 
BRANCH   5   6
ATOM      6  C   UNL     1      -4.099 -17.111  -7.360  1.00  0.00    -0.028 C 
ATOM      7  C   UNL     1      -4.431 -16.450  -4.964  1.00  0.00     0.039 C 
ATOM      8  C   UNL     1      -4.080 -17.443  -6.049  1.00  0.00    -0.080 C 
ATOM      9  C   UNL     1      -3.678 -18.845  -5.669  1.00  0.00     0.039 C 
ENDBRANCH   5   6
ENDBRANCH   4   5
ENDBRANCH   1   4
BRANCH   2  10
ATOM     10  C   UNL     1      -3.739 -12.074  -9.106  1.00  0.00     0.035 C 
BRANCH  10  11
ATOM     11  C   UNL     1      -4.990 -11.359  -8.583  1.00  0.00     0.079 C 
BRANCH  11  12
ATOM     12  C   UNL     1      -6.003 -12.330  -8.032  1.00  0.00     0.130 C 
ATOM     13  O   UNL     1      -6.613 -13.064  -8.795  1.00  0.00    -0.300 OA
ATOM     14  C   UNL     1      -6.274 -12.421  -6.559  1.00  0.00     0.087 C 
ENDBRANCH  11  12
ENDBRANCH  10  11
ENDBRANCH   2  10
TORSDOF 6
ENDMDL
MODEL 4
REMARK VINA RESULT:    -4.192      1.616      4.147
REMARK INTER + INTRA:          -6.895
REMARK INTER:                  -6.111
REMARK INTRA:                  -0.784
REMARK UNBOUND:                -1.233
REMARK SMILES CC(=O)CCC=C(C)CCC=C(C)C
REMARK SMILES IDX 7 1 6 2 8 3 9 4 10 5 11 6 13 7 12 8 14 9 5 10 4 11 2 12 3 13
REMARK SMILES IDX 1 14
REMARK H PARENT
REMARK Flexibility Score: inf
ROOT
ATOM      1  C   UNL     1      -2.652 -13.277  -8.302  1.00  0.00    -0.077 C 
ATOM      2  C   UNL     1      -3.401 -12.360  -8.960  1.00  0.00    -0.028 C 
ATOM      3  C   UNL     1      -1.915 -14.304  -9.123  1.00  0.00     0.039 C 
ENDROOT
BRANCH   1   4
ATOM      4  C   UNL     1      -2.528 -13.325  -6.791  1.00  0.00     0.034 C 
BRANCH   4   5
ATOM      5  C   UNL     1      -1.941 -14.662  -6.323  1.00  0.00     0.032 C 
BRANCH   5   6
ATOM      6  C   UNL     1      -2.907 -15.395  -5.426  1.00  0.00    -0.028 C 
ATOM      7  C   UNL     1      -4.148 -16.448  -7.333  1.00  0.00     0.039 C 
ATOM      8  C   UNL     1      -3.894 -16.209  -5.862  1.00  0.00    -0.080 C 
ATOM      9  C   UNL     1      -4.774 -16.881  -4.839  1.00  0.00     0.039 C 
ENDBRANCH   5   6
ENDBRANCH   4   5
ENDBRANCH   1   4
BRANCH   2  10
ATOM     10  C   UNL     1      -4.196 -11.243  -8.319  1.00  0.00     0.035 C 
BRANCH  10  11
ATOM     11  C   UNL     1      -5.699 -11.544  -8.350  1.00  0.00     0.079 C 
BRANCH  11  12
ATOM     12  C   UNL     1      -5.989 -12.987  -8.021  1.00  0.00     0.130 C 
ATOM     13  O   UNL     1      -5.960 -13.358  -6.858  1.00  0.00    -0.300 OA
ATOM     14  C   UNL     1      -6.322 -13.980  -9.096  1.00  0.00     0.087 C 
ENDBRANCH  11  12
ENDBRANCH  10  11
ENDBRANCH   2  10
TORSDOF 6
ENDMDL
MODEL 5
REMARK VINA RESULT:    -4.176      1.326      4.063
REMARK INTER + INTRA:          -6.873
REMARK INTER:                  -6.288
REMARK INTRA:                  -0.585
REMARK UNBOUND:                -1.233
REMARK SMILES CC(=O)CCC=C(C)CCC=C(C)C
REMARK SMILES IDX 7 1 6 2 8 3 9 4 10 5 11 6 13 7 12 8 14 9 5 10 4 11 2 12 3 13
REMARK SMILES IDX 1 14
REMARK H PARENT
REMARK Flexibility Score: inf
ROOT
ATOM      1  C   UNL     1      -3.609 -11.848  -8.573  1.00  0.00    -0.077 C 
ATOM      2  C   UNL     1      -4.918 -11.607  -8.319  1.00  0.00    -0.028 C 
ATOM      3  C   UNL     1      -2.623 -10.741  -8.299  1.00  0.00     0.039 C 
ENDROOT
BRANCH   1   4
ATOM      4  C   UNL     1      -3.094 -13.165  -9.124  1.00  0.00     0.034 C 
BRANCH   4   5
ATOM      5  C   UNL     1      -2.353 -13.967  -8.047  1.00  0.00     0.032 C 
BRANCH   5   6
ATOM      6  C   UNL     1      -3.086 -15.243  -7.721  1.00  0.00    -0.028 C 
ATOM      7  C   UNL     1      -2.146 -15.393  -5.402  1.00  0.00     0.039 C 
ATOM      8  C   UNL     1      -3.014 -15.890  -6.535  1.00  0.00    -0.080 C 
ATOM      9  C   UNL     1      -3.816 -17.153  -6.357  1.00  0.00     0.039 C 
ENDBRANCH   5   6
ENDBRANCH   4   5
ENDBRANCH   1   4
BRANCH   2  10
ATOM     10  C   UNL     1      -6.051 -12.591  -8.510  1.00  0.00     0.035 C 
BRANCH  10  11
ATOM     11  C   UNL     1      -5.994 -13.712  -7.465  1.00  0.00     0.079 C 
BRANCH  11  12
ATOM     12  C   UNL     1      -5.875 -13.169  -6.064  1.00  0.00     0.130 C 
ATOM     13  O   UNL     1      -4.954 -13.537  -5.351  1.00  0.00    -0.300 OA
ATOM     14  C   UNL     1      -6.863 -12.176  -5.526  1.00  0.00     0.087 C 
ENDBRANCH  11  12
ENDBRANCH  10  11
ENDBRANCH   2  10
TORSDOF 6
ENDMDL
MODEL 6
REMARK VINA RESULT:    -3.975      1.234      2.237
REMARK INTER + INTRA:          -6.601
REMARK INTER:                  -5.866
REMARK INTRA:                  -0.736
REMARK UNBOUND:                -1.233
REMARK SMILES CC(=O)CCC=C(C)CCC=C(C)C
REMARK SMILES IDX 7 1 6 2 8 3 9 4 10 5 11 6 13 7 12 8 14 9 5 10 4 11 2 12 3 13
REMARK SMILES IDX 1 14
REMARK H PARENT
REMARK Flexibility Score: inf
ROOT
ATOM      1  C   UNL     1      -2.571 -14.348  -8.041  1.00  0.00    -0.077 C 
ATOM      2  C   UNL     1      -3.356 -15.437  -8.221  1.00  0.00    -0.028 C 
ATOM      3  C   UNL     1      -1.580 -14.007  -9.125  1.00  0.00     0.039 C 
ENDROOT
BRANCH   1   4
ATOM      4  C   UNL     1      -2.632 -13.468  -6.806  1.00  0.00     0.034 C 
BRANCH   4   5
ATOM      5  C   UNL     1      -3.177 -12.075  -7.142  1.00  0.00     0.032 C 
BRANCH   5   6
ATOM      6  C   UNL     1      -4.396 -12.167  -8.025  1.00  0.00    -0.028 C 
ATOM      7  C   UNL     1      -5.932 -12.760  -6.134  1.00  0.00     0.039 C 
ATOM      8  C   UNL     1      -5.641 -12.461  -7.587  1.00  0.00    -0.080 C 
ATOM      9  C   UNL     1      -6.763 -12.505  -8.593  1.00  0.00     0.039 C 
ENDBRANCH   5   6
ENDBRANCH   4   5
ENDBRANCH   1   4
BRANCH   2  10
ATOM     10  C   UNL     1      -4.417 -15.930  -7.262  1.00  0.00     0.035 C 
BRANCH  10  11
ATOM     11  C   UNL     1      -3.806 -16.805  -6.161  1.00  0.00     0.079 C 
BRANCH  11  12
ATOM     12  C   UNL     1      -4.023 -16.216  -4.791  1.00  0.00     0.130 C 
ATOM     13  O   UNL     1      -4.968 -16.594  -4.115  1.00  0.00    -0.300 OA
ATOM     14  C   UNL     1      -3.095 -15.177  -4.233  1.00  0.00     0.087 C 
ENDBRANCH  11  12
ENDBRANCH  10  11
ENDBRANCH   2  10
TORSDOF 6
ENDMDL
MODEL 7
REMARK VINA RESULT:    -3.922      1.959      4.112
REMARK INTER + INTRA:          -6.531
REMARK INTER:                  -5.787
REMARK INTRA:                  -0.744
REMARK UNBOUND:                -1.233
REMARK SMILES CC(=O)CCC=C(C)CCC=C(C)C
REMARK SMILES IDX 7 1 6 2 8 3 9 4 10 5 11 6 13 7 12 8 14 9 5 10 4 11 2 12 3 13
REMARK SMILES IDX 1 14
REMARK H PARENT
REMARK Flexibility Score: inf
ROOT
ATOM      1  C   UNL     1      -3.366 -13.940  -9.101  1.00  0.00    -0.077 C 
ATOM      2  C   UNL     1      -3.373 -12.586  -9.125  1.00  0.00    -0.028 C 
ATOM      3  C   UNL     1      -2.030 -14.638  -9.125  1.00  0.00     0.039 C 
ENDROOT
BRANCH   1   4
ATOM      4  C   UNL     1      -4.629 -14.781  -9.063  1.00  0.00     0.034 C 
BRANCH   4   5
ATOM      5  C   UNL     1      -4.980 -15.191  -7.627  1.00  0.00     0.032 C 
BRANCH   5   6
ATOM      6  C   UNL     1      -3.810 -15.858  -6.951  1.00  0.00    -0.028 C 
ATOM      7  C   UNL     1      -3.405 -13.947  -5.380  1.00  0.00     0.039 C 
ATOM      8  C   UNL     1      -3.100 -15.320  -5.933  1.00  0.00    -0.080 C 
ATOM      9  C   UNL     1      -1.961 -16.117  -5.353  1.00  0.00     0.039 C 
ENDBRANCH   5   6
ENDBRANCH   4   5
ENDBRANCH   1   4
BRANCH   2  10
ATOM     10  C   UNL     1      -4.604 -11.706  -9.089  1.00  0.00     0.035 C 
BRANCH  10  11
ATOM     11  C   UNL     1      -4.998 -11.364  -7.647  1.00  0.00     0.079 C 
BRANCH  11  12
ATOM     12  C   UNL     1      -6.261 -12.073  -7.227  1.00  0.00     0.130 C 
ATOM     13  O   UNL     1      -7.074 -12.408  -8.075  1.00  0.00    -0.300 OA
ATOM     14  C   UNL     1      -6.538 -12.383  -5.786  1.00  0.00     0.087 C 
ENDBRANCH  11  12
ENDBRANCH  10  11
ENDBRANCH   2  10
TORSDOF 6
ENDMDL
MODEL 8
REMARK VINA RESULT:    -3.768      1.339      2.782
REMARK INTER + INTRA:          -6.322
REMARK INTER:                  -6.799
REMARK INTRA:                   0.477
REMARK UNBOUND:                -1.233
REMARK SMILES CC(=O)CCC=C(C)CCC=C(C)C
REMARK SMILES IDX 7 1 6 2 8 3 9 4 10 5 11 6 13 7 12 8 14 9 5 10 4 11 2 12 3 13
REMARK SMILES IDX 1 14
REMARK H PARENT
REMARK Flexibility Score: inf
ROOT
ATOM      1  C   UNL     1      -4.903 -14.523  -8.236  1.00  0.00    -0.077 C 
ATOM      2  C   UNL     1      -3.732 -15.197  -8.138  1.00  0.00    -0.028 C 
ATOM      3  C   UNL     1      -5.996 -15.127  -9.080  1.00  0.00     0.039 C 
ENDROOT
BRANCH   1   4
ATOM      4  C   UNL     1      -5.163 -13.195  -7.549  1.00  0.00     0.034 C 
BRANCH   4   5
ATOM      5  C   UNL     1      -5.639 -12.135  -8.549  1.00  0.00     0.032 C 
BRANCH   5   6
ATOM      6  C   UNL     1      -4.475 -11.358  -9.113  1.00  0.00    -0.028 C 
ATOM      7  C   UNL     1      -3.196 -11.376  -6.957  1.00  0.00     0.039 C 
ATOM      8  C   UNL     1      -3.367 -11.020  -8.416  1.00  0.00    -0.080 C 
ATOM      9  C   UNL     1      -2.282 -10.250  -9.123  1.00  0.00     0.039 C 
ENDBRANCH   5   6
ENDBRANCH   4   5
ENDBRANCH   1   4
BRANCH   2  10
ATOM     10  C   UNL     1      -2.529 -14.766  -7.329  1.00  0.00     0.035 C 
BRANCH  10  11
ATOM     11  C   UNL     1      -2.468 -15.508  -5.988  1.00  0.00     0.079 C 
BRANCH  11  12
ATOM     12  C   UNL     1      -3.717 -16.315  -5.736  1.00  0.00     0.130 C 
ATOM     13  O   UNL     1      -4.681 -15.783  -5.207  1.00  0.00    -0.300 OA
ATOM     14  C   UNL     1      -3.804 -17.760  -6.129  1.00  0.00     0.087 C 
ENDBRANCH  11  12
ENDBRANCH  10  11
ENDBRANCH   2  10
TORSDOF 6
ENDMDL
MODEL 9
REMARK VINA RESULT:    -3.504      2.067      4.329
REMARK INTER + INTRA:          -5.966
REMARK INTER:                  -5.136
REMARK INTRA:                  -0.830
REMARK UNBOUND:                -1.233
REMARK SMILES CC(=O)CCC=C(C)CCC=C(C)C
REMARK SMILES IDX 7 1 6 2 8 3 9 4 10 5 11 6 13 7 12 8 14 9 5 10 4 11 2 12 3 13
REMARK SMILES IDX 1 14
REMARK H PARENT
REMARK Flexibility Score: inf
ROOT
ATOM      1  C   UNL     1      -3.952 -16.247  -6.766  1.00  0.00    -0.077 C 
ATOM      2  C   UNL     1      -4.422 -16.213  -8.036  1.00  0.00    -0.028 C 
ATOM      3  C   UNL     1      -3.756 -17.597  -6.123  1.00  0.00     0.039 C 
ENDROOT
BRANCH   1   4
ATOM      4  C   UNL     1      -3.625 -15.002  -5.962  1.00  0.00     0.034 C 
BRANCH   4   5
ATOM      5  C   UNL     1      -2.386 -14.290  -6.519  1.00  0.00     0.032 C 
BRANCH   5   6
ATOM      6  C   UNL     1      -2.614 -12.803  -6.619  1.00  0.00    -0.028 C 
ATOM      7  C   UNL     1      -2.553 -12.787  -9.125  1.00  0.00     0.039 C 
ATOM      8  C   UNL     1      -2.703 -12.115  -7.780  1.00  0.00    -0.080 C 
ATOM      9  C   UNL     1      -2.944 -10.629  -7.716  1.00  0.00     0.039 C 
ENDBRANCH   5   6
ENDBRANCH   4   5
ENDBRANCH   1   4
BRANCH   2  10
ATOM     10  C   UNL     1      -4.666 -14.965  -8.855  1.00  0.00     0.035 C 
BRANCH  10  11
ATOM     11  C   UNL     1      -6.090 -14.436  -8.647  1.00  0.00     0.079 C 
BRANCH  11  12
ATOM     12  C   UNL     1      -6.093 -13.048  -8.058  1.00  0.00     0.130 C 
ATOM     13  O   UNL     1      -5.995 -12.080  -8.796  1.00  0.00    -0.300 OA
ATOM     14  C   UNL     1      -6.222 -12.829  -6.579  1.00  0.00     0.087 C 
ENDBRANCH  11  12
ENDBRANCH  10  11
ENDBRANCH   2  10
TORSDOF 6
ENDMDL
