MODEL 1
REMARK VINA RESULT:    -3.994      0.000      0.000
REMARK INTER + INTRA:          -1.739
REMARK INTER:                  -4.927
REMARK INTRA:                   3.189
REMARK UNBOUND:                 3.189
REMARK SMILES C=C1CC[C@H]2[C@H]([C@@H]3[C@H](C)CC[C@@H]13)C2(C)C
REMARK SMILES IDX 3 1 2 2 1 3 12 4 9 5 8 6 10 7 7 8 11 9 4 11 5 12 6 13 13 14
REMARK SMILES IDX 14 16 15 17
REMARK H PARENT
REMARK Flexibility Score: 80.00
ROOT
ATOM      1  C   UNL     1      -0.406   3.994  10.379  1.00  0.00     0.031 C 
ENDROOT
BRANCH   1   2
ATOM      2  C   UNL     1      -0.783   2.831  11.304  1.00  0.00    -0.074 C 
ATOM      3  C   UNL     1      -1.394   1.753  10.781  1.00  0.00     0.008 C 
BRANCH   2   4
ATOM      4  C   UNL     1      -0.684   3.070  12.813  1.00  0.00     0.018 C 
ATOM      5  C   UNL     1      -1.006   4.949  15.487  1.00  0.00     0.008 C 
ATOM      6  C   UNL     1      -1.719   3.721  14.896  1.00  0.00    -0.010 C 
ATOM      7  C   UNL     1      -0.901   2.426  15.130  1.00  0.00     0.004 C 
ATOM      8  C   UNL     1      -1.914   3.784  13.372  1.00  0.00     0.003 CG0
ATOM      9  C   UNL     1      -0.496   1.884  13.752  1.00  0.00     0.008 C 
ATOM     10  G   UNL     1      -1.991   5.181  12.721  1.00  0.00     0.000 G0
ENDBRANCH   2   4
ENDBRANCH   1   2
BRANCH   1  11
ATOM     11  C   UNL     1      -1.479   5.126  10.265  1.00  0.00     0.009 C 
BRANCH  11  12
ATOM     12  C   UNL     1      -2.611   4.969  11.294  1.00  0.00    -0.001 C 
ATOM     13  C   UNL     1      -2.007   5.191  12.710  1.00  0.00     0.002 CG0
ATOM     14  C   UNL     1      -3.217   5.993  12.247  1.00  0.00    -0.029 C 
ATOM     15  G   UNL     1      -1.948   3.793  13.358  1.00  0.00     0.000 G0
ATOM     16  C   UNL     1      -4.555   5.626  12.898  1.00  0.00     0.011 C 
ATOM     17  C   UNL     1      -2.979   7.472  11.922  1.00  0.00     0.011 C 
ENDBRANCH  11  12
ENDBRANCH   1  11
TORSDOF 0
ENDMDL
MODEL 2
REMARK VINA RESULT:    -3.959      1.421      3.477
REMARK INTER + INTRA:          -1.696
REMARK INTER:                  -4.987
REMARK INTRA:                   3.291
REMARK UNBOUND:                 3.189
REMARK SMILES C=C1CC[C@H]2[C@H]([C@@H]3[C@H](C)CC[C@@H]13)C2(C)C
REMARK SMILES IDX 3 1 2 2 1 3 12 4 9 5 8 6 10 7 7 8 11 9 4 11 5 12 6 13 13 14
REMARK SMILES IDX 14 16 15 17
REMARK H PARENT
REMARK Flexibility Score: 80.00
ROOT
ATOM      1  C   UNL     1      -1.188   3.736  15.465  1.00  0.00     0.031 C 
ENDROOT
BRANCH   1   2
ATOM      2  C   UNL     1      -0.530   2.928  14.340  1.00  0.00    -0.074 C 
ATOM      3  C   UNL     1       0.716   2.456  14.518  1.00  0.00     0.008 C 
BRANCH   2   4
ATOM      4  C   UNL     1      -1.223   2.929  12.975  1.00  0.00     0.018 C 
ATOM      5  C   UNL     1      -2.953   4.383  10.592  1.00  0.00     0.008 C 
ATOM      6  C   UNL     1      -1.507   3.891  10.778  1.00  0.00    -0.010 C 
ATOM      7  C   UNL     1      -1.413   2.352  10.638  1.00  0.00     0.004 C 
ATOM      8  C   UNL     1      -0.919   4.190  12.167  1.00  0.00     0.003 CG0
ATOM      9  C   UNL     1      -0.952   1.796  11.993  1.00  0.00     0.008 C 
ATOM     10  G   UNL     1      -1.489   5.398  12.938  1.00  0.00     0.000 G0
ENDBRANCH   2   4
ENDBRANCH   1   2
BRANCH   1  11
ATOM     11  C   UNL     1      -0.959   5.281  15.394  1.00  0.00     0.009 C 
BRANCH  11  12
ATOM     12  C   UNL     1      -0.404   5.731  14.033  1.00  0.00    -0.001 C 
ATOM     13  C   UNL     1      -1.470   5.407  12.948  1.00  0.00     0.002 CG0
ATOM     14  C   UNL     1      -0.901   6.815  13.082  1.00  0.00    -0.029 C 
ATOM     15  G   UNL     1      -0.916   4.196  12.172  1.00  0.00     0.000 G0
ATOM     16  C   UNL     1       0.061   7.258  11.974  1.00  0.00     0.011 C 
ATOM     17  C   UNL     1      -1.833   7.881  13.669  1.00  0.00     0.011 C 
ENDBRANCH  11  12
ENDBRANCH   1  11
TORSDOF 0
ENDMDL
MODEL 3
REMARK VINA RESULT:    -3.849      1.735      2.683
REMARK INTER + INTRA:          -1.561
REMARK INTER:                  -4.821
REMARK INTRA:                   3.260
REMARK UNBOUND:                 3.189
REMARK SMILES C=C1CC[C@H]2[C@H]([C@@H]3[C@H](C)CC[C@@H]13)C2(C)C
REMARK SMILES IDX 3 1 2 2 1 3 12 4 9 5 8 6 10 7 7 8 11 9 4 11 5 12 6 13 13 14
REMARK SMILES IDX 14 16 15 17
REMARK H PARENT
REMARK Flexibility Score: 80.00
ROOT
ATOM      1  C   UNL     1      -0.112   2.868  11.628  1.00  0.00     0.031 C 
ENDROOT
BRANCH   1   2
ATOM      2  C   UNL     1       0.141   3.345  13.063  1.00  0.00    -0.074 C 
ATOM      3  C   UNL     1      -0.166   2.529  14.086  1.00  0.00     0.008 C 
BRANCH   2   4
ATOM      4  C   UNL     1       0.481   4.825  13.263  1.00  0.00     0.018 C 
ATOM      5  C   UNL     1       0.136   8.011  12.546  1.00  0.00     0.008 C 
ATOM      6  C   UNL     1      -0.231   7.087  13.720  1.00  0.00    -0.010 C 
ATOM      7  C   UNL     1       1.007   6.769  14.596  1.00  0.00     0.004 C 
ATOM      8  C   UNL     1      -0.764   5.710  13.290  1.00  0.00     0.003 CG0
ATOM      9  C   UNL     1       1.259   5.257  14.500  1.00  0.00     0.008 C 
ATOM     10  G   UNL     1      -1.449   5.611  11.911  1.00  0.00     0.000 G0
ENDBRANCH   2   4
ENDBRANCH   1   2
BRANCH   1  11
ATOM     11  C   UNL     1      -1.504   3.259  11.034  1.00  0.00     0.009 C 
BRANCH  11  12
ATOM     12  C   UNL     1      -2.251   4.279  11.909  1.00  0.00    -0.001 C 
ATOM     13  C   UNL     1      -1.440   5.607  11.897  1.00  0.00     0.002 CG0
ATOM     14  C   UNL     1      -2.919   5.596  11.526  1.00  0.00    -0.029 C 
ATOM     15  G   UNL     1      -0.780   5.700  13.288  1.00  0.00     0.000 G0
ATOM     16  C   UNL     1      -3.874   6.213  12.553  1.00  0.00     0.011 C 
ATOM     17  C   UNL     1      -3.257   5.799  10.045  1.00  0.00     0.011 C 
ENDBRANCH  11  12
ENDBRANCH   1  11
TORSDOF 0
ENDMDL
MODEL 4
REMARK VINA RESULT:    -3.804      1.111      1.959
REMARK INTER + INTRA:          -1.506
REMARK INTER:                  -4.788
REMARK INTRA:                   3.282
REMARK UNBOUND:                 3.189
REMARK SMILES C=C1CC[C@H]2[C@H]([C@@H]3[C@H](C)CC[C@@H]13)C2(C)C
REMARK SMILES IDX 3 1 2 2 1 3 12 4 9 5 8 6 10 7 7 8 11 9 4 11 5 12 6 13 13 14
REMARK SMILES IDX 14 16 15 17
REMARK H PARENT
REMARK Flexibility Score: 80.00
ROOT
ATOM      1  C   UNL     1      -0.720   1.303  11.674  1.00  0.00     0.031 C 
ENDROOT
BRANCH   1   2
ATOM      2  C   UNL     1      -1.233   1.329  13.118  1.00  0.00    -0.074 C 
ATOM      3  C   UNL     1      -2.262   0.534  13.460  1.00  0.00     0.008 C 
BRANCH   2   4
ATOM      4  C   UNL     1      -0.723   2.452  14.026  1.00  0.00     0.018 C 
ATOM      5  C   UNL     1       0.228   5.547  14.570  1.00  0.00     0.008 C 
ATOM      6  C   UNL     1      -0.978   4.669  14.949  1.00  0.00    -0.010 C 
ATOM      7  C   UNL     1      -0.625   3.691  16.096  1.00  0.00     0.004 C 
ATOM      8  C   UNL     1      -1.475   3.764  13.809  1.00  0.00     0.003 CG0
ATOM      9  C   UNL     1      -0.750   2.266  15.539  1.00  0.00     0.008 C 
ATOM     10  G   UNL     1      -1.210   4.230  12.362  1.00  0.00     0.000 G0
ENDBRANCH   2   4
ENDBRANCH   1   2
BRANCH   1  11
ATOM     11  C   UNL     1      -1.374   2.352  10.717  1.00  0.00     0.009 C 
BRANCH  11  12
ATOM     12  C   UNL     1      -2.198   3.405  11.475  1.00  0.00    -0.001 C 
ATOM     13  C   UNL     1      -1.223   4.234  12.359  1.00  0.00     0.002 CG0
ATOM     14  C   UNL     1      -2.166   4.927  11.383  1.00  0.00    -0.029 C 
ATOM     15  G   UNL     1      -1.480   3.768  13.807  1.00  0.00     0.000 G0
ATOM     16  C   UNL     1      -3.342   5.684  12.009  1.00  0.00     0.011 C 
ATOM     17  C   UNL     1      -1.531   5.534  10.127  1.00  0.00     0.011 C 
ENDBRANCH  11  12
ENDBRANCH   1  11
TORSDOF 0
ENDMDL
MODEL 5
REMARK VINA RESULT:    -3.800      1.423      4.445
REMARK INTER + INTRA:          -1.500
REMARK INTER:                  -4.833
REMARK INTRA:                   3.333
REMARK UNBOUND:                 3.189
REMARK SMILES C=C1CC[C@H]2[C@H]([C@@H]3[C@H](C)CC[C@@H]13)C2(C)C
REMARK SMILES IDX 3 1 2 2 1 3 12 4 9 5 8 6 10 7 7 8 11 9 4 11 5 12 6 13 13 14
REMARK SMILES IDX 14 16 15 17
REMARK H PARENT
REMARK Flexibility Score: 80.00
ROOT
ATOM      1  C   UNL     1       0.616   6.579  13.961  1.00  0.00     0.031 C 
ENDROOT
BRANCH   1   2
ATOM      2  C   UNL     1      -0.608   7.020  13.149  1.00  0.00    -0.074 C 
ATOM      3  C   UNL     1      -1.354   8.044  13.598  1.00  0.00     0.008 C 
BRANCH   2   4
ATOM      4  C   UNL     1      -1.068   6.101  12.014  1.00  0.00     0.018 C 
ATOM      5  C   UNL     1      -1.538   3.137  10.680  1.00  0.00     0.008 C 
ATOM      6  C   UNL     1      -2.428   4.262  11.237  1.00  0.00    -0.010 C 
ATOM      7  C   UNL     1      -2.552   5.433  10.230  1.00  0.00     0.004 C 
ATOM      8  C   UNL     1      -1.884   4.912  12.520  1.00  0.00     0.003 CG0
ATOM      9  C   UNL     1      -1.918   6.669  10.884  1.00  0.00     0.008 C 
ATOM     10  G   UNL     1      -0.971   4.056  13.421  1.00  0.00     0.000 G0
ENDBRANCH   2   4
ENDBRANCH   1   2
BRANCH   1  11
ATOM     11  C   UNL     1       0.337   5.480  15.038  1.00  0.00     0.009 C 
BRANCH  11  12
ATOM     12  C   UNL     1      -1.011   4.774  14.823  1.00  0.00    -0.001 C 
ATOM     13  C   UNL     1      -0.968   4.066  13.439  1.00  0.00     0.002 CG0
ATOM     14  C   UNL     1      -1.331   3.288  14.699  1.00  0.00    -0.029 C 
ATOM     15  G   UNL     1      -1.869   4.910  12.514  1.00  0.00     0.000 G0
ATOM     16  C   UNL     1      -2.802   2.882  14.837  1.00  0.00     0.011 C 
ATOM     17  C   UNL     1      -0.281   2.305  15.227  1.00  0.00     0.011 C 
ENDBRANCH  11  12
ENDBRANCH   1  11
TORSDOF 0
ENDMDL
MODEL 6
REMARK VINA RESULT:    -3.731      2.072      3.815
REMARK INTER + INTRA:          -1.415
REMARK INTER:                  -4.697
REMARK INTRA:                   3.281
REMARK UNBOUND:                 3.189
REMARK SMILES C=C1CC[C@H]2[C@H]([C@@H]3[C@H](C)CC[C@@H]13)C2(C)C
REMARK SMILES IDX 3 1 2 2 1 3 12 4 9 5 8 6 10 7 7 8 11 9 4 11 5 12 6 13 13 14
REMARK SMILES IDX 14 16 15 17
REMARK H PARENT
REMARK Flexibility Score: 80.00
ROOT
ATOM      1  C   UNL     1      -2.821   6.064  11.347  1.00  0.00     0.031 C 
ENDROOT
BRANCH   1   2
ATOM      2  C   UNL     1      -1.375   6.330  10.914  1.00  0.00    -0.074 C 
ATOM      3  C   UNL     1      -1.020   6.087   9.641  1.00  0.00     0.008 C 
BRANCH   2   4
ATOM      4  C   UNL     1      -0.349   6.606  12.017  1.00  0.00     0.018 C 
ATOM      5  C   UNL     1       0.898   6.122  15.016  1.00  0.00     0.008 C 
ATOM      6  C   UNL     1       1.314   5.798  13.571  1.00  0.00    -0.010 C 
ATOM      7  C   UNL     1       1.874   7.050  12.850  1.00  0.00     0.004 C 
ATOM      8  C   UNL     1       0.155   5.324  12.678  1.00  0.00     0.003 CG0
ATOM      9  C   UNL     1       0.928   7.367  11.682  1.00  0.00     0.008 C 
ATOM     10  G   UNL     1      -1.043   4.641  13.369  1.00  0.00     0.000 G0
ENDBRANCH   2   4
ENDBRANCH   1   2
BRANCH   1  11
ATOM     11  C   UNL     1      -3.093   4.630  11.908  1.00  0.00     0.009 C 
BRANCH  11  12
ATOM     12  C   UNL     1      -1.797   3.868  12.229  1.00  0.00    -0.001 C 
ATOM     13  C   UNL     1      -1.056   4.636  13.360  1.00  0.00     0.002 CG0
ATOM     14  C   UNL     1      -1.371   3.152  13.506  1.00  0.00    -0.029 C 
ATOM     15  G   UNL     1       0.146   5.320  12.678  1.00  0.00     0.000 G0
ATOM     16  C   UNL     1      -0.177   2.198  13.400  1.00  0.00     0.011 C 
ATOM     17  C   UNL     1      -2.481   2.778  14.495  1.00  0.00     0.011 C 
ENDBRANCH  11  12
ENDBRANCH   1  11
TORSDOF 0
ENDMDL
MODEL 7
REMARK VINA RESULT:    -3.696      1.684      3.805
REMARK INTER + INTRA:          -1.372
REMARK INTER:                  -4.632
REMARK INTRA:                   3.260
REMARK UNBOUND:                 3.189
REMARK SMILES C=C1CC[C@H]2[C@H]([C@@H]3[C@H](C)CC[C@@H]13)C2(C)C
REMARK SMILES IDX 3 1 2 2 1 3 12 4 9 5 8 6 10 7 7 8 11 9 4 11 5 12 6 13 13 14
REMARK SMILES IDX 14 16 15 17
REMARK H PARENT
REMARK Flexibility Score: 80.00
ROOT
ATOM      1  C   UNL     1      -1.084   2.560  13.239  1.00  0.00     0.031 C 
ENDROOT
BRANCH   1   2
ATOM      2  C   UNL     1      -1.600   3.044  11.879  1.00  0.00    -0.074 C 
ATOM      3  C   UNL     1      -1.127   2.469  10.760  1.00  0.00     0.008 C 
BRANCH   2   4
ATOM      4  C   UNL     1      -2.424   4.335  11.857  1.00  0.00     0.018 C 
ATOM      5  C   UNL     1      -3.095   7.375  12.899  1.00  0.00     0.008 C 
ATOM      6  C   UNL     1      -2.538   6.735  11.616  1.00  0.00    -0.010 C 
ATOM      7  C   UNL     1      -3.667   6.096  10.769  1.00  0.00     0.004 C 
ATOM      8  C   UNL     1      -1.548   5.586  11.869  1.00  0.00     0.003 CG0
ATOM      9  C   UNL     1      -3.397   4.585  10.711  1.00  0.00     0.008 C 
ATOM     10  G   UNL     1      -0.761   5.603  13.196  1.00  0.00     0.000 G0
ENDBRANCH   2   4
ENDBRANCH   1   2
BRANCH   1  11
ATOM     11  C   UNL     1       0.143   3.348  13.803  1.00  0.00     0.009 C 
BRANCH  11  12
ATOM     12  C   UNL     1       0.437   4.628  13.005  1.00  0.00    -0.001 C 
ATOM     13  C   UNL     1      -0.758   5.603  13.205  1.00  0.00     0.002 CG0
ATOM     14  C   UNL     1       0.669   6.055  13.492  1.00  0.00    -0.029 C 
ATOM     15  G   UNL     1      -1.531   5.589  11.870  1.00  0.00     0.000 G0
ATOM     16  C   UNL     1       1.277   7.039  12.487  1.00  0.00     0.011 C 
ATOM     17  C   UNL     1       1.051   6.233  14.965  1.00  0.00     0.011 C 
ENDBRANCH  11  12
ENDBRANCH   1  11
TORSDOF 0
ENDMDL
MODEL 8
REMARK VINA RESULT:    -3.693      1.569      3.512
REMARK INTER + INTRA:          -1.368
REMARK INTER:                  -4.681
REMARK INTRA:                   3.313
REMARK UNBOUND:                 3.189
REMARK SMILES C=C1CC[C@H]2[C@H]([C@@H]3[C@H](C)CC[C@@H]13)C2(C)C
REMARK SMILES IDX 3 1 2 2 1 3 12 4 9 5 8 6 10 7 7 8 11 9 4 11 5 12 6 13 13 14
REMARK SMILES IDX 14 16 15 17
REMARK H PARENT
REMARK Flexibility Score: 80.00
ROOT
ATOM      1  C   UNL     1      -1.990   6.659  13.973  1.00  0.00     0.031 C 
ENDROOT
BRANCH   1   2
ATOM      2  C   UNL     1      -0.803   5.701  14.130  1.00  0.00    -0.074 C 
ATOM      3  C   UNL     1       0.326   6.150  14.706  1.00  0.00     0.008 C 
BRANCH   2   4
ATOM      4  C   UNL     1      -0.873   4.366  13.384  1.00  0.00     0.018 C 
ATOM      5  C   UNL     1      -1.726   2.512  10.812  1.00  0.00     0.008 C 
ATOM      6  C   UNL     1      -0.415   3.050  11.411  1.00  0.00    -0.010 C 
ATOM      7  C   UNL     1       0.009   2.237  12.660  1.00  0.00     0.004 C 
ATOM      8  C   UNL     1      -0.505   4.503  11.907  1.00  0.00     0.003 CG0
ATOM      9  C   UNL     1      -0.024   3.193  13.861  1.00  0.00     0.008 C 
ATOM     10  G   UNL     1      -1.549   5.421  11.240  1.00  0.00     0.000 G0
ENDBRANCH   2   4
ENDBRANCH   1   2
BRANCH   1  11
ATOM     11  C   UNL     1      -2.019   7.467  12.636  1.00  0.00     0.009 C 
BRANCH  11  12
ATOM     12  C   UNL     1      -1.068   6.887  11.577  1.00  0.00    -0.001 C 
ATOM     13  C   UNL     1      -1.539   5.441  11.249  1.00  0.00     0.002 CG0
ATOM     14  C   UNL     1      -1.343   6.465  10.137  1.00  0.00    -0.029 C 
ATOM     15  G   UNL     1      -0.507   4.508  11.914  1.00  0.00     0.000 G0
ATOM     16  C   UNL     1      -0.125   6.250   9.233  1.00  0.00     0.011 C 
ATOM     17  C   UNL     1      -2.613   7.020   9.482  1.00  0.00     0.011 C 
ENDBRANCH  11  12
ENDBRANCH   1  11
TORSDOF 0
ENDMDL
MODEL 9
REMARK VINA RESULT:    -3.681      1.564      3.293
REMARK INTER + INTRA:          -1.353
REMARK INTER:                  -4.631
REMARK INTRA:                   3.278
REMARK UNBOUND:                 3.189
REMARK SMILES C=C1CC[C@H]2[C@H]([C@@H]3[C@H](C)CC[C@@H]13)C2(C)C
REMARK SMILES IDX 3 1 2 2 1 3 12 4 9 5 8 6 10 7 7 8 11 9 4 11 5 12 6 13 13 14
REMARK SMILES IDX 14 16 15 17
REMARK H PARENT
REMARK Flexibility Score: 80.00
ROOT
ATOM      1  C   UNL     1      -4.074   5.454  10.589  1.00  0.00     0.031 C 
ENDROOT
BRANCH   1   2
ATOM      2  C   UNL     1      -3.850   5.234  12.090  1.00  0.00    -0.074 C 
ATOM      3  C   UNL     1      -4.443   6.062  12.966  1.00  0.00     0.008 C 
BRANCH   2   4
ATOM      4  C   UNL     1      -2.752   4.249  12.500  1.00  0.00     0.018 C 
ATOM      5  C   UNL     1       0.199   2.860  12.123  1.00  0.00     0.008 C 
ATOM      6  C   UNL     1      -0.459   3.820  13.128  1.00  0.00    -0.010 C 
ATOM      7  C   UNL     1      -1.392   3.061  14.104  1.00  0.00     0.004 C 
ATOM      8  C   UNL     1      -1.362   4.883  12.478  1.00  0.00     0.003 CG0
ATOM      9  C   UNL     1      -2.820   3.573  13.865  1.00  0.00     0.008 C 
ATOM     10  G   UNL     1      -1.048   5.292  11.024  1.00  0.00     0.000 G0
ENDBRANCH   2   4
ENDBRANCH   1   2
BRANCH   1  11
ATOM     11  C   UNL     1      -3.009   6.357   9.884  1.00  0.00     0.009 C 
BRANCH  11  12
ATOM     12  C   UNL     1      -1.790   6.635  10.779  1.00  0.00    -0.001 C 
ATOM     13  C   UNL     1      -1.051   5.288  11.017  1.00  0.00     0.002 CG0
ATOM     14  C   UNL     1      -0.301   6.500  10.476  1.00  0.00    -0.029 C 
ATOM     15  G   UNL     1      -1.361   4.899  12.477  1.00  0.00     0.000 G0
ATOM     16  C   UNL     1       0.668   7.179  11.450  1.00  0.00     0.011 C 
ATOM     17  C   UNL     1       0.107   6.453   9.000  1.00  0.00     0.011 C 
ENDBRANCH  11  12
ENDBRANCH   1  11
TORSDOF 0
ENDMDL
