MODEL 1
REMARK VINA RESULT:    -4.627      0.000      0.000
REMARK INTER + INTRA:          -9.517
REMARK INTER:                  -8.414
REMARK INTRA:                  -1.103
REMARK UNBOUND:                -1.103
REMARK SMILES CCCCCCCCCCCCCCCC(=O)[O-]
REMARK SMILES IDX 9 1 10 2 11 3 12 4 13 5 14 6 15 7 16 8 17 9 18 10 8 11 7 12
REMARK SMILES IDX 6 13 5 14 4 15 3 16 2 17 1 18
REMARK H PARENT
REMARK Flexibility Score: inf
ROOT
ATOM      1  C   UNL     1      17.147  21.074 -12.908  1.00  0.00     0.000 C 
ENDROOT
BRANCH   1   2
ATOM      2  C   UNL     1      17.781  20.009 -13.819  1.00  0.00     0.000 C 
BRANCH   2   3
ATOM      3  C   UNL     1      19.318  20.035 -13.787  1.00  0.00     0.000 C 
BRANCH   3   4
ATOM      4  C   UNL     1      19.980  18.773 -13.199  1.00  0.00     0.000 C 
BRANCH   4   5
ATOM      5  C   UNL     1      18.975  17.766 -12.599  1.00  0.00     0.000 C 
BRANCH   5   6
ATOM      6  C   UNL     1      18.892  17.873 -11.067  1.00  0.00     0.006 C 
BRANCH   6   7
ATOM      7  C   UNL     1      20.172  18.459 -10.456  1.00  0.00     0.053 C 
BRANCH   7   8
ATOM      8  C   UNL     1      21.157  17.386 -10.105  1.00  0.00     0.041 C 
ATOM      9  O   UNL     1      22.393  17.611 -10.188  1.00  0.00    -0.550 OA
ATOM     10  O   UNL     1      20.710  16.150  -9.657  1.00  0.00    -0.550 OA
ENDBRANCH   7   8
ENDBRANCH   6   7
ENDBRANCH   5   6
ENDBRANCH   4   5
ENDBRANCH   3   4
ENDBRANCH   2   3
ENDBRANCH   1   2
BRANCH   1  11
ATOM     11  C   UNL     1      15.997  20.515 -12.052  1.00  0.00     0.000 C 
BRANCH  11  12
ATOM     12  C   UNL     1      14.768  21.439 -11.929  1.00  0.00    -0.000 C 
BRANCH  12  13
ATOM     13  C   UNL     1      14.920  22.825 -12.586  1.00  0.00    -0.000 C 
BRANCH  13  14
ATOM     14  C   UNL     1      13.661  23.355 -13.298  1.00  0.00    -0.000 C 
BRANCH  14  15
ATOM     15  C   UNL     1      12.439  22.440 -13.109  1.00  0.00    -0.000 C 
BRANCH  15  16
ATOM     16  C   UNL     1      11.103  23.203 -13.187  1.00  0.00    -0.000 C 
BRANCH  16  17
ATOM     17  C   UNL     1      10.394  23.413 -11.838  1.00  0.00    -0.003 C 
ATOM     18  C   UNL     1      10.826  24.696 -11.128  1.00  0.00     0.004 C 
ENDBRANCH  16  17
ENDBRANCH  15  16
ENDBRANCH  14  15
ENDBRANCH  13  14
ENDBRANCH  12  13
ENDBRANCH  11  12
ENDBRANCH   1  11
TORSDOF 14
ENDMDL
MODEL 2
REMARK VINA RESULT:    -4.570      1.717      3.478
REMARK INTER + INTRA:          -9.414
REMARK INTER:                  -7.990
REMARK INTRA:                  -1.423
REMARK UNBOUND:                -1.103
REMARK SMILES CCCCCCCCCCCCCCCC(=O)[O-]
REMARK SMILES IDX 9 1 10 2 11 3 12 4 13 5 14 6 15 7 16 8 17 9 18 10 8 11 7 12
REMARK SMILES IDX 6 13 5 14 4 15 3 16 2 17 1 18
REMARK H PARENT
REMARK Flexibility Score: inf
ROOT
ATOM      1  C   UNL     1      14.744  22.729 -12.267  1.00  0.00     0.000 C 
ENDROOT
BRANCH   1   2
ATOM      2  C   UNL     1      14.606  21.238 -11.914  1.00  0.00     0.000 C 
BRANCH   2   3
ATOM      3  C   UNL     1      15.909  20.451 -12.131  1.00  0.00     0.000 C 
BRANCH   3   4
ATOM      4  C   UNL     1      17.075  21.268 -12.719  1.00  0.00     0.000 C 
BRANCH   4   5
ATOM      5  C   UNL     1      18.024  20.442 -13.614  1.00  0.00     0.000 C 
BRANCH   5   6
ATOM      6  C   UNL     1      18.086  18.966 -13.187  1.00  0.00     0.006 C 
BRANCH   6   7
ATOM      7  C   UNL     1      19.449  18.591 -12.588  1.00  0.00     0.053 C 
BRANCH   7   8
ATOM      8  C   UNL     1      19.330  18.199 -11.147  1.00  0.00     0.041 C 
ATOM      9  O   UNL     1      18.541  18.819 -10.386  1.00  0.00    -0.550 OA
ATOM     10  O   UNL     1      20.066  17.131 -10.653  1.00  0.00    -0.550 OA
ENDBRANCH   7   8
ENDBRANCH   6   7
ENDBRANCH   5   6
ENDBRANCH   4   5
ENDBRANCH   3   4
ENDBRANCH   2   3
ENDBRANCH   1   2
BRANCH   1  11
ATOM     11  C   UNL     1      13.701  23.195 -13.298  1.00  0.00     0.000 C 
BRANCH  11  12
ATOM     12  C   UNL     1      12.286  22.611 -13.102  1.00  0.00    -0.000 C 
BRANCH  12  13
ATOM     13  C   UNL     1      11.473  23.232 -11.949  1.00  0.00    -0.000 C 
BRANCH  13  14
ATOM     14  C   UNL     1      11.396  24.770 -11.954  1.00  0.00    -0.000 C 
BRANCH  14  15
ATOM     15  C   UNL     1      11.372  25.371 -10.538  1.00  0.00    -0.000 C 
BRANCH  15  16
ATOM     16  C   UNL     1      12.550  26.327 -10.273  1.00  0.00    -0.000 C 
BRANCH  16  17
ATOM     17  C   UNL     1      13.946  25.710 -10.470  1.00  0.00    -0.003 C 
ATOM     18  C   UNL     1      14.797  26.466 -11.490  1.00  0.00     0.004 C 
ENDBRANCH  16  17
ENDBRANCH  15  16
ENDBRANCH  14  15
ENDBRANCH  13  14
ENDBRANCH  12  13
ENDBRANCH  11  12
ENDBRANCH   1  11
TORSDOF 14
ENDMDL
MODEL 3
REMARK VINA RESULT:    -4.529     11.203     13.819
REMARK INTER + INTRA:          -9.338
REMARK INTER:                  -7.157
REMARK INTRA:                  -2.181
REMARK UNBOUND:                -1.103
REMARK SMILES CCCCCCCCCCCCCCCC(=O)[O-]
REMARK SMILES IDX 9 1 10 2 11 3 12 4 13 5 14 6 15 7 16 8 17 9 18 10 8 11 7 12
REMARK SMILES IDX 6 13 5 14 4 15 3 16 2 17 1 18
REMARK H PARENT
REMARK Flexibility Score: inf
ROOT
ATOM      1  C   UNL     1       8.371  16.045  -9.744  1.00  0.00     0.000 C 
ENDROOT
BRANCH   1   2
ATOM      2  C   UNL     1       7.788  16.361  -8.356  1.00  0.00     0.000 C 
BRANCH   2   3
ATOM      3  C   UNL     1       7.157  15.133  -7.679  1.00  0.00     0.000 C 
BRANCH   3   4
ATOM      4  C   UNL     1       5.642  15.241  -7.413  1.00  0.00     0.000 C 
BRANCH   4   5
ATOM      5  C   UNL     1       4.926  16.276  -8.308  1.00  0.00     0.000 C 
BRANCH   5   6
ATOM      6  C   UNL     1       4.595  17.570  -7.546  1.00  0.00     0.006 C 
BRANCH   6   7
ATOM      7  C   UNL     1       4.586  17.363  -6.026  1.00  0.00     0.053 C 
BRANCH   7   8
ATOM      8  C   UNL     1       5.751  18.039  -5.370  1.00  0.00     0.041 C 
ATOM      9  O   UNL     1       5.978  17.861  -4.144  1.00  0.00    -0.550 OA
ATOM     10  O   UNL     1       6.603  18.840  -6.118  1.00  0.00    -0.550 OA
ENDBRANCH   7   8
ENDBRANCH   6   7
ENDBRANCH   5   6
ENDBRANCH   4   5
ENDBRANCH   3   4
ENDBRANCH   2   3
ENDBRANCH   1   2
BRANCH   1  11
ATOM     11  C   UNL     1       8.590  14.538  -9.966  1.00  0.00     0.000 C 
BRANCH  11  12
ATOM     12  C   UNL     1       7.852  13.945 -11.184  1.00  0.00    -0.000 C 
BRANCH  12  13
ATOM     13  C   UNL     1       6.352  13.660 -10.968  1.00  0.00    -0.000 C 
BRANCH  13  14
ATOM     14  C   UNL     1       6.036  12.522  -9.981  1.00  0.00    -0.000 C 
BRANCH  14  15
ATOM     15  C   UNL     1       6.764  11.212 -10.328  1.00  0.00    -0.000 C 
BRANCH  15  16
ATOM     16  C   UNL     1       7.836  10.831  -9.289  1.00  0.00    -0.000 C 
BRANCH  16  17
ATOM     17  C   UNL     1       7.689  11.515  -7.919  1.00  0.00    -0.003 C 
ATOM     18  C   UNL     1       9.031  11.881  -7.286  1.00  0.00     0.004 C 
ENDBRANCH  16  17
ENDBRANCH  15  16
ENDBRANCH  14  15
ENDBRANCH  13  14
ENDBRANCH  12  13
ENDBRANCH  11  12
ENDBRANCH   1  11
TORSDOF 14
ENDMDL
MODEL 4
REMARK VINA RESULT:    -4.464      4.164      9.151
REMARK INTER + INTRA:          -9.221
REMARK INTER:                  -8.132
REMARK INTRA:                  -1.089
REMARK UNBOUND:                -1.103
REMARK SMILES CCCCCCCCCCCCCCCC(=O)[O-]
REMARK SMILES IDX 9 1 10 2 11 3 12 4 13 5 14 6 15 7 16 8 17 9 18 10 8 11 7 12
REMARK SMILES IDX 6 13 5 14 4 15 3 16 2 17 1 18
REMARK H PARENT
REMARK Flexibility Score: inf
ROOT
ATOM      1  C   UNL     1      18.357  19.510 -14.115  1.00  0.00     0.000 C 
ENDROOT
BRANCH   1   2
ATOM      2  C   UNL     1      17.818  20.531 -13.098  1.00  0.00     0.000 C 
BRANCH   2   3
ATOM      3  C   UNL     1      16.597  20.012 -12.321  1.00  0.00     0.000 C 
BRANCH   3   4
ATOM      4  C   UNL     1      15.535  21.077 -11.987  1.00  0.00     0.000 C 
BRANCH   4   5
ATOM      5  C   UNL     1      15.721  22.404 -12.754  1.00  0.00     0.000 C 
BRANCH   5   6
ATOM      6  C   UNL     1      14.380  23.013 -13.194  1.00  0.00     0.006 C 
BRANCH   6   7
ATOM      7  C   UNL     1      13.180  22.288 -12.569  1.00  0.00     0.053 C 
BRANCH   7   8
ATOM      8  C   UNL     1      12.208  23.252 -11.961  1.00  0.00     0.041 C 
ATOM      9  O   UNL     1      12.624  24.230 -11.285  1.00  0.00    -0.550 OA
ATOM     10  O   UNL     1      10.844  23.089 -12.167  1.00  0.00    -0.550 OA
ENDBRANCH   7   8
ENDBRANCH   6   7
ENDBRANCH   5   6
ENDBRANCH   4   5
ENDBRANCH   3   4
ENDBRANCH   2   3
ENDBRANCH   1   2
BRANCH   1  11
ATOM     11  C   UNL     1      19.526  18.679 -13.559  1.00  0.00     0.000 C 
BRANCH  11  12
ATOM     12  C   UNL     1      19.165  17.234 -13.155  1.00  0.00    -0.000 C 
BRANCH  12  13
ATOM     13  C   UNL     1      19.556  16.837 -11.718  1.00  0.00    -0.000 C 
BRANCH  13  14
ATOM     14  C   UNL     1      19.585  17.995 -10.702  1.00  0.00    -0.000 C 
BRANCH  14  15
ATOM     15  C   UNL     1      20.893  18.047  -9.895  1.00  0.00    -0.000 C 
BRANCH  15  16
ATOM     16  C   UNL     1      21.833  16.866 -10.201  1.00  0.00    -0.000 C 
BRANCH  16  17
ATOM     17  C   UNL     1      22.029  15.871  -9.044  1.00  0.00    -0.003 C 
ATOM     18  C   UNL     1      23.382  15.160  -9.088  1.00  0.00     0.004 C 
ENDBRANCH  16  17
ENDBRANCH  15  16
ENDBRANCH  14  15
ENDBRANCH  13  14
ENDBRANCH  12  13
ENDBRANCH  11  12
ENDBRANCH   1  11
TORSDOF 14
ENDMDL
MODEL 5
REMARK VINA RESULT:    -4.400      4.504      9.026
REMARK INTER + INTRA:          -9.105
REMARK INTER:                  -8.070
REMARK INTRA:                  -1.035
REMARK UNBOUND:                -1.103
REMARK SMILES CCCCCCCCCCCCCCCC(=O)[O-]
REMARK SMILES IDX 9 1 10 2 11 3 12 4 13 5 14 6 15 7 16 8 17 9 18 10 8 11 7 12
REMARK SMILES IDX 6 13 5 14 4 15 3 16 2 17 1 18
REMARK H PARENT
REMARK Flexibility Score: inf
ROOT
ATOM      1  C   UNL     1      16.848  19.993 -12.146  1.00  0.00     0.000 C 
ENDROOT
BRANCH   1   2
ATOM      2  C   UNL     1      15.754  21.073 -12.191  1.00  0.00     0.000 C 
BRANCH   2   3
ATOM      3  C   UNL     1      16.203  22.347 -12.928  1.00  0.00     0.000 C 
BRANCH   3   4
ATOM      4  C   UNL     1      15.068  23.150 -13.592  1.00  0.00     0.000 C 
BRANCH   4   5
ATOM      5  C   UNL     1      13.939  23.553 -12.620  1.00  0.00     0.000 C 
BRANCH   5   6
ATOM      6  C   UNL     1      12.566  23.030 -13.075  1.00  0.00     0.006 C 
BRANCH   6   7
ATOM      7  C   UNL     1      11.507  23.141 -11.971  1.00  0.00     0.053 C 
BRANCH   7   8
ATOM      8  C   UNL     1      11.259  24.568 -11.586  1.00  0.00     0.041 C 
ATOM      9  O   UNL     1      10.613  25.328 -12.355  1.00  0.00    -0.550 OA
ATOM     10  O   UNL     1      11.716  25.050 -10.366  1.00  0.00    -0.550 OA
ENDBRANCH   7   8
ENDBRANCH   6   7
ENDBRANCH   5   6
ENDBRANCH   4   5
ENDBRANCH   3   4
ENDBRANCH   2   3
ENDBRANCH   1   2
BRANCH   1  11
ATOM     11  C   UNL     1      17.442  19.692 -13.533  1.00  0.00     0.000 C 
BRANCH  11  12
ATOM     12  C   UNL     1      18.934  20.049 -13.695  1.00  0.00    -0.000 C 
BRANCH  12  13
ATOM     13  C   UNL     1      19.918  18.890 -13.436  1.00  0.00    -0.000 C 
BRANCH  13  14
ATOM     14  C   UNL     1      19.265  17.523 -13.162  1.00  0.00    -0.000 C 
BRANCH  14  15
ATOM     15  C   UNL     1      19.253  17.156 -11.668  1.00  0.00    -0.000 C 
BRANCH  15  16
ATOM     16  C   UNL     1      19.873  18.249 -10.779  1.00  0.00    -0.000 C 
BRANCH  16  17
ATOM     17  C   UNL     1      21.077  17.798  -9.934  1.00  0.00    -0.003 C 
ATOM     18  C   UNL     1      22.152  17.086 -10.755  1.00  0.00     0.004 C 
ENDBRANCH  16  17
ENDBRANCH  15  16
ENDBRANCH  14  15
ENDBRANCH  13  14
ENDBRANCH  12  13
ENDBRANCH  11  12
ENDBRANCH   1  11
TORSDOF 14
ENDMDL
MODEL 6
REMARK VINA RESULT:    -4.383      3.734      8.952
REMARK INTER + INTRA:          -9.074
REMARK INTER:                  -7.639
REMARK INTRA:                  -1.435
REMARK UNBOUND:                -1.103
REMARK SMILES CCCCCCCCCCCCCCCC(=O)[O-]
REMARK SMILES IDX 9 1 10 2 11 3 12 4 13 5 14 6 15 7 16 8 17 9 18 10 8 11 7 12
REMARK SMILES IDX 6 13 5 14 4 15 3 16 2 17 1 18
REMARK H PARENT
REMARK Flexibility Score: inf
ROOT
ATOM      1  C   UNL     1      19.195  18.083 -11.043  1.00  0.00     0.000 C 
ENDROOT
BRANCH   1   2
ATOM      2  C   UNL     1      19.194  17.249 -12.336  1.00  0.00     0.000 C 
BRANCH   2   3
ATOM      3  C   UNL     1      18.919  18.093 -13.591  1.00  0.00     0.000 C 
BRANCH   3   4
ATOM      4  C   UNL     1      19.145  19.608 -13.421  1.00  0.00     0.000 C 
BRANCH   4   5
ATOM      5  C   UNL     1      17.862  20.451 -13.585  1.00  0.00     0.000 C 
BRANCH   5   6
ATOM      6  C   UNL     1      17.250  20.846 -12.230  1.00  0.00     0.006 C 
BRANCH   6   7
ATOM      7  C   UNL     1      15.763  20.479 -12.136  1.00  0.00     0.053 C 
BRANCH   7   8
ATOM      8  C   UNL     1      14.895  21.700 -12.103  1.00  0.00     0.041 C 
ATOM      9  O   UNL     1      15.319  22.791 -12.567  1.00  0.00    -0.550 OA
ATOM     10  O   UNL     1      13.608  21.625 -11.586  1.00  0.00    -0.550 OA
ENDBRANCH   7   8
ENDBRANCH   6   7
ENDBRANCH   5   6
ENDBRANCH   4   5
ENDBRANCH   3   4
ENDBRANCH   2   3
ENDBRANCH   1   2
BRANCH   1  11
ATOM     11  C   UNL     1      20.520  17.973 -10.267  1.00  0.00     0.000 C 
BRANCH  11  12
ATOM     12  C   UNL     1      21.628  17.173 -10.981  1.00  0.00    -0.000 C 
BRANCH  12  13
ATOM     13  C   UNL     1      22.740  16.628 -10.062  1.00  0.00    -0.000 C 
BRANCH  13  14
ATOM     14  C   UNL     1      22.248  15.889  -8.804  1.00  0.00    -0.000 C 
BRANCH  14  15
ATOM     15  C   UNL     1      22.160  14.366  -9.004  1.00  0.00    -0.000 C 
BRANCH  15  16
ATOM     16  C   UNL     1      20.861  13.763  -8.437  1.00  0.00    -0.000 C 
BRANCH  16  17
ATOM     17  C   UNL     1      19.939  13.105  -9.479  1.00  0.00    -0.003 C 
ATOM     18  C   UNL     1      19.687  13.991 -10.700  1.00  0.00     0.004 C 
ENDBRANCH  16  17
ENDBRANCH  15  16
ENDBRANCH  14  15
ENDBRANCH  13  14
ENDBRANCH  12  13
ENDBRANCH  11  12
ENDBRANCH   1  11
TORSDOF 14
ENDMDL
MODEL 7
REMARK VINA RESULT:    -4.311      4.173      8.960
REMARK INTER + INTRA:          -8.943
REMARK INTER:                  -8.045
REMARK INTRA:                  -0.897
REMARK UNBOUND:                -1.103
REMARK SMILES CCCCCCCCCCCCCCCC(=O)[O-]
REMARK SMILES IDX 9 1 10 2 11 3 12 4 13 5 14 6 15 7 16 8 17 9 18 10 8 11 7 12
REMARK SMILES IDX 6 13 5 14 4 15 3 16 2 17 1 18
REMARK H PARENT
REMARK Flexibility Score: inf
ROOT
ATOM      1  C   UNL     1      15.861  22.359 -12.924  1.00  0.00     0.000 C 
ENDROOT
BRANCH   1   2
ATOM      2  C   UNL     1      14.575  23.136 -13.252  1.00  0.00     0.000 C 
BRANCH   2   3
ATOM      3  C   UNL     1      13.331  22.548 -12.565  1.00  0.00     0.000 C 
BRANCH   3   4
ATOM      4  C   UNL     1      12.015  22.709 -13.351  1.00  0.00     0.000 C 
BRANCH   4   5
ATOM      5  C   UNL     1      10.874  23.347 -12.529  1.00  0.00     0.000 C 
BRANCH   5   6
ATOM      6  C   UNL     1      11.058  24.865 -12.364  1.00  0.00     0.006 C 
BRANCH   6   7
ATOM      7  C   UNL     1      11.358  25.259 -10.911  1.00  0.00     0.053 C 
BRANCH   7   8
ATOM      8  C   UNL     1      12.795  25.642 -10.729  1.00  0.00     0.041 C 
ATOM      9  O   UNL     1      13.463  26.078 -11.704  1.00  0.00    -0.550 OA
ATOM     10  O   UNL     1      13.388  25.545  -9.477  1.00  0.00    -0.550 OA
ENDBRANCH   7   8
ENDBRANCH   6   7
ENDBRANCH   5   6
ENDBRANCH   4   5
ENDBRANCH   3   4
ENDBRANCH   2   3
ENDBRANCH   1   2
BRANCH   1  11
ATOM     11  C   UNL     1      15.603  21.135 -12.027  1.00  0.00     0.000 C 
BRANCH  11  12
ATOM     12  C   UNL     1      16.634  19.996 -12.167  1.00  0.00    -0.000 C 
BRANCH  12  13
ATOM     13  C   UNL     1      17.825  20.299 -13.099  1.00  0.00    -0.000 C 
BRANCH  13  14
ATOM     14  C   UNL     1      19.056  19.393 -12.906  1.00  0.00    -0.000 C 
BRANCH  14  15
ATOM     15  C   UNL     1      18.782  18.208 -11.965  1.00  0.00    -0.000 C 
BRANCH  15  16
ATOM     16  C   UNL     1      19.342  18.428 -10.547  1.00  0.00    -0.000 C 
BRANCH  16  17
ATOM     17  C   UNL     1      20.656  17.687 -10.243  1.00  0.00    -0.003 C 
ATOM     18  C   UNL     1      20.566  16.181 -10.493  1.00  0.00     0.004 C 
ENDBRANCH  16  17
ENDBRANCH  15  16
ENDBRANCH  14  15
ENDBRANCH  13  14
ENDBRANCH  12  13
ENDBRANCH  11  12
ENDBRANCH   1  11
TORSDOF 14
ENDMDL
MODEL 8
REMARK VINA RESULT:    -4.295      1.393      2.859
REMARK INTER + INTRA:          -8.914
REMARK INTER:                  -8.235
REMARK INTRA:                  -0.679
REMARK UNBOUND:                -1.103
REMARK SMILES CCCCCCCCCCCCCCCC(=O)[O-]
REMARK SMILES IDX 9 1 10 2 11 3 12 4 13 5 14 6 15 7 16 8 17 9 18 10 8 11 7 12
REMARK SMILES IDX 6 13 5 14 4 15 3 16 2 17 1 18
REMARK H PARENT
REMARK Flexibility Score: inf
ROOT
ATOM      1  C   UNL     1      15.461  22.654 -12.648  1.00  0.00     0.000 C 
ENDROOT
BRANCH   1   2
ATOM      2  C   UNL     1      15.281  21.269 -12.004  1.00  0.00     0.000 C 
BRANCH   2   3
ATOM      3  C   UNL     1      16.477  20.335 -12.255  1.00  0.00     0.000 C 
BRANCH   3   4
ATOM      4  C   UNL     1      17.468  20.817 -13.333  1.00  0.00     0.000 C 
BRANCH   4   5
ATOM      5  C   UNL     1      18.792  20.025 -13.360  1.00  0.00     0.000 C 
BRANCH   5   6
ATOM      6  C   UNL     1      18.582  18.533 -13.052  1.00  0.00     0.006 C 
BRANCH   6   7
ATOM      7  C   UNL     1      19.773  17.922 -12.301  1.00  0.00     0.053 C 
BRANCH   7   8
ATOM      8  C   UNL     1      19.589  18.000 -10.817  1.00  0.00     0.041 C 
ATOM      9  O   UNL     1      20.468  17.534 -10.044  1.00  0.00    -0.550 OA
ATOM     10  O   UNL     1      18.462  18.614 -10.286  1.00  0.00    -0.550 OA
ENDBRANCH   7   8
ENDBRANCH   6   7
ENDBRANCH   5   6
ENDBRANCH   4   5
ENDBRANCH   3   4
ENDBRANCH   2   3
ENDBRANCH   1   2
BRANCH   1  11
ATOM     11  C   UNL     1      14.136  23.248 -13.158  1.00  0.00     0.000 C 
BRANCH  11  12
ATOM     12  C   UNL     1      12.871  22.470 -12.743  1.00  0.00    -0.000 C 
BRANCH  12  13
ATOM     13  C   UNL     1      11.577  22.882 -13.474  1.00  0.00    -0.000 C 
BRANCH  13  14
ATOM     14  C   UNL     1      10.914  24.172 -12.957  1.00  0.00    -0.000 C 
BRANCH  14  15
ATOM     15  C   UNL     1      10.927  24.276 -11.422  1.00  0.00    -0.000 C 
BRANCH  15  16
ATOM     16  C   UNL     1      10.226  25.545 -10.903  1.00  0.00    -0.000 C 
BRANCH  16  17
ATOM     17  C   UNL     1       9.559  25.403  -9.523  1.00  0.00    -0.003 C 
ATOM     18  C   UNL     1      10.434  25.915  -8.379  1.00  0.00     0.004 C 
ENDBRANCH  16  17
ENDBRANCH  15  16
ENDBRANCH  14  15
ENDBRANCH  13  14
ENDBRANCH  12  13
ENDBRANCH  11  12
ENDBRANCH   1  11
TORSDOF 14
ENDMDL
MODEL 9
REMARK VINA RESULT:    -4.292      1.908      4.725
REMARK INTER + INTRA:          -8.907
REMARK INTER:                  -7.476
REMARK INTRA:                  -1.431
REMARK UNBOUND:                -1.103
REMARK SMILES CCCCCCCCCCCCCCCC(=O)[O-]
REMARK SMILES IDX 9 1 10 2 11 3 12 4 13 5 14 6 15 7 16 8 17 9 18 10 8 11 7 12
REMARK SMILES IDX 6 13 5 14 4 15 3 16 2 17 1 18
REMARK H PARENT
REMARK Flexibility Score: inf
ROOT
ATOM      1  C   UNL     1      12.443  22.747 -12.838  1.00  0.00     0.000 C 
ENDROOT
BRANCH   1   2
ATOM      2  C   UNL     1      13.284  23.400 -13.947  1.00  0.00     0.000 C 
BRANCH   2   3
ATOM      3  C   UNL     1      14.783  23.448 -13.609  1.00  0.00     0.000 C 
BRANCH   3   4
ATOM      4  C   UNL     1      15.238  22.461 -12.517  1.00  0.00     0.000 C 
BRANCH   4   5
ATOM      5  C   UNL     1      16.539  21.705 -12.863  1.00  0.00     0.000 C 
BRANCH   5   6
ATOM      6  C   UNL     1      16.573  20.296 -12.248  1.00  0.00     0.006 C 
BRANCH   6   7
ATOM      7  C   UNL     1      17.600  19.387 -12.936  1.00  0.00     0.053 C 
BRANCH   7   8
ATOM      8  C   UNL     1      18.561  18.795 -11.950  1.00  0.00     0.041 C 
ATOM      9  O   UNL     1      18.214  18.627 -10.751  1.00  0.00    -0.550 OA
ATOM     10  O   UNL     1      19.827  18.402 -12.362  1.00  0.00    -0.550 OA
ENDBRANCH   7   8
ENDBRANCH   6   7
ENDBRANCH   5   6
ENDBRANCH   4   5
ENDBRANCH   3   4
ENDBRANCH   2   3
ENDBRANCH   1   2
BRANCH   1  11
ATOM     11  C   UNL     1      10.951  23.113 -12.930  1.00  0.00     0.000 C 
BRANCH  11  12
ATOM     12  C   UNL     1      10.203  23.144 -11.581  1.00  0.00    -0.000 C 
BRANCH  12  13
ATOM     13  C   UNL     1       9.324  24.388 -11.346  1.00  0.00    -0.000 C 
BRANCH  13  14
ATOM     14  C   UNL     1       9.822  25.347 -10.248  1.00  0.00    -0.000 C 
BRANCH  14  15
ATOM     15  C   UNL     1      11.357  25.425 -10.177  1.00  0.00    -0.000 C 
BRANCH  15  16
ATOM     16  C   UNL     1      11.952  26.418 -11.193  1.00  0.00    -0.000 C 
BRANCH  16  17
ATOM     17  C   UNL     1      13.424  26.166 -11.565  1.00  0.00    -0.003 C 
ATOM     18  C   UNL     1      14.290  25.788 -10.363  1.00  0.00     0.004 C 
ENDBRANCH  16  17
ENDBRANCH  15  16
ENDBRANCH  14  15
ENDBRANCH  13  14
ENDBRANCH  12  13
ENDBRANCH  11  12
ENDBRANCH   1  11
TORSDOF 14
ENDMDL
