MODEL 1
REMARK VINA RESULT:    -5.106      0.000      0.000
REMARK INTER + INTRA:          -7.573
REMARK INTER:                  -6.897
REMARK INTRA:                  -0.676
REMARK UNBOUND:                -0.676
REMARK SMILES CCCCCCC=CC(=O)[O-]
REMARK SMILES IDX 5 1 6 2 7 3 8 4 9 5 10 6 11 7 4 8 3 9 2 10 1 11
REMARK H PARENT
REMARK Flexibility Score: inf
ROOT
ATOM      1  C   UNL     1     -43.719 -40.113 105.165  1.00  0.00     0.004 C 
ENDROOT
BRANCH   1   2
ATOM      2  C   UNL     1     -43.791 -38.736 104.494  1.00  0.00     0.027 C 
BRANCH   2   3
ATOM      3  C   UNL     1     -42.968 -37.717 105.233  1.00  0.00    -0.025 C 
ATOM      4  C   UNL     1     -43.524 -36.637 105.793  1.00  0.00     0.020 C 
BRANCH   4   5
ATOM      5  C   UNL     1     -42.731 -35.652 106.543  1.00  0.00     0.064 C 
ATOM      6  O   UNL     1     -43.293 -34.628 107.010  1.00  0.00    -0.545 OA
ATOM      7  O   UNL     1     -41.368 -35.834 106.744  1.00  0.00    -0.545 OA
ENDBRANCH   4   5
ENDBRANCH   2   3
ENDBRANCH   1   2
BRANCH   1   8
ATOM      8  C   UNL     1     -45.009 -40.452 105.931  1.00  0.00     0.000 C 
BRANCH   8   9
ATOM      9  C   UNL     1     -45.123 -39.692 107.262  1.00  0.00    -0.000 C 
BRANCH   9  10
ATOM     10  C   UNL     1     -43.883 -39.863 108.151  1.00  0.00    -0.003 C 
ATOM     11  C   UNL     1     -43.634 -38.615 108.992  1.00  0.00     0.004 C 
ENDBRANCH   9  10
ENDBRANCH   8   9
ENDBRANCH   1   8
TORSDOF 6
ENDMDL
MODEL 2
REMARK VINA RESULT:    -4.964      1.414      2.656
REMARK INTER + INTRA:          -7.381
REMARK INTER:                  -6.609
REMARK INTRA:                  -0.772
REMARK UNBOUND:                -0.676
REMARK SMILES CCCCCCC=CC(=O)[O-]
REMARK SMILES IDX 5 1 6 2 7 3 8 4 9 5 10 6 11 7 4 8 3 9 2 10 1 11
REMARK H PARENT
REMARK Flexibility Score: inf
ROOT
ATOM      1  C   UNL     1     -45.096 -39.587 106.880  1.00  0.00     0.004 C 
ENDROOT
BRANCH   1   2
ATOM      2  C   UNL     1     -44.672 -39.240 108.313  1.00  0.00     0.027 C 
BRANCH   2   3
ATOM      3  C   UNL     1     -43.727 -38.072 108.343  1.00  0.00    -0.025 C 
ATOM      4  C   UNL     1     -43.664 -37.193 107.337  1.00  0.00     0.020 C 
BRANCH   4   5
ATOM      5  C   UNL     1     -42.764 -36.031 107.372  1.00  0.00     0.064 C 
ATOM      6  O   UNL     1     -41.639 -36.100 106.811  1.00  0.00    -0.545 OA
ATOM      7  O   UNL     1     -43.135 -34.856 108.014  1.00  0.00    -0.545 OA
ENDBRANCH   4   5
ENDBRANCH   2   3
ENDBRANCH   1   2
BRANCH   1   8
ATOM      8  C   UNL     1     -44.463 -40.900 106.391  1.00  0.00     0.000 C 
BRANCH   8   9
ATOM      9  C   UNL     1     -43.216 -40.668 105.522  1.00  0.00    -0.000 C 
BRANCH   9  10
ATOM     10  C   UNL     1     -41.907 -40.916 106.286  1.00  0.00    -0.003 C 
ATOM     11  C   UNL     1     -41.014 -39.680 106.259  1.00  0.00     0.004 C 
ENDBRANCH   9  10
ENDBRANCH   8   9
ENDBRANCH   1   8
TORSDOF 6
ENDMDL
MODEL 3
REMARK VINA RESULT:    -4.835      3.125      4.695
REMARK INTER + INTRA:          -7.207
REMARK INTER:                  -6.795
REMARK INTRA:                  -0.412
REMARK UNBOUND:                -0.676
REMARK SMILES CCCCCCC=CC(=O)[O-]
REMARK SMILES IDX 5 1 6 2 7 3 8 4 9 5 10 6 11 7 4 8 3 9 2 10 1 11
REMARK H PARENT
REMARK Flexibility Score: inf
ROOT
ATOM      1  C   UNL     1     -44.518 -38.980 108.113  1.00  0.00     0.004 C 
ENDROOT
BRANCH   1   2
ATOM      2  C   UNL     1     -44.956 -39.666 106.812  1.00  0.00     0.027 C 
BRANCH   2   3
ATOM      3  C   UNL     1     -43.930 -40.659 106.338  1.00  0.00    -0.025 C 
ATOM      4  C   UNL     1     -43.152 -40.413 105.278  1.00  0.00     0.020 C 
BRANCH   4   5
ATOM      5  C   UNL     1     -42.127 -41.366 104.827  1.00  0.00     0.064 C 
ATOM      6  O   UNL     1     -41.216 -41.720 105.620  1.00  0.00    -0.545 OA
ATOM      7  O   UNL     1     -42.147 -41.882 103.537  1.00  0.00    -0.545 OA
ENDBRANCH   4   5
ENDBRANCH   2   3
ENDBRANCH   1   2
BRANCH   1   8
ATOM      8  C   UNL     1     -44.004 -37.551 107.870  1.00  0.00     0.000 C 
BRANCH   8   9
ATOM      9  C   UNL     1     -44.362 -37.024 106.472  1.00  0.00    -0.000 C 
BRANCH   9  10
ATOM     10  C   UNL     1     -43.715 -35.665 106.167  1.00  0.00    -0.003 C 
ATOM     11  C   UNL     1     -43.256 -34.976 107.448  1.00  0.00     0.004 C 
ENDBRANCH   9  10
ENDBRANCH   8   9
ENDBRANCH   1   8
TORSDOF 6
ENDMDL
MODEL 4
REMARK VINA RESULT:    -4.810      2.821      4.309
REMARK INTER + INTRA:          -7.173
REMARK INTER:                  -6.552
REMARK INTRA:                  -0.621
REMARK UNBOUND:                -0.676
REMARK SMILES CCCCCCC=CC(=O)[O-]
REMARK SMILES IDX 5 1 6 2 7 3 8 4 9 5 10 6 11 7 4 8 3 9 2 10 1 11
REMARK H PARENT
REMARK Flexibility Score: inf
ROOT
ATOM      1  C   UNL     1     -44.546 -39.149 106.729  1.00  0.00     0.004 C 
ENDROOT
BRANCH   1   2
ATOM      2  C   UNL     1     -44.578 -38.831 108.229  1.00  0.00     0.027 C 
BRANCH   2   3
ATOM      3  C   UNL     1     -43.273 -39.173 108.895  1.00  0.00    -0.025 C 
ATOM      4  C   UNL     1     -42.310 -39.842 108.252  1.00  0.00     0.020 C 
BRANCH   4   5
ATOM      5  C   UNL     1     -41.021 -40.154 108.885  1.00  0.00     0.064 C 
ATOM      6  O   UNL     1     -40.939 -40.192 110.140  1.00  0.00    -0.545 OA
ATOM      7  O   UNL     1     -39.889 -40.408 108.119  1.00  0.00    -0.545 OA
ENDBRANCH   4   5
ENDBRANCH   2   3
ENDBRANCH   1   2
BRANCH   1   8
ATOM      8  C   UNL     1     -44.784 -37.898 105.867  1.00  0.00     0.000 C 
BRANCH   8   9
ATOM      9  C   UNL     1     -43.618 -36.899 105.940  1.00  0.00    -0.000 C 
BRANCH   9  10
ATOM     10  C   UNL     1     -44.028 -35.554 106.557  1.00  0.00    -0.003 C 
ATOM     11  C   UNL     1     -43.236 -35.269 107.829  1.00  0.00     0.004 C 
ENDBRANCH   9  10
ENDBRANCH   8   9
ENDBRANCH   1   8
TORSDOF 6
ENDMDL
MODEL 5
REMARK VINA RESULT:    -4.666      6.060      7.373
REMARK INTER + INTRA:          -6.978
REMARK INTER:                  -6.597
REMARK INTRA:                  -0.381
REMARK UNBOUND:                -0.676
REMARK SMILES CCCCCCC=CC(=O)[O-]
REMARK SMILES IDX 5 1 6 2 7 3 8 4 9 5 10 6 11 7 4 8 3 9 2 10 1 11
REMARK H PARENT
REMARK Flexibility Score: inf
ROOT
ATOM      1  C   UNL     1     -37.978 -42.212 102.188  1.00  0.00     0.004 C 
ENDROOT
BRANCH   1   2
ATOM      2  C   UNL     1     -37.881 -41.337 103.444  1.00  0.00     0.027 C 
BRANCH   2   3
ATOM      3  C   UNL     1     -39.242 -41.004 103.992  1.00  0.00    -0.025 C 
ATOM      4  C   UNL     1     -40.212 -40.513 103.213  1.00  0.00     0.020 C 
BRANCH   4   5
ATOM      5  C   UNL     1     -41.553 -40.213 103.735  1.00  0.00     0.064 C 
ATOM      6  O   UNL     1     -41.693 -39.324 104.614  1.00  0.00    -0.545 OA
ATOM      7  O   UNL     1     -42.671 -40.897 103.272  1.00  0.00    -0.545 OA
ENDBRANCH   4   5
ENDBRANCH   2   3
ENDBRANCH   1   2
BRANCH   1   8
ATOM      8  C   UNL     1     -38.182 -43.697 102.531  1.00  0.00     0.000 C 
BRANCH   8   9
ATOM      9  C   UNL     1     -39.557 -44.223 102.089  1.00  0.00    -0.000 C 
BRANCH   9  10
ATOM     10  C   UNL     1     -39.699 -45.741 102.273  1.00  0.00    -0.003 C 
ATOM     11  C   UNL     1     -38.647 -46.277 103.238  1.00  0.00     0.004 C 
ENDBRANCH   9  10
ENDBRANCH   8   9
ENDBRANCH   1   8
TORSDOF 6
ENDMDL
MODEL 6
REMARK VINA RESULT:    -4.645      2.913      3.918
REMARK INTER + INTRA:          -6.950
REMARK INTER:                  -6.265
REMARK INTRA:                  -0.686
REMARK UNBOUND:                -0.676
REMARK SMILES CCCCCCC=CC(=O)[O-]
REMARK SMILES IDX 5 1 6 2 7 3 8 4 9 5 10 6 11 7 4 8 3 9 2 10 1 11
REMARK H PARENT
REMARK Flexibility Score: inf
ROOT
ATOM      1  C   UNL     1     -42.870 -36.918 106.900  1.00  0.00     0.004 C 
ENDROOT
BRANCH   1   2
ATOM      2  C   UNL     1     -43.831 -36.682 105.728  1.00  0.00     0.027 C 
BRANCH   2   3
ATOM      3  C   UNL     1     -44.051 -37.938 104.931  1.00  0.00    -0.025 C 
ATOM      4  C   UNL     1     -43.035 -38.734 104.578  1.00  0.00     0.020 C 
BRANCH   4   5
ATOM      5  C   UNL     1     -43.245 -39.979 103.826  1.00  0.00     0.064 C 
ATOM      6  O   UNL     1     -44.388 -40.505 103.802  1.00  0.00    -0.545 OA
ATOM      7  O   UNL     1     -42.200 -40.585 103.138  1.00  0.00    -0.545 OA
ENDBRANCH   4   5
ENDBRANCH   2   3
ENDBRANCH   1   2
BRANCH   1   8
ATOM      8  C   UNL     1     -43.605 -36.968 108.250  1.00  0.00     0.000 C 
BRANCH   8   9
ATOM      9  C   UNL     1     -43.612 -38.375 108.868  1.00  0.00    -0.000 C 
BRANCH   9  10
ATOM     10  C   UNL     1     -44.779 -39.238 108.364  1.00  0.00    -0.003 C 
ATOM     11  C   UNL     1     -44.275 -40.404 107.520  1.00  0.00     0.004 C 
ENDBRANCH   9  10
ENDBRANCH   8   9
ENDBRANCH   1   8
TORSDOF 6
ENDMDL
MODEL 7
REMARK VINA RESULT:    -4.597      5.754      7.190
REMARK INTER + INTRA:          -6.886
REMARK INTER:                  -6.270
REMARK INTRA:                  -0.615
REMARK UNBOUND:                -0.676
REMARK SMILES CCCCCCC=CC(=O)[O-]
REMARK SMILES IDX 5 1 6 2 7 3 8 4 9 5 10 6 11 7 4 8 3 9 2 10 1 11
REMARK H PARENT
REMARK Flexibility Score: inf
ROOT
ATOM      1  C   UNL     1     -40.127 -44.747 102.950  1.00  0.00     0.004 C 
ENDROOT
BRANCH   1   2
ATOM      2  C   UNL     1     -40.762 -43.768 101.954  1.00  0.00     0.027 C 
BRANCH   2   3
ATOM      3  C   UNL     1     -41.763 -42.868 102.625  1.00  0.00    -0.025 C 
ATOM      4  C   UNL     1     -41.442 -42.135 103.696  1.00  0.00     0.020 C 
BRANCH   4   5
ATOM      5  C   UNL     1     -42.406 -41.230 104.339  1.00  0.00     0.064 C 
ATOM      6  O   UNL     1     -42.930 -40.303 103.669  1.00  0.00    -0.545 OA
ATOM      7  O   UNL     1     -42.749 -41.383 105.677  1.00  0.00    -0.545 OA
ENDBRANCH   4   5
ENDBRANCH   2   3
ENDBRANCH   1   2
BRANCH   1   8
ATOM      8  C   UNL     1     -38.602 -44.572 103.042  1.00  0.00     0.000 C 
BRANCH   8   9
ATOM      9  C   UNL     1     -38.101 -43.337 102.277  1.00  0.00    -0.000 C 
BRANCH   9  10
ATOM     10  C   UNL     1     -37.082 -42.515 103.080  1.00  0.00    -0.003 C 
ATOM     11  C   UNL     1     -37.770 -41.401 103.862  1.00  0.00     0.004 C 
ENDBRANCH   9  10
ENDBRANCH   8   9
ENDBRANCH   1   8
TORSDOF 6
ENDMDL
MODEL 8
REMARK VINA RESULT:    -4.548      5.692      7.004
REMARK INTER + INTRA:          -6.819
REMARK INTER:                  -6.471
REMARK INTRA:                  -0.348
REMARK UNBOUND:                -0.676
REMARK SMILES CCCCCCC=CC(=O)[O-]
REMARK SMILES IDX 5 1 6 2 7 3 8 4 9 5 10 6 11 7 4 8 3 9 2 10 1 11
REMARK H PARENT
REMARK Flexibility Score: inf
ROOT
ATOM      1  C   UNL     1     -38.528 -42.163 102.967  1.00  0.00     0.004 C 
ENDROOT
BRANCH   1   2
ATOM      2  C   UNL     1     -39.246 -41.359 101.876  1.00  0.00     0.027 C 
BRANCH   2   3
ATOM      3  C   UNL     1     -40.562 -40.818 102.363  1.00  0.00    -0.025 C 
ATOM      4  C   UNL     1     -40.722 -40.388 103.619  1.00  0.00     0.020 C 
BRANCH   4   5
ATOM      5  C   UNL     1     -41.996 -39.829 104.095  1.00  0.00     0.064 C 
ATOM      6  O   UNL     1     -43.075 -40.209 103.571  1.00  0.00    -0.545 OA
ATOM      7  O   UNL     1     -42.029 -38.886 105.116  1.00  0.00    -0.545 OA
ENDBRANCH   4   5
ENDBRANCH   2   3
ENDBRANCH   1   2
BRANCH   1   8
ATOM      8  C   UNL     1     -38.347 -43.639 102.575  1.00  0.00     0.000 C 
BRANCH   8   9
ATOM      9  C   UNL     1     -39.616 -44.247 101.957  1.00  0.00    -0.000 C 
BRANCH   9  10
ATOM     10  C   UNL     1     -39.863 -45.693 102.411  1.00  0.00    -0.003 C 
ATOM     11  C   UNL     1     -38.796 -46.146 103.403  1.00  0.00     0.004 C 
ENDBRANCH   9  10
ENDBRANCH   8   9
ENDBRANCH   1   8
TORSDOF 6
ENDMDL
MODEL 9
REMARK VINA RESULT:    -4.521      2.963      4.054
REMARK INTER + INTRA:          -6.783
REMARK INTER:                  -6.259
REMARK INTRA:                  -0.523
REMARK UNBOUND:                -0.676
REMARK SMILES CCCCCCC=CC(=O)[O-]
REMARK SMILES IDX 5 1 6 2 7 3 8 4 9 5 10 6 11 7 4 8 3 9 2 10 1 11
REMARK H PARENT
REMARK Flexibility Score: inf
ROOT
ATOM      1  C   UNL     1     -43.421 -37.043 105.625  1.00  0.00     0.004 C 
ENDROOT
BRANCH   1   2
ATOM      2  C   UNL     1     -43.350 -38.380 104.877  1.00  0.00     0.027 C 
BRANCH   2   3
ATOM      3  C   UNL     1     -42.066 -39.107 105.165  1.00  0.00    -0.025 C 
ATOM      4  C   UNL     1     -41.385 -39.739 104.203  1.00  0.00     0.020 C 
BRANCH   4   5
ATOM      5  C   UNL     1     -40.113 -40.426 104.471  1.00  0.00     0.064 C 
ATOM      6  O   UNL     1     -39.634 -40.415 105.634  1.00  0.00    -0.545 OA
ATOM      7  O   UNL     1     -39.430 -41.090 103.459  1.00  0.00    -0.545 OA
ENDBRANCH   4   5
ENDBRANCH   2   3
ENDBRANCH   1   2
BRANCH   1   8
ATOM      8  C   UNL     1     -44.373 -37.104 106.831  1.00  0.00     0.000 C 
BRANCH   8   9
ATOM      9  C   UNL     1     -43.625 -37.200 108.170  1.00  0.00    -0.000 C 
BRANCH   9  10
ATOM     10  C   UNL     1     -43.592 -38.629 108.731  1.00  0.00    -0.003 C 
ATOM     11  C   UNL     1     -44.750 -39.459 108.185  1.00  0.00     0.004 C 
ENDBRANCH   9  10
ENDBRANCH   8   9
ENDBRANCH   1   8
TORSDOF 6
ENDMDL
