MODEL 1
REMARK VINA RESULT:    -3.872      0.000      0.000
REMARK INTER + INTRA:          -5.433
REMARK INTER:                  -5.004
REMARK INTRA:                  -0.429
REMARK UNBOUND:                -0.429
REMARK SMILES CCCCCCC(=O)[O-]
REMARK SMILES IDX 5 1 6 2 7 3 8 4 9 5 4 6 3 7 2 8 1 9
REMARK H PARENT
REMARK Flexibility Score: inf
ROOT
ATOM      1  C   UNL     1      10.092  13.785  21.770  1.00  0.00     0.006 C 
ENDROOT
BRANCH   1   2
ATOM      2  C   UNL     1      10.275  13.573  20.260  1.00  0.00     0.053 C 
BRANCH   2   3
ATOM      3  C   UNL     1      10.102  14.849  19.495  1.00  0.00     0.041 C 
ATOM      4  O   UNL     1      10.979  15.218  18.669  1.00  0.00    -0.550 OA
ATOM      5  O   UNL     1       8.988  15.650  19.718  1.00  0.00    -0.550 OA
ENDBRANCH   2   3
ENDBRANCH   1   2
BRANCH   1   6
ATOM      6  C   UNL     1      11.283  14.519  22.403  1.00  0.00     0.000 C 
BRANCH   6   7
ATOM      7  C   UNL     1      10.805  15.540  23.446  1.00  0.00    -0.000 C 
BRANCH   7   8
ATOM      8  C   UNL     1      10.122  16.760  22.809  1.00  0.00    -0.003 C 
ATOM      9  C   UNL     1      11.066  17.572  21.923  1.00  0.00     0.004 C 
ENDBRANCH   7   8
ENDBRANCH   6   7
ENDBRANCH   1   6
TORSDOF 5
ENDMDL
MODEL 2
REMARK VINA RESULT:    -3.841      1.450      2.544
REMARK INTER + INTRA:          -5.393
REMARK INTER:                  -5.080
REMARK INTRA:                  -0.313
REMARK UNBOUND:                -0.429
REMARK SMILES CCCCCCC(=O)[O-]
REMARK SMILES IDX 5 1 6 2 7 3 8 4 9 5 4 6 3 7 2 8 1 9
REMARK H PARENT
REMARK Flexibility Score: inf
ROOT
ATOM      1  C   UNL     1      10.512  16.009  21.486  1.00  0.00     0.006 C 
ENDROOT
BRANCH   1   2
ATOM      2  C   UNL     1       9.759  15.254  20.382  1.00  0.00     0.053 C 
BRANCH   2   3
ATOM      3  C   UNL     1      10.677  14.819  19.281  1.00  0.00     0.041 C 
ATOM      4  O   UNL     1      11.289  15.676  18.589  1.00  0.00    -0.550 OA
ATOM      5  O   UNL     1      10.831  13.469  18.994  1.00  0.00    -0.550 OA
ENDBRANCH   2   3
ENDBRANCH   1   2
BRANCH   1   6
ATOM      6  C   UNL     1      11.269  15.061  22.428  1.00  0.00     0.000 C 
BRANCH   6   7
ATOM      7  C   UNL     1      10.493  14.854  23.737  1.00  0.00    -0.000 C 
BRANCH   7   8
ATOM      8  C   UNL     1      10.119  13.383  23.975  1.00  0.00    -0.003 C 
ATOM      9  C   UNL     1      10.345  12.508  22.742  1.00  0.00     0.004 C 
ENDBRANCH   7   8
ENDBRANCH   6   7
ENDBRANCH   1   6
TORSDOF 5
ENDMDL
MODEL 3
REMARK VINA RESULT:    -3.655      1.056      1.700
REMARK INTER + INTRA:          -5.152
REMARK INTER:                  -4.928
REMARK INTRA:                  -0.225
REMARK UNBOUND:                -0.429
REMARK SMILES CCCCCCC(=O)[O-]
REMARK SMILES IDX 5 1 6 2 7 3 8 4 9 5 4 6 3 7 2 8 1 9
REMARK H PARENT
REMARK Flexibility Score: inf
ROOT
ATOM      1  C   UNL     1      10.124  13.587  21.767  1.00  0.00     0.006 C 
ENDROOT
BRANCH   1   2
ATOM      2  C   UNL     1      10.249  13.461  20.243  1.00  0.00     0.053 C 
BRANCH   2   3
ATOM      3  C   UNL     1      10.117  14.789  19.563  1.00  0.00     0.041 C 
ATOM      4  O   UNL     1      10.973  15.157  18.715  1.00  0.00    -0.550 OA
ATOM      5  O   UNL     1       9.066  15.638  19.889  1.00  0.00    -0.550 OA
ENDBRANCH   2   3
ENDBRANCH   1   2
BRANCH   1   6
ATOM      6  C   UNL     1      11.320  14.321  22.391  1.00  0.00     0.000 C 
BRANCH   6   7
ATOM      7  C   UNL     1      10.850  15.376  23.403  1.00  0.00    -0.000 C 
BRANCH   7   8
ATOM      8  C   UNL     1      10.000  14.774  24.532  1.00  0.00    -0.003 C 
ATOM      9  C   UNL     1       9.686  15.781  25.638  1.00  0.00     0.004 C 
ENDBRANCH   7   8
ENDBRANCH   6   7
ENDBRANCH   1   6
TORSDOF 5
ENDMDL
MODEL 4
REMARK VINA RESULT:    -3.559      1.454      1.900
REMARK INTER + INTRA:          -5.028
REMARK INTER:                  -4.718
REMARK INTRA:                  -0.309
REMARK UNBOUND:                -0.429
REMARK SMILES CCCCCCC(=O)[O-]
REMARK SMILES IDX 5 1 6 2 7 3 8 4 9 5 4 6 3 7 2 8 1 9
REMARK H PARENT
REMARK Flexibility Score: inf
ROOT
ATOM      1  C   UNL     1       9.746  15.185  21.817  1.00  0.00     0.006 C 
ENDROOT
BRANCH   1   2
ATOM      2  C   UNL     1       9.497  15.431  20.323  1.00  0.00     0.053 C 
BRANCH   2   3
ATOM      3  C   UNL     1      10.469  14.681  19.466  1.00  0.00     0.041 C 
ATOM      4  O   UNL     1      11.198  15.297  18.644  1.00  0.00    -0.550 OA
ATOM      5  O   UNL     1      10.547  13.296  19.549  1.00  0.00    -0.550 OA
ENDBRANCH   2   3
ENDBRANCH   1   2
BRANCH   1   6
ATOM      6  C   UNL     1      10.921  16.014  22.355  1.00  0.00     0.000 C 
BRANCH   6   7
ATOM      7  C   UNL     1      10.869  17.452  21.818  1.00  0.00    -0.000 C 
BRANCH   7   8
ATOM      8  C   UNL     1       9.959  18.363  22.656  1.00  0.00    -0.003 C 
ATOM      9  C   UNL     1       9.118  19.310  21.800  1.00  0.00     0.004 C 
ENDBRANCH   7   8
ENDBRANCH   6   7
ENDBRANCH   1   6
TORSDOF 5
ENDMDL
MODEL 5
REMARK VINA RESULT:    -3.540      2.069      3.233
REMARK INTER + INTRA:          -5.003
REMARK INTER:                  -4.891
REMARK INTRA:                  -0.112
REMARK UNBOUND:                -0.429
REMARK SMILES CCCCCCC(=O)[O-]
REMARK SMILES IDX 5 1 6 2 7 3 8 4 9 5 4 6 3 7 2 8 1 9
REMARK H PARENT
REMARK Flexibility Score: inf
ROOT
ATOM      1  C   UNL     1      10.739  14.198  21.931  1.00  0.00     0.006 C 
ENDROOT
BRANCH   1   2
ATOM      2  C   UNL     1      10.301  13.727  20.538  1.00  0.00     0.053 C 
BRANCH   2   3
ATOM      3  C   UNL     1      10.114  14.877  19.596  1.00  0.00     0.041 C 
ATOM      4  O   UNL     1      10.979  15.122  18.713  1.00  0.00    -0.550 OA
ATOM      5  O   UNL     1       9.001  15.700  19.713  1.00  0.00    -0.550 OA
ENDBRANCH   2   3
ENDBRANCH   1   2
BRANCH   1   6
ATOM      6  C   UNL     1      10.785  13.046  22.946  1.00  0.00     0.000 C 
BRANCH   6   7
ATOM      7  C   UNL     1       9.392  12.427  23.137  1.00  0.00    -0.000 C 
BRANCH   7   8
ATOM      8  C   UNL     1       8.996  12.312  24.617  1.00  0.00    -0.003 C 
ATOM      9  C   UNL     1       9.711  11.167  25.334  1.00  0.00     0.004 C 
ENDBRANCH   7   8
ENDBRANCH   6   7
ENDBRANCH   1   6
TORSDOF 5
ENDMDL
MODEL 6
REMARK VINA RESULT:    -3.483      2.709      3.691
REMARK INTER + INTRA:          -4.930
REMARK INTER:                  -4.588
REMARK INTRA:                  -0.343
REMARK UNBOUND:                -0.429
REMARK SMILES CCCCCCC(=O)[O-]
REMARK SMILES IDX 5 1 6 2 7 3 8 4 9 5 4 6 3 7 2 8 1 9
REMARK H PARENT
REMARK Flexibility Score: inf
ROOT
ATOM      1  C   UNL     1      10.565  14.642  23.419  1.00  0.00     0.006 C 
ENDROOT
BRANCH   1   2
ATOM      2  C   UNL     1       9.769  13.490  24.046  1.00  0.00     0.053 C 
BRANCH   2   3
ATOM      3  C   UNL     1       9.632  12.331  23.106  1.00  0.00     0.041 C 
ATOM      4  O   UNL     1      10.408  12.220  22.119  1.00  0.00    -0.550 OA
ATOM      5  O   UNL     1       8.627  11.392  23.299  1.00  0.00    -0.550 OA
ENDBRANCH   2   3
ENDBRANCH   1   2
BRANCH   1   6
ATOM      6  C   UNL     1       9.652  15.724  22.825  1.00  0.00     0.000 C 
BRANCH   6   7
ATOM      7  C   UNL     1      10.148  16.160  21.438  1.00  0.00    -0.000 C 
BRANCH   7   8
ATOM      8  C   UNL     1       9.655  15.233  20.316  1.00  0.00    -0.003 C 
ATOM      9  C   UNL     1      10.795  14.673  19.466  1.00  0.00     0.004 C 
ENDBRANCH   7   8
ENDBRANCH   6   7
ENDBRANCH   1   6
TORSDOF 5
ENDMDL
MODEL 7
REMARK VINA RESULT:    -3.443      1.612      2.443
REMARK INTER + INTRA:          -4.878
REMARK INTER:                  -4.677
REMARK INTRA:                  -0.201
REMARK UNBOUND:                -0.429
REMARK SMILES CCCCCCC(=O)[O-]
REMARK SMILES IDX 5 1 6 2 7 3 8 4 9 5 4 6 3 7 2 8 1 9
REMARK H PARENT
REMARK Flexibility Score: inf
ROOT
ATOM      1  C   UNL     1      10.813  15.761  21.427  1.00  0.00     0.006 C 
ENDROOT
BRANCH   1   2
ATOM      2  C   UNL     1       9.738  15.025  20.616  1.00  0.00     0.053 C 
BRANCH   2   3
ATOM      3  C   UNL     1      10.321  13.912  19.800  1.00  0.00     0.041 C 
ATOM      4  O   UNL     1      10.982  14.168  18.758  1.00  0.00    -0.550 OA
ATOM      5  O   UNL     1      10.107  12.590  20.169  1.00  0.00    -0.550 OA
ENDBRANCH   2   3
ENDBRANCH   1   2
BRANCH   1   6
ATOM      6  C   UNL     1      10.221  16.520  22.623  1.00  0.00     0.000 C 
BRANCH   6   7
ATOM      7  C   UNL     1      10.882  16.076  23.936  1.00  0.00    -0.000 C 
BRANCH   7   8
ATOM      8  C   UNL     1       9.980  15.152  24.769  1.00  0.00    -0.003 C 
ATOM      9  C   UNL     1       9.970  13.712  24.253  1.00  0.00     0.004 C 
ENDBRANCH   7   8
ENDBRANCH   6   7
ENDBRANCH   1   6
TORSDOF 5
ENDMDL
MODEL 8
REMARK VINA RESULT:    -3.330     11.717     12.799
REMARK INTER + INTRA:          -4.732
REMARK INTER:                  -4.616
REMARK INTRA:                  -0.116
REMARK UNBOUND:                -0.429
REMARK SMILES CCCCCCC(=O)[O-]
REMARK SMILES IDX 5 1 6 2 7 3 8 4 9 5 4 6 3 7 2 8 1 9
REMARK H PARENT
REMARK Flexibility Score: inf
ROOT
ATOM      1  C   UNL     1      22.102  18.562  25.501  1.00  0.00     0.006 C 
ENDROOT
BRANCH   1   2
ATOM      2  C   UNL     1      23.377  19.292  25.058  1.00  0.00     0.053 C 
BRANCH   2   3
ATOM      3  C   UNL     1      23.343  19.633  23.599  1.00  0.00     0.041 C 
ATOM      4  O   UNL     1      23.108  20.814  23.229  1.00  0.00    -0.550 OA
ATOM      5  O   UNL     1      23.539  18.641  22.647  1.00  0.00    -0.550 OA
ENDBRANCH   2   3
ENDBRANCH   1   2
BRANCH   1   6
ATOM      6  C   UNL     1      21.059  19.520  26.095  1.00  0.00     0.000 C 
BRANCH   6   7
ATOM      7  C   UNL     1      20.236  18.825  27.190  1.00  0.00    -0.000 C 
BRANCH   7   8
ATOM      8  C   UNL     1      18.732  19.120  27.074  1.00  0.00    -0.003 C 
ATOM      9  C   UNL     1      17.864  17.912  27.426  1.00  0.00     0.004 C 
ENDBRANCH   7   8
ENDBRANCH   6   7
ENDBRANCH   1   6
TORSDOF 5
ENDMDL
MODEL 9
REMARK VINA RESULT:    -3.247      1.940      3.556
REMARK INTER + INTRA:          -4.625
REMARK INTER:                  -4.234
REMARK INTRA:                  -0.391
REMARK UNBOUND:                -0.429
REMARK SMILES CCCCCCC(=O)[O-]
REMARK SMILES IDX 5 1 6 2 7 3 8 4 9 5 4 6 3 7 2 8 1 9
REMARK H PARENT
REMARK Flexibility Score: inf
ROOT
ATOM      1  C   UNL     1      10.471  14.437  23.578  1.00  0.00     0.006 C 
ENDROOT
BRANCH   1   2
ATOM      2  C   UNL     1      10.707  15.895  23.994  1.00  0.00     0.053 C 
BRANCH   2   3
ATOM      3  C   UNL     1      10.260  16.854  22.933  1.00  0.00     0.041 C 
ATOM      4  O   UNL     1       9.061  16.861  22.547  1.00  0.00    -0.550 OA
ATOM      5  O   UNL     1      11.175  17.720  22.346  1.00  0.00    -0.550 OA
ENDBRANCH   2   3
ENDBRANCH   1   2
BRANCH   1   6
ATOM      6  C   UNL     1      11.158  14.093  22.248  1.00  0.00     0.000 C 
BRANCH   6   7
ATOM      7  C   UNL     1      10.185  13.378  21.298  1.00  0.00    -0.000 C 
BRANCH   7   8
ATOM      8  C   UNL     1      10.255  13.923  19.863  1.00  0.00    -0.003 C 
ATOM      9  C   UNL     1      11.147  15.158  19.741  1.00  0.00     0.004 C 
ENDBRANCH   7   8
ENDBRANCH   6   7
ENDBRANCH   1   6
TORSDOF 5
ENDMDL
