MODEL 1
REMARK VINA RESULT:    -4.184      0.000      0.000
REMARK INTER + INTRA:          -6.723
REMARK INTER:                  -6.385
REMARK INTRA:                  -0.338
REMARK UNBOUND:                -0.338
REMARK SMILES CC1=CCC[C@H](C)C(=O)C[C@H](C(C)C)C(=O)C1
REMARK SMILES IDX 8 1 9 2 6 3 7 4 5 5 4 6 3 7 2 8 1 9 10 11 11 12 15 13 16 14
REMARK SMILES IDX 17 15 12 17 13 18 14 19
REMARK H PARENT
REMARK Flexibility Score: 70.00
ROOT
ATOM      1  C   UNL     1      18.048 -31.328  22.799  1.00  0.00     0.136 C 
ATOM      2  O   UNL     1      18.898 -31.298  23.679  1.00  0.00    -0.299 OA
ENDROOT
BRANCH   1   3
ATOM      3  C   UNL     1      18.505 -31.104  21.369  1.00  0.00     0.053 C 
ATOM      4  C   UNL     1      19.227 -29.754  21.279  1.00  0.00     0.016 C 
BRANCH   3   5
ATOM      5  C   UNL     1      19.393 -32.221  20.762  1.00  0.00     0.015 C 
BRANCH   5   6
ATOM      6  C   UNL     1      19.140 -33.668  21.249  1.00  0.00     0.028 C 
BRANCH   6   7
ATOM      7  C   UNL     1      18.256 -34.492  20.337  1.00  0.00    -0.028 C 
ATOM      8  C   UNL     1      16.948 -34.793  20.536  1.00  0.00    -0.070 CG0
ATOM      9  C   UNL     1      16.265 -35.640  19.491  1.00  0.00     0.039 C 
ATOM     10  G   UNL     1      16.125 -34.331  21.729  1.00  0.00     0.000 G0
ENDBRANCH   6   7
ENDBRANCH   5   6
ENDBRANCH   3   5
ENDBRANCH   1   3
BRANCH   1  11
ATOM     11  C   UNL     1      16.629 -31.724  23.160  1.00  0.00     0.087 C 
BRANCH  11  12
ATOM     12  C   UNL     1      15.672 -31.701  21.941  1.00  0.00     0.066 C 
BRANCH  12  13
ATOM     13  C   UNL     1      15.318 -33.091  21.425  1.00  0.00     0.140 C 
ATOM     14  O   UNL     1      14.315 -33.217  20.736  1.00  0.00    -0.299 OA
BRANCH  13  15
ATOM     15  C   UNL     1      16.131 -34.325  21.744  1.00  0.00     0.106 CG0
ATOM     16  G   UNL     1      16.932 -34.789  20.537  1.00  0.00     0.000 G0
ENDBRANCH  13  15
ENDBRANCH  12  13
BRANCH  12  17
ATOM     17  C   UNL     1      14.425 -30.794  22.177  1.00  0.00    -0.006 C 
ATOM     18  C   UNL     1      13.664 -31.211  23.446  1.00  0.00     0.008 C 
ATOM     19  C   UNL     1      14.741 -29.290  22.232  1.00  0.00     0.008 C 
ENDBRANCH  12  17
ENDBRANCH  11  12
ENDBRANCH   1  11
TORSDOF 1
ENDMDL
MODEL 2
REMARK VINA RESULT:    -4.153      1.664      2.093
REMARK INTER + INTRA:          -6.677
REMARK INTER:                  -6.434
REMARK INTRA:                  -0.243
REMARK UNBOUND:                -0.338
REMARK SMILES CC1=CCC[C@H](C)C(=O)C[C@H](C(C)C)C(=O)C1
REMARK SMILES IDX 8 1 9 2 6 3 7 4 5 5 4 6 3 7 2 8 1 9 10 11 11 12 15 13 16 14
REMARK SMILES IDX 17 15 12 17 13 18 14 19
REMARK H PARENT
REMARK Flexibility Score: 70.00
ROOT
ATOM      1  C   UNL     1      16.761 -30.059  21.578  1.00  0.00     0.136 C 
ATOM      2  O   UNL     1      16.096 -29.032  21.598  1.00  0.00    -0.299 OA
ENDROOT
BRANCH   1   3
ATOM      3  C   UNL     1      18.129 -30.001  20.922  1.00  0.00     0.053 C 
ATOM      4  C   UNL     1      18.584 -28.539  20.841  1.00  0.00     0.016 C 
BRANCH   3   5
ATOM      5  C   UNL     1      19.232 -30.864  21.587  1.00  0.00     0.015 C 
BRANCH   5   6
ATOM      6  C   UNL     1      19.585 -32.208  20.906  1.00  0.00     0.028 C 
BRANCH   6   7
ATOM      7  C   UNL     1      19.429 -33.423  21.795  1.00  0.00    -0.028 C 
ATOM      8  C   UNL     1      18.400 -34.308  21.782  1.00  0.00    -0.070 CG0
ATOM      9  C   UNL     1      18.453 -35.447  22.770  1.00  0.00     0.039 C 
ATOM     10  G   UNL     1      17.208 -34.235  20.840  1.00  0.00     0.000 G0
ENDBRANCH   6   7
ENDBRANCH   5   6
ENDBRANCH   3   5
ENDBRANCH   1   3
BRANCH   1  11
ATOM     11  C   UNL     1      16.252 -31.279  22.323  1.00  0.00     0.087 C 
BRANCH  11  12
ATOM     12  C   UNL     1      15.487 -32.266  21.404  1.00  0.00     0.066 C 
BRANCH  12  13
ATOM     13  C   UNL     1      15.967 -33.707  21.534  1.00  0.00     0.140 C 
ATOM     14  O   UNL     1      15.337 -34.465  22.258  1.00  0.00    -0.299 OA
BRANCH  13  15
ATOM     15  C   UNL     1      17.197 -34.237  20.834  1.00  0.00     0.106 CG0
ATOM     16  G   UNL     1      18.388 -34.304  21.778  1.00  0.00     0.000 G0
ENDBRANCH  13  15
ENDBRANCH  12  13
BRANCH  12  17
ATOM     17  C   UNL     1      13.939 -32.117  21.526  1.00  0.00    -0.006 C 
ATOM     18  C   UNL     1      13.548 -31.399  22.827  1.00  0.00     0.008 C 
ATOM     19  C   UNL     1      13.277 -31.418  20.327  1.00  0.00     0.008 C 
ENDBRANCH  12  17
ENDBRANCH  11  12
ENDBRANCH   1  11
TORSDOF 1
ENDMDL
MODEL 3
REMARK VINA RESULT:    -4.098      1.729      4.952
REMARK INTER + INTRA:          -6.593
REMARK INTER:                  -6.412
REMARK INTRA:                  -0.181
REMARK UNBOUND:                -0.338
REMARK SMILES CC1=CCC[C@H](C)C(=O)C[C@H](C(C)C)C(=O)C1
REMARK SMILES IDX 8 1 9 2 6 3 7 4 5 5 4 6 3 7 2 8 1 9 10 11 11 12 15 13 16 14
REMARK SMILES IDX 17 15 12 17 13 18 14 19
REMARK H PARENT
REMARK Flexibility Score: 70.00
ROOT
ATOM      1  C   UNL     1      14.617 -33.166  20.864  1.00  0.00     0.136 C 
ATOM      2  O   UNL     1      14.263 -33.480  19.736  1.00  0.00    -0.299 OA
ENDROOT
BRANCH   1   3
ATOM      3  C   UNL     1      13.889 -32.017  21.539  1.00  0.00     0.053 C 
ATOM      4  C   UNL     1      13.852 -32.266  23.051  1.00  0.00     0.016 C 
BRANCH   3   5
ATOM      5  C   UNL     1      14.449 -30.601  21.248  1.00  0.00     0.015 C 
BRANCH   5   6
ATOM      6  C   UNL     1      15.528 -30.056  22.213  1.00  0.00     0.028 C 
BRANCH   6   7
ATOM      7  C   UNL     1      16.922 -29.992  21.626  1.00  0.00    -0.028 C 
ATOM      8  C   UNL     1      17.985 -30.756  21.984  1.00  0.00    -0.070 CG0
ATOM      9  C   UNL     1      19.288 -30.511  21.263  1.00  0.00     0.039 C 
ATOM     10  G   UNL     1      17.952 -31.839  23.051  1.00  0.00     0.000 G0
ENDBRANCH   6   7
ENDBRANCH   5   6
ENDBRANCH   3   5
ENDBRANCH   1   3
BRANCH   1  11
ATOM     11  C   UNL     1      15.651 -34.020  21.575  1.00  0.00     0.087 C 
BRANCH  11  12
ATOM     12  C   UNL     1      17.105 -33.616  21.222  1.00  0.00     0.066 C 
BRANCH  12  13
ATOM     13  C   UNL     1      17.939 -33.240  22.442  1.00  0.00     0.140 C 
ATOM     14  O   UNL     1      18.620 -34.109  22.969  1.00  0.00    -0.299 OA
BRANCH  13  15
ATOM     15  C   UNL     1      17.946 -31.855  23.046  1.00  0.00     0.106 CG0
ATOM     16  G   UNL     1      17.958 -30.780  21.969  1.00  0.00     0.000 G0
ENDBRANCH  13  15
ENDBRANCH  12  13
BRANCH  12  17
ATOM     17  C   UNL     1      17.805 -34.653  20.292  1.00  0.00    -0.006 C 
ATOM     18  C   UNL     1      16.870 -35.828  19.964  1.00  0.00     0.008 C 
ATOM     19  C   UNL     1      18.365 -34.056  18.991  1.00  0.00     0.008 C 
ENDBRANCH  12  17
ENDBRANCH  11  12
ENDBRANCH   1  11
TORSDOF 1
ENDMDL
MODEL 4
REMARK VINA RESULT:    -4.082      1.821      3.724
REMARK INTER + INTRA:          -6.568
REMARK INTER:                  -6.141
REMARK INTRA:                  -0.427
REMARK UNBOUND:                -0.338
REMARK SMILES CC1=CCC[C@H](C)C(=O)C[C@H](C(C)C)C(=O)C1
REMARK SMILES IDX 8 1 9 2 6 3 7 4 5 5 4 6 3 7 2 8 1 9 10 11 11 12 15 13 16 14
REMARK SMILES IDX 17 15 12 17 13 18 14 19
REMARK H PARENT
REMARK Flexibility Score: 70.00
ROOT
ATOM      1  C   UNL     1      15.559 -33.407  20.422  1.00  0.00     0.136 C 
ATOM      2  O   UNL     1      14.343 -33.472  20.303  1.00  0.00    -0.299 OA
ENDROOT
BRANCH   1   3
ATOM      3  C   UNL     1      16.386 -34.550  19.861  1.00  0.00     0.053 C 
ATOM      4  C   UNL     1      17.678 -33.985  19.259  1.00  0.00     0.016 C 
BRANCH   3   5
ATOM      5  C   UNL     1      16.718 -35.692  20.855  1.00  0.00     0.015 C 
BRANCH   5   6
ATOM      6  C   UNL     1      18.105 -35.651  21.540  1.00  0.00     0.028 C 
BRANCH   6   7
ATOM      7  C   UNL     1      18.061 -35.433  23.037  1.00  0.00    -0.028 C 
ATOM      8  C   UNL     1      18.241 -34.256  23.689  1.00  0.00    -0.070 CG0
ATOM      9  C   UNL     1      18.159 -34.277  25.195  1.00  0.00     0.039 C 
ATOM     10  G   UNL     1      18.511 -32.923  23.007  1.00  0.00     0.000 G0
ENDBRANCH   6   7
ENDBRANCH   5   6
ENDBRANCH   3   5
ENDBRANCH   1   3
BRANCH   1  11
ATOM     11  C   UNL     1      16.176 -32.139  20.985  1.00  0.00     0.087 C 
BRANCH  11  12
ATOM     12  C   UNL     1      16.018 -32.030  22.523  1.00  0.00     0.066 C 
BRANCH  12  13
ATOM     13  C   UNL     1      17.349 -31.949  23.262  1.00  0.00     0.140 C 
ATOM     14  O   UNL     1      17.508 -31.050  24.076  1.00  0.00    -0.299 OA
BRANCH  13  15
ATOM     15  C   UNL     1      18.491 -32.909  23.019  1.00  0.00     0.106 CG0
ATOM     16  G   UNL     1      18.246 -34.247  23.701  1.00  0.00     0.000 G0
ENDBRANCH  13  15
ENDBRANCH  12  13
BRANCH  12  17
ATOM     17  C   UNL     1      15.011 -30.916  22.942  1.00  0.00    -0.006 C 
ATOM     18  C   UNL     1      14.866 -29.852  21.842  1.00  0.00     0.008 C 
ATOM     19  C   UNL     1      13.623 -31.440  23.345  1.00  0.00     0.008 C 
ENDBRANCH  12  17
ENDBRANCH  11  12
ENDBRANCH   1  11
TORSDOF 1
ENDMDL
MODEL 5
REMARK VINA RESULT:    -4.059      1.593      3.964
REMARK INTER + INTRA:          -6.532
REMARK INTER:                  -6.336
REMARK INTRA:                  -0.197
REMARK UNBOUND:                -0.338
REMARK SMILES CC1=CCC[C@H](C)C(=O)C[C@H](C(C)C)C(=O)C1
REMARK SMILES IDX 8 1 9 2 6 3 7 4 5 5 4 6 3 7 2 8 1 9 10 11 11 12 15 13 16 14
REMARK SMILES IDX 17 15 12 17 13 18 14 19
REMARK H PARENT
REMARK Flexibility Score: 70.00
ROOT
ATOM      1  C   UNL     1      16.745 -30.975  22.977  1.00  0.00     0.136 C 
ATOM      2  O   UNL     1      17.250 -31.485  23.968  1.00  0.00    -0.299 OA
ENDROOT
BRANCH   1   3
ATOM      3  C   UNL     1      15.282 -30.581  23.053  1.00  0.00     0.053 C 
ATOM      4  C   UNL     1      14.963 -29.615  21.906  1.00  0.00     0.016 C 
BRANCH   3   5
ATOM      5  C   UNL     1      14.267 -31.753  23.056  1.00  0.00     0.015 C 
BRANCH   5   6
ATOM      6  C   UNL     1      14.191 -32.626  21.780  1.00  0.00     0.028 C 
BRANCH   6   7
ATOM      7  C   UNL     1      15.080 -33.851  21.803  1.00  0.00    -0.028 C 
ATOM      8  C   UNL     1      16.215 -34.040  21.083  1.00  0.00    -0.070 CG0
ATOM      9  C   UNL     1      16.939 -35.351  21.262  1.00  0.00     0.039 C 
ATOM     10  G   UNL     1      16.807 -33.023  20.119  1.00  0.00     0.000 G0
ENDBRANCH   6   7
ENDBRANCH   5   6
ENDBRANCH   3   5
ENDBRANCH   1   3
BRANCH   1  11
ATOM     11  C   UNL     1      17.632 -30.639  21.792  1.00  0.00     0.087 C 
BRANCH  11  12
ATOM     12  C   UNL     1      18.694 -31.732  21.510  1.00  0.00     0.066 C 
BRANCH  12  13
ATOM     13  C   UNL     1      18.268 -32.723  20.432  1.00  0.00     0.140 C 
ATOM     14  O   UNL     1      19.140 -33.283  19.782  1.00  0.00    -0.299 OA
BRANCH  13  15
ATOM     15  C   UNL     1      16.823 -33.027  20.110  1.00  0.00     0.106 CG0
ATOM     16  G   UNL     1      16.241 -34.043  21.081  1.00  0.00     0.000 G0
ENDBRANCH  13  15
ENDBRANCH  12  13
BRANCH  12  17
ATOM     17  C   UNL     1      20.116 -31.136  21.274  1.00  0.00    -0.006 C 
ATOM     18  C   UNL     1      20.060 -29.610  21.098  1.00  0.00     0.008 C 
ATOM     19  C   UNL     1      21.139 -31.497  22.363  1.00  0.00     0.008 C 
ENDBRANCH  12  17
ENDBRANCH  11  12
ENDBRANCH   1  11
TORSDOF 1
ENDMDL
MODEL 6
REMARK VINA RESULT:    -3.925      2.063      4.733
REMARK INTER + INTRA:          -6.329
REMARK INTER:                  -6.075
REMARK INTRA:                  -0.253
REMARK UNBOUND:                -0.338
REMARK SMILES CC1=CCC[C@H](C)C(=O)C[C@H](C(C)C)C(=O)C1
REMARK SMILES IDX 8 1 9 2 6 3 7 4 5 5 4 6 3 7 2 8 1 9 10 11 11 12 15 13 16 14
REMARK SMILES IDX 17 15 12 17 13 18 14 19
REMARK H PARENT
REMARK Flexibility Score: 70.00
ROOT
ATOM      1  C   UNL     1      14.928 -33.191  21.022  1.00  0.00     0.136 C 
ATOM      2  O   UNL     1      14.212 -33.213  20.030  1.00  0.00    -0.299 OA
ENDROOT
BRANCH   1   3
ATOM      3  C   UNL     1      14.938 -31.924  21.857  1.00  0.00     0.053 C 
ATOM      4  C   UNL     1      14.491 -32.261  23.285  1.00  0.00     0.016 C 
BRANCH   3   5
ATOM      5  C   UNL     1      16.280 -31.149  21.891  1.00  0.00     0.015 C 
BRANCH   5   6
ATOM      6  C   UNL     1      16.993 -31.030  23.259  1.00  0.00     0.028 C 
BRANCH   6   7
ATOM      7  C   UNL     1      18.450 -31.442  23.247  1.00  0.00    -0.028 C 
ATOM      8  C   UNL     1      18.939 -32.688  23.474  1.00  0.00    -0.070 CG0
ATOM      9  C   UNL     1      20.436 -32.865  23.417  1.00  0.00     0.039 C 
ATOM     10  G   UNL     1      18.086 -33.911  23.774  1.00  0.00     0.000 G0
ENDBRANCH   6   7
ENDBRANCH   5   6
ENDBRANCH   3   5
ENDBRANCH   1   3
BRANCH   1  11
ATOM     11  C   UNL     1      15.645 -34.462  21.439  1.00  0.00     0.087 C 
BRANCH  11  12
ATOM     12  C   UNL     1      17.185 -34.355  21.293  1.00  0.00     0.066 C 
BRANCH  12  13
ATOM     13  C   UNL     1      17.941 -34.791  22.542  1.00  0.00     0.140 C 
ATOM     14  O   UNL     1      18.432 -35.912  22.562  1.00  0.00    -0.299 OA
BRANCH  13  15
ATOM     15  C   UNL     1      18.093 -33.918  23.767  1.00  0.00     0.106 CG0
ATOM     16  G   UNL     1      18.942 -32.691  23.471  1.00  0.00     0.000 G0
ENDBRANCH  13  15
ENDBRANCH  12  13
BRANCH  12  17
ATOM     17  C   UNL     1      17.709 -35.028  19.987  1.00  0.00    -0.006 C 
ATOM     18  C   UNL     1      16.830 -36.222  19.583  1.00  0.00     0.008 C 
ATOM     19  C   UNL     1      17.856 -34.065  18.798  1.00  0.00     0.008 C 
ENDBRANCH  12  17
ENDBRANCH  11  12
ENDBRANCH   1  11
TORSDOF 1
ENDMDL
MODEL 7
REMARK VINA RESULT:    -3.914      1.923      3.844
REMARK INTER + INTRA:          -6.311
REMARK INTER:                  -6.182
REMARK INTRA:                  -0.129
REMARK UNBOUND:                -0.338
REMARK SMILES CC1=CCC[C@H](C)C(=O)C[C@H](C(C)C)C(=O)C1
REMARK SMILES IDX 8 1 9 2 6 3 7 4 5 5 4 6 3 7 2 8 1 9 10 11 11 12 15 13 16 14
REMARK SMILES IDX 17 15 12 17 13 18 14 19
REMARK H PARENT
REMARK Flexibility Score: 70.00
ROOT
ATOM      1  C   UNL     1      16.218 -30.389  22.816  1.00  0.00     0.136 C 
ATOM      2  O   UNL     1      16.425 -29.708  21.820  1.00  0.00    -0.299 OA
ENDROOT
BRANCH   1   3
ATOM      3  C   UNL     1      14.776 -30.694  23.176  1.00  0.00     0.053 C 
ATOM      4  C   UNL     1      13.868 -29.625  22.555  1.00  0.00     0.016 C 
BRANCH   3   5
ATOM      5  C   UNL     1      14.270 -32.108  22.792  1.00  0.00     0.015 C 
BRANCH   5   6
ATOM      6  C   UNL     1      14.234 -32.462  21.287  1.00  0.00     0.028 C 
BRANCH   6   7
ATOM      7  C   UNL     1      14.869 -33.791  20.938  1.00  0.00    -0.028 C 
ATOM      8  C   UNL     1      16.186 -34.022  20.705  1.00  0.00    -0.070 CG0
ATOM      9  C   UNL     1      16.592 -35.435  20.365  1.00  0.00     0.039 C 
ATOM     10  G   UNL     1      17.275 -32.962  20.770  1.00  0.00     0.000 G0
ENDBRANCH   6   7
ENDBRANCH   5   6
ENDBRANCH   3   5
ENDBRANCH   1   3
BRANCH   1  11
ATOM     11  C   UNL     1      17.400 -31.002  23.545  1.00  0.00     0.087 C 
BRANCH  11  12
ATOM     12  C   UNL     1      17.459 -32.544  23.398  1.00  0.00     0.066 C 
BRANCH  12  13
ATOM     13  C   UNL     1      18.049 -33.001  22.069  1.00  0.00     0.140 C 
ATOM     14  O   UNL     1      19.204 -33.406  22.056  1.00  0.00    -0.299 OA
BRANCH  13  15
ATOM     15  C   UNL     1      17.288 -32.956  20.764  1.00  0.00     0.106 CG0
ATOM     16  G   UNL     1      16.189 -34.008  20.726  1.00  0.00     0.000 G0
ENDBRANCH  13  15
ENDBRANCH  12  13
BRANCH  12  17
ATOM     17  C   UNL     1      18.109 -33.237  24.634  1.00  0.00    -0.006 C 
ATOM     18  C   UNL     1      18.432 -32.219  25.739  1.00  0.00     0.008 C 
ATOM     19  C   UNL     1      17.280 -34.393  25.218  1.00  0.00     0.008 C 
ENDBRANCH  12  17
ENDBRANCH  11  12
ENDBRANCH   1  11
TORSDOF 1
ENDMDL
MODEL 8
REMARK VINA RESULT:    -3.872      1.915      2.216
REMARK INTER + INTRA:          -6.248
REMARK INTER:                  -5.857
REMARK INTRA:                  -0.391
REMARK UNBOUND:                -0.338
REMARK SMILES CC1=CCC[C@H](C)C(=O)C[C@H](C(C)C)C(=O)C1
REMARK SMILES IDX 8 1 9 2 6 3 7 4 5 5 4 6 3 7 2 8 1 9 10 11 11 12 15 13 16 14
REMARK SMILES IDX 17 15 12 17 13 18 14 19
REMARK H PARENT
REMARK Flexibility Score: 70.00
ROOT
ATOM      1  C   UNL     1      16.538 -33.824  24.215  1.00  0.00     0.136 C 
ATOM      2  O   UNL     1      16.496 -34.799  24.953  1.00  0.00    -0.299 OA
ENDROOT
BRANCH   1   3
ATOM      3  C   UNL     1      17.895 -33.205  23.938  1.00  0.00     0.053 C 
ATOM      4  C   UNL     1      18.348 -32.417  25.173  1.00  0.00     0.016 C 
BRANCH   3   5
ATOM      5  C   UNL     1      19.009 -34.191  23.501  1.00  0.00     0.015 C 
BRANCH   5   6
ATOM      6  C   UNL     1      19.317 -34.284  21.988  1.00  0.00     0.028 C 
BRANCH   6   7
ATOM      7  C   UNL     1      18.368 -35.167  21.206  1.00  0.00    -0.028 C 
ATOM      8  C   UNL     1      17.307 -34.757  20.465  1.00  0.00    -0.070 CG0
ATOM      9  C   UNL     1      16.491 -35.821  19.773  1.00  0.00     0.039 C 
ATOM     10  G   UNL     1      16.891 -33.305  20.280  1.00  0.00     0.000 G0
ENDBRANCH   6   7
ENDBRANCH   5   6
ENDBRANCH   3   5
ENDBRANCH   1   3
BRANCH   1  11
ATOM     11  C   UNL     1      15.268 -33.379  23.513  1.00  0.00     0.087 C 
BRANCH  11  12
ATOM     12  C   UNL     1      15.538 -32.361  22.376  1.00  0.00     0.066 C 
BRANCH  12  13
ATOM     13  C   UNL     1      15.581 -33.000  20.992  1.00  0.00     0.140 C 
ATOM     14  O   UNL     1      14.521 -33.293  20.455  1.00  0.00    -0.299 OA
BRANCH  13  15
ATOM     15  C   UNL     1      16.867 -33.312  20.263  1.00  0.00     0.106 CG0
ATOM     16  G   UNL     1      17.290 -34.757  20.476  1.00  0.00     0.000 G0
ENDBRANCH  13  15
ENDBRANCH  12  13
BRANCH  12  17
ATOM     17  C   UNL     1      14.600 -31.117  22.453  1.00  0.00    -0.006 C 
ATOM     18  C   UNL     1      13.397 -31.381  23.372  1.00  0.00     0.008 C 
ATOM     19  C   UNL     1      15.307 -29.821  22.881  1.00  0.00     0.008 C 
ENDBRANCH  12  17
ENDBRANCH  11  12
ENDBRANCH   1  11
TORSDOF 1
ENDMDL
MODEL 9
REMARK VINA RESULT:    -3.832      1.874      4.277
REMARK INTER + INTRA:          -6.187
REMARK INTER:                  -5.814
REMARK INTRA:                  -0.373
REMARK UNBOUND:                -0.338
REMARK SMILES CC1=CCC[C@H](C)C(=O)C[C@H](C(C)C)C(=O)C1
REMARK SMILES IDX 8 1 9 2 6 3 7 4 5 5 4 6 3 7 2 8 1 9 10 11 11 12 15 13 16 14
REMARK SMILES IDX 17 15 12 17 13 18 14 19
REMARK H PARENT
REMARK Flexibility Score: 70.00
ROOT
ATOM      1  C   UNL     1      18.242 -33.477  20.120  1.00  0.00     0.136 C 
ATOM      2  O   UNL     1      18.864 -33.083  19.143  1.00  0.00    -0.299 OA
ENDROOT
BRANCH   1   3
ATOM      3  C   UNL     1      17.361 -34.700  19.951  1.00  0.00     0.053 C 
ATOM      4  C   UNL     1      17.236 -35.419  21.300  1.00  0.00     0.016 C 
BRANCH   3   5
ATOM      5  C   UNL     1      15.952 -34.439  19.357  1.00  0.00     0.015 C 
BRANCH   5   6
ATOM      6  C   UNL     1      14.778 -34.303  20.356  1.00  0.00     0.028 C 
BRANCH   6   7
ATOM      7  C   UNL     1      14.247 -32.894  20.513  1.00  0.00    -0.028 C 
ATOM      8  C   UNL     1      14.588 -32.004  21.479  1.00  0.00    -0.070 CG0
ATOM      9  C   UNL     1      13.922 -30.651  21.442  1.00  0.00     0.039 C 
ATOM     10  G   UNL     1      15.596 -32.273  22.586  1.00  0.00     0.000 G0
ENDBRANCH   6   7
ENDBRANCH   5   6
ENDBRANCH   3   5
ENDBRANCH   1   3
BRANCH   1  11
ATOM     11  C   UNL     1      18.493 -32.818  21.464  1.00  0.00     0.087 C 
BRANCH  11  12
ATOM     12  C   UNL     1      17.894 -31.391  21.553  1.00  0.00     0.066 C 
BRANCH  12  13
ATOM     13  C   UNL     1      16.745 -31.280  22.549  1.00  0.00     0.140 C 
ATOM     14  O   UNL     1      16.765 -30.362  23.357  1.00  0.00    -0.299 OA
BRANCH  13  15
ATOM     15  C   UNL     1      15.598 -32.263  22.604  1.00  0.00     0.106 CG0
ATOM     16  G   UNL     1      14.599 -32.013  21.484  1.00  0.00     0.000 G0
ENDBRANCH  13  15
ENDBRANCH  12  13
BRANCH  12  17
ATOM     17  C   UNL     1      18.987 -30.296  21.746  1.00  0.00    -0.006 C 
ATOM     18  C   UNL     1      20.397 -30.872  21.544  1.00  0.00     0.008 C 
ATOM     19  C   UNL     1      18.800 -29.056  20.855  1.00  0.00     0.008 C 
ENDBRANCH  12  17
ENDBRANCH  11  12
ENDBRANCH   1  11
TORSDOF 1
ENDMDL
