MODEL 1
REMARK VINA RESULT:    -3.269      0.000      0.000
REMARK INTER + INTRA:          -8.256
REMARK INTER:                  -5.944
REMARK INTRA:                  -2.312
REMARK UNBOUND:                -2.312
REMARK SMILES CCCCCCCCCCCCCCCC(=O)[O-]
REMARK SMILES IDX 9 1 10 2 11 3 12 4 13 5 14 6 15 7 16 8 17 9 18 10 8 11 7 12
REMARK SMILES IDX 6 13 5 14 4 15 3 16 2 17 1 18
REMARK H PARENT
REMARK Flexibility Score: inf
ROOT
ATOM      1  C   UNL     1       7.852   8.621   0.851  1.00  0.00     0.000 C 
ENDROOT
BRANCH   1   2
ATOM      2  C   UNL     1       7.847  10.158   0.740  1.00  0.00     0.000 C 
BRANCH   2   3
ATOM      3  C   UNL     1       6.724  10.816   1.561  1.00  0.00     0.000 C 
BRANCH   3   4
ATOM      4  C   UNL     1       5.877  11.790   0.725  1.00  0.00     0.000 C 
BRANCH   4   5
ATOM      5  C   UNL     1       5.692  11.312  -0.726  1.00  0.00     0.000 C 
BRANCH   5   6
ATOM      6  C   UNL     1       5.985  12.417  -1.753  1.00  0.00     0.006 C 
BRANCH   6   7
ATOM      7  C   UNL     1       7.483  12.574  -2.043  1.00  0.00     0.053 C 
BRANCH   7   8
ATOM      8  C   UNL     1       7.766  12.303  -3.487  1.00  0.00     0.041 C 
ATOM      9  O   UNL     1       8.846  12.691  -4.005  1.00  0.00    -0.550 OA
ATOM     10  O   UNL     1       6.815  11.664  -4.274  1.00  0.00    -0.550 OA
ENDBRANCH   7   8
ENDBRANCH   6   7
ENDBRANCH   5   6
ENDBRANCH   4   5
ENDBRANCH   3   4
ENDBRANCH   2   3
ENDBRANCH   1   2
BRANCH   1  11
ATOM     11  C   UNL     1       7.038   7.880  -0.225  1.00  0.00     0.000 C 
BRANCH  11  12
ATOM     12  C   UNL     1       5.828   7.124   0.349  1.00  0.00    -0.000 C 
BRANCH  12  13
ATOM     13  C   UNL     1       4.516   7.925   0.255  1.00  0.00    -0.000 C 
BRANCH  13  14
ATOM     14  C   UNL     1       3.583   7.818   1.476  1.00  0.00    -0.000 C 
BRANCH  14  15
ATOM     15  C   UNL     1       3.843   8.911   2.527  1.00  0.00    -0.000 C 
BRANCH  15  16
ATOM     16  C   UNL     1       4.398   8.351   3.850  1.00  0.00    -0.000 C 
BRANCH  16  17
ATOM     17  C   UNL     1       5.919   8.109   3.871  1.00  0.00    -0.003 C 
ATOM     18  C   UNL     1       6.291   6.627   3.896  1.00  0.00     0.004 C 
ENDBRANCH  16  17
ENDBRANCH  15  16
ENDBRANCH  14  15
ENDBRANCH  13  14
ENDBRANCH  12  13
ENDBRANCH  11  12
ENDBRANCH   1  11
TORSDOF 14
ENDMDL
MODEL 2
REMARK VINA RESULT:    -3.166      3.435      6.346
REMARK INTER + INTRA:          -8.069
REMARK INTER:                  -5.826
REMARK INTRA:                  -2.243
REMARK UNBOUND:                -2.312
REMARK SMILES CCCCCCCCCCCCCCCC(=O)[O-]
REMARK SMILES IDX 9 1 10 2 11 3 12 4 13 5 14 6 15 7 16 8 17 9 18 10 8 11 7 12
REMARK SMILES IDX 6 13 5 14 4 15 3 16 2 17 1 18
REMARK H PARENT
REMARK Flexibility Score: inf
ROOT
ATOM      1  C   UNL     1       7.263   8.173   0.368  1.00  0.00     0.000 C 
ENDROOT
BRANCH   1   2
ATOM      2  C   UNL     1       6.009   8.619  -0.407  1.00  0.00     0.000 C 
BRANCH   2   3
ATOM      3  C   UNL     1       4.698   8.173   0.262  1.00  0.00     0.000 C 
BRANCH   3   4
ATOM      4  C   UNL     1       3.899   9.353   0.839  1.00  0.00     0.000 C 
BRANCH   4   5
ATOM      5  C   UNL     1       4.068   9.490   2.362  1.00  0.00     0.000 C 
BRANCH   5   6
ATOM      6  C   UNL     1       4.296   8.137   3.054  1.00  0.00     0.006 C 
BRANCH   6   7
ATOM      7  C   UNL     1       5.658   8.054   3.757  1.00  0.00     0.053 C 
BRANCH   7   8
ATOM      8  C   UNL     1       6.226   6.676   3.630  1.00  0.00     0.041 C 
ATOM      9  O   UNL     1       6.957   6.206   4.542  1.00  0.00    -0.550 OA
ATOM     10  O   UNL     1       5.990   5.928   2.484  1.00  0.00    -0.550 OA
ENDBRANCH   7   8
ENDBRANCH   6   7
ENDBRANCH   5   6
ENDBRANCH   4   5
ENDBRANCH   3   4
ENDBRANCH   2   3
ENDBRANCH   1   2
BRANCH   1  11
ATOM     11  C   UNL     1       8.130   9.313   0.934  1.00  0.00     0.000 C 
BRANCH  11  12
ATOM     12  C   UNL     1       7.325  10.588   1.236  1.00  0.00    -0.000 C 
BRANCH  12  13
ATOM     13  C   UNL     1       8.098  11.880   0.913  1.00  0.00    -0.000 C 
BRANCH  13  14
ATOM     14  C   UNL     1       7.496  12.751  -0.206  1.00  0.00    -0.000 C 
BRANCH  14  15
ATOM     15  C   UNL     1       6.269  12.108  -0.874  1.00  0.00    -0.000 C 
BRANCH  15  16
ATOM     16  C   UNL     1       6.511  11.746  -2.351  1.00  0.00    -0.000 C 
BRANCH  16  17
ATOM     17  C   UNL     1       5.386  10.933  -3.018  1.00  0.00    -0.003 C 
ATOM     18  C   UNL     1       4.012  11.190  -2.400  1.00  0.00     0.004 C 
ENDBRANCH  16  17
ENDBRANCH  15  16
ENDBRANCH  14  15
ENDBRANCH  13  14
ENDBRANCH  12  13
ENDBRANCH  11  12
ENDBRANCH   1  11
TORSDOF 14
ENDMDL
MODEL 3
REMARK VINA RESULT:    -3.151      2.416      4.358
REMARK INTER + INTRA:          -8.041
REMARK INTER:                  -5.754
REMARK INTRA:                  -2.287
REMARK UNBOUND:                -2.312
REMARK SMILES CCCCCCCCCCCCCCCC(=O)[O-]
REMARK SMILES IDX 9 1 10 2 11 3 12 4 13 5 14 6 15 7 16 8 17 9 18 10 8 11 7 12
REMARK SMILES IDX 6 13 5 14 4 15 3 16 2 17 1 18
REMARK H PARENT
REMARK Flexibility Score: inf
ROOT
ATOM      1  C   UNL     1       3.007   7.654   1.851  1.00  0.00     0.000 C 
ENDROOT
BRANCH   1   2
ATOM      2  C   UNL     1       3.136   8.197   0.415  1.00  0.00     0.000 C 
BRANCH   2   3
ATOM      3  C   UNL     1       3.507   9.689   0.367  1.00  0.00     0.000 C 
BRANCH   3   4
ATOM      4  C   UNL     1       3.944  10.143  -1.036  1.00  0.00     0.000 C 
BRANCH   4   5
ATOM      5  C   UNL     1       5.458   9.983  -1.260  1.00  0.00     0.000 C 
BRANCH   5   6
ATOM      6  C   UNL     1       6.235  11.282  -0.995  1.00  0.00     0.006 C 
BRANCH   6   7
ATOM      7  C   UNL     1       7.386  11.092   0.000  1.00  0.00     0.053 C 
BRANCH   7   8
ATOM      8  C   UNL     1       7.061  11.749   1.305  1.00  0.00     0.041 C 
ATOM      9  O   UNL     1       6.122  11.309   2.019  1.00  0.00    -0.550 OA
ATOM     10  O   UNL     1       7.763  12.877   1.709  1.00  0.00    -0.550 OA
ENDBRANCH   7   8
ENDBRANCH   6   7
ENDBRANCH   5   6
ENDBRANCH   4   5
ENDBRANCH   3   4
ENDBRANCH   2   3
ENDBRANCH   1   2
BRANCH   1  11
ATOM     11  C   UNL     1       3.048   8.717   2.964  1.00  0.00     0.000 C 
BRANCH  11  12
ATOM     12  C   UNL     1       4.290   8.600   3.863  1.00  0.00    -0.000 C 
BRANCH  12  13
ATOM     13  C   UNL     1       5.235   7.459   3.442  1.00  0.00    -0.000 C 
BRANCH  13  14
ATOM     14  C   UNL     1       6.607   7.899   2.899  1.00  0.00    -0.000 C 
BRANCH  14  15
ATOM     15  C   UNL     1       6.676   7.888   1.362  1.00  0.00    -0.000 C 
BRANCH  15  16
ATOM     16  C   UNL     1       6.518   6.478   0.764  1.00  0.00    -0.000 C 
BRANCH  16  17
ATOM     17  C   UNL     1       6.142   6.438  -0.728  1.00  0.00    -0.003 C 
ATOM     18  C   UNL     1       7.358   6.410  -1.654  1.00  0.00     0.004 C 
ENDBRANCH  16  17
ENDBRANCH  15  16
ENDBRANCH  14  15
ENDBRANCH  13  14
ENDBRANCH  12  13
ENDBRANCH  11  12
ENDBRANCH   1  11
TORSDOF 14
ENDMDL
MODEL 4
REMARK VINA RESULT:    -3.118      3.455      5.775
REMARK INTER + INTRA:          -7.982
REMARK INTER:                  -5.380
REMARK INTRA:                  -2.602
REMARK UNBOUND:                -2.312
REMARK SMILES CCCCCCCCCCCCCCCC(=O)[O-]
REMARK SMILES IDX 9 1 10 2 11 3 12 4 13 5 14 6 15 7 16 8 17 9 18 10 8 11 7 12
REMARK SMILES IDX 6 13 5 14 4 15 3 16 2 17 1 18
REMARK H PARENT
REMARK Flexibility Score: inf
ROOT
ATOM      1  C   UNL     1       5.179  12.512  -0.407  1.00  0.00     0.000 C 
ENDROOT
BRANCH   1   2
ATOM      2  C   UNL     1       5.708  11.713  -1.613  1.00  0.00     0.000 C 
BRANCH   2   3
ATOM      3  C   UNL     1       5.035  10.338  -1.765  1.00  0.00     0.000 C 
BRANCH   3   4
ATOM      4  C   UNL     1       3.726  10.231  -0.965  1.00  0.00     0.000 C 
BRANCH   4   5
ATOM      5  C   UNL     1       3.624   8.914  -0.176  1.00  0.00     0.000 C 
BRANCH   5   6
ATOM      6  C   UNL     1       3.309   9.139   1.311  1.00  0.00     0.006 C 
BRANCH   6   7
ATOM      7  C   UNL     1       3.508   7.875   2.158  1.00  0.00     0.053 C 
BRANCH   7   8
ATOM      8  C   UNL     1       4.085   8.227   3.492  1.00  0.00     0.041 C 
ATOM      9  O   UNL     1       3.450   8.979   4.278  1.00  0.00    -0.550 OA
ATOM     10  O   UNL     1       5.345   7.764   3.849  1.00  0.00    -0.550 OA
ENDBRANCH   7   8
ENDBRANCH   6   7
ENDBRANCH   5   6
ENDBRANCH   4   5
ENDBRANCH   3   4
ENDBRANCH   2   3
ENDBRANCH   1   2
BRANCH   1  11
ATOM     11  C   UNL     1       6.184  12.715   0.742  1.00  0.00     0.000 C 
BRANCH  11  12
ATOM     12  C   UNL     1       5.870  11.852   1.975  1.00  0.00    -0.000 C 
BRANCH  12  13
ATOM     13  C   UNL     1       6.585  10.488   1.956  1.00  0.00    -0.000 C 
BRANCH  13  14
ATOM     14  C   UNL     1       7.859  10.418   1.092  1.00  0.00    -0.000 C 
BRANCH  14  15
ATOM     15  C   UNL     1       8.310   8.976   0.803  1.00  0.00    -0.000 C 
BRANCH  15  16
ATOM     16  C   UNL     1       7.132   7.988   0.708  1.00  0.00    -0.000 C 
BRANCH  16  17
ATOM     17  C   UNL     1       6.868   7.418  -0.698  1.00  0.00    -0.003 C 
ATOM     18  C   UNL     1       6.327   5.989  -0.674  1.00  0.00     0.004 C 
ENDBRANCH  16  17
ENDBRANCH  15  16
ENDBRANCH  14  15
ENDBRANCH  13  14
ENDBRANCH  12  13
ENDBRANCH  11  12
ENDBRANCH   1  11
TORSDOF 14
ENDMDL
MODEL 5
REMARK VINA RESULT:    -3.113      3.349      6.201
REMARK INTER + INTRA:          -7.973
REMARK INTER:                  -5.543
REMARK INTRA:                  -2.430
REMARK UNBOUND:                -2.312
REMARK SMILES CCCCCCCCCCCCCCCC(=O)[O-]
REMARK SMILES IDX 9 1 10 2 11 3 12 4 13 5 14 6 15 7 16 8 17 9 18 10 8 11 7 12
REMARK SMILES IDX 6 13 5 14 4 15 3 16 2 17 1 18
REMARK H PARENT
REMARK Flexibility Score: inf
ROOT
ATOM      1  C   UNL     1       6.386  10.772   1.688  1.00  0.00     0.000 C 
ENDROOT
BRANCH   1   2
ATOM      2  C   UNL     1       7.680  10.306   0.995  1.00  0.00     0.000 C 
BRANCH   2   3
ATOM      3  C   UNL     1       7.789   8.775   0.889  1.00  0.00     0.000 C 
BRANCH   3   4
ATOM      4  C   UNL     1       6.856   8.191  -0.185  1.00  0.00     0.000 C 
BRANCH   4   5
ATOM      5  C   UNL     1       6.096   6.947   0.309  1.00  0.00     0.000 C 
BRANCH   5   6
ATOM      6  C   UNL     1       5.940   6.920   1.837  1.00  0.00     0.006 C 
BRANCH   6   7
ATOM      7  C   UNL     1       4.591   7.481   2.305  1.00  0.00     0.053 C 
BRANCH   7   8
ATOM      8  C   UNL     1       4.750   8.201   3.608  1.00  0.00     0.041 C 
ATOM      9  O   UNL     1       3.747   8.701   4.181  1.00  0.00    -0.550 OA
ATOM     10  O   UNL     1       6.013   8.360   4.165  1.00  0.00    -0.550 OA
ENDBRANCH   7   8
ENDBRANCH   6   7
ENDBRANCH   5   6
ENDBRANCH   4   5
ENDBRANCH   3   4
ENDBRANCH   2   3
ENDBRANCH   1   2
BRANCH   1  11
ATOM     11  C   UNL     1       5.784  12.083   1.150  1.00  0.00     0.000 C 
BRANCH  11  12
ATOM     12  C   UNL     1       4.338  11.921   0.651  1.00  0.00    -0.000 C 
BRANCH  12  13
ATOM     13  C   UNL     1       3.931  10.450   0.444  1.00  0.00    -0.000 C 
BRANCH  13  14
ATOM     14  C   UNL     1       3.524  10.069  -0.992  1.00  0.00    -0.000 C 
BRANCH  14  15
ATOM     15  C   UNL     1       4.140  10.994  -2.056  1.00  0.00    -0.000 C 
BRANCH  15  16
ATOM     16  C   UNL     1       5.534  10.531  -2.519  1.00  0.00    -0.000 C 
BRANCH  16  17
ATOM     17  C   UNL     1       6.620  11.622  -2.515  1.00  0.00    -0.003 C 
ATOM     18  C   UNL     1       7.192  11.905  -3.904  1.00  0.00     0.004 C 
ENDBRANCH  16  17
ENDBRANCH  15  16
ENDBRANCH  14  15
ENDBRANCH  13  14
ENDBRANCH  12  13
ENDBRANCH  11  12
ENDBRANCH   1  11
TORSDOF 14
ENDMDL
MODEL 6
REMARK VINA RESULT:    -3.093      1.392      2.678
REMARK INTER + INTRA:          -7.936
REMARK INTER:                  -5.259
REMARK INTRA:                  -2.677
REMARK UNBOUND:                -2.312
REMARK SMILES CCCCCCCCCCCCCCCC(=O)[O-]
REMARK SMILES IDX 9 1 10 2 11 3 12 4 13 5 14 6 15 7 16 8 17 9 18 10 8 11 7 12
REMARK SMILES IDX 6 13 5 14 4 15 3 16 2 17 1 18
REMARK H PARENT
REMARK Flexibility Score: inf
ROOT
ATOM      1  C   UNL     1       6.536  11.397   1.667  1.00  0.00     0.000 C 
ENDROOT
BRANCH   1   2
ATOM      2  C   UNL     1       4.997  11.349   1.639  1.00  0.00     0.000 C 
BRANCH   2   3
ATOM      3  C   UNL     1       4.402  11.866   0.318  1.00  0.00     0.000 C 
BRANCH   3   4
ATOM      4  C   UNL     1       3.369  10.898  -0.282  1.00  0.00     0.000 C 
BRANCH   4   5
ATOM      5  C   UNL     1       3.684  10.532  -1.743  1.00  0.00     0.000 C 
BRANCH   5   6
ATOM      6  C   UNL     1       4.776  11.425  -2.352  1.00  0.00     0.006 C 
BRANCH   6   7
ATOM      7  C   UNL     1       5.906  10.617  -3.004  1.00  0.00     0.053 C 
BRANCH   7   8
ATOM      8  C   UNL     1       6.558  11.414  -4.089  1.00  0.00     0.041 C 
ATOM      9  O   UNL     1       6.152  11.318  -5.277  1.00  0.00    -0.550 OA
ATOM     10  O   UNL     1       7.646  12.228  -3.797  1.00  0.00    -0.550 OA
ENDBRANCH   7   8
ENDBRANCH   6   7
ENDBRANCH   5   6
ENDBRANCH   4   5
ENDBRANCH   3   4
ENDBRANCH   2   3
ENDBRANCH   1   2
BRANCH   1  11
ATOM     11  C   UNL     1       7.239  10.724   0.473  1.00  0.00     0.000 C 
BRANCH  11  12
ATOM     12  C   UNL     1       8.176   9.579   0.893  1.00  0.00    -0.000 C 
BRANCH  12  13
ATOM     13  C   UNL     1       7.632   8.187   0.521  1.00  0.00    -0.000 C 
BRANCH  13  14
ATOM     14  C   UNL     1       6.401   8.180  -0.404  1.00  0.00    -0.000 C 
BRANCH  14  15
ATOM     15  C   UNL     1       5.113   7.741   0.314  1.00  0.00    -0.000 C 
BRANCH  15  16
ATOM     16  C   UNL     1       5.380   7.127   1.701  1.00  0.00    -0.000 C 
BRANCH  16  17
ATOM     17  C   UNL     1       4.814   7.925   2.890  1.00  0.00    -0.003 C 
ATOM     18  C   UNL     1       5.885   8.336   3.901  1.00  0.00     0.004 C 
ENDBRANCH  16  17
ENDBRANCH  15  16
ENDBRANCH  14  15
ENDBRANCH  13  14
ENDBRANCH  12  13
ENDBRANCH  11  12
ENDBRANCH   1  11
TORSDOF 14
ENDMDL
MODEL 7
REMARK VINA RESULT:    -3.075      2.530      5.177
REMARK INTER + INTRA:          -7.904
REMARK INTER:                  -5.525
REMARK INTRA:                  -2.379
REMARK UNBOUND:                -2.312
REMARK SMILES CCCCCCCCCCCCCCCC(=O)[O-]
REMARK SMILES IDX 9 1 10 2 11 3 12 4 13 5 14 6 15 7 16 8 17 9 18 10 8 11 7 12
REMARK SMILES IDX 6 13 5 14 4 15 3 16 2 17 1 18
REMARK H PARENT
REMARK Flexibility Score: inf
ROOT
ATOM      1  C   UNL     1       2.875  10.225   2.361  1.00  0.00     0.000 C 
ENDROOT
BRANCH   1   2
ATOM      2  C   UNL     1       3.267   8.758   2.621  1.00  0.00     0.000 C 
BRANCH   2   3
ATOM      3  C   UNL     1       4.140   8.581   3.875  1.00  0.00     0.000 C 
BRANCH   3   4
ATOM      4  C   UNL     1       5.592   8.204   3.533  1.00  0.00     0.000 C 
BRANCH   4   5
ATOM      5  C   UNL     1       5.679   7.158   2.408  1.00  0.00     0.000 C 
BRANCH   5   6
ATOM      6  C   UNL     1       6.508   7.647   1.210  1.00  0.00     0.006 C 
BRANCH   6   7
ATOM      7  C   UNL     1       6.114   6.959  -0.103  1.00  0.00     0.053 C 
BRANCH   7   8
ATOM      8  C   UNL     1       7.323   6.734  -0.956  1.00  0.00     0.041 C 
ATOM      9  O   UNL     1       7.197   6.296  -2.130  1.00  0.00    -0.550 OA
ATOM     10  O   UNL     1       8.592   6.961  -0.439  1.00  0.00    -0.550 OA
ENDBRANCH   7   8
ENDBRANCH   6   7
ENDBRANCH   5   6
ENDBRANCH   4   5
ENDBRANCH   3   4
ENDBRANCH   2   3
ENDBRANCH   1   2
BRANCH   1  11
ATOM     11  C   UNL     1       2.960  10.680   0.893  1.00  0.00     0.000 C 
BRANCH  11  12
ATOM     12  C   UNL     1       3.534   9.601  -0.040  1.00  0.00    -0.000 C 
BRANCH  12  13
ATOM     13  C   UNL     1       3.941  10.151  -1.420  1.00  0.00    -0.000 C 
BRANCH  13  14
ATOM     14  C   UNL     1       5.455  10.333  -1.642  1.00  0.00    -0.000 C 
BRANCH  14  15
ATOM     15  C   UNL     1       6.052  11.475  -0.801  1.00  0.00    -0.000 C 
BRANCH  15  16
ATOM     16  C   UNL     1       7.457  11.150  -0.260  1.00  0.00    -0.000 C 
BRANCH  16  17
ATOM     17  C   UNL     1       7.580  11.139   1.275  1.00  0.00    -0.003 C 
ATOM     18  C   UNL     1       6.277  11.506   1.985  1.00  0.00     0.004 C 
ENDBRANCH  16  17
ENDBRANCH  15  16
ENDBRANCH  14  15
ENDBRANCH  13  14
ENDBRANCH  12  13
ENDBRANCH  11  12
ENDBRANCH   1  11
TORSDOF 14
ENDMDL
MODEL 8
REMARK VINA RESULT:    -3.045      2.773      4.017
REMARK INTER + INTRA:          -7.848
REMARK INTER:                  -5.569
REMARK INTRA:                  -2.279
REMARK UNBOUND:                -2.312
REMARK SMILES CCCCCCCCCCCCCCCC(=O)[O-]
REMARK SMILES IDX 9 1 10 2 11 3 12 4 13 5 14 6 15 7 16 8 17 9 18 10 8 11 7 12
REMARK SMILES IDX 6 13 5 14 4 15 3 16 2 17 1 18
REMARK H PARENT
REMARK Flexibility Score: inf
ROOT
ATOM      1  C   UNL     1       4.552  12.324   0.724  1.00  0.00     0.000 C 
ENDROOT
BRANCH   1   2
ATOM      2  C   UNL     1       5.438  12.080   1.960  1.00  0.00     0.000 C 
BRANCH   2   3
ATOM      3  C   UNL     1       6.865  11.634   1.598  1.00  0.00     0.000 C 
BRANCH   3   4
ATOM      4  C   UNL     1       6.887  10.318   0.802  1.00  0.00     0.000 C 
BRANCH   4   5
ATOM      5  C   UNL     1       8.227   9.572   0.936  1.00  0.00     0.000 C 
BRANCH   5   6
ATOM      6  C   UNL     1       8.133   8.106   0.487  1.00  0.00     0.006 C 
BRANCH   6   7
ATOM      7  C   UNL     1       6.867   7.816  -0.330  1.00  0.00     0.053 C 
BRANCH   7   8
ATOM      8  C   UNL     1       7.032   6.554  -1.117  1.00  0.00     0.041 C 
ATOM      9  O   UNL     1       7.989   6.434  -1.927  1.00  0.00    -0.550 OA
ATOM     10  O   UNL     1       6.102   5.530  -0.993  1.00  0.00    -0.550 OA
ENDBRANCH   7   8
ENDBRANCH   6   7
ENDBRANCH   5   6
ENDBRANCH   4   5
ENDBRANCH   3   4
ENDBRANCH   2   3
ENDBRANCH   1   2
BRANCH   1  11
ATOM     11  C   UNL     1       3.282  11.458   0.641  1.00  0.00     0.000 C 
BRANCH  11  12
ATOM     12  C   UNL     1       3.290  10.490  -0.554  1.00  0.00    -0.000 C 
BRANCH  12  13
ATOM     13  C   UNL     1       3.215   9.011  -0.134  1.00  0.00    -0.000 C 
BRANCH  13  14
ATOM     14  C   UNL     1       2.947   8.758   1.362  1.00  0.00    -0.000 C 
BRANCH  14  15
ATOM     15  C   UNL     1       3.990   7.832   2.011  1.00  0.00    -0.000 C 
BRANCH  15  16
ATOM     16  C   UNL     1       4.386   8.279   3.431  1.00  0.00    -0.000 C 
BRANCH  16  17
ATOM     17  C   UNL     1       5.897   8.247   3.729  1.00  0.00    -0.003 C 
ATOM     18  C   UNL     1       6.451   6.829   3.872  1.00  0.00     0.004 C 
ENDBRANCH  16  17
ENDBRANCH  15  16
ENDBRANCH  14  15
ENDBRANCH  13  14
ENDBRANCH  12  13
ENDBRANCH  11  12
ENDBRANCH   1  11
TORSDOF 14
ENDMDL
MODEL 9
REMARK VINA RESULT:    -3.023      1.403      3.346
REMARK INTER + INTRA:          -7.809
REMARK INTER:                  -5.613
REMARK INTRA:                  -2.196
REMARK UNBOUND:                -2.312
REMARK SMILES CCCCCCCCCCCCCCCC(=O)[O-]
REMARK SMILES IDX 9 1 10 2 11 3 12 4 13 5 14 6 15 7 16 8 17 9 18 10 8 11 7 12
REMARK SMILES IDX 6 13 5 14 4 15 3 16 2 17 1 18
REMARK H PARENT
REMARK Flexibility Score: inf
ROOT
ATOM      1  C   UNL     1       3.977  10.201   1.312  1.00  0.00     0.000 C 
ENDROOT
BRANCH   1   2
ATOM      2  C   UNL     1       4.749  11.456   1.760  1.00  0.00     0.000 C 
BRANCH   2   3
ATOM      3  C   UNL     1       6.221  11.166   2.102  1.00  0.00     0.000 C 
BRANCH   3   4
ATOM      4  C   UNL     1       7.198  11.913   1.178  1.00  0.00     0.000 C 
BRANCH   4   5
ATOM      5  C   UNL     1       7.476  11.147  -0.128  1.00  0.00     0.000 C 
BRANCH   5   6
ATOM      6  C   UNL     1       6.754  11.762  -1.337  1.00  0.00     0.006 C 
BRANCH   6   7
ATOM      7  C   UNL     1       5.820  10.767  -2.038  1.00  0.00     0.053 C 
BRANCH   7   8
ATOM      8  C   UNL     1       5.535  11.216  -3.436  1.00  0.00     0.041 C 
ATOM      9  O   UNL     1       4.368  11.555  -3.767  1.00  0.00    -0.550 OA
ATOM     10  O   UNL     1       6.548  11.215  -4.387  1.00  0.00    -0.550 OA
ENDBRANCH   7   8
ENDBRANCH   6   7
ENDBRANCH   5   6
ENDBRANCH   4   5
ENDBRANCH   3   4
ENDBRANCH   2   3
ENDBRANCH   1   2
BRANCH   1  11
ATOM     11  C   UNL     1       3.031   9.597   2.367  1.00  0.00     0.000 C 
BRANCH  11  12
ATOM     12  C   UNL     1       3.473   8.205   2.846  1.00  0.00    -0.000 C 
BRANCH  12  13
ATOM     13  C   UNL     1       4.625   8.255   3.867  1.00  0.00    -0.000 C 
BRANCH  13  14
ATOM     14  C   UNL     1       5.964   7.665   3.387  1.00  0.00    -0.000 C 
BRANCH  14  15
ATOM     15  C   UNL     1       5.867   7.004   2.001  1.00  0.00    -0.000 C 
BRANCH  15  16
ATOM     16  C   UNL     1       6.781   7.670   0.954  1.00  0.00    -0.000 C 
BRANCH  16  17
ATOM     17  C   UNL     1       6.289   7.570  -0.501  1.00  0.00    -0.003 C 
ATOM     18  C   UNL     1       6.876   6.376  -1.254  1.00  0.00     0.004 C 
ENDBRANCH  16  17
ENDBRANCH  15  16
ENDBRANCH  14  15
ENDBRANCH  13  14
ENDBRANCH  12  13
ENDBRANCH  11  12
ENDBRANCH   1  11
TORSDOF 14
ENDMDL
