MODEL 1
REMARK VINA RESULT:    -1.836      0.000      0.000
REMARK INTER + INTRA:          -3.415
REMARK INTER:                  -2.803
REMARK INTRA:                  -0.613
REMARK UNBOUND:                -0.613
REMARK SMILES CCCCCCCCCCC(=O)[O-]
REMARK SMILES IDX 7 1 8 2 9 3 10 4 11 5 12 6 13 7 6 8 5 9 4 10 3 11 2 12 1 13
REMARK H PARENT
REMARK Flexibility Score: inf
ROOT
ATOM      1  C   UNL     1     173.131 178.742 195.740  1.00  0.00     0.000 C 
ENDROOT
BRANCH   1   2
ATOM      2  C   UNL     1     173.906 178.275 196.978  1.00  0.00     0.000 C 
BRANCH   2   3
ATOM      3  C   UNL     1     173.142 177.174 197.723  1.00  0.00     0.006 C 
BRANCH   3   4
ATOM      4  C   UNL     1     173.223 177.377 199.238  1.00  0.00     0.053 C 
BRANCH   4   5
ATOM      5  C   UNL     1     171.916 177.873 199.771  1.00  0.00     0.041 C 
ATOM      6  O   UNL     1     171.052 177.057 200.188  1.00  0.00    -0.550 OA
ATOM      7  O   UNL     1     171.631 179.232 199.761  1.00  0.00    -0.550 OA
ENDBRANCH   4   5
ENDBRANCH   3   4
ENDBRANCH   2   3
ENDBRANCH   1   2
BRANCH   1   8
ATOM      8  C   UNL     1     172.761 177.556 194.841  1.00  0.00     0.000 C 
BRANCH   8   9
ATOM      9  C   UNL     1     173.820 177.338 193.755  1.00  0.00    -0.000 C 
BRANCH   9  10
ATOM     10  C   UNL     1     173.224 177.538 192.356  1.00  0.00    -0.000 C 
BRANCH  10  11
ATOM     11  C   UNL     1     171.718 177.811 192.433  1.00  0.00    -0.000 C 
BRANCH  11  12
ATOM     12  C   UNL     1     171.367 179.151 191.776  1.00  0.00    -0.003 C 
ATOM     13  C   UNL     1     172.626 179.893 191.332  1.00  0.00     0.004 C 
ENDBRANCH  11  12
ENDBRANCH  10  11
ENDBRANCH   9  10
ENDBRANCH   8   9
ENDBRANCH   1   8
TORSDOF 9
ENDMDL
MODEL 2
REMARK VINA RESULT:    -1.827      1.605      2.668
REMARK INTER + INTRA:          -3.402
REMARK INTER:                  -2.496
REMARK INTRA:                  -0.906
REMARK UNBOUND:                -0.613
REMARK SMILES CCCCCCCCCCC(=O)[O-]
REMARK SMILES IDX 7 1 8 2 9 3 10 4 11 5 12 6 13 7 6 8 5 9 4 10 3 11 2 12 1 13
REMARK H PARENT
REMARK Flexibility Score: inf
ROOT
ATOM      1  C   UNL     1     173.116 177.355 196.739  1.00  0.00     0.000 C 
ENDROOT
BRANCH   1   2
ATOM      2  C   UNL     1     173.124 178.873 196.954  1.00  0.00     0.000 C 
BRANCH   2   3
ATOM      3  C   UNL     1     172.982 179.220 198.441  1.00  0.00     0.006 C 
BRANCH   3   4
ATOM      4  C   UNL     1     172.838 177.953 199.289  1.00  0.00     0.053 C 
BRANCH   4   5
ATOM      5  C   UNL     1     171.607 178.026 200.135  1.00  0.00     0.041 C 
ATOM      6  O   UNL     1     171.254 179.121 200.648  1.00  0.00    -0.550 OA
ATOM      7  O   UNL     1     170.875 176.875 200.400  1.00  0.00    -0.550 OA
ENDBRANCH   4   5
ENDBRANCH   3   4
ENDBRANCH   2   3
ENDBRANCH   1   2
BRANCH   1   8
ATOM      8  C   UNL     1     172.753 177.005 195.291  1.00  0.00     0.000 C 
BRANCH   8   9
ATOM      9  C   UNL     1     172.967 178.207 194.363  1.00  0.00    -0.000 C 
BRANCH   9  10
ATOM     10  C   UNL     1     174.037 177.904 193.307  1.00  0.00    -0.000 C 
BRANCH  10  11
ATOM     11  C   UNL     1     175.420 178.371 193.774  1.00  0.00    -0.000 C 
BRANCH  11  12
ATOM     12  C   UNL     1     175.396 179.853 194.166  1.00  0.00    -0.003 C 
ATOM     13  C   UNL     1     176.282 180.117 195.381  1.00  0.00     0.004 C 
ENDBRANCH  11  12
ENDBRANCH  10  11
ENDBRANCH   9  10
ENDBRANCH   8   9
ENDBRANCH   1   8
TORSDOF 9
ENDMDL
MODEL 3
REMARK VINA RESULT:    -1.821      3.105      6.207
REMARK INTER + INTRA:          -3.392
REMARK INTER:                  -2.294
REMARK INTRA:                  -1.098
REMARK UNBOUND:                -0.613
REMARK SMILES CCCCCCCCCCC(=O)[O-]
REMARK SMILES IDX 7 1 8 2 9 3 10 4 11 5 12 6 13 7 6 8 5 9 4 10 3 11 2 12 1 13
REMARK H PARENT
REMARK Flexibility Score: inf
ROOT
ATOM      1  C   UNL     1     174.864 177.979 198.862  1.00  0.00     0.000 C 
ENDROOT
BRANCH   1   2
ATOM      2  C   UNL     1     174.536 177.288 197.533  1.00  0.00     0.000 C 
BRANCH   2   3
ATOM      3  C   UNL     1     173.080 177.541 197.126  1.00  0.00     0.006 C 
BRANCH   3   4
ATOM      4  C   UNL     1     172.762 176.877 195.783  1.00  0.00     0.053 C 
BRANCH   4   5
ATOM      5  C   UNL     1     173.336 177.675 194.656  1.00  0.00     0.041 C 
ATOM      6  O   UNL     1     172.774 178.738 194.280  1.00  0.00    -0.550 OA
ATOM      7  O   UNL     1     174.464 177.219 193.985  1.00  0.00    -0.550 OA
ENDBRANCH   4   5
ENDBRANCH   3   4
ENDBRANCH   2   3
ENDBRANCH   1   2
BRANCH   1   8
ATOM      8  C   UNL     1     174.600 177.044 200.049  1.00  0.00     0.000 C 
BRANCH   8   9
ATOM      9  C   UNL     1     173.579 177.656 201.015  1.00  0.00    -0.000 C 
BRANCH   9  10
ATOM     10  C   UNL     1     172.157 177.188 200.684  1.00  0.00    -0.000 C 
BRANCH  10  11
ATOM     11  C   UNL     1     171.242 178.379 200.377  1.00  0.00    -0.000 C 
BRANCH  11  12
ATOM     12  C   UNL     1     171.992 179.705 200.545  1.00  0.00    -0.003 C 
ATOM     13  C   UNL     1     172.035 180.484 199.232  1.00  0.00     0.004 C 
ENDBRANCH  11  12
ENDBRANCH  10  11
ENDBRANCH   9  10
ENDBRANCH   8   9
ENDBRANCH   1   8
TORSDOF 9
ENDMDL
MODEL 4
REMARK VINA RESULT:    -1.796      1.245      2.209
REMARK INTER + INTRA:          -3.354
REMARK INTER:                  -2.398
REMARK INTRA:                  -0.956
REMARK UNBOUND:                -0.613
REMARK SMILES CCCCCCCCCCC(=O)[O-]
REMARK SMILES IDX 7 1 8 2 9 3 10 4 11 5 12 6 13 7 6 8 5 9 4 10 3 11 2 12 1 13
REMARK H PARENT
REMARK Flexibility Score: inf
ROOT
ATOM      1  C   UNL     1     174.196 176.875 197.215  1.00  0.00     0.000 C 
ENDROOT
BRANCH   1   2
ATOM      2  C   UNL     1     174.710 177.758 198.357  1.00  0.00     0.000 C 
BRANCH   2   3
ATOM      3  C   UNL     1     174.316 177.179 199.721  1.00  0.00     0.006 C 
BRANCH   3   4
ATOM      4  C   UNL     1     173.499 178.190 200.532  1.00  0.00     0.053 C 
BRANCH   4   5
ATOM      5  C   UNL     1     172.100 178.271 200.012  1.00  0.00     0.041 C 
ATOM      6  O   UNL     1     171.407 177.225 199.891  1.00  0.00    -0.550 OA
ATOM      7  O   UNL     1     171.575 179.494 199.612  1.00  0.00    -0.550 OA
ENDBRANCH   4   5
ENDBRANCH   3   4
ENDBRANCH   2   3
ENDBRANCH   1   2
BRANCH   1   8
ATOM      8  C   UNL     1     173.043 177.557 196.468  1.00  0.00     0.000 C 
BRANCH   8   9
ATOM      9  C   UNL     1     173.243 179.076 196.414  1.00  0.00    -0.000 C 
BRANCH   9  10
ATOM     10  C   UNL     1     173.081 179.603 194.983  1.00  0.00    -0.000 C 
BRANCH  10  11
ATOM     11  C   UNL     1     173.932 178.792 193.998  1.00  0.00    -0.000 C 
BRANCH  11  12
ATOM     12  C   UNL     1     173.168 178.537 192.694  1.00  0.00    -0.003 C 
ATOM     13  C   UNL     1     172.019 177.556 192.912  1.00  0.00     0.004 C 
ENDBRANCH  11  12
ENDBRANCH  10  11
ENDBRANCH   9  10
ENDBRANCH   8   9
ENDBRANCH   1   8
TORSDOF 9
ENDMDL
MODEL 5
REMARK VINA RESULT:    -1.790      1.510      2.096
REMARK INTER + INTRA:          -3.345
REMARK INTER:                  -2.341
REMARK INTRA:                  -1.004
REMARK UNBOUND:                -0.613
REMARK SMILES CCCCCCCCCCC(=O)[O-]
REMARK SMILES IDX 7 1 8 2 9 3 10 4 11 5 12 6 13 7 6 8 5 9 4 10 3 11 2 12 1 13
REMARK H PARENT
REMARK Flexibility Score: inf
ROOT
ATOM      1  C   UNL     1     172.749 177.658 195.069  1.00  0.00     0.000 C 
ENDROOT
BRANCH   1   2
ATOM      2  C   UNL     1     174.234 177.715 195.446  1.00  0.00     0.000 C 
BRANCH   2   3
ATOM      3  C   UNL     1     174.456 178.593 196.683  1.00  0.00     0.006 C 
BRANCH   3   4
ATOM      4  C   UNL     1     173.145 179.237 197.142  1.00  0.00     0.053 C 
BRANCH   4   5
ATOM      5  C   UNL     1     172.800 178.794 198.528  1.00  0.00     0.041 C 
ATOM      6  O   UNL     1     173.066 177.622 198.903  1.00  0.00    -0.550 OA
ATOM      7  O   UNL     1     172.141 179.660 199.392  1.00  0.00    -0.550 OA
ENDBRANCH   4   5
ENDBRANCH   3   4
ENDBRANCH   2   3
ENDBRANCH   1   2
BRANCH   1   8
ATOM      8  C   UNL     1     172.553 176.997 193.700  1.00  0.00     0.000 C 
BRANCH   8   9
ATOM      9  C   UNL     1     172.841 177.986 192.564  1.00  0.00    -0.000 C 
BRANCH   9  10
ATOM     10  C   UNL     1     171.548 178.634 192.056  1.00  0.00    -0.000 C 
BRANCH  10  11
ATOM     11  C   UNL     1     171.678 180.160 192.008  1.00  0.00    -0.000 C 
BRANCH  11  12
ATOM     12  C   UNL     1     172.812 180.644 192.919  1.00  0.00    -0.003 C 
ATOM     13  C   UNL     1     172.262 181.314 194.176  1.00  0.00     0.004 C 
ENDBRANCH  11  12
ENDBRANCH  10  11
ENDBRANCH   9  10
ENDBRANCH   8   9
ENDBRANCH   1   8
TORSDOF 9
ENDMDL
MODEL 6
REMARK VINA RESULT:    -1.784      3.366      6.174
REMARK INTER + INTRA:          -3.335
REMARK INTER:                  -2.529
REMARK INTRA:                  -0.806
REMARK UNBOUND:                -0.613
REMARK SMILES CCCCCCCCCCC(=O)[O-]
REMARK SMILES IDX 7 1 8 2 9 3 10 4 11 5 12 6 13 7 6 8 5 9 4 10 3 11 2 12 1 13
REMARK H PARENT
REMARK Flexibility Score: inf
ROOT
ATOM      1  C   UNL     1     173.128 177.899 195.872  1.00  0.00     0.000 C 
ENDROOT
BRANCH   1   2
ATOM      2  C   UNL     1     173.643 179.252 196.378  1.00  0.00     0.000 C 
BRANCH   2   3
ATOM      3  C   UNL     1     173.163 180.396 195.477  1.00  0.00     0.006 C 
BRANCH   3   4
ATOM      4  C   UNL     1     173.543 180.142 194.016  1.00  0.00     0.053 C 
BRANCH   4   5
ATOM      5  C   UNL     1     172.348 180.288 193.130  1.00  0.00     0.041 C 
ATOM      6  O   UNL     1     171.593 181.291 193.243  1.00  0.00    -0.550 OA
ATOM      7  O   UNL     1     172.036 179.293 192.212  1.00  0.00    -0.550 OA
ENDBRANCH   4   5
ENDBRANCH   3   4
ENDBRANCH   2   3
ENDBRANCH   1   2
BRANCH   1   8
ATOM      8  C   UNL     1     173.057 176.875 197.011  1.00  0.00     0.000 C 
BRANCH   8   9
ATOM      9  C   UNL     1     173.510 177.495 198.338  1.00  0.00    -0.000 C 
BRANCH   9  10
ATOM     10  C   UNL     1     172.349 177.569 199.336  1.00  0.00    -0.000 C 
BRANCH  10  11
ATOM     11  C   UNL     1     172.473 178.806 200.234  1.00  0.00    -0.000 C 
BRANCH  11  12
ATOM     12  C   UNL     1     171.373 179.826 199.919  1.00  0.00    -0.003 C 
ATOM     13  C   UNL     1     171.948 181.061 199.229  1.00  0.00     0.004 C 
ENDBRANCH  11  12
ENDBRANCH  10  11
ENDBRANCH   9  10
ENDBRANCH   8   9
ENDBRANCH   1   8
TORSDOF 9
ENDMDL
MODEL 7
REMARK VINA RESULT:    -1.766      2.055      3.497
REMARK INTER + INTRA:          -3.308
REMARK INTER:                  -2.059
REMARK INTRA:                  -1.249
REMARK UNBOUND:                -0.613
REMARK SMILES CCCCCCCCCCC(=O)[O-]
REMARK SMILES IDX 7 1 8 2 9 3 10 4 11 5 12 6 13 7 6 8 5 9 4 10 3 11 2 12 1 13
REMARK H PARENT
REMARK Flexibility Score: inf
ROOT
ATOM      1  C   UNL     1     173.475 181.433 193.555  1.00  0.00     0.000 C 
ENDROOT
BRANCH   1   2
ATOM      2  C   UNL     1     172.754 180.643 194.653  1.00  0.00     0.000 C 
BRANCH   2   3
ATOM      3  C   UNL     1     173.707 179.653 195.334  1.00  0.00     0.006 C 
BRANCH   3   4
ATOM      4  C   UNL     1     173.039 178.288 195.522  1.00  0.00     0.053 C 
BRANCH   4   5
ATOM      5  C   UNL     1     173.600 177.590 196.720  1.00  0.00     0.041 C 
ATOM      6  O   UNL     1     174.839 177.377 196.807  1.00  0.00    -0.550 OA
ATOM      7  O   UNL     1     172.751 177.129 197.718  1.00  0.00    -0.550 OA
ENDBRANCH   4   5
ENDBRANCH   3   4
ENDBRANCH   2   3
ENDBRANCH   1   2
BRANCH   1   8
ATOM      8  C   UNL     1     172.667 181.428 192.252  1.00  0.00     0.000 C 
BRANCH   8   9
ATOM      9  C   UNL     1     171.397 180.582 192.395  1.00  0.00    -0.000 C 
BRANCH   9  10
ATOM     10  C   UNL     1     171.406 179.404 191.413  1.00  0.00    -0.000 C 
BRANCH  10  11
ATOM     11  C   UNL     1     171.718 178.087 192.135  1.00  0.00    -0.000 C 
BRANCH  11  12
ATOM     12  C   UNL     1     172.937 177.396 191.514  1.00  0.00    -0.003 C 
ATOM     13  C   UNL     1     174.235 178.073 191.948  1.00  0.00     0.004 C 
ENDBRANCH  11  12
ENDBRANCH  10  11
ENDBRANCH   9  10
ENDBRANCH   8   9
ENDBRANCH   1   8
TORSDOF 9
ENDMDL
MODEL 8
REMARK VINA RESULT:    -1.747      2.659      4.505
REMARK INTER + INTRA:          -3.278
REMARK INTER:                  -1.961
REMARK INTRA:                  -1.318
REMARK UNBOUND:                -0.613
REMARK SMILES CCCCCCCCCCC(=O)[O-]
REMARK SMILES IDX 7 1 8 2 9 3 10 4 11 5 12 6 13 7 6 8 5 9 4 10 3 11 2 12 1 13
REMARK H PARENT
REMARK Flexibility Score: inf
ROOT
ATOM      1  C   UNL     1     173.128 179.413 196.529  1.00  0.00     0.000 C 
ENDROOT
BRANCH   1   2
ATOM      2  C   UNL     1     173.131 177.888 196.370  1.00  0.00     0.000 C 
BRANCH   2   3
ATOM      3  C   UNL     1     173.107 177.192 197.737  1.00  0.00     0.006 C 
BRANCH   3   4
ATOM      4  C   UNL     1     172.765 178.183 198.852  1.00  0.00     0.053 C 
BRANCH   4   5
ATOM      5  C   UNL     1     172.246 177.460 200.055  1.00  0.00     0.041 C 
ATOM      6  O   UNL     1     173.044 177.032 200.930  1.00  0.00    -0.550 OA
ATOM      7  O   UNL     1     170.885 177.215 200.185  1.00  0.00    -0.550 OA
ENDBRANCH   4   5
ENDBRANCH   3   4
ENDBRANCH   2   3
ENDBRANCH   1   2
BRANCH   1   8
ATOM      8  C   UNL     1     173.962 180.082 195.430  1.00  0.00     0.000 C 
BRANCH   8   9
ATOM      9  C   UNL     1     175.002 181.035 196.031  1.00  0.00    -0.000 C 
BRANCH   9  10
ATOM     10  C   UNL     1     175.222 180.743 197.520  1.00  0.00    -0.000 C 
BRANCH  10  11
ATOM     11  C   UNL     1     176.608 180.135 197.764  1.00  0.00    -0.000 C 
BRANCH  11  12
ATOM     12  C   UNL     1     176.496 178.683 198.242  1.00  0.00    -0.003 C 
ATOM     13  C   UNL     1     176.798 177.705 197.109  1.00  0.00     0.004 C 
ENDBRANCH  11  12
ENDBRANCH  10  11
ENDBRANCH   9  10
ENDBRANCH   8   9
ENDBRANCH   1   8
TORSDOF 9
ENDMDL
MODEL 9
REMARK VINA RESULT:    -1.699      3.318      6.074
REMARK INTER + INTRA:          -3.205
REMARK INTER:                  -1.943
REMARK INTRA:                  -1.262
REMARK UNBOUND:                -0.613
REMARK SMILES CCCCCCCCCCC(=O)[O-]
REMARK SMILES IDX 7 1 8 2 9 3 10 4 11 5 12 6 13 7 6 8 5 9 4 10 3 11 2 12 1 13
REMARK H PARENT
REMARK Flexibility Score: inf
ROOT
ATOM      1  C   UNL     1     173.121 177.266 198.080  1.00  0.00     0.000 C 
ENDROOT
BRANCH   1   2
ATOM      2  C   UNL     1     173.978 177.904 196.980  1.00  0.00     0.000 C 
BRANCH   2   3
ATOM      3  C   UNL     1     173.112 178.347 195.794  1.00  0.00     0.006 C 
BRANCH   3   4
ATOM      4  C   UNL     1     173.166 179.866 195.612  1.00  0.00     0.053 C 
BRANCH   4   5
ATOM      5  C   UNL     1     172.735 180.244 194.231  1.00  0.00     0.041 C 
ATOM      6  O   UNL     1     172.415 181.434 193.970  1.00  0.00    -0.550 OA
ATOM      7  O   UNL     1     172.637 179.273 193.242  1.00  0.00    -0.550 OA
ENDBRANCH   4   5
ENDBRANCH   3   4
ENDBRANCH   2   3
ENDBRANCH   1   2
BRANCH   1   8
ATOM      8  C   UNL     1     173.235 178.052 199.392  1.00  0.00     0.000 C 
BRANCH   8   9
ATOM      9  C   UNL     1     172.036 178.990 199.577  1.00  0.00    -0.000 C 
BRANCH   9  10
ATOM     10  C   UNL     1     172.420 180.441 199.266  1.00  0.00    -0.000 C 
BRANCH  10  11
ATOM     11  C   UNL     1     173.853 180.742 199.718  1.00  0.00    -0.000 C 
BRANCH  11  12
ATOM     12  C   UNL     1     174.629 181.489 198.627  1.00  0.00    -0.003 C 
ATOM     13  C   UNL     1     175.935 180.773 198.292  1.00  0.00     0.004 C 
ENDBRANCH  11  12
ENDBRANCH  10  11
ENDBRANCH   9  10
ENDBRANCH   8   9
ENDBRANCH   1   8
TORSDOF 9
ENDMDL
