MODEL 1
REMARK VINA RESULT:    -3.470      0.000      0.000
REMARK INTER + INTRA:          -5.454
REMARK INTER:                  -4.890
REMARK INTRA:                  -0.565
REMARK UNBOUND:                -0.565
REMARK SMILES C=CCCCCCCC(=O)[O-]
REMARK SMILES IDX 6 1 7 2 8 3 9 4 10 5 11 6 5 7 4 8 3 9 2 10 1 11
REMARK H PARENT
REMARK Flexibility Score: inf
ROOT
ATOM      1  C   UNL     1      -5.747  17.018 -14.252  1.00  0.00     0.000 C 
ENDROOT
BRANCH   1   2
ATOM      2  C   UNL     1      -6.879  18.052 -14.088  1.00  0.00     0.006 C 
BRANCH   2   3
ATOM      3  C   UNL     1      -8.295  17.470 -14.215  1.00  0.00     0.053 C 
BRANCH   3   4
ATOM      4  C   UNL     1      -8.865  17.091 -12.882  1.00  0.00     0.041 C 
ATOM      5  O   UNL     1      -9.911  16.393 -12.816  1.00  0.00    -0.550 OA
ATOM      6  O   UNL     1      -8.259  17.537 -11.715  1.00  0.00    -0.550 OA
ENDBRANCH   3   4
ENDBRANCH   2   3
ENDBRANCH   1   2
BRANCH   1   7
ATOM      7  C   UNL     1      -6.112  15.774 -15.088  1.00  0.00     0.000 C 
BRANCH   7   8
ATOM      8  C   UNL     1      -5.862  14.424 -14.395  1.00  0.00     0.004 C 
BRANCH   8   9
ATOM      9  C   UNL     1      -7.068  13.944 -13.573  1.00  0.00     0.027 C 
BRANCH   9  10
ATOM     10  C   UNL     1      -7.789  12.823 -14.270  1.00  0.00    -0.035 C 
ATOM     11  C   UNL     1      -8.811  13.053 -15.100  1.00  0.00     0.004 C 
ENDBRANCH   9  10
ENDBRANCH   8   9
ENDBRANCH   7   8
ENDBRANCH   1   7
TORSDOF 7
ENDMDL
MODEL 2
REMARK VINA RESULT:    -3.415      2.513      5.223
REMARK INTER + INTRA:          -5.377
REMARK INTER:                  -5.032
REMARK INTRA:                  -0.344
REMARK UNBOUND:                -0.565
REMARK SMILES C=CCCCCCCC(=O)[O-]
REMARK SMILES IDX 6 1 7 2 8 3 9 4 10 5 11 6 5 7 4 8 3 9 2 10 1 11
REMARK H PARENT
REMARK Flexibility Score: inf
ROOT
ATOM      1  C   UNL     1      -8.686  17.934 -12.531  1.00  0.00     0.000 C 
ENDROOT
BRANCH   1   2
ATOM      2  C   UNL     1      -8.851  16.441 -12.181  1.00  0.00     0.006 C 
BRANCH   2   3
ATOM      3  C   UNL     1      -8.207  15.478 -13.190  1.00  0.00     0.053 C 
BRANCH   3   4
ATOM      4  C   UNL     1      -7.404  14.412 -12.511  1.00  0.00     0.041 C 
ATOM      5  O   UNL     1      -6.874  13.490 -13.186  1.00  0.00    -0.550 OA
ATOM      6  O   UNL     1      -7.270  14.417 -11.129  1.00  0.00    -0.550 OA
ENDBRANCH   3   4
ENDBRANCH   2   3
ENDBRANCH   1   2
BRANCH   1   7
ATOM      7  C   UNL     1      -7.671  18.236 -13.652  1.00  0.00     0.000 C 
BRANCH   7   8
ATOM      8  C   UNL     1      -7.603  19.708 -14.093  1.00  0.00     0.004 C 
BRANCH   8   9
ATOM      9  C   UNL     1      -7.220  20.656 -12.946  1.00  0.00     0.027 C 
BRANCH   9  10
ATOM     10  C   UNL     1      -5.734  20.887 -12.906  1.00  0.00    -0.035 C 
ATOM     11  C   UNL     1      -4.980  20.808 -14.005  1.00  0.00     0.004 C 
ENDBRANCH   9  10
ENDBRANCH   8   9
ENDBRANCH   7   8
ENDBRANCH   1   7
TORSDOF 7
ENDMDL
MODEL 3
REMARK VINA RESULT:    -3.407      2.047      2.872
REMARK INTER + INTRA:          -5.367
REMARK INTER:                  -4.998
REMARK INTRA:                  -0.369
REMARK UNBOUND:                -0.565
REMARK SMILES C=CCCCCCCC(=O)[O-]
REMARK SMILES IDX 6 1 7 2 8 3 9 4 10 5 11 6 5 7 4 8 3 9 2 10 1 11
REMARK H PARENT
REMARK Flexibility Score: inf
ROOT
ATOM      1  C   UNL     1      -8.184  16.003 -12.159  1.00  0.00     0.000 C 
ENDROOT
BRANCH   1   2
ATOM      2  C   UNL     1      -8.843  17.330 -12.590  1.00  0.00     0.006 C 
BRANCH   2   3
ATOM      3  C   UNL     1      -8.272  17.931 -13.883  1.00  0.00     0.053 C 
BRANCH   3   4
ATOM      4  C   UNL     1      -7.780  19.331 -13.680  1.00  0.00     0.041 C 
ATOM      5  O   UNL     1      -7.269  19.670 -12.580  1.00  0.00    -0.550 OA
ATOM      6  O   UNL     1      -7.918  20.270 -14.693  1.00  0.00    -0.550 OA
ENDBRANCH   3   4
ENDBRANCH   2   3
ENDBRANCH   1   2
BRANCH   1   7
ATOM      7  C   UNL     1      -7.405  15.268 -13.269  1.00  0.00     0.000 C 
BRANCH   7   8
ATOM      8  C   UNL     1      -8.201  14.186 -14.019  1.00  0.00     0.004 C 
BRANCH   8   9
ATOM      9  C   UNL     1      -7.502  12.818 -14.007  1.00  0.00     0.027 C 
BRANCH   9  10
ATOM     10  C   UNL     1      -6.086  12.935 -13.512  1.00  0.00    -0.035 C 
ATOM     11  C   UNL     1      -5.063  12.382 -14.170  1.00  0.00     0.004 C 
ENDBRANCH   9  10
ENDBRANCH   8   9
ENDBRANCH   7   8
ENDBRANCH   1   7
TORSDOF 7
ENDMDL
MODEL 4
REMARK VINA RESULT:    -3.353      2.338      2.839
REMARK INTER + INTRA:          -5.291
REMARK INTER:                  -4.847
REMARK INTRA:                  -0.443
REMARK UNBOUND:                -0.565
REMARK SMILES C=CCCCCCCC(=O)[O-]
REMARK SMILES IDX 6 1 7 2 8 3 9 4 10 5 11 6 5 7 4 8 3 9 2 10 1 11
REMARK H PARENT
REMARK Flexibility Score: inf
ROOT
ATOM      1  C   UNL     1      -8.137  16.805 -14.474  1.00  0.00     0.000 C 
ENDROOT
BRANCH   1   2
ATOM      2  C   UNL     1      -7.629  18.260 -14.525  1.00  0.00     0.006 C 
BRANCH   2   3
ATOM      3  C   UNL     1      -7.899  19.072 -13.248  1.00  0.00     0.053 C 
BRANCH   3   4
ATOM      4  C   UNL     1      -7.136  20.361 -13.234  1.00  0.00     0.041 C 
ATOM      5  O   UNL     1      -7.163  21.125 -14.235  1.00  0.00    -0.550 OA
ATOM      6  O   UNL     1      -6.369  20.702 -12.128  1.00  0.00    -0.550 OA
ENDBRANCH   3   4
ENDBRANCH   2   3
ENDBRANCH   1   2
BRANCH   1   7
ATOM      7  C   UNL     1      -8.615  16.326 -13.087  1.00  0.00     0.000 C 
BRANCH   7   8
ATOM      8  C   UNL     1      -7.873  15.100 -12.528  1.00  0.00     0.004 C 
BRANCH   8   9
ATOM      9  C   UNL     1      -7.076  14.344 -13.603  1.00  0.00     0.027 C 
BRANCH   9  10
ATOM     10  C   UNL     1      -7.771  13.070 -13.998  1.00  0.00    -0.035 C 
ATOM     11  C   UNL     1      -8.605  13.018 -15.040  1.00  0.00     0.004 C 
ENDBRANCH   9  10
ENDBRANCH   8   9
ENDBRANCH   7   8
ENDBRANCH   1   7
TORSDOF 7
ENDMDL
MODEL 5
REMARK VINA RESULT:    -3.279      2.860      5.161
REMARK INTER + INTRA:          -5.185
REMARK INTER:                  -4.813
REMARK INTRA:                  -0.372
REMARK UNBOUND:                -0.565
REMARK SMILES C=CCCCCCCC(=O)[O-]
REMARK SMILES IDX 6 1 7 2 8 3 9 4 10 5 11 6 5 7 4 8 3 9 2 10 1 11
REMARK H PARENT
REMARK Flexibility Score: inf
ROOT
ATOM      1  C   UNL     1      -7.724  15.346 -12.912  1.00  0.00     0.000 C 
ENDROOT
BRANCH   1   2
ATOM      2  C   UNL     1      -8.126  14.301 -13.973  1.00  0.00     0.006 C 
BRANCH   2   3
ATOM      3  C   UNL     1      -7.400  12.954 -13.844  1.00  0.00     0.053 C 
BRANCH   3   4
ATOM      4  C   UNL     1      -5.913  13.110 -13.932  1.00  0.00     0.041 C 
ATOM      5  O   UNL     1      -5.376  13.475 -15.012  1.00  0.00    -0.550 OA
ATOM      6  O   UNL     1      -5.117  12.819 -12.832  1.00  0.00    -0.550 OA
ENDBRANCH   3   4
ENDBRANCH   2   3
ENDBRANCH   1   2
BRANCH   1   7
ATOM      7  C   UNL     1      -8.876  16.235 -12.399  1.00  0.00     0.000 C 
BRANCH   7   8
ATOM      8  C   UNL     1      -8.690  17.744 -12.631  1.00  0.00     0.004 C 
BRANCH   8   9
ATOM      9  C   UNL     1      -7.990  18.060 -13.962  1.00  0.00     0.027 C 
BRANCH   9  10
ATOM     10  C   UNL     1      -6.973  19.156 -13.794  1.00  0.00    -0.035 C 
ATOM     11  C   UNL     1      -7.241  20.263 -13.094  1.00  0.00     0.004 C 
ENDBRANCH   9  10
ENDBRANCH   8   9
ENDBRANCH   7   8
ENDBRANCH   1   7
TORSDOF 7
ENDMDL
MODEL 6
REMARK VINA RESULT:    -3.235      1.823      4.496
REMARK INTER + INTRA:          -5.124
REMARK INTER:                  -4.525
REMARK INTRA:                  -0.600
REMARK UNBOUND:                -0.565
REMARK SMILES C=CCCCCCCC(=O)[O-]
REMARK SMILES IDX 6 1 7 2 8 3 9 4 10 5 11 6 5 7 4 8 3 9 2 10 1 11
REMARK H PARENT
REMARK Flexibility Score: inf
ROOT
ATOM      1  C   UNL     1      -6.102  16.690 -14.633  1.00  0.00     0.000 C 
ENDROOT
BRANCH   1   2
ATOM      2  C   UNL     1      -7.375  15.865 -14.911  1.00  0.00     0.006 C 
BRANCH   2   3
ATOM      3  C   UNL     1      -7.811  14.960 -13.749  1.00  0.00     0.053 C 
BRANCH   3   4
ATOM      4  C   UNL     1      -8.264  15.753 -12.561  1.00  0.00     0.041 C 
ATOM      5  O   UNL     1      -9.366  16.361 -12.587  1.00  0.00    -0.550 OA
ATOM      6  O   UNL     1      -7.450  15.849 -11.440  1.00  0.00    -0.550 OA
ENDBRANCH   3   4
ENDBRANCH   2   3
ENDBRANCH   1   2
BRANCH   1   7
ATOM      7  C   UNL     1      -6.199  18.186 -14.995  1.00  0.00     0.000 C 
BRANCH   7   8
ATOM      8  C   UNL     1      -7.557  18.844 -14.696  1.00  0.00     0.004 C 
BRANCH   8   9
ATOM      9  C   UNL     1      -7.647  19.400 -13.267  1.00  0.00     0.027 C 
BRANCH   9  10
ATOM     10  C   UNL     1      -7.143  20.816 -13.202  1.00  0.00    -0.035 C 
ATOM     11  C   UNL     1      -5.987  21.124 -12.607  1.00  0.00     0.004 C 
ENDBRANCH   9  10
ENDBRANCH   8   9
ENDBRANCH   7   8
ENDBRANCH   1   7
TORSDOF 7
ENDMDL
MODEL 7
REMARK VINA RESULT:    -3.216      2.217      4.069
REMARK INTER + INTRA:          -5.097
REMARK INTER:                  -4.507
REMARK INTRA:                  -0.590
REMARK UNBOUND:                -0.565
REMARK SMILES C=CCCCCCCC(=O)[O-]
REMARK SMILES IDX 6 1 7 2 8 3 9 4 10 5 11 6 5 7 4 8 3 9 2 10 1 11
REMARK H PARENT
REMARK Flexibility Score: inf
ROOT
ATOM      1  C   UNL     1      -6.443  15.763 -15.070  1.00  0.00     0.000 C 
ENDROOT
BRANCH   1   2
ATOM      2  C   UNL     1      -7.720  14.906 -14.947  1.00  0.00     0.006 C 
BRANCH   2   3
ATOM      3  C   UNL     1      -7.487  13.499 -14.377  1.00  0.00     0.053 C 
BRANCH   3   4
ATOM      4  C   UNL     1      -6.647  13.529 -13.138  1.00  0.00     0.041 C 
ATOM      5  O   UNL     1      -7.080  14.082 -12.092  1.00  0.00    -0.550 OA
ATOM      6  O   UNL     1      -5.373  12.977 -13.148  1.00  0.00    -0.550 OA
ENDBRANCH   3   4
ENDBRANCH   2   3
ENDBRANCH   1   2
BRANCH   1   7
ATOM      7  C   UNL     1      -6.428  17.043 -14.210  1.00  0.00     0.000 C 
BRANCH   7   8
ATOM      8  C   UNL     1      -7.571  18.033 -14.491  1.00  0.00     0.004 C 
BRANCH   8   9
ATOM      9  C   UNL     1      -8.172  18.628 -13.208  1.00  0.00     0.027 C 
BRANCH   9  10
ATOM     10  C   UNL     1      -8.547  17.547 -12.232  1.00  0.00    -0.035 C 
ATOM     11  C   UNL     1      -9.501  16.652 -12.506  1.00  0.00     0.004 C 
ENDBRANCH   9  10
ENDBRANCH   8   9
ENDBRANCH   7   8
ENDBRANCH   1   7
TORSDOF 7
ENDMDL
MODEL 8
REMARK VINA RESULT:    -3.179      2.371      5.100
REMARK INTER + INTRA:          -5.044
REMARK INTER:                  -4.598
REMARK INTRA:                  -0.446
REMARK UNBOUND:                -0.565
REMARK SMILES C=CCCCCCCC(=O)[O-]
REMARK SMILES IDX 6 1 7 2 8 3 9 4 10 5 11 6 5 7 4 8 3 9 2 10 1 11
REMARK H PARENT
REMARK Flexibility Score: inf
ROOT
ATOM      1  C   UNL     1      -8.742  17.084 -12.966  1.00  0.00     0.000 C 
ENDROOT
BRANCH   1   2
ATOM      2  C   UNL     1      -8.143  15.770 -12.423  1.00  0.00     0.006 C 
BRANCH   2   3
ATOM      3  C   UNL     1      -7.239  15.027 -13.418  1.00  0.00     0.053 C 
BRANCH   3   4
ATOM      4  C   UNL     1      -7.905  13.807 -13.975  1.00  0.00     0.041 C 
ATOM      5  O   UNL     1      -8.908  13.921 -14.729  1.00  0.00    -0.550 OA
ATOM      6  O   UNL     1      -7.440  12.544 -13.634  1.00  0.00    -0.550 OA
ENDBRANCH   3   4
ENDBRANCH   2   3
ENDBRANCH   1   2
BRANCH   1   7
ATOM      7  C   UNL     1      -8.181  17.547 -14.327  1.00  0.00     0.000 C 
BRANCH   7   8
ATOM      8  C   UNL     1      -7.669  18.997 -14.364  1.00  0.00     0.004 C 
BRANCH   8   9
ATOM      9  C   UNL     1      -7.805  19.711 -13.010  1.00  0.00     0.027 C 
BRANCH   9  10
ATOM     10  C   UNL     1      -6.796  20.819 -12.878  1.00  0.00    -0.035 C 
ATOM     11  C   UNL     1      -5.528  20.667 -13.269  1.00  0.00     0.004 C 
ENDBRANCH   9  10
ENDBRANCH   8   9
ENDBRANCH   7   8
ENDBRANCH   1   7
TORSDOF 7
ENDMDL
