MODEL 1
REMARK VINA RESULT:    -3.514      0.000      0.000
REMARK INTER + INTRA:          -5.156
REMARK INTER:                  -4.952
REMARK INTRA:                  -0.204
REMARK UNBOUND:                -0.204
REMARK SMILES CCCCCCCCC(=O)[O-]
REMARK SMILES IDX 6 1 7 2 8 3 9 4 10 5 11 6 5 7 4 8 3 9 2 10 1 11
REMARK H PARENT
REMARK Flexibility Score: inf
ROOT
ATOM      1  C   UNL     1      -2.064 -16.561 -25.890  1.00  0.00     0.000 C 
ENDROOT
BRANCH   1   2
ATOM      2  C   UNL     1      -1.862 -18.034 -25.498  1.00  0.00     0.006 C 
BRANCH   2   3
ATOM      3  C   UNL     1      -0.491 -18.575 -25.924  1.00  0.00     0.053 C 
BRANCH   3   4
ATOM      4  C   UNL     1      -0.501 -20.071 -25.933  1.00  0.00     0.041 C 
ATOM      5  O   UNL     1      -1.261 -20.695 -26.720  1.00  0.00    -0.550 OA
ATOM      6  O   UNL     1       0.365 -20.778 -25.110  1.00  0.00    -0.550 OA
ENDBRANCH   3   4
ENDBRANCH   2   3
ENDBRANCH   1   2
BRANCH   1   7
ATOM      7  C   UNL     1      -1.047 -16.083 -26.937  1.00  0.00     0.000 C 
BRANCH   7   8
ATOM      8  C   UNL     1      -1.559 -14.836 -27.670  1.00  0.00    -0.000 C 
BRANCH   8   9
ATOM      9  C   UNL     1      -1.052 -13.555 -26.999  1.00  0.00    -0.000 C 
BRANCH   9  10
ATOM     10  C   UNL     1      -0.730 -12.478 -28.041  1.00  0.00    -0.003 C 
ATOM     11  C   UNL     1      -0.460 -11.131 -27.376  1.00  0.00     0.004 C 
ENDBRANCH   9  10
ENDBRANCH   8   9
ENDBRANCH   7   8
ENDBRANCH   1   7
TORSDOF 7
ENDMDL
MODEL 2
REMARK VINA RESULT:    -3.466      1.075      1.381
REMARK INTER + INTRA:          -5.089
REMARK INTER:                  -4.775
REMARK INTRA:                  -0.314
REMARK UNBOUND:                -0.204
REMARK SMILES CCCCCCCCC(=O)[O-]
REMARK SMILES IDX 6 1 7 2 8 3 9 4 10 5 11 6 5 7 4 8 3 9 2 10 1 11
REMARK H PARENT
REMARK Flexibility Score: inf
ROOT
ATOM      1  C   UNL     1      -2.065 -15.806 -25.785  1.00  0.00     0.000 C 
ENDROOT
BRANCH   1   2
ATOM      2  C   UNL     1      -1.249 -16.992 -26.320  1.00  0.00     0.006 C 
BRANCH   2   3
ATOM      3  C   UNL     1      -1.664 -18.328 -25.689  1.00  0.00     0.053 C 
BRANCH   3   4
ATOM      4  C   UNL     1      -0.586 -19.349 -25.872  1.00  0.00     0.041 C 
ATOM      5  O   UNL     1       0.594 -18.987 -26.121  1.00  0.00    -0.550 OA
ATOM      6  O   UNL     1      -0.872 -20.699 -25.718  1.00  0.00    -0.550 OA
ENDBRANCH   3   4
ENDBRANCH   2   3
ENDBRANCH   1   2
BRANCH   1   7
ATOM      7  C   UNL     1      -1.713 -14.482 -26.481  1.00  0.00     0.000 C 
BRANCH   7   8
ATOM      8  C   UNL     1      -0.388 -14.600 -27.244  1.00  0.00    -0.000 C 
BRANCH   8   9
ATOM      9  C   UNL     1      -0.141 -13.361 -28.113  1.00  0.00    -0.000 C 
BRANCH   9  10
ATOM     10  C   UNL     1      -0.881 -12.141 -27.554  1.00  0.00    -0.003 C 
ATOM     11  C   UNL     1       0.057 -10.946 -27.404  1.00  0.00     0.004 C 
ENDBRANCH   9  10
ENDBRANCH   8   9
ENDBRANCH   7   8
ENDBRANCH   1   7
TORSDOF 7
ENDMDL
MODEL 3
REMARK VINA RESULT:    -3.190      3.677      6.443
REMARK INTER + INTRA:          -4.700
REMARK INTER:                  -4.377
REMARK INTRA:                  -0.322
REMARK UNBOUND:                -0.204
REMARK SMILES CCCCCCCCC(=O)[O-]
REMARK SMILES IDX 6 1 7 2 8 3 9 4 10 5 11 6 5 7 4 8 3 9 2 10 1 11
REMARK H PARENT
REMARK Flexibility Score: inf
ROOT
ATOM      1  C   UNL     1      -1.042 -16.239 -26.629  1.00  0.00     0.000 C 
ENDROOT
BRANCH   1   2
ATOM      2  C   UNL     1      -1.625 -15.115 -27.499  1.00  0.00     0.006 C 
BRANCH   2   3
ATOM      3  C   UNL     1      -0.626 -13.975 -27.739  1.00  0.00     0.053 C 
BRANCH   3   4
ATOM      4  C   UNL     1      -1.012 -12.767 -26.945  1.00  0.00     0.041 C 
ATOM      5  O   UNL     1      -0.769 -11.613 -27.389  1.00  0.00    -0.550 OA
ATOM      6  O   UNL     1      -1.685 -12.912 -25.740  1.00  0.00    -0.550 OA
ENDBRANCH   3   4
ENDBRANCH   2   3
ENDBRANCH   1   2
BRANCH   1   7
ATOM      7  C   UNL     1      -2.105 -16.926 -25.758  1.00  0.00     0.000 C 
BRANCH   7   8
ATOM      8  C   UNL     1      -1.733 -18.391 -25.492  1.00  0.00    -0.000 C 
BRANCH   8   9
ATOM      9  C   UNL     1      -0.302 -18.688 -25.956  1.00  0.00    -0.000 C 
BRANCH   9  10
ATOM     10  C   UNL     1       0.021 -20.180 -25.821  1.00  0.00    -0.003 C 
ATOM     11  C   UNL     1      -1.187 -21.041 -26.182  1.00  0.00     0.004 C 
ENDBRANCH   9  10
ENDBRANCH   8   9
ENDBRANCH   7   8
ENDBRANCH   1   7
TORSDOF 7
ENDMDL
MODEL 4
REMARK VINA RESULT:    -3.094      0.736      1.626
REMARK INTER + INTRA:          -4.565
REMARK INTER:                  -4.297
REMARK INTRA:                  -0.268
REMARK UNBOUND:                -0.204
REMARK SMILES CCCCCCCCC(=O)[O-]
REMARK SMILES IDX 6 1 7 2 8 3 9 4 10 5 11 6 5 7 4 8 3 9 2 10 1 11
REMARK H PARENT
REMARK Flexibility Score: inf
ROOT
ATOM      1  C   UNL     1      -1.808 -17.841 -25.520  1.00  0.00     0.000 C 
ENDROOT
BRANCH   1   2
ATOM      2  C   UNL     1      -0.582 -18.369 -26.282  1.00  0.00     0.006 C 
BRANCH   2   3
ATOM      3  C   UNL     1       0.132 -19.505 -25.536  1.00  0.00     0.053 C 
BRANCH   3   4
ATOM      4  C   UNL     1      -0.513 -20.819 -25.847  1.00  0.00     0.041 C 
ATOM      5  O   UNL     1      -0.325 -21.810 -25.093  1.00  0.00    -0.550 OA
ATOM      6  O   UNL     1      -1.363 -20.936 -26.939  1.00  0.00    -0.550 OA
ENDBRANCH   3   4
ENDBRANCH   2   3
ENDBRANCH   1   2
BRANCH   1   7
ATOM      7  C   UNL     1      -2.047 -16.341 -25.750  1.00  0.00     0.000 C 
BRANCH   7   8
ATOM      8  C   UNL     1      -1.297 -15.850 -26.995  1.00  0.00    -0.000 C 
BRANCH   8   9
ATOM      9  C   UNL     1      -1.929 -14.568 -27.549  1.00  0.00    -0.000 C 
BRANCH   9  10
ATOM     10  C   UNL     1      -1.760 -13.403 -26.568  1.00  0.00    -0.003 C 
ATOM     11  C   UNL     1      -0.947 -12.271 -27.190  1.00  0.00     0.004 C 
ENDBRANCH   9  10
ENDBRANCH   8   9
ENDBRANCH   7   8
ENDBRANCH   1   7
TORSDOF 7
ENDMDL
MODEL 5
REMARK VINA RESULT:    -2.822      3.504      6.513
REMARK INTER + INTRA:          -4.180
REMARK INTER:                  -3.909
REMARK INTRA:                  -0.271
REMARK UNBOUND:                -0.204
REMARK SMILES CCCCCCCCC(=O)[O-]
REMARK SMILES IDX 6 1 7 2 8 3 9 4 10 5 11 6 5 7 4 8 3 9 2 10 1 11
REMARK H PARENT
REMARK Flexibility Score: inf
ROOT
ATOM      1  C   UNL     1      -2.125 -16.591 -25.625  1.00  0.00     0.000 C 
ENDROOT
BRANCH   1   2
ATOM      2  C   UNL     1      -1.184 -16.044 -26.709  1.00  0.00     0.006 C 
BRANCH   2   3
ATOM      3  C   UNL     1      -1.797 -14.870 -27.486  1.00  0.00     0.053 C 
BRANCH   3   4
ATOM      4  C   UNL     1      -1.245 -13.571 -26.990  1.00  0.00     0.041 C 
ATOM      5  O   UNL     1      -1.750 -13.013 -25.980  1.00  0.00    -0.550 OA
ATOM      6  O   UNL     1      -0.142 -13.001 -27.611  1.00  0.00    -0.550 OA
ENDBRANCH   3   4
ENDBRANCH   2   3
ENDBRANCH   1   2
BRANCH   1   7
ATOM      7  C   UNL     1      -1.873 -18.076 -25.317  1.00  0.00     0.000 C 
BRANCH   7   8
ATOM      8  C   UNL     1      -0.621 -18.582 -26.044  1.00  0.00    -0.000 C 
BRANCH   8   9
ATOM      9  C   UNL     1      -0.668 -20.103 -26.228  1.00  0.00    -0.000 C 
BRANCH   9  10
ATOM     10  C   UNL     1       0.544 -20.774 -25.572  1.00  0.00    -0.003 C 
ATOM     11  C   UNL     1       0.167 -22.125 -24.970  1.00  0.00     0.004 C 
ENDBRANCH   9  10
ENDBRANCH   8   9
ENDBRANCH   7   8
ENDBRANCH   1   7
TORSDOF 7
ENDMDL
MODEL 6
REMARK VINA RESULT:    -1.492      1.580      2.356
REMARK INTER + INTRA:          -2.306
REMARK INTER:                  -2.025
REMARK INTRA:                  -0.281
REMARK UNBOUND:                -0.204
REMARK SMILES CCCCCCCCC(=O)[O-]
REMARK SMILES IDX 6 1 7 2 8 3 9 4 10 5 11 6 5 7 4 8 3 9 2 10 1 11
REMARK H PARENT
REMARK Flexibility Score: inf
ROOT
ATOM      1  C   UNL     1      -0.936 -18.081 -26.288  1.00  0.00     0.000 C 
ENDROOT
BRANCH   1   2
ATOM      2  C   UNL     1      -0.120 -19.130 -25.517  1.00  0.00     0.006 C 
BRANCH   2   3
ATOM      3  C   UNL     1      -0.499 -20.568 -25.897  1.00  0.00     0.053 C 
BRANCH   3   4
ATOM      4  C   UNL     1       0.350 -21.547 -25.148  1.00  0.00     0.041 C 
ATOM      5  O   UNL     1       0.900 -21.210 -24.067  1.00  0.00    -0.550 OA
ATOM      6  O   UNL     1       0.492 -22.846 -25.617  1.00  0.00    -0.550 OA
ENDBRANCH   3   4
ENDBRANCH   2   3
ENDBRANCH   1   2
BRANCH   1   7
ATOM      7  C   UNL     1      -2.061 -17.467 -25.441  1.00  0.00     0.000 C 
BRANCH   7   8
ATOM      8  C   UNL     1      -2.125 -15.946 -25.632  1.00  0.00    -0.000 C 
BRANCH   8   9
ATOM      9  C   UNL     1      -1.703 -15.552 -27.052  1.00  0.00    -0.000 C 
BRANCH   9  10
ATOM     10  C   UNL     1      -1.050 -14.165 -27.067  1.00  0.00    -0.003 C 
ATOM     11  C   UNL     1       0.202 -14.154 -27.939  1.00  0.00     0.004 C 
ENDBRANCH   9  10
ENDBRANCH   8   9
ENDBRANCH   7   8
ENDBRANCH   1   7
TORSDOF 7
ENDMDL
