MODEL 1
REMARK VINA RESULT:     0.205      0.000      0.000
REMARK INTER + INTRA:          -0.293
REMARK INTER:                   0.253
REMARK INTRA:                  -0.546
REMARK UNBOUND:                -0.546
REMARK SMILES CC(C)=CCC[C@@H](C)[C@H]1C=CC(C)=CC1
REMARK SMILES IDX 6 1 7 2 8 3 9 4 13 5 12 6 14 7 11 8 15 9 10 10 5 11 4 12
REMARK SMILES IDX 2 13 1 14 3 15
REMARK H PARENT
REMARK Flexibility Score: inf
ROOT
ATOM      1  C   UNL     1     151.805 135.601 161.407  1.00  0.00     0.008 C 
ENDROOT
BRANCH   1   2
ATOM      2  C   UNL     1     153.295 135.451 161.822  1.00  0.00    -0.007 C 
ATOM      3  C   UNL     1     154.159 135.659 160.561  1.00  0.00     0.008 C 
BRANCH   2   4
ATOM      4  C   UNL     1     153.680 136.416 163.002  1.00  0.00     0.018 C 
ATOM      5  C   UNL     1     154.503 139.907 165.455  1.00  0.00     0.044 C 
ATOM      6  C   UNL     1     154.100 138.819 164.504  1.00  0.00    -0.055 C 
ATOM      7  C   UNL     1     152.957 138.143 164.690  1.00  0.00    -0.023 C 
ATOM      8  C   UNL     1     154.920 138.547 163.304  1.00  0.00    -0.001 C 
ATOM      9  C   UNL     1     152.480 137.147 163.662  1.00  0.00     0.035 C 
ATOM     10  C   UNL     1     154.691 137.460 162.558  1.00  0.00    -0.023 C 
ENDBRANCH   2   4
ENDBRANCH   1   2
BRANCH   1  11
ATOM     11  C   UNL     1     151.503 136.869 160.597  1.00  0.00     0.027 C 
BRANCH  11  12
ATOM     12  C   UNL     1     150.841 136.519 159.287  1.00  0.00    -0.028 C 
ATOM     13  C   UNL     1     151.344 136.823 158.070  1.00  0.00    -0.080 C 
ATOM     14  C   UNL     1     152.678 137.512 157.905  1.00  0.00     0.039 C 
ATOM     15  C   UNL     1     150.546 136.446 156.848  1.00  0.00     0.039 C 
ENDBRANCH  11  12
ENDBRANCH   1  11
TORSDOF 4
ENDMDL
MODEL 2
REMARK VINA RESULT:     0.215      1.193      6.231
REMARK INTER + INTRA:          -0.280
REMARK INTER:                  -0.204
REMARK INTRA:                  -0.077
REMARK UNBOUND:                -0.546
REMARK SMILES CC(C)=CCC[C@@H](C)[C@H]1C=CC(C)=CC1
REMARK SMILES IDX 6 1 7 2 8 3 9 4 13 5 12 6 14 7 11 8 15 9 10 10 5 11 4 12
REMARK SMILES IDX 2 13 1 14 3 15
REMARK H PARENT
REMARK Flexibility Score: inf
ROOT
ATOM      1  C   UNL     1     153.257 137.198 163.984  1.00  0.00     0.008 C 
ENDROOT
BRANCH   1   2
ATOM      2  C   UNL     1     153.932 136.323 162.890  1.00  0.00    -0.007 C 
ATOM      3  C   UNL     1     153.998 134.875 163.419  1.00  0.00     0.008 C 
BRANCH   2   4
ATOM      4  C   UNL     1     153.201 136.444 161.503  1.00  0.00     0.018 C 
ATOM      5  C   UNL     1     150.221 136.681 158.351  1.00  0.00     0.044 C 
ATOM      6  C   UNL     1     151.109 136.667 159.558  1.00  0.00    -0.055 C 
ATOM      7  C   UNL     1     151.732 137.787 159.957  1.00  0.00    -0.023 C 
ATOM      8  C   UNL     1     151.233 135.438 160.370  1.00  0.00    -0.001 C 
ATOM      9  C   UNL     1     152.512 137.811 161.248  1.00  0.00     0.035 C 
ATOM     10  C   UNL     1     152.165 135.346 161.326  1.00  0.00    -0.023 C 
ENDBRANCH   2   4
ENDBRANCH   1   2
BRANCH   1  11
ATOM     11  C   UNL     1     153.632 138.684 163.918  1.00  0.00     0.027 C 
BRANCH  11  12
ATOM     12  C   UNL     1     154.380 139.101 165.160  1.00  0.00    -0.028 C 
ATOM     13  C   UNL     1     154.061 140.170 165.923  1.00  0.00    -0.080 C 
ATOM     14  C   UNL     1     152.860 141.036 165.625  1.00  0.00     0.039 C 
ATOM     15  C   UNL     1     154.930 140.488 167.113  1.00  0.00     0.039 C 
ENDBRANCH  11  12
ENDBRANCH   1  11
TORSDOF 4
ENDMDL
MODEL 3
REMARK VINA RESULT:     0.316     21.648     22.518
REMARK INTER + INTRA:          -0.155
REMARK INTER:                   0.537
REMARK INTRA:                  -0.692
REMARK UNBOUND:                -0.546
REMARK SMILES CC(C)=CCC[C@@H](C)[C@H]1C=CC(C)=CC1
REMARK SMILES IDX 6 1 7 2 8 3 9 4 13 5 12 6 14 7 11 8 15 9 10 10 5 11 4 12
REMARK SMILES IDX 2 13 1 14 3 15
REMARK H PARENT
REMARK Flexibility Score: inf
ROOT
ATOM      1  C   UNL     1     138.840 154.874 161.371  1.00  0.00     0.008 C 
ENDROOT
BRANCH   1   2
ATOM      2  C   UNL     1     137.359 155.054 161.808  1.00  0.00    -0.007 C 
ATOM      3  C   UNL     1     136.469 154.802 160.574  1.00  0.00     0.008 C 
BRANCH   2   4
ATOM      4  C   UNL     1     136.990 154.141 163.035  1.00  0.00     0.018 C 
ATOM      5  C   UNL     1     136.253 150.761 165.663  1.00  0.00     0.044 C 
ATOM      6  C   UNL     1     136.631 151.809 164.660  1.00  0.00    -0.055 C 
ATOM      7  C   UNL     1     137.747 152.536 164.825  1.00  0.00    -0.023 C 
ATOM      8  C   UNL     1     135.822 151.986 163.435  1.00  0.00    -0.001 C 
ATOM      9  C   UNL     1     138.204 153.491 163.750  1.00  0.00     0.035 C 
ATOM     10  C   UNL     1     136.024 153.038 162.634  1.00  0.00    -0.023 C 
ENDBRANCH   2   4
ENDBRANCH   1   2
BRANCH   1  11
ATOM     11  C   UNL     1     139.082 153.665 160.458  1.00  0.00     0.027 C 
BRANCH  11  12
ATOM     12  C   UNL     1     139.810 154.082 159.204  1.00  0.00    -0.028 C 
ATOM     13  C   UNL     1     139.365 153.853 157.949  1.00  0.00    -0.080 C 
ATOM     14  C   UNL     1     138.034 153.189 157.680  1.00  0.00     0.039 C 
ATOM     15  C   UNL     1     140.223 154.291 156.790  1.00  0.00     0.039 C 
ENDBRANCH  11  12
ENDBRANCH   1  11
TORSDOF 4
ENDMDL
MODEL 4
REMARK VINA RESULT:     0.479     21.362     22.565
REMARK INTER + INTRA:           0.045
REMARK INTER:                   0.725
REMARK INTRA:                  -0.680
REMARK UNBOUND:                -0.546
REMARK SMILES CC(C)=CCC[C@@H](C)[C@H]1C=CC(C)=CC1
REMARK SMILES IDX 6 1 7 2 8 3 9 4 13 5 12 6 14 7 11 8 15 9 10 10 5 11 4 12
REMARK SMILES IDX 2 13 1 14 3 15
REMARK H PARENT
REMARK Flexibility Score: inf
ROOT
ATOM      1  C   UNL     1     135.638 152.796 163.124  1.00  0.00     0.008 C 
ENDROOT
BRANCH   1   2
ATOM      2  C   UNL     1     136.050 154.153 162.489  1.00  0.00    -0.007 C 
ATOM      3  C   UNL     1     136.475 155.099 163.632  1.00  0.00     0.008 C 
BRANCH   2   4
ATOM      4  C   UNL     1     137.157 153.978 161.387  1.00  0.00     0.018 C 
ATOM      5  C   UNL     1     140.934 153.594 159.273  1.00  0.00     0.044 C 
ATOM      6  C   UNL     1     139.727 153.660 160.161  1.00  0.00    -0.055 C 
ATOM      7  C   UNL     1     138.986 152.564 160.382  1.00  0.00    -0.023 C 
ATOM      8  C   UNL     1     139.398 154.916 160.868  1.00  0.00    -0.001 C 
ATOM      9  C   UNL     1     137.857 152.592 161.382  1.00  0.00     0.035 C 
ATOM     10  C   UNL     1     138.226 155.053 161.499  1.00  0.00    -0.023 C 
ENDBRANCH   2   4
ENDBRANCH   1   2
BRANCH   1  11
ATOM     11  C   UNL     1     136.107 152.612 164.573  1.00  0.00     0.027 C 
BRANCH  11  12
ATOM     12  C   UNL     1     137.100 151.480 164.673  1.00  0.00    -0.028 C 
ATOM     13  C   UNL     1     137.091 150.537 165.641  1.00  0.00    -0.080 C 
ATOM     14  C   UNL     1     136.023 150.497 166.708  1.00  0.00     0.039 C 
ATOM     15  C   UNL     1     138.175 149.491 165.635  1.00  0.00     0.039 C 
ENDBRANCH  11  12
ENDBRANCH   1  11
TORSDOF 4
ENDMDL
MODEL 5
REMARK VINA RESULT:     0.529      1.079      5.567
REMARK INTER + INTRA:           0.107
REMARK INTER:                  -0.179
REMARK INTRA:                   0.286
REMARK UNBOUND:                -0.546
REMARK SMILES CC(C)=CCC[C@@H](C)[C@H]1C=CC(C)=CC1
REMARK SMILES IDX 6 1 7 2 8 3 9 4 13 5 12 6 14 7 11 8 15 9 10 10 5 11 4 12
REMARK SMILES IDX 2 13 1 14 3 15
REMARK H PARENT
REMARK Flexibility Score: inf
ROOT
ATOM      1  C   UNL     1     154.229 135.313 163.047  1.00  0.00     0.008 C 
ENDROOT
BRANCH   1   2
ATOM      2  C   UNL     1     152.726 135.588 162.764  1.00  0.00    -0.007 C 
ATOM      3  C   UNL     1     152.253 136.680 163.744  1.00  0.00     0.008 C 
BRANCH   2   4
ATOM      4  C   UNL     1     152.466 135.953 161.257  1.00  0.00     0.018 C 
ATOM      5  C   UNL     1     150.634 136.700 157.388  1.00  0.00     0.044 C 
ATOM      6  C   UNL     1     151.089 136.480 158.800  1.00  0.00    -0.055 C 
ATOM      7  C   UNL     1     151.439 137.521 159.571  1.00  0.00    -0.023 C 
ATOM      8  C   UNL     1     151.069 135.120 159.379  1.00  0.00    -0.001 C 
ATOM      9  C   UNL     1     151.762 137.318 161.030  1.00  0.00     0.035 C 
ATOM     10  C   UNL     1     151.654 134.875 160.557  1.00  0.00    -0.023 C 
ENDBRANCH   2   4
ENDBRANCH   1   2
BRANCH   1  11
ATOM     11  C   UNL     1     154.972 136.491 163.691  1.00  0.00     0.027 C 
BRANCH  11  12
ATOM     12  C   UNL     1     154.872 137.722 162.824  1.00  0.00    -0.028 C 
ATOM     13  C   UNL     1     154.422 138.923 163.249  1.00  0.00    -0.080 C 
ATOM     14  C   UNL     1     154.019 139.164 164.685  1.00  0.00     0.039 C 
ATOM     15  C   UNL     1     154.338 140.053 162.255  1.00  0.00     0.039 C 
ENDBRANCH  11  12
ENDBRANCH   1  11
TORSDOF 4
ENDMDL
MODEL 6
REMARK VINA RESULT:     0.723      1.381      2.273
REMARK INTER + INTRA:           0.347
REMARK INTER:                   0.787
REMARK INTRA:                  -0.441
REMARK UNBOUND:                -0.546
REMARK SMILES CC(C)=CCC[C@@H](C)[C@H]1C=CC(C)=CC1
REMARK SMILES IDX 6 1 7 2 8 3 9 4 13 5 12 6 14 7 11 8 15 9 10 10 5 11 4 12
REMARK SMILES IDX 2 13 1 14 3 15
REMARK H PARENT
REMARK Flexibility Score: inf
ROOT
ATOM      1  C   UNL     1     150.585 137.125 159.888  1.00  0.00     0.008 C 
ENDROOT
BRANCH   1   2
ATOM      2  C   UNL     1     151.163 136.327 161.090  1.00  0.00    -0.007 C 
ATOM      3  C   UNL     1     151.433 134.885 160.613  1.00  0.00     0.008 C 
BRANCH   2   4
ATOM      4  C   UNL     1     152.431 137.024 161.705  1.00  0.00     0.018 C 
ATOM      5  C   UNL     1     155.124 139.701 163.817  1.00  0.00     0.044 C 
ATOM      6  C   UNL     1     154.057 138.838 163.214  1.00  0.00    -0.055 C 
ATOM      7  C   UNL     1     153.760 137.646 163.755  1.00  0.00    -0.023 C 
ATOM      8  C   UNL     1     153.262 139.336 162.071  1.00  0.00    -0.001 C 
ATOM      9  C   UNL     1     152.596 136.839 163.238  1.00  0.00     0.035 C 
ATOM     10  C   UNL     1     152.450 138.512 161.398  1.00  0.00    -0.023 C 
ENDBRANCH   2   4
ENDBRANCH   1   2
BRANCH   1  11
ATOM     11  C   UNL     1     151.092 136.654 158.519  1.00  0.00     0.027 C 
BRANCH  11  12
ATOM     12  C   UNL     1     152.470 137.204 158.243  1.00  0.00    -0.028 C 
ATOM     13  C   UNL     1     152.870 137.706 157.054  1.00  0.00    -0.080 C 
ATOM     14  C   UNL     1     151.930 137.816 155.876  1.00  0.00     0.039 C 
ATOM     15  C   UNL     1     154.293 138.180 156.915  1.00  0.00     0.039 C 
ENDBRANCH  11  12
ENDBRANCH   1  11
TORSDOF 4
ENDMDL
MODEL 7
REMARK VINA RESULT:     0.912     21.097     22.093
REMARK INTER + INTRA:           0.579
REMARK INTER:                   1.463
REMARK INTRA:                  -0.884
REMARK UNBOUND:                -0.546
REMARK SMILES CC(C)=CCC[C@@H](C)[C@H]1C=CC(C)=CC1
REMARK SMILES IDX 6 1 7 2 8 3 9 4 13 5 12 6 14 7 11 8 15 9 10 10 5 11 4 12
REMARK SMILES IDX 2 13 1 14 3 15
REMARK H PARENT
REMARK Flexibility Score: inf
ROOT
ATOM      1  C   UNL     1     139.731 154.358 157.698  1.00  0.00     0.008 C 
ENDROOT
BRANCH   1   2
ATOM      2  C   UNL     1     139.701 153.374 158.900  1.00  0.00    -0.007 C 
ATOM      3  C   UNL     1     141.146 153.212 159.414  1.00  0.00     0.008 C 
BRANCH   2   4
ATOM      4  C   UNL     1     138.694 153.834 160.017  1.00  0.00     0.018 C 
ATOM      5  C   UNL     1     136.538 154.347 163.755  1.00  0.00     0.044 C 
ATOM      6  C   UNL     1     137.435 154.115 162.576  1.00  0.00    -0.055 C 
ATOM      7  C   UNL     1     138.301 155.062 162.183  1.00  0.00    -0.023 C 
ATOM      8  C   UNL     1     137.433 152.804 161.892  1.00  0.00    -0.001 C 
ATOM      9  C   UNL     1     139.299 154.780 161.088  1.00  0.00     0.035 C 
ATOM     10  C   UNL     1     138.072 152.644 160.727  1.00  0.00    -0.023 C 
ENDBRANCH   2   4
ENDBRANCH   1   2
BRANCH   1  11
ATOM     11  C   UNL     1     139.243 153.750 156.377  1.00  0.00     0.027 C 
BRANCH  11  12
ATOM     12  C   UNL     1     138.592 152.410 156.614  1.00  0.00    -0.028 C 
ATOM     13  C   UNL     1     137.280 152.151 156.420  1.00  0.00    -0.080 C 
ATOM     14  C   UNL     1     136.331 153.194 155.878  1.00  0.00     0.039 C 
ATOM     15  C   UNL     1     136.764 150.772 156.742  1.00  0.00     0.039 C 
ENDBRANCH  11  12
ENDBRANCH   1  11
TORSDOF 4
ENDMDL
MODEL 8
REMARK VINA RESULT:     1.267      0.812      1.409
REMARK INTER + INTRA:           1.017
REMARK INTER:                   1.708
REMARK INTRA:                  -0.691
REMARK UNBOUND:                -0.546
REMARK SMILES CC(C)=CCC[C@@H](C)[C@H]1C=CC(C)=CC1
REMARK SMILES IDX 6 1 7 2 8 3 9 4 13 5 12 6 14 7 11 8 15 9 10 10 5 11 4 12
REMARK SMILES IDX 2 13 1 14 3 15
REMARK H PARENT
REMARK Flexibility Score: inf
ROOT
ATOM      1  C   UNL     1     152.596 134.875 162.064  1.00  0.00     0.008 C 
ENDROOT
BRANCH   1   2
ATOM      2  C   UNL     1     154.022 135.494 162.087  1.00  0.00    -0.007 C 
ATOM      3  C   UNL     1     154.313 136.062 160.683  1.00  0.00     0.008 C 
BRANCH   2   4
ATOM      4  C   UNL     1     154.185 136.559 163.232  1.00  0.00     0.018 C 
ATOM      5  C   UNL     1     154.325 140.244 165.530  1.00  0.00     0.044 C 
ATOM      6  C   UNL     1     154.149 139.065 164.620  1.00  0.00    -0.055 C 
ATOM      7  C   UNL     1     153.110 138.232 164.781  1.00  0.00    -0.023 C 
ATOM      8  C   UNL     1     155.073 138.865 163.483  1.00  0.00    -0.001 C 
ATOM      9  C   UNL     1     152.851 137.130 163.784  1.00  0.00     0.035 C 
ATOM     10  C   UNL     1     155.055 137.722 162.787  1.00  0.00    -0.023 C 
ENDBRANCH   2   4
ENDBRANCH   1   2
BRANCH   1  11
ATOM     11  C   UNL     1     151.839 135.094 160.747  1.00  0.00     0.027 C 
BRANCH  11  12
ATOM     12  C   UNL     1     151.004 136.349 160.815  1.00  0.00    -0.028 C 
ATOM     13  C   UNL     1     150.679 137.110 159.747  1.00  0.00    -0.080 C 
ATOM     14  C   UNL     1     151.087 136.733 158.342  1.00  0.00     0.039 C 
ATOM     15  C   UNL     1     149.872 138.363 159.975  1.00  0.00     0.039 C 
ENDBRANCH  11  12
ENDBRANCH   1  11
TORSDOF 4
ENDMDL
