MODEL 1
REMARK VINA RESULT:    -6.521      0.000      0.000
REMARK INTER + INTRA:          -7.093
REMARK INTER:                  -7.093
REMARK INTRA:                   0.000
REMARK UNBOUND:                 0.000
REMARK SMILES Cc1cc(O)c2c(c1)C(=O)c1cc(O)cc(O)c1C2=O
REMARK SMILES IDX 1 1 2 2 8 3 7 4 6 5 4 6 3 7 19 8 20 9 18 10 11 11 9 12 10 13
REMARK SMILES IDX 12 14 13 15 15 16 16 17 5 18 17 20 14 22
REMARK H PARENT 5 19 17 21 14 23
REMARK Flexibility Score: inf
ROOT
ATOM      1  C   UNL     1       5.163 -21.706   2.296  1.00  0.00     0.044 C 
ATOM      2  C   UNL     1       5.230 -20.959   3.596  1.00  0.00    -0.047 A 
ATOM      3  C   UNL     1       4.817 -19.624   3.662  1.00  0.00     0.016 A 
ATOM      4  C   UNL     1       4.903 -18.906   4.867  1.00  0.00     0.038 A 
ATOM      5  C   UNL     1       5.411 -19.536   6.025  1.00  0.00     0.076 A 
ATOM      6  C   UNL     1       5.907 -20.862   5.930  1.00  0.00     0.127 A 
ATOM      7  C   UNL     1       5.793 -21.562   4.726  1.00  0.00     0.050 A 
ATOM      8  C   UNL     1       5.349 -18.796   7.311  1.00  0.00     0.201 C 
ATOM      9  O   UNL     1       5.230 -19.429   8.395  1.00  0.00    -0.288 OA
ATOM     10  C   UNL     1       5.236 -17.314   7.306  1.00  0.00     0.076 A 
ATOM     11  C   UNL     1       4.730 -16.687   6.145  1.00  0.00     0.041 A 
ATOM     12  C   UNL     1       4.468 -17.490   4.926  1.00  0.00     0.194 C 
ATOM     13  O   UNL     1       3.900 -16.961   3.932  1.00  0.00    -0.289 OA
ATOM     14  C   UNL     1       4.479 -15.304   6.149  1.00  0.00     0.059 A 
ATOM     15  C   UNL     1       4.741 -14.541   7.286  1.00  0.00     0.120 A 
ATOM     16  C   UNL     1       5.280 -15.147   8.423  1.00  0.00     0.093 A 
ATOM     17  C   UNL     1       5.557 -16.518   8.437  1.00  0.00     0.131 A 
ENDROOT
BRANCH   6  18
ATOM     18  O   UNL     1       6.551 -21.504   6.991  1.00  0.00    -0.507 OA
ATOM     19  H   UNL     1       6.729 -21.066   7.884  1.00  0.00     0.293 HD
ENDBRANCH   6  18
BRANCH  17  20
ATOM     20  O   UNL     1       6.179 -17.038   9.575  1.00  0.00    -0.507 OA
ATOM     21  H   UNL     1       6.289 -16.521  10.437  1.00  0.00     0.293 HD
ENDBRANCH  17  20
BRANCH  15  22
ATOM     22  O   UNL     1       4.472 -13.173   7.271  1.00  0.00    -0.508 OA
ATOM     23  H   UNL     1       4.895 -12.543   7.943  1.00  0.00     0.293 HD
ENDBRANCH  15  22
TORSDOF 3
ENDMDL
MODEL 2
REMARK VINA RESULT:    -6.237      2.489      5.988
REMARK INTER + INTRA:          -6.784
REMARK INTER:                  -6.784
REMARK INTRA:                   0.000
REMARK UNBOUND:                 0.000
REMARK SMILES Cc1cc(O)c2c(c1)C(=O)c1cc(O)cc(O)c1C2=O
REMARK SMILES IDX 1 1 2 2 8 3 7 4 6 5 4 6 3 7 19 8 20 9 18 10 11 11 9 12 10 13
REMARK SMILES IDX 12 14 13 15 15 16 16 17 5 18 17 20 14 22
REMARK H PARENT 5 19 17 21 14 23
REMARK Flexibility Score: inf
ROOT
ATOM      1  C   UNL     1       1.974 -12.603   8.500  1.00  0.00     0.044 C 
ATOM      2  C   UNL     1       2.749 -13.842   8.158  1.00  0.00    -0.047 A 
ATOM      3  C   UNL     1       2.105 -14.932   7.563  1.00  0.00     0.016 A 
ATOM      4  C   UNL     1       2.815 -16.107   7.264  1.00  0.00     0.038 A 
ATOM      5  C   UNL     1       4.192 -16.192   7.566  1.00  0.00     0.076 A 
ATOM      6  C   UNL     1       4.819 -15.117   8.246  1.00  0.00     0.127 A 
ATOM      7  C   UNL     1       4.097 -13.950   8.515  1.00  0.00     0.050 A 
ATOM      8  C   UNL     1       4.939 -17.389   7.102  1.00  0.00     0.201 C 
ATOM      9  O   UNL     1       6.164 -17.293   6.819  1.00  0.00    -0.288 OA
ATOM     10  C   UNL     1       4.206 -18.645   6.794  1.00  0.00     0.076 A 
ATOM     11  C   UNL     1       2.828 -18.556   6.495  1.00  0.00     0.041 A 
ATOM     12  C   UNL     1       2.122 -17.260   6.640  1.00  0.00     0.194 C 
ATOM     13  O   UNL     1       0.926 -17.146   6.255  1.00  0.00    -0.289 OA
ATOM     14  C   UNL     1       2.130 -19.697   6.065  1.00  0.00     0.059 A 
ATOM     15  C   UNL     1       2.784 -20.923   5.945  1.00  0.00     0.120 A 
ATOM     16  C   UNL     1       4.136 -21.026   6.278  1.00  0.00     0.093 A 
ATOM     17  C   UNL     1       4.848 -19.909   6.728  1.00  0.00     0.131 A 
ENDROOT
BRANCH   6  18
ATOM     18  O   UNL     1       6.138 -15.178   8.703  1.00  0.00    -0.507 OA
ATOM     19  H   UNL     1       6.662 -14.369   9.003  1.00  0.00     0.293 HD
ENDBRANCH   6  18
BRANCH  17  20
ATOM     20  O   UNL     1       6.171 -20.107   7.129  1.00  0.00    -0.507 OA
ATOM     21  H   UNL     1       6.625 -21.011   7.134  1.00  0.00     0.293 HD
ENDBRANCH  17  20
BRANCH  15  22
ATOM     22  O   UNL     1       2.075 -22.039   5.504  1.00  0.00    -0.508 OA
ATOM     23  H   UNL     1       1.692 -22.715   6.155  1.00  0.00     0.293 HD
ENDBRANCH  15  22
TORSDOF 3
ENDMDL
MODEL 3
REMARK VINA RESULT:    -6.082      1.651      5.606
REMARK INTER + INTRA:          -6.615
REMARK INTER:                  -6.615
REMARK INTRA:                   0.000
REMARK UNBOUND:                 0.000
REMARK SMILES Cc1cc(O)c2c(c1)C(=O)c1cc(O)cc(O)c1C2=O
REMARK SMILES IDX 1 1 2 2 8 3 7 4 6 5 4 6 3 7 19 8 20 9 18 10 11 11 9 12 10 13
REMARK SMILES IDX 12 14 13 15 15 16 16 17 5 18 17 20 14 22
REMARK H PARENT 5 19 17 21 14 23
REMARK Flexibility Score: inf
ROOT
ATOM      1  C   UNL     1       5.297 -14.706   8.126  1.00  0.00     0.044 C 
ATOM      2  C   UNL     1       5.372 -16.102   7.580  1.00  0.00    -0.047 A 
ATOM      3  C   UNL     1       5.411 -16.316   6.198  1.00  0.00     0.016 A 
ATOM      4  C   UNL     1       5.453 -17.620   5.676  1.00  0.00     0.038 A 
ATOM      5  C   UNL     1       5.457 -18.728   6.551  1.00  0.00     0.076 A 
ATOM      6  C   UNL     1       5.332 -18.506   7.947  1.00  0.00     0.127 A 
ATOM      7  C   UNL     1       5.312 -17.200   8.444  1.00  0.00     0.050 A 
ATOM      8  C   UNL     1       5.652 -20.081   5.971  1.00  0.00     0.201 C 
ATOM      9  O   UNL     1       6.218 -20.979   6.650  1.00  0.00    -0.288 OA
ATOM     10  C   UNL     1       5.352 -20.319   4.535  1.00  0.00     0.076 A 
ATOM     11  C   UNL     1       5.347 -19.207   3.662  1.00  0.00     0.041 A 
ATOM     12  C   UNL     1       5.487 -17.837   4.209  1.00  0.00     0.194 C 
ATOM     13  O   UNL     1       5.609 -16.854   3.428  1.00  0.00    -0.289 OA
ATOM     14  C   UNL     1       5.205 -19.405   2.278  1.00  0.00     0.059 A 
ATOM     15  C   UNL     1       5.054 -20.691   1.758  1.00  0.00     0.120 A 
ATOM     16  C   UNL     1       5.018 -21.789   2.620  1.00  0.00     0.093 A 
ATOM     17  C   UNL     1       5.137 -21.617   4.003  1.00  0.00     0.131 A 
ENDROOT
BRANCH   6  18
ATOM     18  O   UNL     1       5.189 -19.548   8.867  1.00  0.00    -0.507 OA
ATOM     19  H   UNL     1       4.602 -20.356   8.708  1.00  0.00     0.293 HD
ENDBRANCH   6  18
BRANCH  17  20
ATOM     20  O   UNL     1       5.000 -22.750   4.808  1.00  0.00    -0.507 OA
ATOM     21  H   UNL     1       5.126 -22.741   5.811  1.00  0.00     0.293 HD
ENDBRANCH  17  20
BRANCH  15  22
ATOM     22  O   UNL     1       4.928 -20.864   0.381  1.00  0.00    -0.508 OA
ATOM     23  H   UNL     1       5.661 -21.298  -0.167  1.00  0.00     0.293 HD
ENDBRANCH  15  22
TORSDOF 3
ENDMDL
MODEL 4
REMARK VINA RESULT:    -6.060      2.264      6.250
REMARK INTER + INTRA:          -6.591
REMARK INTER:                  -6.591
REMARK INTRA:                   0.000
REMARK UNBOUND:                 0.000
REMARK SMILES Cc1cc(O)c2c(c1)C(=O)c1cc(O)cc(O)c1C2=O
REMARK SMILES IDX 1 1 2 2 8 3 7 4 6 5 4 6 3 7 19 8 20 9 18 10 11 11 9 12 10 13
REMARK SMILES IDX 12 14 13 15 15 16 16 17 5 18 17 20 14 22
REMARK H PARENT 5 19 17 21 14 23
REMARK Flexibility Score: inf
ROOT
ATOM      1  C   UNL     1       5.363 -13.359   7.962  1.00  0.00     0.044 C 
ATOM      2  C   UNL     1       4.704 -14.624   7.495  1.00  0.00    -0.047 A 
ATOM      3  C   UNL     1       5.084 -15.856   8.037  1.00  0.00     0.016 A 
ATOM      4  C   UNL     1       4.494 -17.049   7.587  1.00  0.00     0.038 A 
ATOM      5  C   UNL     1       3.508 -17.008   6.577  1.00  0.00     0.076 A 
ATOM      6  C   UNL     1       3.189 -15.765   5.971  1.00  0.00     0.127 A 
ATOM      7  C   UNL     1       3.775 -14.589   6.450  1.00  0.00     0.050 A 
ATOM      8  C   UNL     1       2.803 -18.269   6.232  1.00  0.00     0.201 C 
ATOM      9  O   UNL     1       1.612 -18.229   5.819  1.00  0.00    -0.288 OA
ATOM     10  C   UNL     1       3.430 -19.577   6.551  1.00  0.00     0.076 A 
ATOM     11  C   UNL     1       4.418 -19.615   7.561  1.00  0.00     0.041 A 
ATOM     12  C   UNL     1       4.907 -18.351   8.164  1.00  0.00     0.194 C 
ATOM     13  O   UNL     1       5.693 -18.385   9.149  1.00  0.00    -0.289 OA
ATOM     14  C   UNL     1       4.937 -20.849   7.988  1.00  0.00     0.059 A 
ATOM     15  C   UNL     1       4.495 -22.040   7.411  1.00  0.00     0.120 A 
ATOM     16  C   UNL     1       3.548 -22.006   6.385  1.00  0.00     0.093 A 
ATOM     17  C   UNL     1       3.032 -20.789   5.928  1.00  0.00     0.131 A 
ENDROOT
BRANCH   6  18
ATOM     18  O   UNL     1       2.330 -15.657   4.875  1.00  0.00    -0.507 OA
ATOM     19  H   UNL     1       2.064 -16.441   4.296  1.00  0.00     0.293 HD
ENDBRANCH   6  18
BRANCH  17  20
ATOM     20  O   UNL     1       2.159 -20.828   4.839  1.00  0.00    -0.507 OA
ATOM     21  H   UNL     1       1.990 -21.659   4.287  1.00  0.00     0.293 HD
ENDBRANCH  17  20
BRANCH  15  22
ATOM     22  O   UNL     1       5.013 -23.253   7.860  1.00  0.00    -0.508 OA
ATOM     23  H   UNL     1       5.258 -23.398   8.832  1.00  0.00     0.293 HD
ENDBRANCH  15  22
TORSDOF 3
ENDMDL
MODEL 5
REMARK VINA RESULT:    -5.932      1.433      5.452
REMARK INTER + INTRA:          -6.453
REMARK INTER:                  -6.453
REMARK INTRA:                   0.000
REMARK UNBOUND:                 0.000
REMARK SMILES Cc1cc(O)c2c(c1)C(=O)c1cc(O)cc(O)c1C2=O
REMARK SMILES IDX 1 1 2 2 8 3 7 4 6 5 4 6 3 7 19 8 20 9 18 10 11 11 9 12 10 13
REMARK SMILES IDX 12 14 13 15 15 16 16 17 5 18 17 20 14 22
REMARK H PARENT 5 19 17 21 14 23
REMARK Flexibility Score: inf
ROOT
ATOM      1  C   UNL     1       3.001 -12.507   4.766  1.00  0.00     0.044 C 
ATOM      2  C   UNL     1       3.533 -13.697   5.510  1.00  0.00    -0.047 A 
ATOM      3  C   UNL     1       3.890 -14.858   4.816  1.00  0.00     0.016 A 
ATOM      4  C   UNL     1       4.362 -15.988   5.505  1.00  0.00     0.038 A 
ATOM      5  C   UNL     1       4.478 -15.955   6.912  1.00  0.00     0.076 A 
ATOM      6  C   UNL     1       4.033 -14.807   7.616  1.00  0.00     0.127 A 
ATOM      7  C   UNL     1       3.586 -13.687   6.908  1.00  0.00     0.050 A 
ATOM      8  C   UNL     1       5.117 -17.111   7.591  1.00  0.00     0.201 C 
ATOM      9  O   UNL     1       5.750 -16.935   8.667  1.00  0.00    -0.288 OA
ATOM     10  C   UNL     1       5.172 -18.430   6.910  1.00  0.00     0.076 A 
ATOM     11  C   UNL     1       5.054 -18.460   5.501  1.00  0.00     0.041 A 
ATOM     12  C   UNL     1       4.733 -17.216   4.761  1.00  0.00     0.194 C 
ATOM     13  O   UNL     1       4.751 -17.210   3.500  1.00  0.00    -0.289 OA
ATOM     14  C   UNL     1       5.238 -19.668   4.808  1.00  0.00     0.059 A 
ATOM     15  C   UNL     1       5.520 -20.845   5.501  1.00  0.00     0.120 A 
ATOM     16  C   UNL     1       5.598 -20.830   6.896  1.00  0.00     0.093 A 
ATOM     17  C   UNL     1       5.400 -19.644   7.610  1.00  0.00     0.131 A 
ENDROOT
BRANCH   6  18
ATOM     18  O   UNL     1       3.983 -14.748   9.011  1.00  0.00    -0.507 OA
ATOM     19  H   UNL     1       3.924 -13.884   9.531  1.00  0.00     0.293 HD
ENDBRANCH   6  18
BRANCH  17  20
ATOM     20  O   UNL     1       5.402 -19.723   9.004  1.00  0.00    -0.507 OA
ATOM     21  H   UNL     1       4.804 -20.348   9.529  1.00  0.00     0.293 HD
ENDBRANCH  17  20
BRANCH  15  22
ATOM     22  O   UNL     1       5.712 -22.030   4.792  1.00  0.00    -0.508 OA
ATOM     23  H   UNL     1       4.938 -22.516   4.354  1.00  0.00     0.293 HD
ENDBRANCH  15  22
TORSDOF 3
ENDMDL
MODEL 6
REMARK VINA RESULT:    -5.906      1.520      1.920
REMARK INTER + INTRA:          -6.423
REMARK INTER:                  -6.423
REMARK INTRA:                   0.000
REMARK UNBOUND:                 0.000
REMARK SMILES Cc1cc(O)c2c(c1)C(=O)c1cc(O)cc(O)c1C2=O
REMARK SMILES IDX 1 1 2 2 8 3 7 4 6 5 4 6 3 7 19 8 20 9 18 10 11 11 9 12 10 13
REMARK SMILES IDX 12 14 13 15 15 16 16 17 5 18 17 20 14 22
REMARK H PARENT 5 19 17 21 14 23
REMARK Flexibility Score: inf
ROOT
ATOM      1  C   UNL     1       6.297 -19.949   0.170  1.00  0.00     0.044 C 
ATOM      2  C   UNL     1       6.011 -19.867   1.641  1.00  0.00    -0.047 A 
ATOM      3  C   UNL     1       5.815 -18.624   2.252  1.00  0.00     0.016 A 
ATOM      4  C   UNL     1       5.576 -18.535   3.633  1.00  0.00     0.038 A 
ATOM      5  C   UNL     1       5.531 -19.709   4.416  1.00  0.00     0.076 A 
ATOM      6  C   UNL     1       5.815 -20.958   3.807  1.00  0.00     0.127 A 
ATOM      7  C   UNL     1       6.031 -21.025   2.427  1.00  0.00     0.050 A 
ATOM      8  C   UNL     1       5.130 -19.589   5.841  1.00  0.00     0.201 C 
ATOM      9  O   UNL     1       4.535 -20.544   6.409  1.00  0.00    -0.288 OA
ATOM     10  C   UNL     1       5.260 -18.282   6.537  1.00  0.00     0.076 A 
ATOM     11  C   UNL     1       5.306 -17.109   5.750  1.00  0.00     0.041 A 
ATOM     12  C   UNL     1       5.375 -17.212   4.273  1.00  0.00     0.194 C 
ATOM     13  O   UNL     1       5.290 -16.173   3.563  1.00  0.00    -0.289 OA
ATOM     14  C   UNL     1       5.290 -15.848   6.372  1.00  0.00     0.059 A 
ATOM     15  C   UNL     1       5.244 -15.745   7.762  1.00  0.00     0.120 A 
ATOM     16  C   UNL     1       5.239 -16.901   8.546  1.00  0.00     0.093 A 
ATOM     17  C   UNL     1       5.275 -18.167   7.952  1.00  0.00     0.131 A 
ENDROOT
BRANCH   6  18
ATOM     18  O   UNL     1       5.929 -22.146   4.534  1.00  0.00    -0.507 OA
ATOM     19  H   UNL     1       6.546 -22.903   4.274  1.00  0.00     0.293 HD
ENDBRANCH   6  18
BRANCH  17  20
ATOM     20  O   UNL     1       5.361 -19.274   8.799  1.00  0.00    -0.507 OA
ATOM     21  H   UNL     1       6.216 -19.564   9.255  1.00  0.00     0.293 HD
ENDBRANCH  17  20
BRANCH  15  22
ATOM     22  O   UNL     1       5.215 -14.485   8.356  1.00  0.00    -0.508 OA
ATOM     23  H   UNL     1       5.880 -13.764   8.101  1.00  0.00     0.293 HD
ENDBRANCH  15  22
TORSDOF 3
ENDMDL
MODEL 7
REMARK VINA RESULT:    -5.895      2.938      4.543
REMARK INTER + INTRA:          -6.412
REMARK INTER:                  -6.412
REMARK INTRA:                   0.000
REMARK UNBOUND:                 0.000
REMARK SMILES Cc1cc(O)c2c(c1)C(=O)c1cc(O)cc(O)c1C2=O
REMARK SMILES IDX 1 1 2 2 8 3 7 4 6 5 4 6 3 7 19 8 20 9 18 10 11 11 9 12 10 13
REMARK SMILES IDX 12 14 13 15 15 16 16 17 5 18 17 20 14 22
REMARK H PARENT 5 19 17 21 14 23
REMARK Flexibility Score: inf
ROOT
ATOM      1  C   UNL     1       5.344 -20.504   7.590  1.00  0.00     0.044 C 
ATOM      2  C   UNL     1       4.551 -19.258   7.322  1.00  0.00    -0.047 A 
ATOM      3  C   UNL     1       5.024 -18.016   7.758  1.00  0.00     0.016 A 
ATOM      4  C   UNL     1       4.276 -16.847   7.538  1.00  0.00     0.038 A 
ATOM      5  C   UNL     1       3.034 -16.923   6.870  1.00  0.00     0.076 A 
ATOM      6  C   UNL     1       2.521 -18.195   6.507  1.00  0.00     0.127 A 
ATOM      7  C   UNL     1       3.292 -19.342   6.719  1.00  0.00     0.050 A 
ATOM      8  C   UNL     1       2.344 -15.654   6.525  1.00  0.00     0.201 C 
ATOM      9  O   UNL     1       1.607 -15.599   5.503  1.00  0.00    -0.288 OA
ATOM     10  C   UNL     1       2.668 -14.410   7.269  1.00  0.00     0.076 A 
ATOM     11  C   UNL     1       3.911 -14.338   7.938  1.00  0.00     0.041 A 
ATOM     12  C   UNL     1       4.783 -15.535   8.009  1.00  0.00     0.194 C 
ATOM     13  O   UNL     1       5.944 -15.444   8.493  1.00  0.00    -0.289 OA
ATOM     14  C   UNL     1       4.315 -13.133   8.537  1.00  0.00     0.059 A 
ATOM     15  C   UNL     1       3.491 -12.008   8.491  1.00  0.00     0.120 A 
ATOM     16  C   UNL     1       2.244 -12.085   7.866  1.00  0.00     0.093 A 
ATOM     17  C   UNL     1       1.811 -13.279   7.280  1.00  0.00     0.131 A 
ENDROOT
BRANCH   6  18
ATOM     18  O   UNL     1       1.242 -18.368   5.971  1.00  0.00    -0.507 OA
ATOM     19  H   UNL     1       0.568 -17.621   5.883  1.00  0.00     0.293 HD
ENDBRANCH   6  18
BRANCH  17  20
ATOM     20  O   UNL     1       0.517 -13.306   6.756  1.00  0.00    -0.507 OA
ATOM     21  H   UNL     1      -0.287 -13.647   7.267  1.00  0.00     0.293 HD
ENDBRANCH  17  20
BRANCH  15  22
ATOM     22  O   UNL     1       3.918 -10.820   9.080  1.00  0.00    -0.508 OA
ATOM     23  H   UNL     1       4.826 -10.745   9.525  1.00  0.00     0.293 HD
ENDBRANCH  15  22
TORSDOF 3
ENDMDL
MODEL 8
REMARK VINA RESULT:    -5.884      2.315      6.482
REMARK INTER + INTRA:          -6.400
REMARK INTER:                  -6.400
REMARK INTRA:                   0.000
REMARK UNBOUND:                 0.000
REMARK SMILES Cc1cc(O)c2c(c1)C(=O)c1cc(O)cc(O)c1C2=O
REMARK SMILES IDX 1 1 2 2 8 3 7 4 6 5 4 6 3 7 19 8 20 9 18 10 11 11 9 12 10 13
REMARK SMILES IDX 12 14 13 15 15 16 16 17 5 18 17 20 14 22
REMARK H PARENT 5 19 17 21 14 23
REMARK Flexibility Score: inf
ROOT
ATOM      1  C   UNL     1       3.873 -11.712   8.559  1.00  0.00     0.044 C 
ATOM      2  C   UNL     1       3.479 -13.095   8.133  1.00  0.00    -0.047 A 
ATOM      3  C   UNL     1       4.347 -14.171   8.347  1.00  0.00     0.016 A 
ATOM      4  C   UNL     1       3.999 -15.466   7.926  1.00  0.00     0.038 A 
ATOM      5  C   UNL     1       2.763 -15.688   7.280  1.00  0.00     0.076 A 
ATOM      6  C   UNL     1       1.926 -14.579   6.990  1.00  0.00     0.127 A 
ATOM      7  C   UNL     1       2.283 -13.303   7.437  1.00  0.00     0.050 A 
ATOM      8  C   UNL     1       2.366 -17.088   6.984  1.00  0.00     0.201 C 
ATOM      9  O   UNL     1       1.146 -17.403   6.961  1.00  0.00    -0.288 OA
ATOM     10  C   UNL     1       3.404 -18.148   6.901  1.00  0.00     0.076 A 
ATOM     11  C   UNL     1       4.641 -17.922   7.546  1.00  0.00     0.041 A 
ATOM     12  C   UNL     1       4.929 -16.600   8.151  1.00  0.00     0.194 C 
ATOM     13  O   UNL     1       5.975 -16.433   8.836  1.00  0.00    -0.289 OA
ATOM     14  C   UNL     1       5.596 -18.951   7.609  1.00  0.00     0.059 A 
ATOM     15  C   UNL     1       5.340 -20.191   7.025  1.00  0.00     0.120 A 
ATOM     16  C   UNL     1       4.135 -20.407   6.350  1.00  0.00     0.093 A 
ATOM     17  C   UNL     1       3.177 -19.392   6.256  1.00  0.00     0.131 A 
ENDROOT
BRANCH   6  18
ATOM     18  O   UNL     1       0.757 -14.693   6.234  1.00  0.00    -0.507 OA
ATOM     19  H   UNL     1       0.324 -15.578   6.006  1.00  0.00     0.293 HD
ENDBRANCH   6  18
BRANCH  17  20
ATOM     20  O   UNL     1       2.039 -19.650   5.490  1.00  0.00    -0.507 OA
ATOM     21  H   UNL     1       1.484 -18.926   5.053  1.00  0.00     0.293 HD
ENDBRANCH  17  20
BRANCH  15  22
ATOM     22  O   UNL     1       6.296 -21.202   7.110  1.00  0.00    -0.508 OA
ATOM     23  H   UNL     1       7.223 -21.024   7.479  1.00  0.00     0.293 HD
ENDBRANCH  15  22
TORSDOF 3
ENDMDL
MODEL 9
REMARK VINA RESULT:    -5.867      2.076      4.070
REMARK INTER + INTRA:          -6.381
REMARK INTER:                  -6.381
REMARK INTRA:                   0.000
REMARK UNBOUND:                 0.000
REMARK SMILES Cc1cc(O)c2c(c1)C(=O)c1cc(O)cc(O)c1C2=O
REMARK SMILES IDX 1 1 2 2 8 3 7 4 6 5 4 6 3 7 19 8 20 9 18 10 11 11 9 12 10 13
REMARK SMILES IDX 12 14 13 15 15 16 16 17 5 18 17 20 14 22
REMARK H PARENT 5 19 17 21 14 23
REMARK Flexibility Score: inf
ROOT
ATOM      1  C   UNL     1       5.755 -20.901   6.983  1.00  0.00     0.044 C 
ATOM      2  C   UNL     1       5.346 -19.539   6.505  1.00  0.00    -0.047 A 
ATOM      3  C   UNL     1       5.480 -18.429   7.346  1.00  0.00     0.016 A 
ATOM      4  C   UNL     1       5.074 -17.153   6.918  1.00  0.00     0.038 A 
ATOM      5  C   UNL     1       4.525 -16.987   5.628  1.00  0.00     0.076 A 
ATOM      6  C   UNL     1       4.313 -18.129   4.813  1.00  0.00     0.127 A 
ATOM      7  C   UNL     1       4.744 -19.385   5.252  1.00  0.00     0.050 A 
ATOM      8  C   UNL     1       4.245 -15.606   5.157  1.00  0.00     0.201 C 
ATOM      9  O   UNL     1       4.315 -15.337   3.927  1.00  0.00    -0.288 OA
ATOM     10  C   UNL     1       4.069 -14.510   6.144  1.00  0.00     0.076 A 
ATOM     11  C   UNL     1       4.618 -14.681   7.435  1.00  0.00     0.041 A 
ATOM     12  C   UNL     1       5.213 -15.984   7.819  1.00  0.00     0.194 C 
ATOM     13  O   UNL     1       5.815 -16.103   8.921  1.00  0.00    -0.289 OA
ATOM     14  C   UNL     1       4.594 -13.617   8.353  1.00  0.00     0.059 A 
ATOM     15  C   UNL     1       4.019 -12.395   8.005  1.00  0.00     0.120 A 
ATOM     16  C   UNL     1       3.439 -12.233   6.745  1.00  0.00     0.093 A 
ATOM     17  C   UNL     1       3.431 -13.283   5.821  1.00  0.00     0.131 A 
ENDROOT
BRANCH   6  18
ATOM     18  O   UNL     1       3.650 -18.068   3.584  1.00  0.00    -0.507 OA
ATOM     19  H   UNL     1       3.897 -18.639   2.788  1.00  0.00     0.293 HD
ENDBRANCH   6  18
BRANCH  17  20
ATOM     20  O   UNL     1       2.754 -13.079   4.617  1.00  0.00    -0.507 OA
ATOM     21  H   UNL     1       3.149 -12.580   3.831  1.00  0.00     0.293 HD
ENDBRANCH  17  20
BRANCH  15  22
ATOM     22  O   UNL     1       4.018 -11.349   8.926  1.00  0.00    -0.508 OA
ATOM     23  H   UNL     1       3.370 -10.574   8.848  1.00  0.00     0.293 HD
ENDBRANCH  15  22
TORSDOF 3
ENDMDL
