MODEL 1
REMARK VINA RESULT:    -5.960      0.000      0.000
REMARK INTER + INTRA:         -10.421
REMARK INTER:                  -8.399
REMARK INTRA:                  -2.022
REMARK UNBOUND:                -2.022
REMARK SMILES C=C(CC[C@H](C(=O)[O-])[C@@H]1[C@@H](O)C[C@]2(C)C3=C(CC[C@]12C)[C@@]1(C)CC[C@@H](O)C(C)(C)[C@H]1CC3)C(C)C
REMARK SMILES IDX 4 1 5 2 6 3 7 4 8 5 9 6 10 7 19 8 12 9 13 10 18 11 20 12
REMARK SMILES IDX 14 13 15 14 17 15 16 16 32 17 21 18 31 19 30 20 23 21 22 22
REMARK SMILES IDX 27 23 24 24 25 25 28 26 29 27 11 28 26 30 3 32 2 33 1 34
REMARK SMILES IDX 33 35 34 36 35 37
REMARK H PARENT 11 29 26 31
REMARK Flexibility Score: inf
ROOT
ATOM      1  C   UNL     1     130.185 130.138 114.943  1.00  0.00     0.014 C 
ENDROOT
BRANCH   1   2
ATOM      2  C   UNL     1     129.502 131.522 115.069  1.00  0.00     0.042 C 
BRANCH   2   3
ATOM      3  C   UNL     1     129.569 132.268 113.747  1.00  0.00     0.045 C 
ATOM      4  O   UNL     1     130.667 132.729 113.336  1.00  0.00    -0.550 OA
ATOM      5  O   UNL     1     128.414 132.564 113.028  1.00  0.00    -0.550 OA
ENDBRANCH   2   3
BRANCH   2   6
ATOM      6  C   UNL     1     129.873 132.359 116.362  1.00  0.00     0.033 C 
ATOM      7  C   UNL     1     131.165 131.856 117.032  1.00  0.00     0.119 C 
ATOM      8  C   UNL     1     128.845 132.644 117.522  1.00  0.00    -0.017 C 
ATOM      9  C   UNL     1     131.145 132.327 118.482  1.00  0.00     0.043 C 
ATOM     10  C   UNL     1     129.782 133.017 118.761  1.00  0.00    -0.003 C 
ATOM     11  C   UNL     1     127.922 131.428 117.849  1.00  0.00     0.012 C 
ATOM     12  C   UNL     1     127.887 133.817 117.149  1.00  0.00     0.013 C 
ATOM     13  C   UNL     1     130.079 134.549 118.819  1.00  0.00     0.017 C 
ATOM     14  C   UNL     1     129.229 132.478 120.115  1.00  0.00    -0.064 C 
ATOM     15  C   UNL     1     128.538 130.473 118.859  1.00  0.00     0.032 C 
ATOM     16  C   UNL     1     128.703 131.215 120.178  1.00  0.00    -0.064 C 
ATOM     17  C   UNL     1     129.393 133.270 121.396  1.00  0.00     0.032 C 
ATOM     18  C   UNL     1     128.381 130.488 121.525  1.00  0.00    -0.008 C 
ATOM     19  C   UNL     1     128.265 132.945 122.347  1.00  0.00     0.009 C 
ATOM     20  C   UNL     1     128.314 131.468 122.789  1.00  0.00     0.007 C 
ATOM     21  C   UNL     1     129.463 129.390 121.702  1.00  0.00     0.014 C 
ATOM     22  C   UNL     1     127.003 129.775 121.413  1.00  0.00     0.016 C 
ATOM     23  C   UNL     1     129.298 131.120 123.999  1.00  0.00    -0.006 C 
ATOM     24  C   UNL     1     130.792 129.985 122.147  1.00  0.00     0.033 C 
ATOM     25  C   UNL     1     130.732 130.632 123.540  1.00  0.00     0.120 C 
ATOM     26  C   UNL     1     128.633 130.002 124.864  1.00  0.00     0.014 C 
ATOM     27  C   UNL     1     129.449 132.315 124.985  1.00  0.00     0.014 C 
BRANCH   7  28
ATOM     28  O   UNL     1     132.301 132.363 116.377  1.00  0.00    -0.393 OA
ATOM     29  H   UNL     1     132.098 132.360 115.406  1.00  0.00     0.210 HD
ENDBRANCH   7  28
BRANCH  25  30
ATOM     30  O   UNL     1     131.671 131.683 123.558  1.00  0.00    -0.393 OA
ATOM     31  H   UNL     1     131.400 132.320 124.270  1.00  0.00     0.210 HD
ENDBRANCH  25  30
ENDBRANCH   2   6
ENDBRANCH   1   2
BRANCH   1  32
ATOM     32  C   UNL     1     129.410 128.976 115.597  1.00  0.00     0.031 C 
BRANCH  32  33
ATOM     33  C   UNL     1     130.280 127.761 115.864  1.00  0.00    -0.075 C 
ATOM     34  C   UNL     1     130.841 127.112 114.827  1.00  0.00     0.008 C 
BRANCH  33  35
ATOM     35  C   UNL     1     130.599 127.365 117.301  1.00  0.00     0.008 C 
ATOM     36  C   UNL     1     131.438 128.426 118.028  1.00  0.00     0.012 C 
ATOM     37  C   UNL     1     129.312 127.063 118.076  1.00  0.00     0.012 C 
ENDBRANCH  33  35
ENDBRANCH  32  33
ENDBRANCH   1  32
TORSDOF 8
ENDMDL
MODEL 2
REMARK VINA RESULT:    -5.805     11.894     15.483
REMARK INTER + INTRA:         -10.202
REMARK INTER:                  -9.125
REMARK INTRA:                  -1.077
REMARK UNBOUND:                -2.022
REMARK SMILES C=C(CC[C@H](C(=O)[O-])[C@@H]1[C@@H](O)C[C@]2(C)C3=C(CC[C@]12C)[C@@]1(C)CC[C@@H](O)C(C)(C)[C@H]1CC3)C(C)C
REMARK SMILES IDX 4 1 5 2 6 3 7 4 8 5 9 6 10 7 19 8 12 9 13 10 18 11 20 12
REMARK SMILES IDX 14 13 15 14 17 15 16 16 32 17 21 18 31 19 30 20 23 21 22 22
REMARK SMILES IDX 27 23 24 24 25 25 28 26 29 27 11 28 26 30 3 32 2 33 1 34
REMARK SMILES IDX 33 35 34 36 35 37
REMARK H PARENT 11 29 26 31
REMARK Flexibility Score: inf
ROOT
ATOM      1  C   UNL     1     138.021 144.573 116.773  1.00  0.00     0.014 C 
ENDROOT
BRANCH   1   2
ATOM      2  C   UNL     1     137.102 145.081 117.910  1.00  0.00     0.042 C 
BRANCH   2   3
ATOM      3  C   UNL     1     137.055 144.071 119.045  1.00  0.00     0.045 C 
ATOM      4  O   UNL     1     136.593 142.916 118.844  1.00  0.00    -0.550 OA
ATOM      5  O   UNL     1     137.400 144.432 120.344  1.00  0.00    -0.550 OA
ENDBRANCH   2   3
BRANCH   2   6
ATOM      6  C   UNL     1     135.708 145.683 117.454  1.00  0.00     0.033 C 
ATOM      7  C   UNL     1     134.667 145.671 118.590  1.00  0.00     0.119 C 
ATOM      8  C   UNL     1     134.957 145.213 116.151  1.00  0.00    -0.017 C 
ATOM      9  C   UNL     1     133.286 145.746 117.950  1.00  0.00     0.043 C 
ATOM     10  C   UNL     1     133.450 145.676 116.407  1.00  0.00    -0.003 C 
ATOM     11  C   UNL     1     135.049 143.674 115.900  1.00  0.00     0.012 C 
ATOM     12  C   UNL     1     135.562 145.887 114.881  1.00  0.00     0.013 C 
ATOM     13  C   UNL     1     133.194 147.123 115.880  1.00  0.00     0.017 C 
ATOM     14  C   UNL     1     132.408 144.658 115.850  1.00  0.00    -0.064 C 
ATOM     15  C   UNL     1     133.952 142.894 116.608  1.00  0.00     0.032 C 
ATOM     16  C   UNL     1     132.613 143.315 116.022  1.00  0.00    -0.064 C 
ATOM     17  C   UNL     1     131.100 145.132 115.249  1.00  0.00     0.032 C 
ATOM     18  C   UNL     1     131.510 142.240 115.751  1.00  0.00    -0.008 C 
ATOM     19  C   UNL     1     130.620 144.135 114.219  1.00  0.00     0.009 C 
ATOM     20  C   UNL     1     130.285 142.777 114.870  1.00  0.00     0.007 C 
ATOM     21  C   UNL     1     131.042 141.730 117.139  1.00  0.00     0.014 C 
ATOM     22  C   UNL     1     132.136 141.034 114.993  1.00  0.00     0.016 C 
ATOM     23  C   UNL     1     128.835 142.641 115.528  1.00  0.00    -0.006 C 
ATOM     24  C   UNL     1     130.129 142.737 117.824  1.00  0.00     0.033 C 
ATOM     25  C   UNL     1     128.802 142.959 117.079  1.00  0.00     0.120 C 
ATOM     26  C   UNL     1     128.327 141.183 115.296  1.00  0.00     0.014 C 
ATOM     27  C   UNL     1     127.783 143.524 114.797  1.00  0.00     0.014 C 
BRANCH   7  28
ATOM     28  O   UNL     1     134.856 146.762 119.456  1.00  0.00    -0.393 OA
ATOM     29  H   UNL     1     135.019 147.557 118.885  1.00  0.00     0.210 HD
ENDBRANCH   7  28
BRANCH  25  30
ATOM     30  O   UNL     1     128.394 144.284 117.331  1.00  0.00    -0.393 OA
ATOM     31  H   UNL     1     128.660 144.512 118.260  1.00  0.00     0.210 HD
ENDBRANCH  25  30
ENDBRANCH   2   6
ENDBRANCH   1   2
BRANCH   1  32
ATOM     32  C   UNL     1     139.293 145.416 116.547  1.00  0.00     0.031 C 
BRANCH  32  33
ATOM     33  C   UNL     1     139.461 145.859 115.106  1.00  0.00    -0.075 C 
ATOM     34  C   UNL     1     139.154 147.125 114.766  1.00  0.00     0.008 C 
BRANCH  33  35
ATOM     35  C   UNL     1     140.080 144.904 114.092  1.00  0.00     0.008 C 
ATOM     36  C   UNL     1     139.025 144.228 113.205  1.00  0.00     0.012 C 
ATOM     37  C   UNL     1     141.128 145.628 113.239  1.00  0.00     0.012 C 
ENDBRANCH  33  35
ENDBRANCH  32  33
ENDBRANCH   1  32
TORSDOF 8
ENDMDL
MODEL 3
REMARK VINA RESULT:    -5.715      9.842     12.363
REMARK INTER + INTRA:         -10.076
REMARK INTER:                  -8.038
REMARK INTRA:                  -2.037
REMARK UNBOUND:                -2.022
REMARK SMILES C=C(CC[C@H](C(=O)[O-])[C@@H]1[C@@H](O)C[C@]2(C)C3=C(CC[C@]12C)[C@@]1(C)CC[C@@H](O)C(C)(C)[C@H]1CC3)C(C)C
REMARK SMILES IDX 4 1 5 2 6 3 7 4 8 5 9 6 10 7 19 8 12 9 13 10 18 11 20 12
REMARK SMILES IDX 14 13 15 14 17 15 16 16 32 17 21 18 31 19 30 20 23 21 22 22
REMARK SMILES IDX 27 23 24 24 25 25 28 26 29 27 11 28 26 30 3 32 2 33 1 34
REMARK SMILES IDX 33 35 34 36 35 37
REMARK H PARENT 11 29 26 31
REMARK Flexibility Score: inf
ROOT
ATOM      1  C   UNL     1     143.744 127.278 117.771  1.00  0.00     0.014 C 
ENDROOT
BRANCH   1   2
ATOM      2  C   UNL     1     143.665 128.582 118.603  1.00  0.00     0.042 C 
BRANCH   2   3
ATOM      3  C   UNL     1     144.912 128.743 119.456  1.00  0.00     0.045 C 
ATOM      4  O   UNL     1     145.996 129.109 118.928  1.00  0.00    -0.550 OA
ATOM      5  O   UNL     1     144.918 128.377 120.799  1.00  0.00    -0.550 OA
ENDBRANCH   2   3
BRANCH   2   6
ATOM      6  C   UNL     1     142.284 128.853 119.330  1.00  0.00     0.033 C 
ATOM      7  C   UNL     1     141.485 127.558 119.567  1.00  0.00     0.119 C 
ATOM      8  C   UNL     1     141.251 129.934 118.832  1.00  0.00    -0.017 C 
ATOM      9  C   UNL     1     140.022 127.946 119.755  1.00  0.00     0.043 C 
ATOM     10  C   UNL     1     139.879 129.473 119.509  1.00  0.00    -0.003 C 
ATOM     11  C   UNL     1     141.126 130.006 117.277  1.00  0.00     0.012 C 
ATOM     12  C   UNL     1     141.670 131.365 119.291  1.00  0.00     0.013 C 
ATOM     13  C   UNL     1     139.684 130.120 120.917  1.00  0.00     0.017 C 
ATOM     14  C   UNL     1     138.646 129.705 118.583  1.00  0.00    -0.064 C 
ATOM     15  C   UNL     1     140.108 129.023 116.720  1.00  0.00     0.032 C 
ATOM     16  C   UNL     1     138.734 129.409 117.249  1.00  0.00    -0.064 C 
ATOM     17  C   UNL     1     137.307 130.118 119.158  1.00  0.00     0.032 C 
ATOM     18  C   UNL     1     137.490 129.344 116.303  1.00  0.00    -0.008 C 
ATOM     19  C   UNL     1     136.533 130.914 118.133  1.00  0.00     0.009 C 
ATOM     20  C   UNL     1     136.185 130.052 116.902  1.00  0.00     0.007 C 
ATOM     21  C   UNL     1     137.244 127.842 116.001  1.00  0.00     0.014 C 
ATOM     22  C   UNL     1     137.825 130.047 114.957  1.00  0.00     0.016 C 
ATOM     23  C   UNL     1     134.881 129.135 117.022  1.00  0.00    -0.006 C 
ATOM     24  C   UNL     1     136.594 127.136 117.181  1.00  0.00     0.033 C 
ATOM     25  C   UNL     1     135.181 127.655 117.496  1.00  0.00     0.120 C 
ATOM     26  C   UNL     1     134.184 129.091 115.625  1.00  0.00     0.014 C 
ATOM     27  C   UNL     1     133.810 129.770 117.955  1.00  0.00     0.014 C 
BRANCH   7  28
ATOM     28  O   UNL     1     141.952 126.881 120.707  1.00  0.00    -0.393 OA
ATOM     29  H   UNL     1     141.156 126.654 121.254  1.00  0.00     0.210 HD
ENDBRANCH   7  28
BRANCH  25  30
ATOM     30  O   UNL     1     134.974 127.499 118.882  1.00  0.00    -0.393 OA
ATOM     31  H   UNL     1     134.205 128.072 119.140  1.00  0.00     0.210 HD
ENDBRANCH  25  30
ENDBRANCH   2   6
ENDBRANCH   1   2
BRANCH   1  32
ATOM     32  C   UNL     1     143.487 127.461 116.261  1.00  0.00     0.031 C 
BRANCH  32  33
ATOM     33  C   UNL     1     144.686 128.025 115.521  1.00  0.00    -0.075 C 
ATOM     34  C   UNL     1     145.781 127.258 115.361  1.00  0.00     0.008 C 
BRANCH  33  35
ATOM     35  C   UNL     1     144.591 129.400 114.872  1.00  0.00     0.008 C 
ATOM     36  C   UNL     1     143.170 129.723 114.388  1.00  0.00     0.012 C 
ATOM     37  C   UNL     1     145.101 130.485 115.827  1.00  0.00     0.012 C 
ENDBRANCH  33  35
ENDBRANCH  32  33
ENDBRANCH   1  32
TORSDOF 8
ENDMDL
MODEL 4
REMARK VINA RESULT:    -5.713      1.955      4.038
REMARK INTER + INTRA:         -10.072
REMARK INTER:                  -8.177
REMARK INTRA:                  -1.895
REMARK UNBOUND:                -2.022
REMARK SMILES C=C(CC[C@H](C(=O)[O-])[C@@H]1[C@@H](O)C[C@]2(C)C3=C(CC[C@]12C)[C@@]1(C)CC[C@@H](O)C(C)(C)[C@H]1CC3)C(C)C
REMARK SMILES IDX 4 1 5 2 6 3 7 4 8 5 9 6 10 7 19 8 12 9 13 10 18 11 20 12
REMARK SMILES IDX 14 13 15 14 17 15 16 16 32 17 21 18 31 19 30 20 23 21 22 22
REMARK SMILES IDX 27 23 24 24 25 25 28 26 29 27 11 28 26 30 3 32 2 33 1 34
REMARK SMILES IDX 33 35 34 36 35 37
REMARK H PARENT 11 29 26 31
REMARK Flexibility Score: inf
ROOT
ATOM      1  C   UNL     1     129.121 129.834 115.119  1.00  0.00     0.014 C 
ENDROOT
BRANCH   1   2
ATOM      2  C   UNL     1     130.571 130.101 115.593  1.00  0.00     0.042 C 
BRANCH   2   3
ATOM      3  C   UNL     1     131.549 129.897 114.449  1.00  0.00     0.045 C 
ATOM      4  O   UNL     1     132.120 128.784 114.297  1.00  0.00    -0.550 OA
ATOM      5  O   UNL     1     131.927 130.954 113.627  1.00  0.00    -0.550 OA
ENDBRANCH   2   3
BRANCH   2   6
ATOM      6  C   UNL     1     130.975 129.450 116.980  1.00  0.00     0.033 C 
ATOM      7  C   UNL     1     129.855 128.562 117.556  1.00  0.00     0.119 C 
ATOM      8  C   UNL     1     131.550 130.286 118.185  1.00  0.00    -0.017 C 
ATOM      9  C   UNL     1     130.096 128.432 119.056  1.00  0.00     0.043 C 
ATOM     10  C   UNL     1     131.293 129.341 119.447  1.00  0.00    -0.003 C 
ATOM     11  C   UNL     1     130.863 131.678 118.362  1.00  0.00     0.012 C 
ATOM     12  C   UNL     1     133.068 130.585 117.987  1.00  0.00     0.013 C 
ATOM     13  C   UNL     1     132.497 128.381 119.704  1.00  0.00     0.017 C 
ATOM     14  C   UNL     1     130.901 130.142 120.726  1.00  0.00    -0.064 C 
ATOM     15  C   UNL     1     129.613 131.613 119.226  1.00  0.00     0.032 C 
ATOM     16  C   UNL     1     130.023 131.189 120.628  1.00  0.00    -0.064 C 
ATOM     17  C   UNL     1     131.361 129.694 122.098  1.00  0.00     0.032 C 
ATOM     18  C   UNL     1     129.362 131.870 121.871  1.00  0.00    -0.008 C 
ATOM     19  C   UNL     1     131.473 130.889 123.016  1.00  0.00     0.009 C 
ATOM     20  C   UNL     1     130.095 131.541 123.256  1.00  0.00     0.007 C 
ATOM     21  C   UNL     1     127.878 131.417 121.883  1.00  0.00     0.014 C 
ATOM     22  C   UNL     1     129.381 133.414 121.689  1.00  0.00     0.016 C 
ATOM     23  C   UNL     1     129.185 130.882 124.393  1.00  0.00    -0.006 C 
ATOM     24  C   UNL     1     127.735 129.986 122.381  1.00  0.00     0.033 C 
ATOM     25  C   UNL     1     128.156 129.809 123.849  1.00  0.00     0.120 C 
ATOM     26  C   UNL     1     128.398 132.023 125.112  1.00  0.00     0.014 C 
ATOM     27  C   UNL     1     130.042 130.247 125.526  1.00  0.00     0.014 C 
BRANCH   7  28
ATOM     28  O   UNL     1     129.862 127.291 116.956  1.00  0.00    -0.393 OA
ATOM     29  H   UNL     1     129.188 126.743 117.435  1.00  0.00     0.210 HD
ENDBRANCH   7  28
BRANCH  25  30
ATOM     30  O   UNL     1     128.648 128.496 123.991  1.00  0.00    -0.393 OA
ATOM     31  H   UNL     1     129.589 128.556 124.301  1.00  0.00     0.210 HD
ENDBRANCH  25  30
ENDBRANCH   2   6
ENDBRANCH   1   2
BRANCH   1  32
ATOM     32  C   UNL     1     128.127 130.976 115.413  1.00  0.00     0.031 C 
BRANCH  32  33
ATOM     33  C   UNL     1     128.374 132.209 114.564  1.00  0.00    -0.075 C 
ATOM     34  C   UNL     1     128.251 132.123 113.227  1.00  0.00     0.008 C 
BRANCH  33  35
ATOM     35  C   UNL     1     128.645 133.547 115.242  1.00  0.00     0.008 C 
ATOM     36  C   UNL     1     128.012 133.634 116.638  1.00  0.00     0.012 C 
ATOM     37  C   UNL     1     130.150 133.825 115.307  1.00  0.00     0.012 C 
ENDBRANCH  33  35
ENDBRANCH  32  33
ENDBRANCH   1  32
TORSDOF 8
ENDMDL
MODEL 5
REMARK VINA RESULT:    -5.709      2.259      7.697
REMARK INTER + INTRA:         -10.067
REMARK INTER:                  -8.124
REMARK INTRA:                  -1.943
REMARK UNBOUND:                -2.022
REMARK SMILES C=C(CC[C@H](C(=O)[O-])[C@@H]1[C@@H](O)C[C@]2(C)C3=C(CC[C@]12C)[C@@]1(C)CC[C@@H](O)C(C)(C)[C@H]1CC3)C(C)C
REMARK SMILES IDX 4 1 5 2 6 3 7 4 8 5 9 6 10 7 19 8 12 9 13 10 18 11 20 12
REMARK SMILES IDX 14 13 15 14 17 15 16 16 32 17 21 18 31 19 30 20 23 21 22 22
REMARK SMILES IDX 27 23 24 24 25 25 28 26 29 27 11 28 26 30 3 32 2 33 1 34
REMARK SMILES IDX 33 35 34 36 35 37
REMARK H PARENT 11 29 26 31
REMARK Flexibility Score: inf
ROOT
ATOM      1  C   UNL     1     128.450 129.258 123.683  1.00  0.00     0.014 C 
ENDROOT
BRANCH   1   2
ATOM      2  C   UNL     1     129.345 130.522 123.670  1.00  0.00     0.042 C 
BRANCH   2   3
ATOM      3  C   UNL     1     128.944 131.466 124.791  1.00  0.00     0.045 C 
ATOM      4  O   UNL     1     129.385 131.287 125.957  1.00  0.00    -0.550 OA
ATOM      5  O   UNL     1     127.997 132.465 124.585  1.00  0.00    -0.550 OA
ENDBRANCH   2   3
BRANCH   2   6
ATOM      6  C   UNL     1     129.582 131.185 122.251  1.00  0.00     0.033 C 
ATOM      7  C   UNL     1     128.423 130.906 121.275  1.00  0.00     0.119 C 
ATOM      8  C   UNL     1     130.915 131.000 121.430  1.00  0.00    -0.017 C 
ATOM      9  C   UNL     1     128.956 131.096 119.860  1.00  0.00     0.043 C 
ATOM     10  C   UNL     1     130.483 131.369 119.937  1.00  0.00    -0.003 C 
ATOM     11  C   UNL     1     131.503 129.555 121.515  1.00  0.00     0.012 C 
ATOM     12  C   UNL     1     132.036 131.947 121.959  1.00  0.00     0.013 C 
ATOM     13  C   UNL     1     130.663 132.892 119.645  1.00  0.00     0.017 C 
ATOM     14  C   UNL     1     131.194 130.481 118.871  1.00  0.00    -0.064 C 
ATOM     15  C   UNL     1     130.927 128.620 120.464  1.00  0.00     0.032 C 
ATOM     16  C   UNL     1     131.333 129.137 119.092  1.00  0.00    -0.064 C 
ATOM     17  C   UNL     1     131.605 131.052 117.529  1.00  0.00     0.032 C 
ATOM     18  C   UNL     1     131.775 128.128 117.981  1.00  0.00    -0.008 C 
ATOM     19  C   UNL     1     132.802 130.298 116.997  1.00  0.00     0.009 C 
ATOM     20  C   UNL     1     132.449 128.824 116.706  1.00  0.00     0.007 C 
ATOM     21  C   UNL     1     130.510 127.318 117.594  1.00  0.00     0.014 C 
ATOM     22  C   UNL     1     132.812 127.129 118.570  1.00  0.00     0.016 C 
ATOM     23  C   UNL     1     131.761 128.523 115.296  1.00  0.00    -0.006 C 
ATOM     24  C   UNL     1     129.573 128.134 116.716  1.00  0.00     0.033 C 
ATOM     25  C   UNL     1     130.179 128.492 115.349  1.00  0.00     0.120 C 
ATOM     26  C   UNL     1     132.281 127.142 114.783  1.00  0.00     0.014 C 
ATOM     27  C   UNL     1     132.221 129.526 114.200  1.00  0.00     0.014 C 
BRANCH   7  28
ATOM     28  O   UNL     1     127.350 131.784 121.507  1.00  0.00    -0.393 OA
ATOM     29  H   UNL     1     126.909 131.937 120.631  1.00  0.00     0.210 HD
ENDBRANCH   7  28
BRANCH  25  30
ATOM     30  O   UNL     1     129.619 129.722 114.948  1.00  0.00    -0.393 OA
ATOM     31  H   UNL     1     130.255 130.441 115.201  1.00  0.00     0.210 HD
ENDBRANCH  25  30
ENDBRANCH   2   6
ENDBRANCH   1   2
BRANCH   1  32
ATOM     32  C   UNL     1     128.718 128.291 124.854  1.00  0.00     0.031 C 
BRANCH  32  33
ATOM     33  C   UNL     1     130.118 127.707 124.831  1.00  0.00    -0.075 C 
ATOM     34  C   UNL     1     130.490 126.931 123.796  1.00  0.00     0.008 C 
BRANCH  33  35
ATOM     35  C   UNL     1     131.115 128.098 125.915  1.00  0.00     0.008 C 
ATOM     36  C   UNL     1     131.731 126.877 126.612  1.00  0.00     0.012 C 
ATOM     37  C   UNL     1     132.208 129.007 125.341  1.00  0.00     0.012 C 
ENDBRANCH  33  35
ENDBRANCH  32  33
ENDBRANCH   1  32
TORSDOF 8
ENDMDL
MODEL 6
REMARK VINA RESULT:    -5.705     12.534     14.998
REMARK INTER + INTRA:         -10.061
REMARK INTER:                  -9.238
REMARK INTRA:                  -0.822
REMARK UNBOUND:                -2.022
REMARK SMILES C=C(CC[C@H](C(=O)[O-])[C@@H]1[C@@H](O)C[C@]2(C)C3=C(CC[C@]12C)[C@@]1(C)CC[C@@H](O)C(C)(C)[C@H]1CC3)C(C)C
REMARK SMILES IDX 4 1 5 2 6 3 7 4 8 5 9 6 10 7 19 8 12 9 13 10 18 11 20 12
REMARK SMILES IDX 14 13 15 14 17 15 16 16 32 17 21 18 31 19 30 20 23 21 22 22
REMARK SMILES IDX 27 23 24 24 25 25 28 26 29 27 11 28 26 30 3 32 2 33 1 34
REMARK SMILES IDX 33 35 34 36 35 37
REMARK H PARENT 11 29 26 31
REMARK Flexibility Score: inf
ROOT
ATOM      1  C   UNL     1     141.567 128.025 115.522  1.00  0.00     0.014 C 
ENDROOT
BRANCH   1   2
ATOM      2  C   UNL     1     142.319 128.244 116.858  1.00  0.00     0.042 C 
BRANCH   2   3
ATOM      3  C   UNL     1     141.358 128.716 117.936  1.00  0.00     0.045 C 
ATOM      4  O   UNL     1     140.670 129.757 117.757  1.00  0.00    -0.550 OA
ATOM      5  O   UNL     1     141.305 128.091 119.178  1.00  0.00    -0.550 OA
ENDBRANCH   2   3
BRANCH   2   6
ATOM      6  C   UNL     1     143.692 129.028 116.757  1.00  0.00     0.033 C 
ATOM      7  C   UNL     1     144.153 129.578 118.120  1.00  0.00     0.119 C 
ATOM      8  C   UNL     1     143.952 130.168 115.700  1.00  0.00    -0.017 C 
ATOM      9  C   UNL     1     145.130 130.717 117.850  1.00  0.00     0.043 C 
ATOM     10  C   UNL     1     145.187 130.970 116.319  1.00  0.00    -0.003 C 
ATOM     11  C   UNL     1     142.720 131.100 115.474  1.00  0.00     0.012 C 
ATOM     12  C   UNL     1     144.294 129.569 114.301  1.00  0.00     0.013 C 
ATOM     13  C   UNL     1     146.554 130.386 115.838  1.00  0.00     0.017 C 
ATOM     14  C   UNL     1     145.089 132.506 116.073  1.00  0.00    -0.064 C 
ATOM     15  C   UNL     1     142.667 132.258 116.458  1.00  0.00     0.032 C 
ATOM     16  C   UNL     1     143.884 133.141 116.221  1.00  0.00    -0.064 C 
ATOM     17  C   UNL     1     146.329 133.335 115.812  1.00  0.00     0.032 C 
ATOM     18  C   UNL     1     143.737 134.697 116.268  1.00  0.00    -0.008 C 
ATOM     19  C   UNL     1     145.974 134.536 114.965  1.00  0.00     0.009 C 
ATOM     20  C   UNL     1     145.016 135.485 115.715  1.00  0.00     0.007 C 
ATOM     21  C   UNL     1     143.426 135.066 117.743  1.00  0.00     0.014 C 
ATOM     22  C   UNL     1     142.515 135.129 115.408  1.00  0.00     0.016 C 
ATOM     23  C   UNL     1     145.691 136.525 116.723  1.00  0.00    -0.006 C 
ATOM     24  C   UNL     1     144.674 134.990 118.611  1.00  0.00     0.033 C 
ATOM     25  C   UNL     1     145.748 136.018 118.222  1.00  0.00     0.120 C 
ATOM     26  C   UNL     1     144.879 137.858 116.666  1.00  0.00     0.014 C 
ATOM     27  C   UNL     1     147.119 136.936 116.262  1.00  0.00     0.014 C 
BRANCH   7  28
ATOM     28  O   UNL     1     144.780 128.576 118.880  1.00  0.00    -0.393 OA
ATOM     29  H   UNL     1     144.318 127.724 118.670  1.00  0.00     0.210 HD
ENDBRANCH   7  28
BRANCH  25  30
ATOM     30  O   UNL     1     147.003 135.458 118.536  1.00  0.00    -0.393 OA
ATOM     31  H   UNL     1     147.480 135.285 117.682  1.00  0.00     0.210 HD
ENDBRANCH  25  30
ENDBRANCH   2   6
ENDBRANCH   1   2
BRANCH   1  32
ATOM     32  C   UNL     1     140.450 126.963 115.578  1.00  0.00     0.031 C 
BRANCH  32  33
ATOM     33  C   UNL     1     139.215 127.362 114.792  1.00  0.00    -0.075 C 
ATOM     34  C   UNL     1     139.049 126.889 113.543  1.00  0.00     0.008 C 
BRANCH  33  35
ATOM     35  C   UNL     1     138.131 128.195 115.465  1.00  0.00     0.008 C 
ATOM     36  C   UNL     1     137.903 129.540 114.760  1.00  0.00     0.012 C 
ATOM     37  C   UNL     1     136.822 127.402 115.561  1.00  0.00     0.012 C 
ENDBRANCH  33  35
ENDBRANCH  32  33
ENDBRANCH   1  32
TORSDOF 8
ENDMDL
MODEL 7
REMARK VINA RESULT:    -5.626      4.142      7.550
REMARK INTER + INTRA:          -9.950
REMARK INTER:                  -7.804
REMARK INTRA:                  -2.145
REMARK UNBOUND:                -2.022
REMARK SMILES C=C(CC[C@H](C(=O)[O-])[C@@H]1[C@@H](O)C[C@]2(C)C3=C(CC[C@]12C)[C@@]1(C)CC[C@@H](O)C(C)(C)[C@H]1CC3)C(C)C
REMARK SMILES IDX 4 1 5 2 6 3 7 4 8 5 9 6 10 7 19 8 12 9 13 10 18 11 20 12
REMARK SMILES IDX 14 13 15 14 17 15 16 16 32 17 21 18 31 19 30 20 23 21 22 22
REMARK SMILES IDX 27 23 24 24 25 25 28 26 29 27 11 28 26 30 3 32 2 33 1 34
REMARK SMILES IDX 33 35 34 36 35 37
REMARK H PARENT 11 29 26 31
REMARK Flexibility Score: inf
ROOT
ATOM      1  C   UNL     1     135.626 127.915 117.684  1.00  0.00     0.014 C 
ENDROOT
BRANCH   1   2
ATOM      2  C   UNL     1     136.011 129.271 118.324  1.00  0.00     0.042 C 
BRANCH   2   3
ATOM      3  C   UNL     1     136.998 129.060 119.460  1.00  0.00     0.045 C 
ATOM      4  O   UNL     1     136.626 129.202 120.655  1.00  0.00    -0.550 OA
ATOM      5  O   UNL     1     138.347 128.829 119.207  1.00  0.00    -0.550 OA
ENDBRANCH   2   3
BRANCH   2   6
ATOM      6  C   UNL     1     134.808 130.260 118.620  1.00  0.00     0.033 C 
ATOM      7  C   UNL     1     133.515 129.511 118.993  1.00  0.00     0.119 C 
ATOM      8  C   UNL     1     134.390 131.418 117.638  1.00  0.00    -0.017 C 
ATOM      9  C   UNL     1     132.346 130.454 118.734  1.00  0.00     0.043 C 
ATOM     10  C   UNL     1     132.891 131.752 118.077  1.00  0.00    -0.003 C 
ATOM     11  C   UNL     1     134.468 131.016 116.130  1.00  0.00     0.012 C 
ATOM     12  C   UNL     1     135.327 132.655 117.796  1.00  0.00     0.013 C 
ATOM     13  C   UNL     1     132.845 132.848 119.188  1.00  0.00     0.017 C 
ATOM     14  C   UNL     1     131.975 132.108 116.866  1.00  0.00    -0.064 C 
ATOM     15  C   UNL     1     133.193 130.359 115.628  1.00  0.00     0.032 C 
ATOM     16  C   UNL     1     132.066 131.378 115.710  1.00  0.00    -0.064 C 
ATOM     17  C   UNL     1     130.887 133.153 116.993  1.00  0.00     0.032 C 
ATOM     18  C   UNL     1     131.017 131.475 114.554  1.00  0.00    -0.008 C 
ATOM     19  C   UNL     1     130.635 133.795 115.648  1.00  0.00     0.009 C 
ATOM     20  C   UNL     1     130.082 132.771 114.635  1.00  0.00     0.007 C 
ATOM     21  C   UNL     1     130.190 130.163 114.601  1.00  0.00     0.014 C 
ATOM     22  C   UNL     1     131.756 131.516 113.186  1.00  0.00     0.016 C 
ATOM     23  C   UNL     1     128.508 132.500 114.685  1.00  0.00    -0.006 C 
ATOM     24  C   UNL     1     129.183 130.180 115.741  1.00  0.00     0.033 C 
ATOM     25  C   UNL     1     128.100 131.260 115.580  1.00  0.00     0.120 C 
ATOM     26  C   UNL     1     128.006 132.262 113.225  1.00  0.00     0.014 C 
ATOM     27  C   UNL     1     127.718 133.757 115.151  1.00  0.00     0.014 C 
BRANCH   7  28
ATOM     28  O   UNL     1     133.531 129.124 120.345  1.00  0.00    -0.393 OA
ATOM     29  H   UNL     1     133.042 128.263 120.403  1.00  0.00     0.210 HD
ENDBRANCH   7  28
BRANCH  25  30
ATOM     30  O   UNL     1     127.704 131.657 116.873  1.00  0.00    -0.393 OA
ATOM     31  H   UNL     1     126.931 131.095 117.140  1.00  0.00     0.210 HD
ENDBRANCH  25  30
ENDBRANCH   2   6
ENDBRANCH   1   2
BRANCH   1  32
ATOM     32  C   UNL     1     135.869 127.828 116.163  1.00  0.00     0.031 C 
BRANCH  32  33
ATOM     33  C   UNL     1     137.306 128.124 115.776  1.00  0.00    -0.075 C 
ATOM     34  C   UNL     1     138.270 127.242 116.098  1.00  0.00     0.008 C 
BRANCH  33  35
ATOM     35  C   UNL     1     137.620 129.353 114.931  1.00  0.00     0.008 C 
ATOM     36  C   UNL     1     138.238 130.490 115.758  1.00  0.00     0.012 C 
ATOM     37  C   UNL     1     138.526 128.981 113.752  1.00  0.00     0.012 C 
ENDBRANCH  33  35
ENDBRANCH  32  33
ENDBRANCH   1  32
TORSDOF 8
ENDMDL
MODEL 8
REMARK VINA RESULT:    -5.594      3.402      5.711
REMARK INTER + INTRA:          -9.905
REMARK INTER:                  -7.942
REMARK INTRA:                  -1.963
REMARK UNBOUND:                -2.022
REMARK SMILES C=C(CC[C@H](C(=O)[O-])[C@@H]1[C@@H](O)C[C@]2(C)C3=C(CC[C@]12C)[C@@]1(C)CC[C@@H](O)C(C)(C)[C@H]1CC3)C(C)C
REMARK SMILES IDX 4 1 5 2 6 3 7 4 8 5 9 6 10 7 19 8 12 9 13 10 18 11 20 12
REMARK SMILES IDX 14 13 15 14 17 15 16 16 32 17 21 18 31 19 30 20 23 21 22 22
REMARK SMILES IDX 27 23 24 24 25 25 28 26 29 27 11 28 26 30 3 32 2 33 1 34
REMARK SMILES IDX 33 35 34 36 35 37
REMARK H PARENT 11 29 26 31
REMARK Flexibility Score: inf
ROOT
ATOM      1  C   UNL     1     133.150 129.367 115.490  1.00  0.00     0.014 C 
ENDROOT
BRANCH   1   2
ATOM      2  C   UNL     1     131.639 129.071 115.329  1.00  0.00     0.042 C 
BRANCH   2   3
ATOM      3  C   UNL     1     131.430 127.712 114.684  1.00  0.00     0.045 C 
ATOM      4  O   UNL     1     130.281 127.197 114.652  1.00  0.00    -0.550 OA
ATOM      5  O   UNL     1     132.508 126.959 114.228  1.00  0.00    -0.550 OA
ENDBRANCH   2   3
BRANCH   2   6
ATOM      6  C   UNL     1     130.761 130.259 114.753  1.00  0.00     0.033 C 
ATOM      7  C   UNL     1     131.621 131.453 114.298  1.00  0.00     0.119 C 
ATOM      8  C   UNL     1     129.525 130.862 115.522  1.00  0.00    -0.017 C 
ATOM      9  C   UNL     1     130.724 132.685 114.278  1.00  0.00     0.043 C 
ATOM     10  C   UNL     1     129.331 132.294 114.843  1.00  0.00    -0.003 C 
ATOM     11  C   UNL     1     129.748 130.984 117.063  1.00  0.00     0.012 C 
ATOM     12  C   UNL     1     128.262 129.963 115.346  1.00  0.00     0.013 C 
ATOM     13  C   UNL     1     128.372 132.225 113.613  1.00  0.00     0.017 C 
ATOM     14  C   UNL     1     128.893 133.388 115.864  1.00  0.00    -0.064 C 
ATOM     15  C   UNL     1     130.417 132.290 117.460  1.00  0.00     0.032 C 
ATOM     16  C   UNL     1     129.480 133.434 117.101  1.00  0.00    -0.064 C 
ATOM     17  C   UNL     1     127.934 134.489 115.464  1.00  0.00     0.032 C 
ATOM     18  C   UNL     1     129.314 134.641 118.082  1.00  0.00    -0.008 C 
ATOM     19  C   UNL     1     127.159 134.958 116.674  1.00  0.00     0.009 C 
ATOM     20  C   UNL     1     128.091 135.608 117.717  1.00  0.00     0.007 C 
ATOM     21  C   UNL     1     130.668 135.399 118.080  1.00  0.00     0.014 C 
ATOM     22  C   UNL     1     129.074 134.109 119.524  1.00  0.00     0.016 C 
ATOM     23  C   UNL     1     128.457 137.146 117.484  1.00  0.00    -0.006 C 
ATOM     24  C   UNL     1     130.839 136.232 116.818  1.00  0.00     0.033 C 
ATOM     25  C   UNL     1     129.812 137.370 116.697  1.00  0.00     0.120 C 
ATOM     26  C   UNL     1     128.556 137.842 118.878  1.00  0.00     0.014 C 
ATOM     27  C   UNL     1     127.310 137.912 116.764  1.00  0.00     0.014 C 
BRANCH   7  28
ATOM     28  O   UNL     1     132.157 131.227 113.019  1.00  0.00    -0.393 OA
ATOM     29  H   UNL     1     132.758 131.991 112.820  1.00  0.00     0.210 HD
ENDBRANCH   7  28
BRANCH  25  30
ATOM     30  O   UNL     1     129.588 137.591 115.323  1.00  0.00    -0.393 OA
ATOM     31  H   UNL     1     129.376 138.554 115.202  1.00  0.00     0.210 HD
ENDBRANCH  25  30
ENDBRANCH   2   6
ENDBRANCH   1   2
BRANCH   1  32
ATOM     32  C   UNL     1     133.613 129.579 116.946  1.00  0.00     0.031 C 
BRANCH  32  33
ATOM     33  C   UNL     1     133.362 128.370 117.828  1.00  0.00    -0.075 C 
ATOM     34  C   UNL     1     134.009 127.219 117.569  1.00  0.00     0.008 C 
BRANCH  33  35
ATOM     35  C   UNL     1     132.473 128.508 119.058  1.00  0.00     0.008 C 
ATOM     36  C   UNL     1     132.391 129.957 119.562  1.00  0.00     0.012 C 
ATOM     37  C   UNL     1     131.073 127.949 118.780  1.00  0.00     0.012 C 
ENDBRANCH  33  35
ENDBRANCH  32  33
ENDBRANCH   1  32
TORSDOF 8
ENDMDL
