MODEL 1
REMARK VINA RESULT:    -5.983      0.000      0.000
REMARK INTER + INTRA:          -7.294
REMARK INTER:                  -7.032
REMARK INTRA:                  -0.262
REMARK UNBOUND:                -0.262
REMARK SMILES O=c1cc(-c2ccc(O)c(O)c2)oc2cc(O)cc(O)c12
REMARK SMILES IDX 4 1 3 2 2 3 1 4 21 5 19 6 18 7 16 8 15 9 14 10 13 11 5 12
REMARK SMILES IDX 6 13 7 14 8 15 12 16 10 17 9 18 11 20 20 22 17 24
REMARK H PARENT 9 19 11 21 20 23 17 25
REMARK Flexibility Score: inf
ROOT
ATOM      1  C   UNL     1       3.937  -3.539  -8.550  1.00  0.00     0.138 A 
ATOM      2  C   UNL     1       5.073  -4.132  -7.984  1.00  0.00     0.100 A 
ATOM      3  C   UNL     1       5.550  -5.338  -8.496  1.00  0.00     0.197 A 
ATOM      4  O   UNL     1       6.535  -5.877  -7.927  1.00  0.00    -0.289 OA
ATOM      5  C   UNL     1       4.903  -5.939  -9.602  1.00  0.00     0.107 A 
ATOM      6  C   UNL     1       5.325  -7.147 -10.233  1.00  0.00     0.134 A 
ATOM      7  C   UNL     1       4.537  -7.707 -11.246  1.00  0.00     0.093 A 
ATOM      8  C   UNL     1       3.376  -7.071 -11.691  1.00  0.00     0.123 A 
ATOM      9  C   UNL     1       2.985  -5.863 -11.119  1.00  0.00     0.094 A 
ATOM     10  C   UNL     1       3.731  -5.297 -10.082  1.00  0.00     0.146 A 
ATOM     11  O   UNL     1       3.315  -4.151  -9.553  1.00  0.00    -0.456 OA
ENDROOT
BRANCH   1  12
ATOM     12  C   UNL     1       3.387  -2.256  -8.046  1.00  0.00     0.021 A 
ATOM     13  C   UNL     1       2.314  -2.218  -7.134  1.00  0.00     0.016 A 
ATOM     14  C   UNL     1       1.823  -0.996  -6.667  1.00  0.00     0.051 A 
ATOM     15  C   UNL     1       2.396   0.208  -7.095  1.00  0.00     0.157 A 
ATOM     16  C   UNL     1       3.966  -1.042  -8.459  1.00  0.00     0.062 A 
ATOM     17  C   UNL     1       3.475   0.182  -7.994  1.00  0.00     0.158 A 
BRANCH  15  18
ATOM     18  O   UNL     1       1.902   1.425  -6.629  1.00  0.00    -0.504 OA
ATOM     19  H   UNL     1       1.001   1.491  -6.171  1.00  0.00     0.293 HD
ENDBRANCH  15  18
BRANCH  17  20
ATOM     20  O   UNL     1       4.072   1.363  -8.437  1.00  0.00    -0.504 OA
ATOM     21  H   UNL     1       4.973   1.369  -8.902  1.00  0.00     0.293 HD
ENDBRANCH  17  20
ENDBRANCH   1  12
BRANCH   6  22
ATOM     22  O   UNL     1       6.513  -7.817  -9.923  1.00  0.00    -0.507 OA
ATOM     23  H   UNL     1       6.665  -8.364  -9.089  1.00  0.00     0.293 HD
ENDBRANCH   6  22
BRANCH   8  24
ATOM     24  O   UNL     1       2.607  -7.629 -12.711  1.00  0.00    -0.508 OA
ATOM     25  H   UNL     1       1.669  -7.300 -12.908  1.00  0.00     0.293 HD
ENDBRANCH   8  24
TORSDOF 5
ENDMDL
MODEL 2
REMARK VINA RESULT:    -5.946      4.086      7.127
REMARK INTER + INTRA:          -7.251
REMARK INTER:                  -6.942
REMARK INTRA:                  -0.309
REMARK UNBOUND:                -0.262
REMARK SMILES O=c1cc(-c2ccc(O)c(O)c2)oc2cc(O)cc(O)c12
REMARK SMILES IDX 4 1 3 2 2 3 1 4 21 5 19 6 18 7 16 8 15 9 14 10 13 11 5 12
REMARK SMILES IDX 6 13 7 14 8 15 12 16 10 17 9 18 11 20 20 22 17 24
REMARK H PARENT 9 19 11 21 20 23 17 25
REMARK Flexibility Score: inf
ROOT
ATOM      1  C   UNL     1       2.164  -7.715  -9.176  1.00  0.00     0.138 A 
ATOM      2  C   UNL     1       1.468  -8.843  -9.630  1.00  0.00     0.100 A 
ATOM      3  C   UNL     1       0.100  -8.956  -9.384  1.00  0.00     0.197 A 
ATOM      4  O   UNL     1      -0.485 -10.009  -9.749  1.00  0.00    -0.289 OA
ATOM      5  C   UNL     1      -0.581  -7.917  -8.706  1.00  0.00     0.107 A 
ATOM      6  C   UNL     1      -1.982  -7.905  -8.436  1.00  0.00     0.134 A 
ATOM      7  C   UNL     1      -2.524  -6.877  -7.654  1.00  0.00     0.093 A 
ATOM      8  C   UNL     1      -1.727  -5.830  -7.186  1.00  0.00     0.123 A 
ATOM      9  C   UNL     1      -0.369  -5.804  -7.490  1.00  0.00     0.094 A 
ATOM     10  C   UNL     1       0.209  -6.833  -8.238  1.00  0.00     0.146 A 
ATOM     11  O   UNL     1       1.512  -6.779  -8.494  1.00  0.00    -0.456 OA
ENDROOT
BRANCH   1  12
ATOM     12  C   UNL     1       3.620  -7.544  -9.411  1.00  0.00     0.021 A 
ATOM     13  C   UNL     1       4.470  -8.647  -9.618  1.00  0.00     0.016 A 
ATOM     14  C   UNL     1       5.836  -8.455  -9.848  1.00  0.00     0.051 A 
ATOM     15  C   UNL     1       6.374  -7.163  -9.882  1.00  0.00     0.157 A 
ATOM     16  C   UNL     1       4.167  -6.248  -9.461  1.00  0.00     0.062 A 
ATOM     17  C   UNL     1       5.533  -6.055  -9.690  1.00  0.00     0.158 A 
BRANCH  15  18
ATOM     18  O   UNL     1       7.737  -6.977 -10.110  1.00  0.00    -0.504 OA
ATOM     19  H   UNL     1       8.126  -6.057 -10.275  1.00  0.00     0.293 HD
ENDBRANCH  15  18
BRANCH  17  20
ATOM     20  O   UNL     1       6.036  -4.755  -9.722  1.00  0.00    -0.504 OA
ATOM     21  H   UNL     1       5.437  -3.949  -9.856  1.00  0.00     0.293 HD
ENDBRANCH  17  20
ENDBRANCH   1  12
BRANCH   6  22
ATOM     22  O   UNL     1      -2.882  -8.856  -8.927  1.00  0.00    -0.507 OA
ATOM     23  H   UNL     1      -3.609  -8.668  -9.600  1.00  0.00     0.293 HD
ENDBRANCH   6  22
BRANCH   8  24
ATOM     24  O   UNL     1      -2.280  -4.803  -6.422  1.00  0.00    -0.508 OA
ATOM     25  H   UNL     1      -3.280  -4.643  -6.393  1.00  0.00     0.293 HD
ENDBRANCH   8  24
TORSDOF 5
ENDMDL
MODEL 3
REMARK VINA RESULT:    -5.905      2.612      4.235
REMARK INTER + INTRA:          -7.203
REMARK INTER:                  -6.931
REMARK INTRA:                  -0.272
REMARK UNBOUND:                -0.262
REMARK SMILES O=c1cc(-c2ccc(O)c(O)c2)oc2cc(O)cc(O)c12
REMARK SMILES IDX 4 1 3 2 2 3 1 4 21 5 19 6 18 7 16 8 15 9 14 10 13 11 5 12
REMARK SMILES IDX 6 13 7 14 8 15 12 16 10 17 9 18 11 20 20 22 17 24
REMARK H PARENT 9 19 11 21 20 23 17 25
REMARK Flexibility Score: inf
ROOT
ATOM      1  C   UNL     1       3.754   0.239  -7.944  1.00  0.00     0.138 A 
ATOM      2  C   UNL     1       4.537   0.393  -9.095  1.00  0.00     0.100 A 
ATOM      3  C   UNL     1       4.910  -0.731  -9.832  1.00  0.00     0.197 A 
ATOM      4  O   UNL     1       5.664  -0.568 -10.826  1.00  0.00    -0.289 OA
ATOM      5  C   UNL     1       4.469  -2.014  -9.429  1.00  0.00     0.107 A 
ATOM      6  C   UNL     1       4.753  -3.227 -10.125  1.00  0.00     0.134 A 
ATOM      7  C   UNL     1       4.362  -4.450  -9.567  1.00  0.00     0.093 A 
ATOM      8  C   UNL     1       3.644  -4.500  -8.370  1.00  0.00     0.123 A 
ATOM      9  C   UNL     1       3.314  -3.319  -7.710  1.00  0.00     0.094 A 
ATOM     10  C   UNL     1       3.721  -2.084  -8.224  1.00  0.00     0.146 A 
ATOM     11  O   UNL     1       3.399  -0.981  -7.556  1.00  0.00    -0.456 OA
ENDROOT
BRANCH   1  12
ATOM     12  C   UNL     1       3.328   1.401  -7.123  1.00  0.00     0.021 A 
ATOM     13  C   UNL     1       1.993   1.561  -6.705  1.00  0.00     0.016 A 
ATOM     14  C   UNL     1       1.622   2.660  -5.924  1.00  0.00     0.051 A 
ATOM     15  C   UNL     1       2.575   3.611  -5.542  1.00  0.00     0.157 A 
ATOM     16  C   UNL     1       4.282   2.355  -6.723  1.00  0.00     0.062 A 
ATOM     17  C   UNL     1       3.912   3.455  -5.942  1.00  0.00     0.158 A 
BRANCH  15  18
ATOM     18  O   UNL     1       2.200   4.706  -4.764  1.00  0.00    -0.504 OA
ATOM     19  H   UNL     1       2.170   5.643  -5.147  1.00  0.00     0.293 HD
ENDBRANCH  15  18
BRANCH  17  20
ATOM     20  O   UNL     1       4.887   4.383  -5.575  1.00  0.00    -0.504 OA
ATOM     21  H   UNL     1       4.901   5.325  -5.949  1.00  0.00     0.293 HD
ENDBRANCH  17  20
ENDBRANCH   1  12
BRANCH   6  22
ATOM     22  O   UNL     1       5.389  -3.284 -11.369  1.00  0.00    -0.507 OA
ATOM     23  H   UNL     1       5.821  -4.108 -11.758  1.00  0.00     0.293 HD
ENDBRANCH   6  22
BRANCH   8  24
ATOM     24  O   UNL     1       3.245  -5.722  -7.830  1.00  0.00    -0.508 OA
ATOM     25  H   UNL     1       2.399  -6.186  -8.138  1.00  0.00     0.293 HD
ENDBRANCH   8  24
TORSDOF 5
ENDMDL
MODEL 4
REMARK VINA RESULT:    -5.852      2.469      7.618
REMARK INTER + INTRA:          -7.141
REMARK INTER:                  -6.876
REMARK INTRA:                  -0.265
REMARK UNBOUND:                -0.262
REMARK SMILES O=c1cc(-c2ccc(O)c(O)c2)oc2cc(O)cc(O)c12
REMARK SMILES IDX 4 1 3 2 2 3 1 4 21 5 19 6 18 7 16 8 15 9 14 10 13 11 5 12
REMARK SMILES IDX 6 13 7 14 8 15 12 16 10 17 9 18 11 20 20 22 17 24
REMARK H PARENT 9 19 11 21 20 23 17 25
REMARK Flexibility Score: inf
ROOT
ATOM      1  C   UNL     1       3.327  -0.880  -7.907  1.00  0.00     0.138 A 
ATOM      2  C   UNL     1       3.904   0.395  -7.848  1.00  0.00     0.100 A 
ATOM      3  C   UNL     1       3.145   1.476  -7.401  1.00  0.00     0.197 A 
ATOM      4  O   UNL     1       3.671   2.619  -7.418  1.00  0.00    -0.289 OA
ATOM      5  C   UNL     1       1.809   1.273  -6.980  1.00  0.00     0.107 A 
ATOM      6  C   UNL     1       0.954   2.293  -6.467  1.00  0.00     0.134 A 
ATOM      7  C   UNL     1      -0.386   1.995  -6.191  1.00  0.00     0.093 A 
ATOM      8  C   UNL     1      -0.885   0.701  -6.353  1.00  0.00     0.123 A 
ATOM      9  C   UNL     1      -0.045  -0.315  -6.801  1.00  0.00     0.094 A 
ATOM     10  C   UNL     1       1.289  -0.042  -7.118  1.00  0.00     0.146 A 
ATOM     11  O   UNL     1       2.054  -1.036  -7.557  1.00  0.00    -0.456 OA
ENDROOT
BRANCH   1  12
ATOM     12  C   UNL     1       4.089  -2.066  -8.374  1.00  0.00     0.021 A 
ATOM     13  C   UNL     1       4.271  -3.197  -7.555  1.00  0.00     0.016 A 
ATOM     14  C   UNL     1       4.983  -4.305  -8.024  1.00  0.00     0.051 A 
ATOM     15  C   UNL     1       5.520  -4.305  -9.317  1.00  0.00     0.157 A 
ATOM     16  C   UNL     1       4.619  -2.081  -9.677  1.00  0.00     0.062 A 
ATOM     17  C   UNL     1       5.333  -3.188 -10.148  1.00  0.00     0.158 A 
BRANCH  15  18
ATOM     18  O   UNL     1       6.231  -5.411  -9.781  1.00  0.00    -0.504 OA
ATOM     19  H   UNL     1       7.230  -5.498  -9.635  1.00  0.00     0.293 HD
ENDBRANCH  15  18
BRANCH  17  20
ATOM     20  O   UNL     1       5.851  -3.158 -11.443  1.00  0.00    -0.504 OA
ATOM     21  H   UNL     1       5.862  -3.979 -12.037  1.00  0.00     0.293 HD
ENDBRANCH  17  20
ENDBRANCH   1  12
BRANCH   6  22
ATOM     22  O   UNL     1       1.374   3.597  -6.188  1.00  0.00    -0.507 OA
ATOM     23  H   UNL     1       1.210   4.082  -5.319  1.00  0.00     0.293 HD
ENDBRANCH   6  22
BRANCH   8  24
ATOM     24  O   UNL     1      -2.217   0.411  -6.061  1.00  0.00    -0.508 OA
ATOM     25  H   UNL     1      -2.552  -0.544  -6.004  1.00  0.00     0.293 HD
ENDBRANCH   8  24
TORSDOF 5
ENDMDL
MODEL 5
REMARK VINA RESULT:    -5.841      2.487      7.961
REMARK INTER + INTRA:          -7.128
REMARK INTER:                  -6.855
REMARK INTRA:                  -0.273
REMARK UNBOUND:                -0.262
REMARK SMILES O=c1cc(-c2ccc(O)c(O)c2)oc2cc(O)cc(O)c12
REMARK SMILES IDX 4 1 3 2 2 3 1 4 21 5 19 6 18 7 16 8 15 9 14 10 13 11 5 12
REMARK SMILES IDX 6 13 7 14 8 15 12 16 10 17 9 18 11 20 20 22 17 24
REMARK H PARENT 9 19 11 21 20 23 17 25
REMARK Flexibility Score: inf
ROOT
ATOM      1  C   UNL     1       2.982  -1.209  -7.658  1.00  0.00     0.138 A 
ATOM      2  C   UNL     1       1.671  -1.458  -7.234  1.00  0.00     0.100 A 
ATOM      3  C   UNL     1       0.876  -0.401  -6.790  1.00  0.00     0.197 A 
ATOM      4  O   UNL     1      -0.276  -0.664  -6.357  1.00  0.00    -0.289 OA
ATOM      5  C   UNL     1       1.388   0.918  -6.802  1.00  0.00     0.107 A 
ATOM      6  C   UNL     1       0.656   2.078  -6.411  1.00  0.00     0.134 A 
ATOM      7  C   UNL     1       1.306   3.317  -6.354  1.00  0.00     0.093 A 
ATOM      8  C   UNL     1       2.644   3.447  -6.731  1.00  0.00     0.123 A 
ATOM      9  C   UNL     1       3.353   2.331  -7.166  1.00  0.00     0.094 A 
ATOM     10  C   UNL     1       2.743   1.074  -7.201  1.00  0.00     0.146 A 
ATOM     11  O   UNL     1       3.458   0.031  -7.607  1.00  0.00    -0.456 OA
ENDROOT
BRANCH   1  12
ATOM     12  C   UNL     1       3.871  -2.296  -8.140  1.00  0.00     0.021 A 
ATOM     13  C   UNL     1       4.278  -3.348  -7.297  1.00  0.00     0.016 A 
ATOM     14  C   UNL     1       5.106  -4.364  -7.780  1.00  0.00     0.051 A 
ATOM     15  C   UNL     1       5.538  -4.353  -9.112  1.00  0.00     0.157 A 
ATOM     16  C   UNL     1       4.298  -2.300  -9.481  1.00  0.00     0.062 A 
ATOM     17  C   UNL     1       5.129  -3.316  -9.966  1.00  0.00     0.158 A 
BRANCH  15  18
ATOM     18  O   UNL     1       6.366  -5.367  -9.590  1.00  0.00    -0.504 OA
ATOM     19  H   UNL     1       6.830  -6.013  -8.962  1.00  0.00     0.293 HD
ENDBRANCH  15  18
BRANCH  17  20
ATOM     20  O   UNL     1       5.537  -3.276 -11.299  1.00  0.00    -0.504 OA
ATOM     21  H   UNL     1       5.842  -4.107 -11.793  1.00  0.00     0.293 HD
ENDBRANCH  17  20
ENDBRANCH   1  12
BRANCH   6  22
ATOM     22  O   UNL     1      -0.707   2.073  -6.097  1.00  0.00    -0.507 OA
ATOM     23  H   UNL     1      -1.162   1.384  -5.518  1.00  0.00     0.293 HD
ENDBRANCH   6  22
BRANCH   8  24
ATOM     24  O   UNL     1       3.278   4.688  -6.685  1.00  0.00    -0.508 OA
ATOM     25  H   UNL     1       4.157   4.853  -7.162  1.00  0.00     0.293 HD
ENDBRANCH   8  24
TORSDOF 5
ENDMDL
MODEL 6
REMARK VINA RESULT:    -5.730      2.863      4.579
REMARK INTER + INTRA:          -6.997
REMARK INTER:                  -6.727
REMARK INTRA:                  -0.270
REMARK UNBOUND:                -0.262
REMARK SMILES O=c1cc(-c2ccc(O)c(O)c2)oc2cc(O)cc(O)c12
REMARK SMILES IDX 4 1 3 2 2 3 1 4 21 5 19 6 18 7 16 8 15 9 14 10 13 11 5 12
REMARK SMILES IDX 6 13 7 14 8 15 12 16 10 17 9 18 11 20 20 22 17 24
REMARK H PARENT 9 19 11 21 20 23 17 25
REMARK Flexibility Score: inf
ROOT
ATOM      1  C   UNL     1       2.202  -0.201  -7.118  1.00  0.00     0.138 A 
ATOM      2  C   UNL     1       2.042  -1.408  -6.426  1.00  0.00     0.100 A 
ATOM      3  C   UNL     1       2.766  -2.533  -6.822  1.00  0.00     0.197 A 
ATOM      4  O   UNL     1       2.555  -3.618  -6.221  1.00  0.00    -0.289 OA
ATOM      5  C   UNL     1       3.679  -2.438  -7.899  1.00  0.00     0.107 A 
ATOM      6  C   UNL     1       4.501  -3.507  -8.365  1.00  0.00     0.134 A 
ATOM      7  C   UNL     1       5.281  -3.327  -9.514  1.00  0.00     0.093 A 
ATOM      8  C   UNL     1       5.315  -2.099 -10.177  1.00  0.00     0.123 A 
ATOM      9  C   UNL     1       4.558  -1.032  -9.700  1.00  0.00     0.094 A 
ATOM     10  C   UNL     1       3.743  -1.191  -8.576  1.00  0.00     0.146 A 
ATOM     11  O   UNL     1       3.024  -0.152  -8.160  1.00  0.00    -0.456 OA
ENDROOT
BRANCH   1  12
ATOM     12  C   UNL     1       1.457   1.026  -6.738  1.00  0.00     0.021 A 
ATOM     13  C   UNL     1       0.102   1.204  -7.077  1.00  0.00     0.016 A 
ATOM     14  C   UNL     1      -0.578   2.365  -6.697  1.00  0.00     0.051 A 
ATOM     15  C   UNL     1       0.079   3.363  -5.968  1.00  0.00     0.157 A 
ATOM     16  C   UNL     1       2.105   2.028  -5.993  1.00  0.00     0.062 A 
ATOM     17  C   UNL     1       1.427   3.191  -5.613  1.00  0.00     0.158 A 
BRANCH  15  18
ATOM     18  O   UNL     1      -0.602   4.520  -5.593  1.00  0.00    -0.504 OA
ATOM     19  H   UNL     1      -0.396   4.998  -4.724  1.00  0.00     0.293 HD
ENDBRANCH  15  18
BRANCH  17  20
ATOM     20  O   UNL     1       2.109   4.165  -4.883  1.00  0.00    -0.504 OA
ATOM     21  H   UNL     1       3.084   4.384  -5.058  1.00  0.00     0.293 HD
ENDBRANCH  17  20
ENDBRANCH   1  12
BRANCH   6  22
ATOM     22  O   UNL     1       4.606  -4.747  -7.727  1.00  0.00    -0.507 OA
ATOM     23  H   UNL     1       3.831  -5.360  -7.527  1.00  0.00     0.293 HD
ENDBRANCH   6  22
BRANCH   8  24
ATOM     24  O   UNL     1       6.106  -1.925 -11.312  1.00  0.00    -0.508 OA
ATOM     25  H   UNL     1       6.968  -2.443 -11.441  1.00  0.00     0.293 HD
ENDBRANCH   8  24
TORSDOF 5
ENDMDL
MODEL 7
REMARK VINA RESULT:    -5.663      2.578      7.181
REMARK INTER + INTRA:          -6.918
REMARK INTER:                  -6.654
REMARK INTRA:                  -0.264
REMARK UNBOUND:                -0.262
REMARK SMILES O=c1cc(-c2ccc(O)c(O)c2)oc2cc(O)cc(O)c12
REMARK SMILES IDX 4 1 3 2 2 3 1 4 21 5 19 6 18 7 16 8 15 9 14 10 13 11 5 12
REMARK SMILES IDX 6 13 7 14 8 15 12 16 10 17 9 18 11 20 20 22 17 24
REMARK H PARENT 9 19 11 21 20 23 17 25
REMARK Flexibility Score: inf
ROOT
ATOM      1  C   UNL     1       2.487  -2.883  -7.771  1.00  0.00     0.138 A 
ATOM      2  C   UNL     1       2.482  -1.501  -7.996  1.00  0.00     0.100 A 
ATOM      3  C   UNL     1       1.427  -0.727  -7.513  1.00  0.00     0.197 A 
ATOM      4  O   UNL     1       1.418   0.502  -7.785  1.00  0.00    -0.289 OA
ATOM      5  C   UNL     1       0.387  -1.338  -6.772  1.00  0.00     0.107 A 
ATOM      6  C   UNL     1      -0.717  -0.643  -6.196  1.00  0.00     0.134 A 
ATOM      7  C   UNL     1      -1.746  -1.370  -5.583  1.00  0.00     0.093 A 
ATOM      8  C   UNL     1      -1.679  -2.761  -5.473  1.00  0.00     0.123 A 
ATOM      9  C   UNL     1      -0.579  -3.444  -5.985  1.00  0.00     0.094 A 
ATOM     10  C   UNL     1       0.447  -2.750  -6.632  1.00  0.00     0.146 A 
ATOM     11  O   UNL     1       1.472  -3.441  -7.120  1.00  0.00    -0.456 OA
ENDROOT
BRANCH   1  12
ATOM     12  C   UNL     1       3.585  -3.754  -8.262  1.00  0.00     0.021 A 
ATOM     13  C   UNL     1       4.749  -3.976  -7.502  1.00  0.00     0.016 A 
ATOM     14  C   UNL     1       5.763  -4.809  -7.984  1.00  0.00     0.051 A 
ATOM     15  C   UNL     1       5.630  -5.440  -9.227  1.00  0.00     0.157 A 
ATOM     16  C   UNL     1       3.454  -4.403  -9.504  1.00  0.00     0.062 A 
ATOM     17  C   UNL     1       4.468  -5.236  -9.988  1.00  0.00     0.158 A 
BRANCH  15  18
ATOM     18  O   UNL     1       6.644  -6.269  -9.704  1.00  0.00    -0.504 OA
ATOM     19  H   UNL     1       7.092  -6.956  -9.110  1.00  0.00     0.293 HD
ENDBRANCH  15  18
BRANCH  17  20
ATOM     20  O   UNL     1       4.302  -5.853 -11.229  1.00  0.00    -0.504 OA
ATOM     21  H   UNL     1       3.709  -6.666 -11.351  1.00  0.00     0.293 HD
ENDBRANCH  17  20
ENDBRANCH   1  12
BRANCH   6  22
ATOM     22  O   UNL     1      -0.840   0.750  -6.175  1.00  0.00    -0.507 OA
ATOM     23  H   UNL     1      -0.312   1.366  -5.576  1.00  0.00     0.293 HD
ENDBRANCH   6  22
BRANCH   8  24
ATOM     24  O   UNL     1      -2.701  -3.474  -4.848  1.00  0.00    -0.508 OA
ATOM     25  H   UNL     1      -3.541  -3.743  -5.346  1.00  0.00     0.293 HD
ENDBRANCH   8  24
TORSDOF 5
ENDMDL
MODEL 8
REMARK VINA RESULT:    -5.660      4.862      7.359
REMARK INTER + INTRA:          -6.915
REMARK INTER:                  -6.645
REMARK INTRA:                  -0.270
REMARK UNBOUND:                -0.262
REMARK SMILES O=c1cc(-c2ccc(O)c(O)c2)oc2cc(O)cc(O)c12
REMARK SMILES IDX 4 1 3 2 2 3 1 4 21 5 19 6 18 7 16 8 15 9 14 10 13 11 5 12
REMARK SMILES IDX 6 13 7 14 8 15 12 16 10 17 9 18 11 20 20 22 17 24
REMARK H PARENT 9 19 11 21 20 23 17 25
REMARK Flexibility Score: inf
ROOT
ATOM      1  C   UNL     1       2.800  -7.760  -9.836  1.00  0.00     0.138 A 
ATOM      2  C   UNL     1       2.012  -7.243 -10.872  1.00  0.00     0.100 A 
ATOM      3  C   UNL     1       0.631  -7.431 -10.848  1.00  0.00     0.197 A 
ATOM      4  O   UNL     1      -0.043  -7.009 -11.824  1.00  0.00    -0.289 OA
ATOM      5  C   UNL     1       0.032  -8.114  -9.764  1.00  0.00     0.107 A 
ATOM      6  C   UNL     1      -1.371  -8.329  -9.613  1.00  0.00     0.134 A 
ATOM      7  C   UNL     1      -1.838  -9.121  -8.557  1.00  0.00     0.093 A 
ATOM      8  C   UNL     1      -0.958  -9.654  -7.612  1.00  0.00     0.123 A 
ATOM      9  C   UNL     1       0.408  -9.405  -7.719  1.00  0.00     0.094 A 
ATOM     10  C   UNL     1       0.908  -8.648  -8.782  1.00  0.00     0.146 A 
ATOM     11  O   UNL     1       2.220  -8.446  -8.856  1.00  0.00    -0.456 OA
ENDROOT
BRANCH   1  12
ATOM     12  C   UNL     1       4.275  -7.589  -9.810  1.00  0.00     0.021 A 
ATOM     13  C   UNL     1       4.872  -6.393  -9.366  1.00  0.00     0.016 A 
ATOM     14  C   UNL     1       6.264  -6.263  -9.342  1.00  0.00     0.051 A 
ATOM     15  C   UNL     1       7.082  -7.322  -9.753  1.00  0.00     0.157 A 
ATOM     16  C   UNL     1       5.104  -8.653 -10.208  1.00  0.00     0.062 A 
ATOM     17  C   UNL     1       6.497  -8.524 -10.185  1.00  0.00     0.158 A 
BRANCH  15  18
ATOM     18  O   UNL     1       8.469  -7.187  -9.729  1.00  0.00    -0.504 OA
ATOM     19  H   UNL     1       9.066  -7.911  -9.347  1.00  0.00     0.293 HD
ENDBRANCH  15  18
BRANCH  17  20
ATOM     20  O   UNL     1       7.283  -9.600 -10.598  1.00  0.00    -0.504 OA
ATOM     21  H   UNL     1       8.144  -9.470 -11.116  1.00  0.00     0.293 HD
ENDBRANCH  17  20
ENDBRANCH   1  12
BRANCH   6  22
ATOM     22  O   UNL     1      -2.342  -7.772 -10.452  1.00  0.00    -0.507 OA
ATOM     23  H   UNL     1      -2.202  -6.963 -11.037  1.00  0.00     0.293 HD
ENDBRANCH   6  22
BRANCH   8  24
ATOM     24  O   UNL     1      -1.434 -10.429  -6.555  1.00  0.00    -0.508 OA
ATOM     25  H   UNL     1      -2.366 -10.299  -6.180  1.00  0.00     0.293 HD
ENDBRANCH   8  24
TORSDOF 5
ENDMDL
MODEL 9
REMARK VINA RESULT:    -5.601      3.220      5.871
REMARK INTER + INTRA:          -6.846
REMARK INTER:                  -6.581
REMARK INTRA:                  -0.265
REMARK UNBOUND:                -0.262
REMARK SMILES O=c1cc(-c2ccc(O)c(O)c2)oc2cc(O)cc(O)c12
REMARK SMILES IDX 4 1 3 2 2 3 1 4 21 5 19 6 18 7 16 8 15 9 14 10 13 11 5 12
REMARK SMILES IDX 6 13 7 14 8 15 12 16 10 17 9 18 11 20 20 22 17 24
REMARK H PARENT 9 19 11 21 20 23 17 25
REMARK Flexibility Score: inf
ROOT
ATOM      1  C   UNL     1       2.114  -5.680 -11.384  1.00  0.00     0.138 A 
ATOM      2  C   UNL     1       2.532  -4.622 -10.567  1.00  0.00     0.100 A 
ATOM      3  C   UNL     1       3.743  -4.717  -9.880  1.00  0.00     0.197 A 
ATOM      4  O   UNL     1       4.062  -3.778  -9.105  1.00  0.00    -0.289 OA
ATOM      5  C   UNL     1       4.554  -5.865 -10.040  1.00  0.00     0.107 A 
ATOM      6  C   UNL     1       5.826  -6.054  -9.422  1.00  0.00     0.134 A 
ATOM      7  C   UNL     1       6.485  -7.282  -9.561  1.00  0.00     0.093 A 
ATOM      8  C   UNL     1       5.946  -8.304 -10.344  1.00  0.00     0.123 A 
ATOM      9  C   UNL     1       4.731  -8.111 -10.995  1.00  0.00     0.094 A 
ATOM     10  C   UNL     1       4.032  -6.910 -10.848  1.00  0.00     0.146 A 
ATOM     11  O   UNL     1       2.868  -6.771 -11.474  1.00  0.00    -0.456 OA
ENDROOT
BRANCH   1  12
ATOM     12  C   UNL     1       0.836  -5.632 -12.138  1.00  0.00     0.021 A 
ATOM     13  C   UNL     1      -0.391  -5.967 -11.534  1.00  0.00     0.016 A 
ATOM     14  C   UNL     1      -1.582  -5.903 -12.265  1.00  0.00     0.051 A 
ATOM     15  C   UNL     1      -1.569  -5.497 -13.604  1.00  0.00     0.157 A 
ATOM     16  C   UNL     1       0.837  -5.212 -13.481  1.00  0.00     0.062 A 
ATOM     17  C   UNL     1      -0.353  -5.147 -14.213  1.00  0.00     0.158 A 
BRANCH  15  18
ATOM     18  O   UNL     1      -2.758  -5.436 -14.329  1.00  0.00    -0.504 OA
ATOM     19  H   UNL     1      -2.773  -5.145 -15.300  1.00  0.00     0.293 HD
ENDBRANCH  15  18
BRANCH  17  20
ATOM     20  O   UNL     1      -0.306  -4.735 -15.545  1.00  0.00    -0.504 OA
ATOM     21  H   UNL     1       0.557  -4.440 -15.987  1.00  0.00     0.293 HD
ENDBRANCH  17  20
ENDBRANCH   1  12
BRANCH   6  22
ATOM     22  O   UNL     1       6.493  -5.067  -8.689  1.00  0.00    -0.507 OA
ATOM     23  H   UNL     1       6.594  -4.105  -8.975  1.00  0.00     0.293 HD
ENDBRANCH   6  22
BRANCH   8  24
ATOM     24  O   UNL     1       6.617  -9.518 -10.488  1.00  0.00    -0.508 OA
ATOM     25  H   UNL     1       6.221 -10.386 -10.148  1.00  0.00     0.293 HD
ENDBRANCH   8  24
TORSDOF 5
ENDMDL
