MODEL 1
REMARK VINA RESULT:    -5.081      0.000      0.000
REMARK INTER + INTRA:         -12.612
REMARK INTER:                  -9.833
REMARK INTRA:                  -2.779
REMARK UNBOUND:                -2.779
REMARK SMILES CCCCCCCCCCCCCCCCCC(=O)[O-]
REMARK SMILES IDX 10 1 11 2 12 3 13 4 14 5 15 6 16 7 17 8 18 9 19 10 20 11
REMARK SMILES IDX 9 12 8 13 7 14 6 15 5 16 4 17 3 18 2 19 1 20
REMARK H PARENT
REMARK Flexibility Score: inf
ROOT
ATOM      1  C   UNL     1      45.011 -12.717 -40.116  1.00  0.00     0.000 C 
ENDROOT
BRANCH   1   2
ATOM      2  C   UNL     1      46.312 -11.985 -39.737  1.00  0.00     0.000 C 
BRANCH   2   3
ATOM      3  C   UNL     1      47.133 -12.755 -38.692  1.00  0.00     0.000 C 
BRANCH   3   4
ATOM      4  C   UNL     1      46.329 -13.879 -38.016  1.00  0.00     0.000 C 
BRANCH   4   5
ATOM      5  C   UNL     1      47.062 -14.453 -36.786  1.00  0.00     0.000 C 
BRANCH   5   6
ATOM      6  C   UNL     1      47.603 -13.372 -35.832  1.00  0.00     0.000 C 
BRANCH   6   7
ATOM      7  C   UNL     1      46.776 -13.241 -34.546  1.00  0.00     0.006 C 
BRANCH   7   8
ATOM      8  C   UNL     1      46.105 -14.569 -34.187  1.00  0.00     0.053 C 
BRANCH   8   9
ATOM      9  C   UNL     1      45.596 -14.538 -32.781  1.00  0.00     0.041 C 
ATOM     10  O   UNL     1      44.849 -15.460 -32.357  1.00  0.00    -0.550 OA
ATOM     11  O   UNL     1      45.901 -13.464 -31.954  1.00  0.00    -0.550 OA
ENDBRANCH   8   9
ENDBRANCH   7   8
ENDBRANCH   6   7
ENDBRANCH   5   6
ENDBRANCH   4   5
ENDBRANCH   3   4
ENDBRANCH   2   3
ENDBRANCH   1   2
BRANCH   1  12
ATOM     12  C   UNL     1      44.022 -11.816 -40.875  1.00  0.00     0.000 C 
BRANCH  12  13
ATOM     13  C   UNL     1      43.404 -10.730 -39.979  1.00  0.00    -0.000 C 
BRANCH  13  14
ATOM     14  C   UNL     1      42.073 -11.174 -39.350  1.00  0.00    -0.000 C 
BRANCH  14  15
ATOM     15  C   UNL     1      42.030 -10.941 -37.829  1.00  0.00    -0.000 C 
BRANCH  15  16
ATOM     16  C   UNL     1      43.388 -10.503 -37.256  1.00  0.00    -0.000 C 
BRANCH  16  17
ATOM     17  C   UNL     1      44.045 -11.594 -36.394  1.00  0.00    -0.000 C 
BRANCH  17  18
ATOM     18  C   UNL     1      43.144 -12.827 -36.214  1.00  0.00    -0.000 C 
BRANCH  18  19
ATOM     19  C   UNL     1      42.737 -13.058 -34.751  1.00  0.00    -0.003 C 
ATOM     20  C   UNL     1      43.245 -11.933 -33.854  1.00  0.00     0.004 C 
ENDBRANCH  18  19
ENDBRANCH  17  18
ENDBRANCH  16  17
ENDBRANCH  15  16
ENDBRANCH  14  15
ENDBRANCH  13  14
ENDBRANCH  12  13
ENDBRANCH   1  12
TORSDOF 16
ENDMDL
MODEL 2
REMARK VINA RESULT:    -4.925      3.568      7.023
REMARK INTER + INTRA:         -12.310
REMARK INTER:                  -9.942
REMARK INTRA:                  -2.368
REMARK UNBOUND:                -2.779
REMARK SMILES CCCCCCCCCCCCCCCCCC(=O)[O-]
REMARK SMILES IDX 10 1 11 2 12 3 13 4 14 5 15 6 16 7 17 8 18 9 19 10 20 11
REMARK SMILES IDX 9 12 8 13 7 14 6 15 5 16 4 17 3 18 2 19 1 20
REMARK H PARENT
REMARK Flexibility Score: inf
ROOT
ATOM      1  C   UNL     1      42.343 -13.130 -34.953  1.00  0.00     0.000 C 
ENDROOT
BRANCH   1   2
ATOM      2  C   UNL     1      42.369 -12.256 -36.220  1.00  0.00     0.000 C 
BRANCH   2   3
ATOM      3  C   UNL     1      43.623 -11.371 -36.294  1.00  0.00     0.000 C 
BRANCH   3   4
ATOM      4  C   UNL     1      43.667 -10.509 -37.567  1.00  0.00     0.000 C 
BRANCH   4   5
ATOM      5  C   UNL     1      42.279 -10.387 -38.230  1.00  0.00     0.000 C 
BRANCH   5   6
ATOM      6  C   UNL     1      42.243 -10.899 -39.681  1.00  0.00     0.000 C 
BRANCH   6   7
ATOM      7  C   UNL     1      43.553 -10.640 -40.439  1.00  0.00     0.006 C 
BRANCH   7   8
ATOM      8  C   UNL     1      43.327 -10.673 -41.952  1.00  0.00     0.053 C 
BRANCH   8   9
ATOM      9  C   UNL     1      43.688 -12.014 -42.509  1.00  0.00     0.041 C 
ATOM     10  O   UNL     1      43.642 -12.217 -43.751  1.00  0.00    -0.550 OA
ATOM     11  O   UNL     1      44.022 -13.056 -41.653  1.00  0.00    -0.550 OA
ENDBRANCH   8   9
ENDBRANCH   7   8
ENDBRANCH   6   7
ENDBRANCH   5   6
ENDBRANCH   4   5
ENDBRANCH   3   4
ENDBRANCH   2   3
ENDBRANCH   1   2
BRANCH   1  12
ATOM     12  C   UNL     1      43.185 -12.543 -33.808  1.00  0.00     0.000 C 
BRANCH  12  13
ATOM     13  C   UNL     1      43.993 -13.615 -33.058  1.00  0.00    -0.000 C 
BRANCH  13  14
ATOM     14  C   UNL     1      44.668 -14.616 -34.010  1.00  0.00    -0.000 C 
BRANCH  14  15
ATOM     15  C   UNL     1      46.151 -14.285 -34.263  1.00  0.00    -0.000 C 
BRANCH  15  16
ATOM     16  C   UNL     1      46.432 -13.893 -35.723  1.00  0.00    -0.000 C 
BRANCH  16  17
ATOM     17  C   UNL     1      45.407 -14.489 -36.702  1.00  0.00    -0.000 C 
BRANCH  17  18
ATOM     18  C   UNL     1      45.707 -14.124 -38.165  1.00  0.00    -0.000 C 
BRANCH  18  19
ATOM     19  C   UNL     1      46.901 -13.169 -38.307  1.00  0.00    -0.003 C 
ATOM     20  C   UNL     1      46.724 -12.240 -39.505  1.00  0.00     0.004 C 
ENDBRANCH  18  19
ENDBRANCH  17  18
ENDBRANCH  16  17
ENDBRANCH  15  16
ENDBRANCH  14  15
ENDBRANCH  13  14
ENDBRANCH  12  13
ENDBRANCH   1  12
TORSDOF 16
ENDMDL
MODEL 3
REMARK VINA RESULT:    -4.903      2.724      5.747
REMARK INTER + INTRA:         -12.268
REMARK INTER:                  -9.888
REMARK INTRA:                  -2.379
REMARK UNBOUND:                -2.779
REMARK SMILES CCCCCCCCCCCCCCCCCC(=O)[O-]
REMARK SMILES IDX 10 1 11 2 12 3 13 4 14 5 15 6 16 7 17 8 18 9 19 10 20 11
REMARK SMILES IDX 9 12 8 13 7 14 6 15 5 16 4 17 3 18 2 19 1 20
REMARK H PARENT
REMARK Flexibility Score: inf
ROOT
ATOM      1  C   UNL     1      46.648 -14.162 -36.298  1.00  0.00     0.000 C 
ENDROOT
BRANCH   1   2
ATOM      2  C   UNL     1      46.020 -13.562 -37.570  1.00  0.00     0.000 C 
BRANCH   2   3
ATOM      3  C   UNL     1      47.079 -13.125 -38.594  1.00  0.00     0.000 C 
BRANCH   3   4
ATOM      4  C   UNL     1      46.530 -12.124 -39.625  1.00  0.00     0.000 C 
BRANCH   4   5
ATOM      5  C   UNL     1      45.116 -12.511 -40.109  1.00  0.00     0.000 C 
BRANCH   5   6
ATOM      6  C   UNL     1      44.085 -11.377 -39.964  1.00  0.00     0.000 C 
BRANCH   6   7
ATOM      7  C   UNL     1      44.513 -10.305 -38.952  1.00  0.00     0.006 C 
BRANCH   7   8
ATOM      8  C   UNL     1      43.859 -10.546 -37.589  1.00  0.00     0.053 C 
BRANCH   8   9
ATOM      9  C   UNL     1      42.425 -10.123 -37.611  1.00  0.00     0.041 C 
ATOM     10  O   UNL     1      41.510 -10.980 -37.484  1.00  0.00    -0.550 OA
ATOM     11  O   UNL     1      42.095  -8.791 -37.826  1.00  0.00    -0.550 OA
ENDBRANCH   8   9
ENDBRANCH   7   8
ENDBRANCH   6   7
ENDBRANCH   5   6
ENDBRANCH   4   5
ENDBRANCH   3   4
ENDBRANCH   2   3
ENDBRANCH   1   2
BRANCH   1  12
ATOM     12  C   UNL     1      47.036 -13.091 -35.265  1.00  0.00     0.000 C 
BRANCH  12  13
ATOM     13  C   UNL     1      48.316 -13.452 -34.493  1.00  0.00    -0.000 C 
BRANCH  13  14
ATOM     14  C   UNL     1      48.027 -14.280 -33.231  1.00  0.00    -0.000 C 
BRANCH  14  15
ATOM     15  C   UNL     1      46.643 -13.978 -32.628  1.00  0.00    -0.000 C 
BRANCH  15  16
ATOM     16  C   UNL     1      45.693 -15.186 -32.688  1.00  0.00    -0.000 C 
BRANCH  16  17
ATOM     17  C   UNL     1      44.357 -14.852 -33.374  1.00  0.00    -0.000 C 
BRANCH  17  18
ATOM     18  C   UNL     1      43.849 -13.445 -33.023  1.00  0.00    -0.000 C 
BRANCH  18  19
ATOM     19  C   UNL     1      43.482 -12.619 -34.265  1.00  0.00    -0.003 C 
ATOM     20  C   UNL     1      42.971 -13.514 -35.390  1.00  0.00     0.004 C 
ENDBRANCH  18  19
ENDBRANCH  17  18
ENDBRANCH  16  17
ENDBRANCH  15  16
ENDBRANCH  14  15
ENDBRANCH  13  14
ENDBRANCH  12  13
ENDBRANCH   1  12
TORSDOF 16
ENDMDL
MODEL 4
REMARK VINA RESULT:    -4.899      1.515      4.362
REMARK INTER + INTRA:         -12.260
REMARK INTER:                  -9.892
REMARK INTRA:                  -2.368
REMARK UNBOUND:                -2.779
REMARK SMILES CCCCCCCCCCCCCCCCCC(=O)[O-]
REMARK SMILES IDX 10 1 11 2 12 3 13 4 14 5 15 6 16 7 17 8 18 9 19 10 20 11
REMARK SMILES IDX 9 12 8 13 7 14 6 15 5 16 4 17 3 18 2 19 1 20
REMARK H PARENT
REMARK Flexibility Score: inf
ROOT
ATOM      1  C   UNL     1      45.765 -12.037 -39.867  1.00  0.00     0.000 C 
ENDROOT
BRANCH   1   2
ATOM      2  C   UNL     1      44.976 -10.870 -39.244  1.00  0.00     0.000 C 
BRANCH   2   3
ATOM      3  C   UNL     1      43.643 -11.328 -38.632  1.00  0.00     0.000 C 
BRANCH   3   4
ATOM      4  C   UNL     1      43.412 -10.761 -37.221  1.00  0.00     0.000 C 
BRANCH   4   5
ATOM      5  C   UNL     1      44.076 -11.632 -36.133  1.00  0.00     0.000 C 
BRANCH   5   6
ATOM      6  C   UNL     1      43.407 -13.006 -35.952  1.00  0.00     0.000 C 
BRANCH   6   7
ATOM      7  C   UNL     1      43.836 -13.715 -34.660  1.00  0.00     0.006 C 
BRANCH   7   8
ATOM      8  C   UNL     1      43.792 -12.756 -33.468  1.00  0.00     0.053 C 
BRANCH   8   9
ATOM      9  C   UNL     1      44.099 -13.482 -32.196  1.00  0.00     0.041 C 
ATOM     10  O   UNL     1      44.151 -14.740 -32.183  1.00  0.00    -0.550 OA
ATOM     11  O   UNL     1      44.275 -12.773 -31.015  1.00  0.00    -0.550 OA
ENDBRANCH   8   9
ENDBRANCH   7   8
ENDBRANCH   6   7
ENDBRANCH   5   6
ENDBRANCH   4   5
ENDBRANCH   3   4
ENDBRANCH   2   3
ENDBRANCH   1   2
BRANCH   1  12
ATOM     12  C   UNL     1      46.733 -12.698 -38.872  1.00  0.00     0.000 C 
BRANCH  12  13
ATOM     13  C   UNL     1      46.134 -13.951 -38.210  1.00  0.00    -0.000 C 
BRANCH  13  14
ATOM     14  C   UNL     1      46.825 -14.301 -36.882  1.00  0.00    -0.000 C 
BRANCH  14  15
ATOM     15  C   UNL     1      47.714 -13.159 -36.358  1.00  0.00    -0.000 C 
BRANCH  15  16
ATOM     16  C   UNL     1      48.430 -13.518 -35.045  1.00  0.00    -0.000 C 
BRANCH  16  17
ATOM     17  C   UNL     1      47.509 -13.397 -33.818  1.00  0.00    -0.000 C 
BRANCH  17  18
ATOM     18  C   UNL     1      47.627 -14.601 -32.870  1.00  0.00    -0.000 C 
BRANCH  18  19
ATOM     19  C   UNL     1      48.248 -14.232 -31.514  1.00  0.00    -0.003 C 
ATOM     20  C   UNL     1      48.276 -12.719 -31.316  1.00  0.00     0.004 C 
ENDBRANCH  18  19
ENDBRANCH  17  18
ENDBRANCH  16  17
ENDBRANCH  15  16
ENDBRANCH  14  15
ENDBRANCH  13  14
ENDBRANCH  12  13
ENDBRANCH   1  12
TORSDOF 16
ENDMDL
MODEL 5
REMARK VINA RESULT:    -4.856      2.682      5.737
REMARK INTER + INTRA:         -12.176
REMARK INTER:                 -10.224
REMARK INTRA:                  -1.952
REMARK UNBOUND:                -2.779
REMARK SMILES CCCCCCCCCCCCCCCCCC(=O)[O-]
REMARK SMILES IDX 10 1 11 2 12 3 13 4 14 5 15 6 16 7 17 8 18 9 19 10 20 11
REMARK SMILES IDX 9 12 8 13 7 14 6 15 5 16 4 17 3 18 2 19 1 20
REMARK H PARENT
REMARK Flexibility Score: inf
ROOT
ATOM      1  C   UNL     1      41.824 -10.455 -38.207  1.00  0.00     0.000 C 
ENDROOT
BRANCH   1   2
ATOM      2  C   UNL     1      41.634  -9.334 -39.245  1.00  0.00     0.000 C 
BRANCH   2   3
ATOM      3  C   UNL     1      40.878  -9.814 -40.493  1.00  0.00     0.000 C 
BRANCH   3   4
ATOM      4  C   UNL     1      41.708  -9.676 -41.780  1.00  0.00     0.000 C 
BRANCH   4   5
ATOM      5  C   UNL     1      43.170 -10.126 -41.575  1.00  0.00     0.000 C 
BRANCH   5   6
ATOM      6  C   UNL     1      43.490 -11.490 -42.213  1.00  0.00     0.000 C 
BRANCH   6   7
ATOM      7  C   UNL     1      44.117 -12.481 -41.223  1.00  0.00     0.006 C 
BRANCH   7   8
ATOM      8  C   UNL     1      44.950 -11.750 -40.168  1.00  0.00     0.053 C 
BRANCH   8   9
ATOM      9  C   UNL     1      46.038 -12.636 -39.650  1.00  0.00     0.041 C 
ATOM     10  O   UNL     1      47.236 -12.426 -39.978  1.00  0.00    -0.550 OA
ATOM     11  O   UNL     1      45.725 -13.728 -38.849  1.00  0.00    -0.550 OA
ENDBRANCH   8   9
ENDBRANCH   7   8
ENDBRANCH   6   7
ENDBRANCH   5   6
ENDBRANCH   4   5
ENDBRANCH   3   4
ENDBRANCH   2   3
ENDBRANCH   1   2
BRANCH   1  12
ATOM     12  C   UNL     1      43.174 -10.365 -37.477  1.00  0.00     0.000 C 
BRANCH  12  13
ATOM     13  C   UNL     1      43.497 -11.637 -36.673  1.00  0.00    -0.000 C 
BRANCH  13  14
ATOM     14  C   UNL     1      42.232 -12.384 -36.222  1.00  0.00    -0.000 C 
BRANCH  14  15
ATOM     15  C   UNL     1      42.332 -12.899 -34.775  1.00  0.00    -0.000 C 
BRANCH  15  16
ATOM     16  C   UNL     1      43.308 -12.075 -33.918  1.00  0.00    -0.000 C 
BRANCH  16  17
ATOM     17  C   UNL     1      43.802 -12.845 -32.681  1.00  0.00    -0.000 C 
BRANCH  17  18
ATOM     18  C   UNL     1      44.860 -13.904 -33.028  1.00  0.00    -0.000 C 
BRANCH  18  19
ATOM     19  C   UNL     1      45.895 -13.400 -34.045  1.00  0.00    -0.003 C 
ATOM     20  C   UNL     1      45.892 -14.261 -35.305  1.00  0.00     0.004 C 
ENDBRANCH  18  19
ENDBRANCH  17  18
ENDBRANCH  16  17
ENDBRANCH  15  16
ENDBRANCH  14  15
ENDBRANCH  13  14
ENDBRANCH  12  13
ENDBRANCH   1  12
TORSDOF 16
ENDMDL
MODEL 6
REMARK VINA RESULT:    -4.851      1.339      3.691
REMARK INTER + INTRA:         -12.168
REMARK INTER:                  -9.532
REMARK INTRA:                  -2.635
REMARK UNBOUND:                -2.779
REMARK SMILES CCCCCCCCCCCCCCCCCC(=O)[O-]
REMARK SMILES IDX 10 1 11 2 12 3 13 4 14 5 15 6 16 7 17 8 18 9 19 10 20 11
REMARK SMILES IDX 9 12 8 13 7 14 6 15 5 16 4 17 3 18 2 19 1 20
REMARK H PARENT
REMARK Flexibility Score: inf
ROOT
ATOM      1  C   UNL     1      45.585 -14.037 -36.271  1.00  0.00     0.000 C 
ENDROOT
BRANCH   1   2
ATOM      2  C   UNL     1      47.065 -14.408 -36.480  1.00  0.00     0.000 C 
BRANCH   2   3
ATOM      3  C   UNL     1      48.010 -13.237 -36.172  1.00  0.00     0.000 C 
BRANCH   3   4
ATOM      4  C   UNL     1      49.125 -13.618 -35.183  1.00  0.00     0.000 C 
BRANCH   4   5
ATOM      5  C   UNL     1      48.770 -13.223 -33.734  1.00  0.00     0.000 C 
BRANCH   5   6
ATOM      6  C   UNL     1      48.184 -14.381 -32.907  1.00  0.00     0.000 C 
BRANCH   6   7
ATOM      7  C   UNL     1      46.733 -14.131 -32.473  1.00  0.00     0.006 C 
BRANCH   7   8
ATOM      8  C   UNL     1      45.892 -15.403 -32.611  1.00  0.00     0.053 C 
BRANCH   8   9
ATOM      9  C   UNL     1      44.479 -15.063 -32.968  1.00  0.00     0.041 C 
ATOM     10  O   UNL     1      43.842 -15.781 -33.783  1.00  0.00    -0.550 OA
ATOM     11  O   UNL     1      43.884 -13.923 -32.442  1.00  0.00    -0.550 OA
ENDBRANCH   8   9
ENDBRANCH   7   8
ENDBRANCH   6   7
ENDBRANCH   5   6
ENDBRANCH   4   5
ENDBRANCH   3   4
ENDBRANCH   2   3
ENDBRANCH   1   2
BRANCH   1  12
ATOM     12  C   UNL     1      45.393 -12.570 -35.853  1.00  0.00     0.000 C 
BRANCH  12  13
ATOM     13  C   UNL     1      43.923 -12.226 -35.559  1.00  0.00    -0.000 C 
BRANCH  13  14
ATOM     14  C   UNL     1      43.123 -11.926 -36.836  1.00  0.00    -0.000 C 
BRANCH  14  15
ATOM     15  C   UNL     1      43.502 -10.575 -37.469  1.00  0.00    -0.000 C 
BRANCH  15  16
ATOM     16  C   UNL     1      43.185 -10.513 -38.973  1.00  0.00    -0.000 C 
BRANCH  16  17
ATOM     17  C   UNL     1      44.409 -10.829 -39.848  1.00  0.00    -0.000 C 
BRANCH  17  18
ATOM     18  C   UNL     1      44.397 -12.271 -40.382  1.00  0.00    -0.000 C 
BRANCH  18  19
ATOM     19  C   UNL     1      45.553 -13.119 -39.830  1.00  0.00    -0.003 C 
ATOM     20  C   UNL     1      46.788 -12.261 -39.570  1.00  0.00     0.004 C 
ENDBRANCH  18  19
ENDBRANCH  17  18
ENDBRANCH  16  17
ENDBRANCH  15  16
ENDBRANCH  14  15
ENDBRANCH  13  14
ENDBRANCH  12  13
ENDBRANCH   1  12
TORSDOF 16
ENDMDL
MODEL 7
REMARK VINA RESULT:    -4.808      3.232      7.086
REMARK INTER + INTRA:         -12.083
REMARK INTER:                  -9.649
REMARK INTRA:                  -2.434
REMARK UNBOUND:                -2.779
REMARK SMILES CCCCCCCCCCCCCCCCCC(=O)[O-]
REMARK SMILES IDX 10 1 11 2 12 3 13 4 14 5 15 6 16 7 17 8 18 9 19 10 20 11
REMARK SMILES IDX 9 12 8 13 7 14 6 15 5 16 4 17 3 18 2 19 1 20
REMARK H PARENT
REMARK Flexibility Score: inf
ROOT
ATOM      1  C   UNL     1      44.582 -13.436 -32.599  1.00  0.00     0.000 C 
ENDROOT
BRANCH   1   2
ATOM      2  C   UNL     1      43.564 -12.728 -33.513  1.00  0.00     0.000 C 
BRANCH   2   3
ATOM      3  C   UNL     1      43.101 -13.620 -34.675  1.00  0.00     0.000 C 
BRANCH   3   4
ATOM      4  C   UNL     1      43.021 -12.862 -36.011  1.00  0.00     0.000 C 
BRANCH   4   5
ATOM      5  C   UNL     1      43.912 -11.602 -36.013  1.00  0.00     0.000 C 
BRANCH   5   6
ATOM      6  C   UNL     1      43.749 -10.737 -37.276  1.00  0.00     0.000 C 
BRANCH   6   7
ATOM      7  C   UNL     1      42.648 -11.248 -38.214  1.00  0.00     0.006 C 
BRANCH   7   8
ATOM      8  C   UNL     1      42.488 -10.328 -39.426  1.00  0.00     0.053 C 
BRANCH   8   9
ATOM      9  C   UNL     1      43.388 -10.763 -40.540  1.00  0.00     0.041 C 
ATOM     10  O   UNL     1      43.581 -10.009 -41.529  1.00  0.00    -0.550 OA
ATOM     11  O   UNL     1      43.969 -12.025 -40.511  1.00  0.00    -0.550 OA
ENDBRANCH   8   9
ENDBRANCH   7   8
ENDBRANCH   6   7
ENDBRANCH   5   6
ENDBRANCH   4   5
ENDBRANCH   3   4
ENDBRANCH   2   3
ENDBRANCH   1   2
BRANCH   1  12
ATOM     12  C   UNL     1      44.944 -14.846 -33.094  1.00  0.00     0.000 C 
BRANCH  12  13
ATOM     13  C   UNL     1      46.265 -15.360 -32.498  1.00  0.00    -0.000 C 
BRANCH  13  14
ATOM     14  C   UNL     1      47.300 -14.240 -32.309  1.00  0.00    -0.000 C 
BRANCH  14  15
ATOM     15  C   UNL     1      48.431 -14.295 -33.352  1.00  0.00    -0.000 C 
BRANCH  15  16
ATOM     16  C   UNL     1      48.426 -13.084 -34.299  1.00  0.00    -0.000 C 
BRANCH  16  17
ATOM     17  C   UNL     1      47.232 -13.097 -35.268  1.00  0.00    -0.000 C 
BRANCH  17  18
ATOM     18  C   UNL     1      47.287 -14.273 -36.256  1.00  0.00    -0.000 C 
BRANCH  18  19
ATOM     19  C   UNL     1      46.214 -14.180 -37.351  1.00  0.00    -0.003 C 
ATOM     20  C   UNL     1      46.584 -13.132 -38.397  1.00  0.00     0.004 C 
ENDBRANCH  18  19
ENDBRANCH  17  18
ENDBRANCH  16  17
ENDBRANCH  15  16
ENDBRANCH  14  15
ENDBRANCH  13  14
ENDBRANCH  12  13
ENDBRANCH   1  12
TORSDOF 16
ENDMDL
MODEL 8
REMARK VINA RESULT:    -4.792      1.536      3.817
REMARK INTER + INTRA:         -12.054
REMARK INTER:                  -9.986
REMARK INTRA:                  -2.067
REMARK UNBOUND:                -2.779
REMARK SMILES CCCCCCCCCCCCCCCCCC(=O)[O-]
REMARK SMILES IDX 10 1 11 2 12 3 13 4 14 5 15 6 16 7 17 8 18 9 19 10 20 11
REMARK SMILES IDX 9 12 8 13 7 14 6 15 5 16 4 17 3 18 2 19 1 20
REMARK H PARENT
REMARK Flexibility Score: inf
ROOT
ATOM      1  C   UNL     1      41.781 -11.250 -37.747  1.00  0.00     0.000 C 
ENDROOT
BRANCH   1   2
ATOM      2  C   UNL     1      42.689 -12.061 -36.804  1.00  0.00     0.000 C 
BRANCH   2   3
ATOM      3  C   UNL     1      43.955 -11.288 -36.404  1.00  0.00     0.000 C 
BRANCH   3   4
ATOM      4  C   UNL     1      44.710 -11.949 -35.237  1.00  0.00     0.000 C 
BRANCH   4   5
ATOM      5  C   UNL     1      44.612 -13.488 -35.284  1.00  0.00     0.000 C 
BRANCH   5   6
ATOM      6  C   UNL     1      45.838 -14.201 -34.686  1.00  0.00     0.000 C 
BRANCH   6   7
ATOM      7  C   UNL     1      45.618 -14.654 -33.236  1.00  0.00     0.006 C 
BRANCH   7   8
ATOM      8  C   UNL     1      45.963 -13.534 -32.252  1.00  0.00     0.053 C 
BRANCH   8   9
ATOM      9  C   UNL     1      47.431 -13.522 -31.962  1.00  0.00     0.041 C 
ATOM     10  O   UNL     1      47.979 -12.481 -31.513  1.00  0.00    -0.550 OA
ATOM     11  O   UNL     1      48.204 -14.643 -32.240  1.00  0.00    -0.550 OA
ENDBRANCH   8   9
ENDBRANCH   7   8
ENDBRANCH   6   7
ENDBRANCH   5   6
ENDBRANCH   4   5
ENDBRANCH   3   4
ENDBRANCH   2   3
ENDBRANCH   1   2
BRANCH   1  12
ATOM     12  C   UNL     1      42.228  -9.786 -37.889  1.00  0.00     0.000 C 
BRANCH  12  13
ATOM     13  C   UNL     1      42.122  -9.273 -39.335  1.00  0.00    -0.000 C 
BRANCH  13  14
ATOM     14  C   UNL     1      42.023 -10.416 -40.358  1.00  0.00    -0.000 C 
BRANCH  14  15
ATOM     15  C   UNL     1      43.081 -10.307 -41.471  1.00  0.00    -0.000 C 
BRANCH  15  16
ATOM     16  C   UNL     1      43.899 -11.599 -41.641  1.00  0.00    -0.000 C 
BRANCH  16  17
ATOM     17  C   UNL     1      44.345 -12.196 -40.296  1.00  0.00    -0.000 C 
BRANCH  17  18
ATOM     18  C   UNL     1      45.522 -11.431 -39.671  1.00  0.00    -0.000 C 
BRANCH  18  19
ATOM     19  C   UNL     1      46.735 -12.331 -39.391  1.00  0.00    -0.003 C 
ATOM     20  C   UNL     1      46.352 -13.509 -38.500  1.00  0.00     0.004 C 
ENDBRANCH  18  19
ENDBRANCH  17  18
ENDBRANCH  16  17
ENDBRANCH  15  16
ENDBRANCH  14  15
ENDBRANCH  13  14
ENDBRANCH  12  13
ENDBRANCH   1  12
TORSDOF 16
ENDMDL
MODEL 9
REMARK VINA RESULT:    -4.741      3.430      6.423
REMARK INTER + INTRA:         -11.954
REMARK INTER:                  -9.620
REMARK INTRA:                  -2.335
REMARK UNBOUND:                -2.779
REMARK SMILES CCCCCCCCCCCCCCCCCC(=O)[O-]
REMARK SMILES IDX 10 1 11 2 12 3 13 4 14 5 15 6 16 7 17 8 18 9 19 10 20 11
REMARK SMILES IDX 9 12 8 13 7 14 6 15 5 16 4 17 3 18 2 19 1 20
REMARK H PARENT
REMARK Flexibility Score: inf
ROOT
ATOM      1  C   UNL     1      46.721 -14.532 -37.327  1.00  0.00     0.000 C 
ENDROOT
BRANCH   1   2
ATOM      2  C   UNL     1      45.892 -13.883 -38.450  1.00  0.00     0.000 C 
BRANCH   2   3
ATOM      3  C   UNL     1      46.636 -12.723 -39.130  1.00  0.00     0.000 C 
BRANCH   3   4
ATOM      4  C   UNL     1      45.724 -11.517 -39.411  1.00  0.00     0.000 C 
BRANCH   4   5
ATOM      5  C   UNL     1      44.293 -11.950 -39.791  1.00  0.00     0.000 C 
BRANCH   5   6
ATOM      6  C   UNL     1      43.926 -11.646 -41.255  1.00  0.00     0.000 C 
BRANCH   6   7
ATOM      7  C   UNL     1      43.523 -10.182 -41.479  1.00  0.00     0.006 C 
BRANCH   7   8
ATOM      8  C   UNL     1      42.005 -10.044 -41.607  1.00  0.00     0.053 C 
BRANCH   8   9
ATOM      9  C   UNL     1      41.425  -9.439 -40.368  1.00  0.00     0.041 C 
ATOM     10  O   UNL     1      42.181  -9.054 -39.437  1.00  0.00    -0.550 OA
ATOM     11  O   UNL     1      40.046  -9.350 -40.216  1.00  0.00    -0.550 OA
ENDBRANCH   8   9
ENDBRANCH   7   8
ENDBRANCH   6   7
ENDBRANCH   5   6
ENDBRANCH   4   5
ENDBRANCH   3   4
ENDBRANCH   2   3
ENDBRANCH   1   2
BRANCH   1  12
ATOM     12  C   UNL     1      47.496 -13.502 -36.489  1.00  0.00     0.000 C 
BRANCH  12  13
ATOM     13  C   UNL     1      47.814 -14.012 -35.073  1.00  0.00    -0.000 C 
BRANCH  13  14
ATOM     14  C   UNL     1      46.928 -13.359 -34.000  1.00  0.00    -0.000 C 
BRANCH  14  15
ATOM     15  C   UNL     1      46.133 -14.392 -33.180  1.00  0.00    -0.000 C 
BRANCH  15  16
ATOM     16  C   UNL     1      44.612 -14.221 -33.324  1.00  0.00    -0.000 C 
BRANCH  16  17
ATOM     17  C   UNL     1      44.047 -14.967 -34.544  1.00  0.00    -0.000 C 
BRANCH  17  18
ATOM     18  C   UNL     1      43.534 -14.013 -35.635  1.00  0.00    -0.000 C 
BRANCH  18  19
ATOM     19  C   UNL     1      43.363 -12.572 -35.131  1.00  0.00    -0.003 C 
ATOM     20  C   UNL     1      44.244 -11.605 -35.919  1.00  0.00     0.004 C 
ENDBRANCH  18  19
ENDBRANCH  17  18
ENDBRANCH  16  17
ENDBRANCH  15  16
ENDBRANCH  14  15
ENDBRANCH  13  14
ENDBRANCH  12  13
ENDBRANCH   1  12
TORSDOF 16
ENDMDL
