MODEL 1
REMARK VINA RESULT:    -5.565      0.000      0.000
REMARK INTER + INTRA:          -7.591
REMARK INTER:                  -7.192
REMARK INTRA:                  -0.399
REMARK UNBOUND:                -0.399
REMARK SMILES CO[C@@]1(CO)O[C@@H](CO)[C@H](O)[C@H]1O
REMARK SMILES IDX 3 1 12 2 10 3 7 4 6 5 2 6 1 7 4 8 5 9 13 11 11 13 8 15 9 16
REMARK H PARENT 5 10 13 12 11 14 9 17
REMARK Flexibility Score: inf
ROOT
ATOM      1  C   UNL     1      15.944   0.359 -10.043  1.00  0.00     0.221 C 
ATOM      2  C   UNL     1      16.895   0.908 -11.128  1.00  0.00     0.207 C 
ATOM      3  C   UNL     1      16.114   0.745 -12.414  1.00  0.00     0.180 C 
ATOM      4  C   UNL     1      14.664   0.574 -11.936  1.00  0.00     0.179 C 
ATOM      5  O   UNL     1      14.631   0.559 -10.523  1.00  0.00    -0.337 OA
ENDROOT
BRANCH   1   6
ATOM      6  O   UNL     1      16.058   1.087  -8.820  1.00  0.00    -0.349 OA
ATOM      7  C   UNL     1      15.758   0.315  -7.672  1.00  0.00     0.198 C 
ENDBRANCH   1   6
BRANCH   1   8
ATOM      8  C   UNL     1      16.134  -1.168  -9.831  1.00  0.00     0.224 C 
BRANCH   8   9
ATOM      9  O   UNL     1      17.392  -1.562 -10.308  1.00  0.00    -0.391 OA
ATOM     10  H   UNL     1      17.485  -2.524 -10.082  1.00  0.00     0.210 HD
ENDBRANCH   8   9
ENDBRANCH   1   8
BRANCH   2  11
ATOM     11  O   UNL     1      17.213   2.265 -10.909  1.00  0.00    -0.385 OA
ATOM     12  H   UNL     1      17.445   2.377  -9.950  1.00  0.00     0.211 HD
ENDBRANCH   2  11
BRANCH   3  13
ATOM     13  O   UNL     1      16.548  -0.404 -13.095  1.00  0.00    -0.387 OA
ATOM     14  H   UNL     1      17.126  -0.091 -13.838  1.00  0.00     0.211 HD
ENDBRANCH   3  13
BRANCH   4  15
ATOM     15  C   UNL     1      13.751   1.693 -12.447  1.00  0.00     0.191 C 
BRANCH  15  16
ATOM     16  O   UNL     1      14.338   2.323 -13.552  1.00  0.00    -0.394 OA
ATOM     17  H   UNL     1      14.536   1.603 -14.206  1.00  0.00     0.210 HD
ENDBRANCH  15  16
ENDBRANCH   4  15
TORSDOF 7
ENDMDL
MODEL 2
REMARK VINA RESULT:    -5.550      3.927      5.581
REMARK INTER + INTRA:          -7.571
REMARK INTER:                  -7.172
REMARK INTRA:                  -0.399
REMARK UNBOUND:                -0.399
REMARK SMILES CO[C@@]1(CO)O[C@@H](CO)[C@H](O)[C@H]1O
REMARK SMILES IDX 3 1 12 2 10 3 7 4 6 5 2 6 1 7 4 8 5 9 13 11 11 13 8 15 9 16
REMARK H PARENT 5 10 13 12 11 14 9 17
REMARK Flexibility Score: inf
ROOT
ATOM      1  C   UNL     1      20.006  -0.370 -10.107  1.00  0.00     0.221 C 
ATOM      2  C   UNL     1      19.126  -0.902 -11.258  1.00  0.00     0.207 C 
ATOM      3  C   UNL     1      19.996  -0.745 -12.486  1.00  0.00     0.180 C 
ATOM      4  C   UNL     1      21.412  -0.594 -11.907  1.00  0.00     0.179 C 
ATOM      5  O   UNL     1      21.346  -0.586 -10.495  1.00  0.00    -0.337 OA
ENDROOT
BRANCH   1   6
ATOM      6  O   UNL     1      19.797  -1.102  -8.898  1.00  0.00    -0.349 OA
ATOM      7  C   UNL     1      20.527  -0.594  -7.797  1.00  0.00     0.198 C 
ENDBRANCH   1   6
BRANCH   1   8
ATOM      8  C   UNL     1      19.821   1.158  -9.901  1.00  0.00     0.224 C 
BRANCH   8   9
ATOM      9  O   UNL     1      18.598   1.568 -10.450  1.00  0.00    -0.391 OA
ATOM     10  H   UNL     1      18.022   1.824  -9.683  1.00  0.00     0.210 HD
ENDBRANCH   8   9
ENDBRANCH   1   8
BRANCH   2  11
ATOM     11  O   UNL     1      18.775  -2.256 -11.069  1.00  0.00    -0.385 OA
ATOM     12  H   UNL     1      19.581  -2.811 -11.242  1.00  0.00     0.211 HD
ENDBRANCH   2  11
BRANCH   3  13
ATOM     13  O   UNL     1      19.626   0.413 -13.190  1.00  0.00    -0.387 OA
ATOM     14  H   UNL     1      19.430   1.107 -12.508  1.00  0.00     0.211 HD
ENDBRANCH   3  13
BRANCH   4  15
ATOM     15  C   UNL     1      22.344  -1.724 -12.358  1.00  0.00     0.191 C 
BRANCH  15  16
ATOM     16  O   UNL     1      21.805  -2.371 -13.478  1.00  0.00    -0.394 OA
ATOM     17  H   UNL     1      22.282  -3.238 -13.551  1.00  0.00     0.210 HD
ENDBRANCH  15  16
ENDBRANCH   4  15
TORSDOF 7
ENDMDL
MODEL 3
REMARK VINA RESULT:    -5.470      4.322      5.206
REMARK INTER + INTRA:          -7.467
REMARK INTER:                  -7.135
REMARK INTRA:                  -0.332
REMARK UNBOUND:                -0.399
REMARK SMILES CO[C@@]1(CO)O[C@@H](CO)[C@H](O)[C@H]1O
REMARK SMILES IDX 3 1 12 2 10 3 7 4 6 5 2 6 1 7 4 8 5 9 13 11 11 13 8 15 9 16
REMARK H PARENT 5 10 13 12 11 14 9 17
REMARK Flexibility Score: inf
ROOT
ATOM      1  C   UNL     1      20.528  -0.305 -10.207  1.00  0.00     0.221 C 
ATOM      2  C   UNL     1      21.211  -0.587 -11.562  1.00  0.00     0.207 C 
ATOM      3  C   UNL     1      20.665   0.487 -12.478  1.00  0.00     0.180 C 
ATOM      4  C   UNL     1      20.111   1.541 -11.506  1.00  0.00     0.179 C 
ATOM      5  O   UNL     1      20.255   1.080 -10.178  1.00  0.00    -0.337 OA
ENDROOT
BRANCH   1   6
ATOM      6  O   UNL     1      21.395  -0.585  -9.107  1.00  0.00    -0.349 OA
ATOM      7  C   UNL     1      20.712  -0.757  -7.879  1.00  0.00     0.198 C 
ENDBRANCH   1   6
BRANCH   1   8
ATOM      8  C   UNL     1      19.170  -1.050 -10.081  1.00  0.00     0.224 C 
BRANCH   8   9
ATOM      9  O   UNL     1      19.185  -2.203 -10.879  1.00  0.00    -0.391 OA
ATOM     10  H   UNL     1      19.647  -1.951 -11.720  1.00  0.00     0.210 HD
ENDBRANCH   8   9
ENDBRANCH   1   8
BRANCH   2  11
ATOM     11  O   UNL     1      22.616  -0.494 -11.471  1.00  0.00    -0.385 OA
ATOM     12  H   UNL     1      22.838   0.308 -10.928  1.00  0.00     0.211 HD
ENDBRANCH   2  11
BRANCH   3  13
ATOM     13  O   UNL     1      19.634  -0.042 -13.272  1.00  0.00    -0.387 OA
ATOM     14  H   UNL     1      18.783   0.175 -12.809  1.00  0.00     0.211 HD
ENDBRANCH   3  13
BRANCH   4  15
ATOM     15  C   UNL     1      20.825   2.889 -11.648  1.00  0.00     0.191 C 
BRANCH  15  16
ATOM     16  O   UNL     1      21.100   3.421 -10.382  1.00  0.00    -0.394 OA
ATOM     17  H   UNL     1      20.712   4.334 -10.377  1.00  0.00     0.210 HD
ENDBRANCH  15  16
ENDBRANCH   4  15
TORSDOF 7
ENDMDL
MODEL 4
REMARK VINA RESULT:    -5.456      1.567      2.835
REMARK INTER + INTRA:          -7.449
REMARK INTER:                  -7.275
REMARK INTRA:                  -0.174
REMARK UNBOUND:                -0.399
REMARK SMILES CO[C@@]1(CO)O[C@@H](CO)[C@H](O)[C@H]1O
REMARK SMILES IDX 3 1 12 2 10 3 7 4 6 5 2 6 1 7 4 8 5 9 13 11 11 13 8 15 9 16
REMARK H PARENT 5 10 13 12 11 14 9 17
REMARK Flexibility Score: inf
ROOT
ATOM      1  C   UNL     1      16.595  -1.102 -11.385  1.00  0.00     0.221 C 
ATOM      2  C   UNL     1      16.461  -0.267 -10.093  1.00  0.00     0.207 C 
ATOM      3  C   UNL     1      16.172   1.133 -10.591  1.00  0.00     0.180 C 
ATOM      4  C   UNL     1      15.707   0.911 -12.039  1.00  0.00     0.179 C 
ATOM      5  O   UNL     1      15.797  -0.463 -12.359  1.00  0.00    -0.337 OA
ENDROOT
BRANCH   1   6
ATOM      6  O   UNL     1      16.077  -2.422 -11.219  1.00  0.00    -0.349 OA
ATOM      7  C   UNL     1      15.042  -2.742 -12.130  1.00  0.00     0.198 C 
ENDBRANCH   1   6
BRANCH   1   8
ATOM      8  C   UNL     1      18.056  -1.112 -11.914  1.00  0.00     0.224 C 
BRANCH   8   9
ATOM      9  O   UNL     1      18.735  -2.232 -11.414  1.00  0.00    -0.391 OA
ATOM     10  H   UNL     1      18.252  -2.504 -10.591  1.00  0.00     0.210 HD
ENDBRANCH   8   9
ENDBRANCH   1   8
BRANCH   2  11
ATOM     11  O   UNL     1      15.408  -0.730  -9.276  1.00  0.00    -0.385 OA
ATOM     12  H   UNL     1      14.927  -1.447  -9.767  1.00  0.00     0.211 HD
ENDBRANCH   2  11
BRANCH   3  13
ATOM     13  O   UNL     1      17.347   1.902 -10.564  1.00  0.00    -0.387 OA
ATOM     14  H   UNL     1      17.964   1.452  -9.930  1.00  0.00     0.211 HD
ENDBRANCH   3  13
BRANCH   4  15
ATOM     15  C   UNL     1      14.266   1.383 -12.261  1.00  0.00     0.191 C 
BRANCH  15  16
ATOM     16  O   UNL     1      14.202   2.213 -13.388  1.00  0.00    -0.394 OA
ATOM     17  H   UNL     1      13.328   2.026 -13.819  1.00  0.00     0.210 HD
ENDBRANCH  15  16
ENDBRANCH   4  15
TORSDOF 7
ENDMDL
MODEL 5
REMARK VINA RESULT:    -5.442      1.537      3.120
REMARK INTER + INTRA:          -7.432
REMARK INTER:                  -7.083
REMARK INTRA:                  -0.349
REMARK UNBOUND:                -0.399
REMARK SMILES CO[C@@]1(CO)O[C@@H](CO)[C@H](O)[C@H]1O
REMARK SMILES IDX 3 1 12 2 10 3 7 4 6 5 2 6 1 7 4 8 5 9 13 11 11 13 8 15 9 16
REMARK H PARENT 5 10 13 12 11 14 9 17
REMARK Flexibility Score: inf
ROOT
ATOM      1  C   UNL     1      15.571   0.226 -10.197  1.00  0.00     0.221 C 
ATOM      2  C   UNL     1      14.875   0.530 -11.542  1.00  0.00     0.207 C 
ATOM      3  C   UNL     1      15.441  -0.506 -12.489  1.00  0.00     0.180 C 
ATOM      4  C   UNL     1      16.023  -1.574 -11.549  1.00  0.00     0.179 C 
ATOM      5  O   UNL     1      15.875  -1.153 -10.208  1.00  0.00    -0.337 OA
ENDROOT
BRANCH   1   6
ATOM      6  O   UNL     1      14.703   0.456  -9.087  1.00  0.00    -0.349 OA
ATOM      7  C   UNL     1      15.389   0.762  -7.887  1.00  0.00     0.198 C 
ENDBRANCH   1   6
BRANCH   1   8
ATOM      8  C   UNL     1      16.912   0.997 -10.057  1.00  0.00     0.224 C 
BRANCH   8   9
ATOM      9  O   UNL     1      16.888   2.144 -10.862  1.00  0.00    -0.391 OA
ATOM     10  H   UNL     1      17.396   2.840 -10.368  1.00  0.00     0.210 HD
ENDBRANCH   8   9
ENDBRANCH   1   8
BRANCH   2  11
ATOM     11  O   UNL     1      13.474   0.403 -11.448  1.00  0.00    -0.385 OA
ATOM     12  H   UNL     1      13.262  -0.545 -11.238  1.00  0.00     0.211 HD
ENDBRANCH   2  11
BRANCH   3  13
ATOM     13  O   UNL     1      16.457   0.067 -13.272  1.00  0.00    -0.387 OA
ATOM     14  H   UNL     1      16.175  -0.034 -14.218  1.00  0.00     0.211 HD
ENDBRANCH   3  13
BRANCH   4  15
ATOM     15  C   UNL     1      15.338  -2.933 -11.726  1.00  0.00     0.191 C 
BRANCH  15  16
ATOM     16  O   UNL     1      15.076  -3.503 -10.473  1.00  0.00    -0.394 OA
ATOM     17  H   UNL     1      14.175  -3.182 -10.207  1.00  0.00     0.210 HD
ENDBRANCH  15  16
ENDBRANCH   4  15
TORSDOF 7
ENDMDL
MODEL 6
REMARK VINA RESULT:    -5.422      1.271      4.065
REMARK INTER + INTRA:          -7.406
REMARK INTER:                  -6.931
REMARK INTRA:                  -0.475
REMARK UNBOUND:                -0.399
REMARK SMILES CO[C@@]1(CO)O[C@@H](CO)[C@H](O)[C@H]1O
REMARK SMILES IDX 3 1 12 2 10 3 7 4 6 5 2 6 1 7 4 8 5 9 13 11 11 13 8 15 9 16
REMARK H PARENT 5 10 13 12 11 14 9 17
REMARK Flexibility Score: inf
ROOT
ATOM      1  C   UNL     1      15.127  -0.385 -12.050  1.00  0.00     0.221 C 
ATOM      2  C   UNL     1      16.450   0.363 -12.325  1.00  0.00     0.207 C 
ATOM      3  C   UNL     1      16.879   0.859 -10.961  1.00  0.00     0.180 C 
ATOM      4  C   UNL     1      16.066  -0.010  -9.989  1.00  0.00     0.179 C 
ATOM      5  O   UNL     1      15.203  -0.857 -10.722  1.00  0.00    -0.337 OA
ENDROOT
BRANCH   1   6
ATOM      6  O   UNL     1      14.979  -1.526 -12.894  1.00  0.00    -0.349 OA
ATOM      7  C   UNL     1      13.654  -2.023 -12.945  1.00  0.00     0.198 C 
ENDBRANCH   1   6
BRANCH   1   8
ATOM      8  C   UNL     1      13.901   0.566 -12.137  1.00  0.00     0.224 C 
BRANCH   8   9
ATOM      9  O   UNL     1      14.174   1.615 -13.025  1.00  0.00    -0.391 OA
ATOM     10  H   UNL     1      14.273   1.200 -13.921  1.00  0.00     0.210 HD
ENDBRANCH   8   9
ENDBRANCH   1   8
BRANCH   2  11
ATOM     11  O   UNL     1      17.430  -0.489 -12.874  1.00  0.00    -0.385 OA
ATOM     12  H   UNL     1      16.968  -1.261 -13.295  1.00  0.00     0.211 HD
ENDBRANCH   2  11
BRANCH   3  13
ATOM     13  O   UNL     1      16.537   2.214 -10.815  1.00  0.00    -0.387 OA
ATOM     14  H   UNL     1      17.374   2.691 -10.576  1.00  0.00     0.211 HD
ENDBRANCH   3  13
BRANCH   4  15
ATOM     15  C   UNL     1      16.963  -0.866  -9.090  1.00  0.00     0.191 C 
BRANCH  15  16
ATOM     16  O   UNL     1      17.876  -1.587  -9.871  1.00  0.00    -0.394 OA
ATOM     17  H   UNL     1      18.235  -2.303  -9.285  1.00  0.00     0.210 HD
ENDBRANCH  15  16
ENDBRANCH   4  15
TORSDOF 7
ENDMDL
MODEL 7
REMARK VINA RESULT:    -5.375      3.611      5.554
REMARK INTER + INTRA:          -7.345
REMARK INTER:                  -7.179
REMARK INTRA:                  -0.166
REMARK UNBOUND:                -0.399
REMARK SMILES CO[C@@]1(CO)O[C@@H](CO)[C@H](O)[C@H]1O
REMARK SMILES IDX 3 1 12 2 10 3 7 4 6 5 2 6 1 7 4 8 5 9 13 11 11 13 8 15 9 16
REMARK H PARENT 5 10 13 12 11 14 9 17
REMARK Flexibility Score: inf
ROOT
ATOM      1  C   UNL     1      19.444   1.061 -11.388  1.00  0.00     0.221 C 
ATOM      2  C   UNL     1      19.585   0.255 -10.079  1.00  0.00     0.207 C 
ATOM      3  C   UNL     1      19.880  -1.154 -10.548  1.00  0.00     0.180 C 
ATOM      4  C   UNL     1      20.342  -0.961 -12.001  1.00  0.00     0.179 C 
ATOM      5  O   UNL     1      20.244   0.405 -12.350  1.00  0.00    -0.337 OA
ENDROOT
BRANCH   1   6
ATOM      6  O   UNL     1      19.956   2.387 -11.251  1.00  0.00    -0.349 OA
ATOM      7  C   UNL     1      21.024   2.675 -12.136  1.00  0.00     0.198 C 
ENDBRANCH   1   6
BRANCH   1   8
ATOM      8  C   UNL     1      17.982   1.053 -11.914  1.00  0.00     0.224 C 
BRANCH   8   9
ATOM      9  O   UNL     1      17.323   2.221 -11.507  1.00  0.00    -0.391 OA
ATOM     10  H   UNL     1      17.928   2.668 -10.859  1.00  0.00     0.210 HD
ENDBRANCH   8   9
ENDBRANCH   1   8
BRANCH   2  11
ATOM     11  O   UNL     1      20.637   0.740  -9.274  1.00  0.00    -0.385 OA
ATOM     12  H   UNL     1      20.699   0.166  -8.466  1.00  0.00     0.211 HD
ENDBRANCH   2  11
BRANCH   3  13
ATOM     13  O   UNL     1      18.709  -1.928 -10.501  1.00  0.00    -0.387 OA
ATOM     14  H   UNL     1      18.252  -1.800 -11.373  1.00  0.00     0.211 HD
ENDBRANCH   3  13
BRANCH   4  15
ATOM     15  C   UNL     1      21.784  -1.430 -12.215  1.00  0.00     0.191 C 
BRANCH  15  16
ATOM     16  O   UNL     1      21.852  -2.272 -13.333  1.00  0.00    -0.394 OA
ATOM     17  H   UNL     1      20.916  -2.515 -13.553  1.00  0.00     0.210 HD
ENDBRANCH  15  16
ENDBRANCH   4  15
TORSDOF 7
ENDMDL
MODEL 8
REMARK VINA RESULT:    -5.364      3.851      5.548
REMARK INTER + INTRA:          -7.331
REMARK INTER:                  -6.853
REMARK INTRA:                  -0.479
REMARK UNBOUND:                -0.399
REMARK SMILES CO[C@@]1(CO)O[C@@H](CO)[C@H](O)[C@H]1O
REMARK SMILES IDX 3 1 12 2 10 3 7 4 6 5 2 6 1 7 4 8 5 9 13 11 11 13 8 15 9 16
REMARK H PARENT 5 10 13 12 11 14 9 17
REMARK Flexibility Score: inf
ROOT
ATOM      1  C   UNL     1      20.841   0.457 -12.056  1.00  0.00     0.221 C 
ATOM      2  C   UNL     1      19.537  -0.311 -12.363  1.00  0.00     0.207 C 
ATOM      3  C   UNL     1      19.140  -0.906 -11.029  1.00  0.00     0.180 C 
ATOM      4  C   UNL     1      19.941  -0.077 -10.013  1.00  0.00     0.179 C 
ATOM      5  O   UNL     1      20.768   0.841 -10.699  1.00  0.00    -0.337 OA
ENDROOT
BRANCH   1   6
ATOM      6  O   UNL     1      20.945   1.654 -12.827  1.00  0.00    -0.349 OA
ATOM      7  C   UNL     1      22.272   2.130 -12.955  1.00  0.00     0.198 C 
ENDBRANCH   1   6
BRANCH   1   8
ATOM      8  C   UNL     1      22.093  -0.450 -12.218  1.00  0.00     0.224 C 
BRANCH   8   9
ATOM      9  O   UNL     1      21.833  -1.457 -13.157  1.00  0.00    -0.391 OA
ATOM     10  H   UNL     1      22.178  -2.299 -12.761  1.00  0.00     0.210 HD
ENDBRANCH   8   9
ENDBRANCH   1   8
BRANCH   2  11
ATOM     11  O   UNL     1      18.525   0.546 -12.845  1.00  0.00    -0.385 OA
ATOM     12  H   UNL     1      18.754   1.475 -12.581  1.00  0.00     0.211 HD
ENDBRANCH   2  11
BRANCH   3  13
ATOM     13  O   UNL     1      19.523  -2.256 -10.975  1.00  0.00    -0.387 OA
ATOM     14  H   UNL     1      20.397  -2.320 -11.440  1.00  0.00     0.211 HD
ENDBRANCH   3  13
BRANCH   4  15
ATOM     15  C   UNL     1      19.031   0.693  -9.051  1.00  0.00     0.191 C 
BRANCH  15  16
ATOM     16  O   UNL     1      18.136   1.492  -9.774  1.00  0.00    -0.394 OA
ATOM     17  H   UNL     1      17.856   0.952 -10.558  1.00  0.00     0.210 HD
ENDBRANCH  15  16
ENDBRANCH   4  15
TORSDOF 7
ENDMDL
MODEL 9
REMARK VINA RESULT:    -5.276      3.459      5.530
REMARK INTER + INTRA:          -7.217
REMARK INTER:                  -6.871
REMARK INTRA:                  -0.346
REMARK UNBOUND:                -0.399
REMARK SMILES CO[C@@]1(CO)O[C@@H](CO)[C@H](O)[C@H]1O
REMARK SMILES IDX 3 1 12 2 10 3 7 4 6 5 2 6 1 7 4 8 5 9 13 11 11 13 8 15 9 16
REMARK H PARENT 5 10 13 12 11 14 9 17
REMARK Flexibility Score: inf
ROOT
ATOM      1  C   UNL     1      19.881   1.046 -11.125  1.00  0.00     0.221 C 
ATOM      2  C   UNL     1      18.491   0.532 -10.691  1.00  0.00     0.207 C 
ATOM      3  C   UNL     1      18.801  -0.615  -9.754  1.00  0.00     0.180 C 
ATOM      4  C   UNL     1      20.268  -0.374  -9.363  1.00  0.00     0.179 C 
ATOM      5  O   UNL     1      20.766   0.747 -10.065  1.00  0.00    -0.337 OA
ENDROOT
BRANCH   1   6
ATOM      6  O   UNL     1      19.893   2.463 -11.293  1.00  0.00    -0.349 OA
ATOM      7  C   UNL     1      21.036   2.941 -11.979  1.00  0.00     0.198 C 
ENDBRANCH   1   6
BRANCH   1   8
ATOM      8  C   UNL     1      20.399   0.305 -12.388  1.00  0.00     0.224 C 
BRANCH   8   9
ATOM      9  O   UNL     1      19.316  -0.171 -13.139  1.00  0.00    -0.391 OA
ATOM     10  H   UNL     1      18.527  -0.138 -12.537  1.00  0.00     0.210 HD
ENDBRANCH   8   9
ENDBRANCH   1   8
BRANCH   2  11
ATOM     11  O   UNL     1      17.747   1.529 -10.026  1.00  0.00    -0.385 OA
ATOM     12  H   UNL     1      18.365   2.033  -9.433  1.00  0.00     0.211 HD
ENDBRANCH   2  11
BRANCH   3  13
ATOM     13  O   UNL     1      18.667  -1.837 -10.433  1.00  0.00    -0.387 OA
ATOM     14  H   UNL     1      19.382  -1.858 -11.120  1.00  0.00     0.211 HD
ENDBRANCH   3  13
BRANCH   4  15
ATOM     15  C   UNL     1      20.433  -0.136  -7.859  1.00  0.00     0.191 C 
BRANCH  15  16
ATOM     16  O   UNL     1      21.193   1.020  -7.638  1.00  0.00    -0.394 OA
ATOM     17  H   UNL     1      22.050   0.715  -7.240  1.00  0.00     0.210 HD
ENDBRANCH  15  16
ENDBRANCH   4  15
TORSDOF 7
ENDMDL
