MODEL 1
REMARK VINA RESULT:    -8.103      0.000      0.000
REMARK INTER + INTRA:          -8.814
REMARK INTER:                  -8.814
REMARK INTRA:                   0.000
REMARK UNBOUND:                 0.000
REMARK SMILES Cc1cc(O)c2c(c1)C(=O)c1cc(O)cc(O)c1C2=O
REMARK SMILES IDX 1 1 2 2 8 3 7 4 6 5 4 6 3 7 19 8 20 9 18 10 11 11 9 12 10 13
REMARK SMILES IDX 12 14 13 15 15 16 16 17 5 18 17 20 14 22
REMARK H PARENT 5 19 17 21 14 23
REMARK Flexibility Score: inf
ROOT
ATOM      1  C   UNL     1       7.267  14.713  26.883  1.00  0.00     0.044 C 
ATOM      2  C   UNL     1       7.074  14.338  25.443  1.00  0.00    -0.047 A 
ATOM      3  C   UNL     1       7.995  14.759  24.476  1.00  0.00     0.016 A 
ATOM      4  C   UNL     1       7.808  14.437  23.122  1.00  0.00     0.038 A 
ATOM      5  C   UNL     1       6.682  13.681  22.727  1.00  0.00     0.076 A 
ATOM      6  C   UNL     1       5.709  13.331  23.697  1.00  0.00     0.127 A 
ATOM      7  C   UNL     1       5.927  13.644  25.044  1.00  0.00     0.050 A 
ATOM      8  C   UNL     1       6.596  13.235  21.312  1.00  0.00     0.201 C 
ATOM      9  O   UNL     1       6.003  12.159  21.029  1.00  0.00    -0.288 OA
ATOM     10  C   UNL     1       7.367  13.952  20.263  1.00  0.00     0.076 A 
ATOM     11  C   UNL     1       8.491  14.710  20.662  1.00  0.00     0.041 A 
ATOM     12  C   UNL     1       8.785  14.893  22.104  1.00  0.00     0.194 C 
ATOM     13  O   UNL     1       9.854  15.460  22.463  1.00  0.00    -0.289 OA
ATOM     14  C   UNL     1       9.324  15.290  19.690  1.00  0.00     0.059 A 
ATOM     15  C   UNL     1       9.043  15.137  18.333  1.00  0.00     0.120 A 
ATOM     16  C   UNL     1       7.909  14.423  17.935  1.00  0.00     0.093 A 
ATOM     17  C   UNL     1       7.053  13.854  18.882  1.00  0.00     0.131 A 
ENDROOT
BRANCH   6  18
ATOM     18  O   UNL     1       4.504  12.707  23.368  1.00  0.00    -0.507 OA
ATOM     19  H   UNL     1       4.220  11.810  23.736  1.00  0.00     0.293 HD
ENDBRANCH   6  18
BRANCH  17  20
ATOM     20  O   UNL     1       5.892  13.235  18.413  1.00  0.00    -0.507 OA
ATOM     21  H   UNL     1       5.047  13.736  18.179  1.00  0.00     0.293 HD
ENDBRANCH  17  20
BRANCH  15  22
ATOM     22  O   UNL     1       9.889  15.709  17.387  1.00  0.00    -0.508 OA
ATOM     23  H   UNL     1      10.764  15.271  17.123  1.00  0.00     0.293 HD
ENDBRANCH  15  22
TORSDOF 3
ENDMDL
MODEL 2
REMARK VINA RESULT:    -8.087      1.681      5.379
REMARK INTER + INTRA:          -8.796
REMARK INTER:                  -8.796
REMARK INTRA:                   0.000
REMARK UNBOUND:                 0.000
REMARK SMILES Cc1cc(O)c2c(c1)C(=O)c1cc(O)cc(O)c1C2=O
REMARK SMILES IDX 1 1 2 2 8 3 7 4 6 5 4 6 3 7 19 8 20 9 18 10 11 11 9 12 10 13
REMARK SMILES IDX 12 14 13 15 15 16 16 17 5 18 17 20 14 22
REMARK H PARENT 5 19 17 21 14 23
REMARK Flexibility Score: inf
ROOT
ATOM      1  C   UNL     1       7.053  13.541  17.283  1.00  0.00     0.044 C 
ATOM      2  C   UNL     1       6.833  13.499  18.767  1.00  0.00    -0.047 A 
ATOM      3  C   UNL     1       7.441  14.448  19.596  1.00  0.00     0.016 A 
ATOM      4  C   UNL     1       7.264  14.399  20.989  1.00  0.00     0.038 A 
ATOM      5  C   UNL     1       6.466  13.384  21.562  1.00  0.00     0.076 A 
ATOM      6  C   UNL     1       5.924  12.376  20.726  1.00  0.00     0.127 A 
ATOM      7  C   UNL     1       6.096  12.457  19.339  1.00  0.00     0.050 A 
ATOM      8  C   UNL     1       6.182  13.452  23.019  1.00  0.00     0.201 C 
ATOM      9  O   UNL     1       5.101  12.987  23.469  1.00  0.00    -0.288 OA
ATOM     10  C   UNL     1       7.080  14.231  23.911  1.00  0.00     0.076 A 
ATOM     11  C   UNL     1       7.879  15.244  23.334  1.00  0.00     0.041 A 
ATOM     12  C   UNL     1       7.917  15.405  21.861  1.00  0.00     0.194 C 
ATOM     13  O   UNL     1       8.527  16.385  21.348  1.00  0.00    -0.289 OA
ATOM     14  C   UNL     1       8.637  16.092  24.160  1.00  0.00     0.059 A 
ATOM     15  C   UNL     1       8.620  15.934  25.545  1.00  0.00     0.120 A 
ATOM     16  C   UNL     1       7.864  14.907  26.118  1.00  0.00     0.093 A 
ATOM     17  C   UNL     1       7.118  14.037  25.317  1.00  0.00     0.131 A 
ENDROOT
BRANCH   6  18
ATOM     18  O   UNL     1       5.243  11.264  21.226  1.00  0.00    -0.507 OA
ATOM     19  H   UNL     1       4.411  11.329  21.797  1.00  0.00     0.293 HD
ENDBRANCH   6  18
BRANCH  17  20
ATOM     20  O   UNL     1       6.461  12.980  25.951  1.00  0.00    -0.507 OA
ATOM     21  H   UNL     1       6.764  12.579  26.828  1.00  0.00     0.293 HD
ENDBRANCH  17  20
BRANCH  15  22
ATOM     22  O   UNL     1       9.369  16.794  26.344  1.00  0.00    -0.508 OA
ATOM     23  H   UNL     1       8.971  17.644  26.726  1.00  0.00     0.293 HD
ENDBRANCH  15  22
TORSDOF 3
ENDMDL
MODEL 3
REMARK VINA RESULT:    -7.593      1.154      3.408
REMARK INTER + INTRA:          -8.259
REMARK INTER:                  -8.259
REMARK INTRA:                   0.000
REMARK UNBOUND:                 0.000
REMARK SMILES Cc1cc(O)c2c(c1)C(=O)c1cc(O)cc(O)c1C2=O
REMARK SMILES IDX 1 1 2 2 8 3 7 4 6 5 4 6 3 7 19 8 20 9 18 10 11 11 9 12 10 13
REMARK SMILES IDX 12 14 13 15 15 16 16 17 5 18 17 20 14 22
REMARK H PARENT 5 19 17 21 14 23
REMARK Flexibility Score: inf
ROOT
ATOM      1  C   UNL     1       7.286  14.386  26.427  1.00  0.00     0.044 C 
ATOM      2  C   UNL     1       7.625  14.730  25.006  1.00  0.00    -0.047 A 
ATOM      3  C   UNL     1       6.945  14.112  23.951  1.00  0.00     0.016 A 
ATOM      4  C   UNL     1       7.275  14.406  22.617  1.00  0.00     0.038 A 
ATOM      5  C   UNL     1       8.303  15.334  22.335  1.00  0.00     0.076 A 
ATOM      6  C   UNL     1       9.045  15.891  23.407  1.00  0.00     0.127 A 
ATOM      7  C   UNL     1       8.684  15.599  24.727  1.00  0.00     0.050 A 
ATOM      8  C   UNL     1       8.523  15.729  20.919  1.00  0.00     0.201 C 
ATOM      9  O   UNL     1       8.960  16.880  20.651  1.00  0.00    -0.288 OA
ATOM     10  C   UNL     1       8.051  14.843  19.823  1.00  0.00     0.076 A 
ATOM     11  C   UNL     1       7.025  13.915  20.110  1.00  0.00     0.041 A 
ATOM     12  C   UNL     1       6.554  13.742  21.505  1.00  0.00     0.194 C 
ATOM     13  O   UNL     1       5.555  13.009  21.748  1.00  0.00    -0.289 OA
ATOM     14  C   UNL     1       6.457  13.156  19.072  1.00  0.00     0.059 A 
ATOM     15  C   UNL     1       6.909  13.301  17.760  1.00  0.00     0.120 A 
ATOM     16  C   UNL     1       7.952  14.188  17.478  1.00  0.00     0.093 A 
ATOM     17  C   UNL     1       8.547  14.938  18.496  1.00  0.00     0.131 A 
ENDROOT
BRANCH   6  18
ATOM     18  O   UNL     1      10.162  16.705  23.208  1.00  0.00    -0.507 OA
ATOM     19  H   UNL     1      10.116  17.626  22.796  1.00  0.00     0.293 HD
ENDBRANCH   6  18
BRANCH  17  20
ATOM     20  O   UNL     1       9.643  15.734  18.155  1.00  0.00    -0.507 OA
ATOM     21  H   UNL     1      10.602  15.429  18.235  1.00  0.00     0.293 HD
ENDBRANCH  17  20
BRANCH  15  22
ATOM     22  O   UNL     1       6.324  12.548  16.745  1.00  0.00    -0.508 OA
ATOM     23  H   UNL     1       6.063  12.964  15.859  1.00  0.00     0.293 HD
ENDBRANCH  15  22
TORSDOF 3
ENDMDL
MODEL 4
REMARK VINA RESULT:    -7.430      1.957      5.784
REMARK INTER + INTRA:          -8.082
REMARK INTER:                  -8.082
REMARK INTRA:                   0.000
REMARK UNBOUND:                 0.000
REMARK SMILES Cc1cc(O)c2c(c1)C(=O)c1cc(O)cc(O)c1C2=O
REMARK SMILES IDX 1 1 2 2 8 3 7 4 6 5 4 6 3 7 19 8 20 9 18 10 11 11 9 12 10 13
REMARK SMILES IDX 12 14 13 15 15 16 16 17 5 18 17 20 14 22
REMARK H PARENT 5 19 17 21 14 23
REMARK Flexibility Score: inf
ROOT
ATOM      1  C   UNL     1      10.114  15.964  17.818  1.00  0.00     0.044 C 
ATOM      2  C   UNL     1       9.393  15.622  19.089  1.00  0.00    -0.047 A 
ATOM      3  C   UNL     1       9.772  16.219  20.296  1.00  0.00     0.016 A 
ATOM      4  C   UNL     1       9.122  15.884  21.496  1.00  0.00     0.038 A 
ATOM      5  C   UNL     1       8.076  14.934  21.488  1.00  0.00     0.076 A 
ATOM      6  C   UNL     1       7.755  14.270  20.277  1.00  0.00     0.127 A 
ATOM      7  C   UNL     1       8.401  14.636  19.091  1.00  0.00     0.050 A 
ATOM      8  C   UNL     1       7.316  14.715  22.746  1.00  0.00     0.201 C 
ATOM      9  O   UNL     1       6.104  14.374  22.694  1.00  0.00    -0.288 OA
ATOM     10  C   UNL     1       7.927  15.081  24.050  1.00  0.00     0.076 A 
ATOM     11  C   UNL     1       8.975  16.029  24.054  1.00  0.00     0.041 A 
ATOM     12  C   UNL     1       9.534  16.517  22.771  1.00  0.00     0.194 C 
ATOM     13  O   UNL     1      10.381  17.454  22.767  1.00  0.00    -0.289 OA
ATOM     14  C   UNL     1       9.485  16.503  25.276  1.00  0.00     0.059 A 
ATOM     15  C   UNL     1       8.975  16.034  26.486  1.00  0.00     0.120 A 
ATOM     16  C   UNL     1       7.967  15.066  26.487  1.00  0.00     0.093 A 
ATOM     17  C   UNL     1       7.457  14.563  25.286  1.00  0.00     0.131 A 
ENDROOT
BRANCH   6  18
ATOM     18  O   UNL     1       6.832  13.223  20.212  1.00  0.00    -0.507 OA
ATOM     19  H   UNL     1       6.458  12.862  19.346  1.00  0.00     0.293 HD
ENDBRANCH   6  18
BRANCH  17  20
ATOM     20  O   UNL     1       6.517  13.533  25.365  1.00  0.00    -0.507 OA
ATOM     21  H   UNL     1       6.381  12.963  26.188  1.00  0.00     0.293 HD
ENDBRANCH  17  20
BRANCH  15  22
ATOM     22  O   UNL     1       9.487  16.526  27.684  1.00  0.00    -0.508 OA
ATOM     23  H   UNL     1       8.925  16.564  28.526  1.00  0.00     0.293 HD
ENDBRANCH  15  22
TORSDOF 3
ENDMDL
MODEL 5
REMARK VINA RESULT:    -7.374      1.707      6.374
REMARK INTER + INTRA:          -8.020
REMARK INTER:                  -8.020
REMARK INTRA:                   0.000
REMARK UNBOUND:                 0.000
REMARK SMILES Cc1cc(O)c2c(c1)C(=O)c1cc(O)cc(O)c1C2=O
REMARK SMILES IDX 1 1 2 2 8 3 7 4 6 5 4 6 3 7 19 8 20 9 18 10 11 11 9 12 10 13
REMARK SMILES IDX 12 14 13 15 15 16 16 17 5 18 17 20 14 22
REMARK H PARENT 5 19 17 21 14 23
REMARK Flexibility Score: inf
ROOT
ATOM      1  C   UNL     1       7.672  14.748  17.159  1.00  0.00     0.044 C 
ATOM      2  C   UNL     1       8.017  15.070  18.583  1.00  0.00    -0.047 A 
ATOM      3  C   UNL     1       7.628  14.208  19.614  1.00  0.00     0.016 A 
ATOM      4  C   UNL     1       7.923  14.515  20.953  1.00  0.00     0.038 A 
ATOM      5  C   UNL     1       8.617  15.706  21.266  1.00  0.00     0.076 A 
ATOM      6  C   UNL     1       8.932  16.616  20.226  1.00  0.00     0.127 A 
ATOM      7  C   UNL     1       8.648  16.278  18.898  1.00  0.00     0.050 A 
ATOM      8  C   UNL     1       9.039  15.923  22.674  1.00  0.00     0.201 C 
ATOM      9  O   UNL     1      10.080  16.590  22.920  1.00  0.00    -0.288 OA
ATOM     10  C   UNL     1       8.346  15.201  23.773  1.00  0.00     0.076 A 
ATOM     11  C   UNL     1       7.650  14.013  23.456  1.00  0.00     0.041 A 
ATOM     12  C   UNL     1       7.501  13.599  22.040  1.00  0.00     0.194 C 
ATOM     13  O   UNL     1       6.992  12.478  21.760  1.00  0.00    -0.289 OA
ATOM     14  C   UNL     1       7.098  13.230  24.485  1.00  0.00     0.059 A 
ATOM     15  C   UNL     1       7.219  13.623  25.817  1.00  0.00     0.120 A 
ATOM     16  C   UNL     1       7.870  14.819  26.132  1.00  0.00     0.093 A 
ATOM     17  C   UNL     1       8.409  15.626  25.126  1.00  0.00     0.131 A 
ENDROOT
BRANCH   6  18
ATOM     18  O   UNL     1       9.491  17.873  20.466  1.00  0.00    -0.507 OA
ATOM     19  H   UNL     1       9.614  18.262  21.390  1.00  0.00     0.293 HD
ENDBRANCH   6  18
BRANCH  17  20
ATOM     20  O   UNL     1       8.964  16.850  25.508  1.00  0.00    -0.507 OA
ATOM     21  H   UNL     1       9.957  17.003  25.618  1.00  0.00     0.293 HD
ENDBRANCH  17  20
BRANCH  15  22
ATOM     22  O   UNL     1       6.675  12.825  26.821  1.00  0.00    -0.508 OA
ATOM     23  H   UNL     1       6.023  12.079  26.610  1.00  0.00     0.293 HD
ENDBRANCH  15  22
TORSDOF 3
ENDMDL
MODEL 6
REMARK VINA RESULT:    -7.369      1.715      6.291
REMARK INTER + INTRA:          -8.015
REMARK INTER:                  -8.015
REMARK INTRA:                   0.000
REMARK UNBOUND:                 0.000
REMARK SMILES Cc1cc(O)c2c(c1)C(=O)c1cc(O)cc(O)c1C2=O
REMARK SMILES IDX 1 1 2 2 8 3 7 4 6 5 4 6 3 7 19 8 20 9 18 10 11 11 9 12 10 13
REMARK SMILES IDX 12 14 13 15 15 16 16 17 5 18 17 20 14 22
REMARK H PARENT 5 19 17 21 14 23
REMARK Flexibility Score: inf
ROOT
ATOM      1  C   UNL     1      10.244  16.248  17.476  1.00  0.00     0.044 C 
ATOM      2  C   UNL     1       9.951  16.132  18.943  1.00  0.00    -0.047 A 
ATOM      3  C   UNL     1       8.992  15.221  19.400  1.00  0.00     0.016 A 
ATOM      4  C   UNL     1       8.691  15.125  20.769  1.00  0.00     0.038 A 
ATOM      5  C   UNL     1       9.360  15.954  21.697  1.00  0.00     0.076 A 
ATOM      6  C   UNL     1      10.268  16.934  21.220  1.00  0.00     0.127 A 
ATOM      7  C   UNL     1      10.568  16.996  19.854  1.00  0.00     0.050 A 
ATOM      8  C   UNL     1       9.124  15.722  23.145  1.00  0.00     0.201 C 
ATOM      9  O   UNL     1      10.035  15.975  23.977  1.00  0.00    -0.288 OA
ATOM     10  C   UNL     1       7.892  15.018  23.589  1.00  0.00     0.076 A 
ATOM     11  C   UNL     1       7.223  14.192  22.657  1.00  0.00     0.041 A 
ATOM     12  C   UNL     1       7.668  14.163  21.243  1.00  0.00     0.194 C 
ATOM     13  O   UNL     1       7.157  13.335  20.438  1.00  0.00    -0.289 OA
ATOM     14  C   UNL     1       6.136  13.404  23.075  1.00  0.00     0.059 A 
ATOM     15  C   UNL     1       5.702  13.442  24.399  1.00  0.00     0.120 A 
ATOM     16  C   UNL     1       6.334  14.288  25.314  1.00  0.00     0.093 A 
ATOM     17  C   UNL     1       7.403  15.097  24.919  1.00  0.00     0.131 A 
ENDROOT
BRANCH   6  18
ATOM     18  O   UNL     1      10.864  17.881  22.055  1.00  0.00    -0.507 OA
ATOM     19  H   UNL     1      11.662  17.684  22.642  1.00  0.00     0.293 HD
ENDBRANCH   6  18
BRANCH  17  20
ATOM     20  O   UNL     1       7.925  15.983  25.864  1.00  0.00    -0.507 OA
ATOM     21  H   UNL     1       7.983  15.777  26.852  1.00  0.00     0.293 HD
ENDBRANCH  17  20
BRANCH  15  22
ATOM     22  O   UNL     1       4.631  12.643  24.793  1.00  0.00    -0.508 OA
ATOM     23  H   UNL     1       4.665  12.091  25.643  1.00  0.00     0.293 HD
ENDBRANCH  15  22
TORSDOF 3
ENDMDL
MODEL 7
REMARK VINA RESULT:    -7.156      1.429      5.419
REMARK INTER + INTRA:          -7.783
REMARK INTER:                  -7.783
REMARK INTRA:                   0.000
REMARK UNBOUND:                 0.000
REMARK SMILES Cc1cc(O)c2c(c1)C(=O)c1cc(O)cc(O)c1C2=O
REMARK SMILES IDX 1 1 2 2 8 3 7 4 6 5 4 6 3 7 19 8 20 9 18 10 11 11 9 12 10 13
REMARK SMILES IDX 12 14 13 15 15 16 16 17 5 18 17 20 14 22
REMARK H PARENT 5 19 17 21 14 23
REMARK Flexibility Score: inf
ROOT
ATOM      1  C   UNL     1      10.626  17.000  18.382  1.00  0.00     0.044 C 
ATOM      2  C   UNL     1       9.595  16.118  19.023  1.00  0.00    -0.047 A 
ATOM      3  C   UNL     1       9.506  16.037  20.417  1.00  0.00     0.016 A 
ATOM      4  C   UNL     1       8.562  15.192  21.026  1.00  0.00     0.038 A 
ATOM      5  C   UNL     1       7.694  14.415  20.226  1.00  0.00     0.076 A 
ATOM      6  C   UNL     1       7.846  14.437  18.817  1.00  0.00     0.127 A 
ATOM      7  C   UNL     1       8.778  15.302  18.233  1.00  0.00     0.050 A 
ATOM      8  C   UNL     1       6.614  13.650  20.902  1.00  0.00     0.201 C 
ATOM      9  O   UNL     1       5.529  13.433  20.300  1.00  0.00    -0.288 OA
ATOM     10  C   UNL     1       6.742  13.308  22.343  1.00  0.00     0.076 A 
ATOM     11  C   UNL     1       7.614  14.085  23.139  1.00  0.00     0.041 A 
ATOM     12  C   UNL     1       8.479  15.107  22.503  1.00  0.00     0.194 C 
ATOM     13  O   UNL     1       9.165  15.888  23.221  1.00  0.00    -0.289 OA
ATOM     14  C   UNL     1       7.659  13.882  24.529  1.00  0.00     0.059 A 
ATOM     15  C   UNL     1       6.861  12.909  25.130  1.00  0.00     0.120 A 
ATOM     16  C   UNL     1       6.028  12.110  24.342  1.00  0.00     0.093 A 
ATOM     17  C   UNL     1       5.980  12.278  22.954  1.00  0.00     0.131 A 
ENDROOT
BRANCH   6  18
ATOM     18  O   UNL     1       7.124  13.598  17.966  1.00  0.00    -0.507 OA
ATOM     19  H   UNL     1       7.522  12.792  17.506  1.00  0.00     0.293 HD
ENDBRANCH   6  18
BRANCH  17  20
ATOM     20  O   UNL     1       5.194  11.384  22.224  1.00  0.00    -0.507 OA
ATOM     21  H   UNL     1       4.898  11.549  21.272  1.00  0.00     0.293 HD
ENDBRANCH  17  20
BRANCH  15  22
ATOM     22  O   UNL     1       6.914  12.735  26.510  1.00  0.00    -0.508 OA
ATOM     23  H   UNL     1       7.157  11.842  26.924  1.00  0.00     0.293 HD
ENDBRANCH  15  22
TORSDOF 3
ENDMDL
MODEL 8
REMARK VINA RESULT:    -7.097      1.904      5.626
REMARK INTER + INTRA:          -7.719
REMARK INTER:                  -7.719
REMARK INTRA:                   0.000
REMARK UNBOUND:                 0.000
REMARK SMILES Cc1cc(O)c2c(c1)C(=O)c1cc(O)cc(O)c1C2=O
REMARK SMILES IDX 1 1 2 2 8 3 7 4 6 5 4 6 3 7 19 8 20 9 18 10 11 11 9 12 10 13
REMARK SMILES IDX 12 14 13 15 15 16 16 17 5 18 17 20 14 22
REMARK H PARENT 5 19 17 21 14 23
REMARK Flexibility Score: inf
ROOT
ATOM      1  C   UNL     1      10.248  17.373  18.011  1.00  0.00     0.044 C 
ATOM      2  C   UNL     1       9.687  16.589  19.161  1.00  0.00    -0.047 A 
ATOM      3  C   UNL     1       8.722  15.600  18.934  1.00  0.00     0.016 A 
ATOM      4  C   UNL     1       8.170  14.880  20.007  1.00  0.00     0.038 A 
ATOM      5  C   UNL     1       8.589  15.154  21.328  1.00  0.00     0.076 A 
ATOM      6  C   UNL     1       9.502  16.214  21.558  1.00  0.00     0.127 A 
ATOM      7  C   UNL     1      10.055  16.902  20.473  1.00  0.00     0.050 A 
ATOM      8  C   UNL     1       8.094  14.274  22.418  1.00  0.00     0.201 C 
ATOM      9  O   UNL     1       8.809  14.077  23.438  1.00  0.00    -0.288 OA
ATOM     10  C   UNL     1       6.852  13.482  22.222  1.00  0.00     0.076 A 
ATOM     11  C   UNL     1       6.434  13.214  20.899  1.00  0.00     0.041 A 
ATOM     12  C   UNL     1       7.144  13.840  19.759  1.00  0.00     0.194 C 
ATOM     13  O   UNL     1       6.856  13.505  18.575  1.00  0.00    -0.289 OA
ATOM     14  C   UNL     1       5.344  12.356  20.671  1.00  0.00     0.059 A 
ATOM     15  C   UNL     1       4.660  11.778  21.741  1.00  0.00     0.120 A 
ATOM     16  C   UNL     1       5.044  12.074  23.051  1.00  0.00     0.093 A 
ATOM     17  C   UNL     1       6.111  12.941  23.306  1.00  0.00     0.131 A 
ENDROOT
BRANCH   6  18
ATOM     18  O   UNL     1       9.860  16.637  22.840  1.00  0.00    -0.507 OA
ATOM     19  H   UNL     1      10.454  17.435  23.019  1.00  0.00     0.293 HD
ENDBRANCH   6  18
BRANCH  17  20
ATOM     20  O   UNL     1       6.379  13.261  24.638  1.00  0.00    -0.507 OA
ATOM     21  H   UNL     1       6.182  12.641  25.412  1.00  0.00     0.293 HD
ENDBRANCH  17  20
BRANCH  15  22
ATOM     22  O   UNL     1       3.591  10.922  21.490  1.00  0.00    -0.508 OA
ATOM     23  H   UNL     1       3.020  11.015  20.658  1.00  0.00     0.293 HD
ENDBRANCH  15  22
TORSDOF 3
ENDMDL
MODEL 9
REMARK VINA RESULT:    -6.468      1.545      3.517
REMARK INTER + INTRA:          -7.035
REMARK INTER:                  -7.035
REMARK INTRA:                   0.000
REMARK UNBOUND:                 0.000
REMARK SMILES Cc1cc(O)c2c(c1)C(=O)c1cc(O)cc(O)c1C2=O
REMARK SMILES IDX 1 1 2 2 8 3 7 4 6 5 4 6 3 7 19 8 20 9 18 10 11 11 9 12 10 13
REMARK SMILES IDX 12 14 13 15 15 16 16 17 5 18 17 20 14 22
REMARK H PARENT 5 19 17 21 14 23
REMARK Flexibility Score: inf
ROOT
ATOM      1  C   UNL     1       5.109  11.716  24.975  1.00  0.00     0.044 C 
ATOM      2  C   UNL     1       6.045  12.777  24.474  1.00  0.00    -0.047 A 
ATOM      3  C   UNL     1       6.304  12.899  23.105  1.00  0.00     0.016 A 
ATOM      4  C   UNL     1       7.201  13.870  22.630  1.00  0.00     0.038 A 
ATOM      5  C   UNL     1       7.850  14.734  23.540  1.00  0.00     0.076 A 
ATOM      6  C   UNL     1       7.649  14.550  24.931  1.00  0.00     0.127 A 
ATOM      7  C   UNL     1       6.735  13.590  25.380  1.00  0.00     0.050 A 
ATOM      8  C   UNL     1       8.675  15.842  22.991  1.00  0.00     0.201 C 
ATOM      9  O   UNL     1       8.790  16.917  23.637  1.00  0.00    -0.288 OA
ATOM     10  C   UNL     1       9.203  15.752  21.604  1.00  0.00     0.076 A 
ATOM     11  C   UNL     1       8.553  14.885  20.697  1.00  0.00     0.041 A 
ATOM     12  C   UNL     1       7.475  13.987  21.177  1.00  0.00     0.194 C 
ATOM     13  O   UNL     1       6.808  13.304  20.351  1.00  0.00    -0.289 OA
ATOM     14  C   UNL     1       8.935  14.874  19.345  1.00  0.00     0.059 A 
ATOM     15  C   UNL     1       9.961  15.702  18.891  1.00  0.00     0.120 A 
ATOM     16  C   UNL     1      10.634  16.532  19.792  1.00  0.00     0.093 A 
ATOM     17  C   UNL     1      10.287  16.546  21.147  1.00  0.00     0.131 A 
ENDROOT
BRANCH   6  18
ATOM     18  O   UNL     1       8.356  15.268  25.898  1.00  0.00    -0.507 OA
ATOM     19  H   UNL     1       8.113  16.205  26.186  1.00  0.00     0.293 HD
ENDBRANCH   6  18
BRANCH  17  20
ATOM     20  O   UNL     1      11.063  17.331  22.003  1.00  0.00    -0.507 OA
ATOM     21  H   UNL     1      11.182  17.134  22.987  1.00  0.00     0.293 HD
ENDBRANCH  17  20
BRANCH  15  22
ATOM     22  O   UNL     1      10.313  15.684  17.544  1.00  0.00    -0.508 OA
ATOM     23  H   UNL     1      10.612  14.831  17.085  1.00  0.00     0.293 HD
ENDBRANCH  15  22
TORSDOF 3
ENDMDL
