MODEL 1
REMARK VINA RESULT:    -2.365      0.000      0.000
REMARK INTER + INTRA:          -2.365
REMARK INTER:                  -2.365
REMARK INTRA:                   0.000
REMARK UNBOUND:                 0.000
REMARK SMILES CC(=O)[O-]
REMARK SMILES IDX 1 1 2 2 3 3 4 4
REMARK H PARENT
REMARK Flexibility Score: inf
ROOT
ATOM      1  C   UNL     1      61.551  28.954  13.436  1.00  0.00     0.063 C 
ATOM      2  C   UNL     1      60.291  28.863  12.645  1.00  0.00     0.038 C 
ATOM      3  O   UNL     1      60.231  29.366  11.493  1.00  0.00    -0.550 OA
ATOM      4  O   UNL     1      59.197  28.178  13.155  1.00  0.00    -0.550 OA
ENDROOT
TORSDOF 0
ENDMDL
MODEL 2
REMARK VINA RESULT:    -2.288     12.999     13.663
REMARK INTER + INTRA:          -2.288
REMARK INTER:                  -2.288
REMARK INTRA:                   0.000
REMARK UNBOUND:                 0.000
REMARK SMILES CC(=O)[O-]
REMARK SMILES IDX 1 1 2 2 3 3 4 4
REMARK H PARENT
REMARK Flexibility Score: inf
ROOT
ATOM      1  C   UNL     1      61.728  28.592  25.369  1.00  0.00     0.063 C 
ATOM      2  C   UNL     1      61.039  27.572  26.210  1.00  0.00     0.038 C 
ATOM      3  O   UNL     1      61.377  27.412  27.411  1.00  0.00    -0.550 OA
ATOM      4  O   UNL     1      59.988  26.832  25.686  1.00  0.00    -0.550 OA
ENDROOT
TORSDOF 0
ENDMDL
MODEL 3
REMARK VINA RESULT:    -2.211      3.304      3.510
REMARK INTER + INTRA:          -2.211
REMARK INTER:                  -2.211
REMARK INTRA:                   0.000
REMARK UNBOUND:                 0.000
REMARK SMILES CC(=O)[O-]
REMARK SMILES IDX 1 1 2 2 3 3 4 4
REMARK H PARENT
REMARK Flexibility Score: inf
ROOT
ATOM      1  C   UNL     1      60.637  29.384  10.722  1.00  0.00     0.063 C 
ATOM      2  C   UNL     1      61.832  28.757  10.090  1.00  0.00     0.038 C 
ATOM      3  O   UNL     1      61.710  28.092   9.029  1.00  0.00    -0.550 OA
ATOM      4  O   UNL     1      63.092  28.951  10.640  1.00  0.00    -0.550 OA
ENDROOT
TORSDOF 0
ENDMDL
MODEL 4
REMARK VINA RESULT:    -2.196     13.008     13.548
REMARK INTER + INTRA:          -2.196
REMARK INTER:                  -2.196
REMARK INTRA:                   0.000
REMARK UNBOUND:                 0.000
REMARK SMILES CC(=O)[O-]
REMARK SMILES IDX 1 1 2 2 3 3 4 4
REMARK H PARENT
REMARK Flexibility Score: inf
ROOT
ATOM      1  C   UNL     1      61.736  27.488  27.350  1.00  0.00     0.063 C 
ATOM      2  C   UNL     1      61.078  27.611  26.019  1.00  0.00     0.038 C 
ATOM      3  O   UNL     1      60.065  26.916  25.748  1.00  0.00    -0.550 OA
ATOM      4  O   UNL     1      61.549  28.531  25.092  1.00  0.00    -0.550 OA
ENDROOT
TORSDOF 0
ENDMDL
MODEL 5
REMARK VINA RESULT:    -2.187      3.088      3.602
REMARK INTER + INTRA:          -2.187
REMARK INTER:                  -2.187
REMARK INTRA:                   0.000
REMARK UNBOUND:                 0.000
REMARK SMILES CC(=O)[O-]
REMARK SMILES IDX 1 1 2 2 3 3 4 4
REMARK H PARENT
REMARK Flexibility Score: inf
ROOT
ATOM      1  C   UNL     1      63.661  29.329  10.116  1.00  0.00     0.063 C 
ATOM      2  C   UNL     1      62.285  28.755  10.135  1.00  0.00     0.038 C 
ATOM      3  O   UNL     1      61.560  28.888  11.154  1.00  0.00    -0.550 OA
ATOM      4  O   UNL     1      61.780  28.120   9.008  1.00  0.00    -0.550 OA
ENDROOT
TORSDOF 0
ENDMDL
MODEL 6
REMARK VINA RESULT:    -2.184      2.821      3.302
REMARK INTER + INTRA:          -2.184
REMARK INTER:                  -2.184
REMARK INTRA:                   0.000
REMARK UNBOUND:                 0.000
REMARK SMILES CC(=O)[O-]
REMARK SMILES IDX 1 1 2 2 3 3 4 4
REMARK H PARENT
REMARK Flexibility Score: inf
ROOT
ATOM      1  C   UNL     1      61.742  28.298   8.957  1.00  0.00     0.063 C 
ATOM      2  C   UNL     1      61.813  28.834  10.346  1.00  0.00     0.038 C 
ATOM      3  O   UNL     1      62.930  29.011  10.898  1.00  0.00    -0.550 OA
ATOM      4  O   UNL     1      60.650  29.188  11.016  1.00  0.00    -0.550 OA
ENDROOT
TORSDOF 0
ENDMDL
MODEL 7
REMARK VINA RESULT:    -2.184      1.753      2.007
REMARK INTER + INTRA:          -2.184
REMARK INTER:                  -2.184
REMARK INTRA:                   0.000
REMARK UNBOUND:                 0.000
REMARK SMILES CC(=O)[O-]
REMARK SMILES IDX 1 1 2 2 3 3 4 4
REMARK H PARENT
REMARK Flexibility Score: inf
ROOT
ATOM      1  C   UNL     1      60.603  28.543  13.003  1.00  0.00     0.063 C 
ATOM      2  C   UNL     1      60.936  29.246  11.732  1.00  0.00     0.038 C 
ATOM      3  O   UNL     1      60.547  30.428  11.544  1.00  0.00    -0.550 OA
ATOM      4  O   UNL     1      61.720  28.618  10.774  1.00  0.00    -0.550 OA
ENDROOT
TORSDOF 0
ENDMDL
MODEL 8
REMARK VINA RESULT:    -2.136     13.869     14.501
REMARK INTER + INTRA:          -2.136
REMARK INTER:                  -2.136
REMARK INTRA:                   0.000
REMARK UNBOUND:                 0.000
REMARK SMILES CC(=O)[O-]
REMARK SMILES IDX 1 1 2 2 3 3 4 4
REMARK H PARENT
REMARK Flexibility Score: inf
ROOT
ATOM      1  C   UNL     1      60.904  27.843  25.809  1.00  0.00     0.063 C 
ATOM      2  C   UNL     1      61.853  27.508  26.908  1.00  0.00     0.038 C 
ATOM      3  O   UNL     1      61.463  27.518  28.104  1.00  0.00    -0.550 OA
ATOM      4  O   UNL     1      63.157  27.132  26.612  1.00  0.00    -0.550 OA
ENDROOT
TORSDOF 0
ENDMDL
MODEL 9
REMARK VINA RESULT:    -2.058      2.583      3.099
REMARK INTER + INTRA:          -2.058
REMARK INTER:                  -2.058
REMARK INTRA:                   0.000
REMARK UNBOUND:                 0.000
REMARK SMILES CC(=O)[O-]
REMARK SMILES IDX 1 1 2 2 3 3 4 4
REMARK H PARENT
REMARK Flexibility Score: inf
ROOT
ATOM      1  C   UNL     1      62.302  29.045  10.381  1.00  0.00     0.063 C 
ATOM      2  C   UNL     1      61.035  29.830  10.380  1.00  0.00     0.038 C 
ATOM      3  O   UNL     1      60.572  30.282  11.459  1.00  0.00    -0.550 OA
ATOM      4  O   UNL     1      60.390  30.109   9.182  1.00  0.00    -0.550 OA
ENDROOT
TORSDOF 0
ENDMDL
