MODEL 1
REMARK VINA RESULT:    -8.124      0.000      0.000
REMARK INTER + INTRA:          -8.837
REMARK INTER:                  -8.837
REMARK INTRA:                   0.000
REMARK UNBOUND:                 0.000
REMARK SMILES Cc1cc(O)c2c(c1)C(=O)c1cc(O)cc(O)c1C2=O
REMARK SMILES IDX 1 1 2 2 8 3 7 4 6 5 4 6 3 7 19 8 20 9 18 10 11 11 9 12 10 13
REMARK SMILES IDX 12 14 13 15 15 16 16 17 5 18 17 20 14 22
REMARK H PARENT 5 19 17 21 14 23
REMARK Flexibility Score: inf
ROOT
ATOM      1  C   UNL     1       7.100  -4.063   5.206  1.00  0.00     0.044 C 
ATOM      2  C   UNL     1       7.437  -2.768   4.526  1.00  0.00    -0.047 A 
ATOM      3  C   UNL     1       6.600  -2.255   3.532  1.00  0.00     0.016 A 
ATOM      4  C   UNL     1       6.930  -1.068   2.856  1.00  0.00     0.038 A 
ATOM      5  C   UNL     1       8.136  -0.394   3.163  1.00  0.00     0.076 A 
ATOM      6  C   UNL     1       8.950  -0.888   4.218  1.00  0.00     0.127 A 
ATOM      7  C   UNL     1       8.612  -2.085   4.856  1.00  0.00     0.050 A 
ATOM      8  C   UNL     1       8.529   0.772   2.322  1.00  0.00     0.201 C 
ATOM      9  O   UNL     1       9.734   1.137   2.270  1.00  0.00    -0.288 OA
ATOM     10  C   UNL     1       7.526   1.436   1.450  1.00  0.00     0.076 A 
ATOM     11  C   UNL     1       6.298   0.787   1.197  1.00  0.00     0.041 A 
ATOM     12  C   UNL     1       6.012  -0.520   1.829  1.00  0.00     0.194 C 
ATOM     13  O   UNL     1       4.973  -1.161   1.506  1.00  0.00    -0.289 OA
ATOM     14  C   UNL     1       5.354   1.386   0.344  1.00  0.00     0.059 A 
ATOM     15  C   UNL     1       5.619   2.622  -0.251  1.00  0.00     0.120 A 
ATOM     16  C   UNL     1       6.828   3.270   0.003  1.00  0.00     0.093 A 
ATOM     17  C   UNL     1       7.783   2.690   0.849  1.00  0.00     0.131 A 
ENDROOT
BRANCH   6  18
ATOM     18  O   UNL     1      10.079  -0.213   4.689  1.00  0.00    -0.507 OA
ATOM     19  H   UNL     1      10.336  -0.163   5.664  1.00  0.00     0.293 HD
ENDBRANCH   6  18
BRANCH  17  20
ATOM     20  O   UNL     1       8.978   3.367   1.096  1.00  0.00    -0.507 OA
ATOM     21  H   UNL     1       9.878   2.911   0.996  1.00  0.00     0.293 HD
ENDBRANCH  17  20
BRANCH  15  22
ATOM     22  O   UNL     1       4.686   3.218  -1.097  1.00  0.00    -0.508 OA
ATOM     23  H   UNL     1       4.543   2.888  -2.045  1.00  0.00     0.293 HD
ENDBRANCH  15  22
TORSDOF 3
ENDMDL
MODEL 2
REMARK VINA RESULT:    -7.414      1.391      6.337
REMARK INTER + INTRA:          -8.064
REMARK INTER:                  -8.064
REMARK INTRA:                   0.000
REMARK UNBOUND:                 0.000
REMARK SMILES Cc1cc(O)c2c(c1)C(=O)c1cc(O)cc(O)c1C2=O
REMARK SMILES IDX 1 1 2 2 8 3 7 4 6 5 4 6 3 7 19 8 20 9 18 10 11 11 9 12 10 13
REMARK SMILES IDX 12 14 13 15 15 16 16 17 5 18 17 20 14 22
REMARK H PARENT 5 19 17 21 14 23
REMARK Flexibility Score: inf
ROOT
ATOM      1  C   UNL     1       7.124   3.923  -0.551  1.00  0.00     0.044 C 
ATOM      2  C   UNL     1       6.819   2.696   0.259  1.00  0.00    -0.047 A 
ATOM      3  C   UNL     1       7.849   1.998   0.895  1.00  0.00     0.016 A 
ATOM      4  C   UNL     1       7.581   0.823   1.617  1.00  0.00     0.038 A 
ATOM      5  C   UNL     1       6.260   0.321   1.682  1.00  0.00     0.076 A 
ATOM      6  C   UNL     1       5.210   1.069   1.085  1.00  0.00     0.127 A 
ATOM      7  C   UNL     1       5.507   2.222   0.350  1.00  0.00     0.050 A 
ATOM      8  C   UNL     1       6.038  -1.007   2.322  1.00  0.00     0.201 C 
ATOM      9  O   UNL     1       5.005  -1.676   2.050  1.00  0.00    -0.288 OA
ATOM     10  C   UNL     1       7.086  -1.602   3.191  1.00  0.00     0.076 A 
ATOM     11  C   UNL     1       8.388  -1.057   3.170  1.00  0.00     0.041 A 
ATOM     12  C   UNL     1       8.682   0.115   2.315  1.00  0.00     0.194 C 
ATOM     13  O   UNL     1       9.870   0.525   2.195  1.00  0.00    -0.289 OA
ATOM     14  C   UNL     1       9.399  -1.633   3.958  1.00  0.00     0.059 A 
ATOM     15  C   UNL     1       9.124  -2.738   4.770  1.00  0.00     0.120 A 
ATOM     16  C   UNL     1       7.837  -3.273   4.800  1.00  0.00     0.093 A 
ATOM     17  C   UNL     1       6.815  -2.716   4.020  1.00  0.00     0.131 A 
ENDROOT
BRANCH   6  18
ATOM     18  O   UNL     1       3.862   0.732   1.220  1.00  0.00    -0.507 OA
ATOM     19  H   UNL     1       3.463   0.339   2.061  1.00  0.00     0.293 HD
ENDBRANCH   6  18
BRANCH  17  20
ATOM     20  O   UNL     1       5.533  -3.263   4.080  1.00  0.00    -0.507 OA
ATOM     21  H   UNL     1       5.045  -3.570   3.246  1.00  0.00     0.293 HD
ENDBRANCH  17  20
BRANCH  15  22
ATOM     22  O   UNL     1      10.125  -3.310   5.552  1.00  0.00    -0.508 OA
ATOM     23  H   UNL     1      10.715  -4.054   5.198  1.00  0.00     0.293 HD
ENDBRANCH  15  22
TORSDOF 3
ENDMDL
MODEL 3
REMARK VINA RESULT:    -7.178      1.407      3.135
REMARK INTER + INTRA:          -7.808
REMARK INTER:                  -7.808
REMARK INTRA:                   0.000
REMARK UNBOUND:                 0.000
REMARK SMILES Cc1cc(O)c2c(c1)C(=O)c1cc(O)cc(O)c1C2=O
REMARK SMILES IDX 1 1 2 2 8 3 7 4 6 5 4 6 3 7 19 8 20 9 18 10 11 11 9 12 10 13
REMARK SMILES IDX 12 14 13 15 15 16 16 17 5 18 17 20 14 22
REMARK H PARENT 5 19 17 21 14 23
REMARK Flexibility Score: inf
ROOT
ATOM      1  C   UNL     1      10.123  -3.372   5.358  1.00  0.00     0.044 C 
ATOM      2  C   UNL     1       9.012  -2.639   4.665  1.00  0.00    -0.047 A 
ATOM      3  C   UNL     1       9.297  -1.557   3.827  1.00  0.00     0.016 A 
ATOM      4  C   UNL     1       8.262  -0.834   3.210  1.00  0.00     0.038 A 
ATOM      5  C   UNL     1       6.914  -1.182   3.458  1.00  0.00     0.076 A 
ATOM      6  C   UNL     1       6.634  -2.321   4.262  1.00  0.00     0.127 A 
ATOM      7  C   UNL     1       7.681  -3.007   4.884  1.00  0.00     0.050 A 
ATOM      8  C   UNL     1       5.843  -0.299   2.914  1.00  0.00     0.201 C 
ATOM      9  O   UNL     1       4.693  -0.309   3.428  1.00  0.00    -0.288 OA
ATOM     10  C   UNL     1       6.156   0.681   1.843  1.00  0.00     0.076 A 
ATOM     11  C   UNL     1       7.506   0.979   1.556  1.00  0.00     0.041 A 
ATOM     12  C   UNL     1       8.586   0.288   2.295  1.00  0.00     0.194 C 
ATOM     13  O   UNL     1       9.786   0.642   2.133  1.00  0.00    -0.289 OA
ATOM     14  C   UNL     1       7.817   1.932   0.571  1.00  0.00     0.059 A 
ATOM     15  C   UNL     1       6.800   2.584  -0.133  1.00  0.00     0.120 A 
ATOM     16  C   UNL     1       5.465   2.286   0.141  1.00  0.00     0.093 A 
ATOM     17  C   UNL     1       5.133   1.340   1.121  1.00  0.00     0.131 A 
ENDROOT
BRANCH   6  18
ATOM     18  O   UNL     1       5.345  -2.826   4.444  1.00  0.00    -0.507 OA
ATOM     19  H   UNL     1       5.130  -3.812   4.489  1.00  0.00     0.293 HD
ENDBRANCH   6  18
BRANCH  17  20
ATOM     20  O   UNL     1       3.790   1.052   1.366  1.00  0.00    -0.507 OA
ATOM     21  H   UNL     1       3.050   1.435   0.789  1.00  0.00     0.293 HD
ENDBRANCH  17  20
BRANCH  15  22
ATOM     22  O   UNL     1       7.105   3.529  -1.110  1.00  0.00    -0.508 OA
ATOM     23  H   UNL     1       7.176   3.276  -2.089  1.00  0.00     0.293 HD
ENDBRANCH  15  22
TORSDOF 3
ENDMDL
MODEL 4
REMARK VINA RESULT:    -6.765      1.283      5.501
REMARK INTER + INTRA:          -7.358
REMARK INTER:                  -7.358
REMARK INTRA:                   0.000
REMARK UNBOUND:                 0.000
REMARK SMILES Cc1cc(O)c2c(c1)C(=O)c1cc(O)cc(O)c1C2=O
REMARK SMILES IDX 1 1 2 2 8 3 7 4 6 5 4 6 3 7 19 8 20 9 18 10 11 11 9 12 10 13
REMARK SMILES IDX 12 14 13 15 15 16 16 17 5 18 17 20 14 22
REMARK H PARENT 5 19 17 21 14 23
REMARK Flexibility Score: inf
ROOT
ATOM      1  C   UNL     1       4.872   2.956  -1.125  1.00  0.00     0.044 C 
ATOM      2  C   UNL     1       5.807   2.360  -0.113  1.00  0.00    -0.047 A 
ATOM      3  C   UNL     1       5.490   1.151   0.513  1.00  0.00     0.016 A 
ATOM      4  C   UNL     1       6.334   0.608   1.496  1.00  0.00     0.038 A 
ATOM      5  C   UNL     1       7.506   1.301   1.880  1.00  0.00     0.076 A 
ATOM      6  C   UNL     1       7.853   2.498   1.196  1.00  0.00     0.127 A 
ATOM      7  C   UNL     1       6.982   3.030   0.240  1.00  0.00     0.050 A 
ATOM      8  C   UNL     1       8.293   0.776   3.032  1.00  0.00     0.201 C 
ATOM      9  O   UNL     1       9.069   1.538   3.667  1.00  0.00    -0.288 OA
ATOM     10  C   UNL     1       8.080  -0.614   3.511  1.00  0.00     0.076 A 
ATOM     11  C   UNL     1       6.941  -1.325   3.074  1.00  0.00     0.041 A 
ATOM     12  C   UNL     1       5.999  -0.694   2.123  1.00  0.00     0.194 C 
ATOM     13  O   UNL     1       4.917  -1.274   1.830  1.00  0.00    -0.289 OA
ATOM     14  C   UNL     1       6.706  -2.627   3.548  1.00  0.00     0.059 A 
ATOM     15  C   UNL     1       7.596  -3.228   4.443  1.00  0.00     0.120 A 
ATOM     16  C   UNL     1       8.727  -2.532   4.870  1.00  0.00     0.093 A 
ATOM     17  C   UNL     1       8.979  -1.232   4.412  1.00  0.00     0.131 A 
ENDROOT
BRANCH   6  18
ATOM     18  O   UNL     1       9.058   3.172   1.404  1.00  0.00    -0.507 OA
ATOM     19  H   UNL     1       9.669   3.000   2.189  1.00  0.00     0.293 HD
ENDBRANCH   6  18
BRANCH  17  20
ATOM     20  O   UNL     1      10.125  -0.564   4.844  1.00  0.00    -0.507 OA
ATOM     21  H   UNL     1      11.030  -1.021   4.869  1.00  0.00     0.293 HD
ENDBRANCH  17  20
BRANCH  15  22
ATOM     22  O   UNL     1       7.366  -4.519   4.914  1.00  0.00    -0.508 OA
ATOM     23  H   UNL     1       8.118  -5.193   5.004  1.00  0.00     0.293 HD
ENDBRANCH  15  22
TORSDOF 3
ENDMDL
MODEL 5
REMARK VINA RESULT:    -6.496      2.093      3.710
REMARK INTER + INTRA:          -7.066
REMARK INTER:                  -7.066
REMARK INTRA:                   0.000
REMARK UNBOUND:                 0.000
REMARK SMILES Cc1cc(O)c2c(c1)C(=O)c1cc(O)cc(O)c1C2=O
REMARK SMILES IDX 1 1 2 2 8 3 7 4 6 5 4 6 3 7 19 8 20 9 18 10 11 11 9 12 10 13
REMARK SMILES IDX 12 14 13 15 15 16 16 17 5 18 17 20 14 22
REMARK H PARENT 5 19 17 21 14 23
REMARK Flexibility Score: inf
ROOT
ATOM      1  C   UNL     1       9.161  -4.180   7.381  1.00  0.00     0.044 C 
ATOM      2  C   UNL     1       8.220  -3.370   6.537  1.00  0.00    -0.047 A 
ATOM      3  C   UNL     1       8.709  -2.595   5.483  1.00  0.00     0.016 A 
ATOM      4  C   UNL     1       7.844  -1.797   4.715  1.00  0.00     0.038 A 
ATOM      5  C   UNL     1       6.465  -1.753   5.026  1.00  0.00     0.076 A 
ATOM      6  C   UNL     1       5.965  -2.591   6.060  1.00  0.00     0.127 A 
ATOM      7  C   UNL     1       6.852  -3.355   6.825  1.00  0.00     0.050 A 
ATOM      8  C   UNL     1       5.605  -0.780   4.294  1.00  0.00     0.201 C 
ATOM      9  O   UNL     1       4.509  -0.405   4.791  1.00  0.00    -0.288 OA
ATOM     10  C   UNL     1       6.087  -0.157   3.035  1.00  0.00     0.076 A 
ATOM     11  C   UNL     1       7.454  -0.258   2.697  1.00  0.00     0.041 A 
ATOM     12  C   UNL     1       8.377  -1.009   3.577  1.00  0.00     0.194 C 
ATOM     13  O   UNL     1       9.618  -0.994   3.348  1.00  0.00    -0.289 OA
ATOM     14  C   UNL     1       7.932   0.358   1.527  1.00  0.00     0.059 A 
ATOM     15  C   UNL     1       7.063   1.065   0.691  1.00  0.00     0.120 A 
ATOM     16  C   UNL     1       5.710   1.160   1.017  1.00  0.00     0.093 A 
ATOM     17  C   UNL     1       5.214   0.555   2.179  1.00  0.00     0.131 A 
ENDROOT
BRANCH   6  18
ATOM     18  O   UNL     1       4.604  -2.724   6.342  1.00  0.00    -0.507 OA
ATOM     19  H   UNL     1       4.203  -3.526   6.807  1.00  0.00     0.293 HD
ENDBRANCH   6  18
BRANCH  17  20
ATOM     20  O   UNL     1       3.854   0.654   2.474  1.00  0.00    -0.507 OA
ATOM     21  H   UNL     1       3.313  -0.151   2.770  1.00  0.00     0.293 HD
ENDBRANCH  17  20
BRANCH  15  22
ATOM     22  O   UNL     1       7.535   1.676  -0.469  1.00  0.00    -0.508 OA
ATOM     23  H   UNL     1       6.948   1.784  -1.288  1.00  0.00     0.293 HD
ENDBRANCH  15  22
TORSDOF 3
ENDMDL
MODEL 6
REMARK VINA RESULT:    -6.287      2.070      6.651
REMARK INTER + INTRA:          -6.839
REMARK INTER:                  -6.839
REMARK INTRA:                   0.000
REMARK UNBOUND:                 0.000
REMARK SMILES Cc1cc(O)c2c(c1)C(=O)c1cc(O)cc(O)c1C2=O
REMARK SMILES IDX 1 1 2 2 8 3 7 4 6 5 4 6 3 7 19 8 20 9 18 10 11 11 9 12 10 13
REMARK SMILES IDX 12 14 13 15 15 16 16 17 5 18 17 20 14 22
REMARK H PARENT 5 19 17 21 14 23
REMARK Flexibility Score: inf
ROOT
ATOM      1  C   UNL     1       7.620   3.030   0.602  1.00  0.00     0.044 C 
ATOM      2  C   UNL     1       7.212   1.865   1.456  1.00  0.00    -0.047 A 
ATOM      3  C   UNL     1       7.920   1.564   2.622  1.00  0.00     0.016 A 
ATOM      4  C   UNL     1       7.577   0.448   3.404  1.00  0.00     0.038 A 
ATOM      5  C   UNL     1       6.520  -0.400   2.996  1.00  0.00     0.076 A 
ATOM      6  C   UNL     1       5.766  -0.053   1.842  1.00  0.00     0.127 A 
ATOM      7  C   UNL     1       6.145   1.048   1.068  1.00  0.00     0.050 A 
ATOM      8  C   UNL     1       6.286  -1.657   3.762  1.00  0.00     0.201 C 
ATOM      9  O   UNL     1       5.671  -2.619   3.227  1.00  0.00    -0.288 OA
ATOM     10  C   UNL     1       6.875  -1.829   5.114  1.00  0.00     0.076 A 
ATOM     11  C   UNL     1       7.886  -0.941   5.542  1.00  0.00     0.041 A 
ATOM     12  C   UNL     1       8.316   0.165   4.658  1.00  0.00     0.194 C 
ATOM     13  O   UNL     1       9.304   0.881   4.981  1.00  0.00    -0.289 OA
ATOM     14  C   UNL     1       8.479  -1.113   6.804  1.00  0.00     0.059 A 
ATOM     15  C   UNL     1       8.072  -2.154   7.644  1.00  0.00     0.120 A 
ATOM     16  C   UNL     1       7.068  -3.028   7.229  1.00  0.00     0.093 A 
ATOM     17  C   UNL     1       6.465  -2.876   5.973  1.00  0.00     0.131 A 
ENDROOT
BRANCH   6  18
ATOM     18  O   UNL     1       4.620  -0.745   1.445  1.00  0.00    -0.507 OA
ATOM     19  H   UNL     1       3.702  -0.326   1.390  1.00  0.00     0.293 HD
ENDBRANCH   6  18
BRANCH  17  20
ATOM     20  O   UNL     1       5.453  -3.756   5.589  1.00  0.00    -0.507 OA
ATOM     21  H   UNL     1       5.583  -4.762   5.617  1.00  0.00     0.293 HD
ENDBRANCH  17  20
BRANCH  15  22
ATOM     22  O   UNL     1       8.659  -2.327   8.896  1.00  0.00    -0.508 OA
ATOM     23  H   UNL     1       8.873  -3.249   9.258  1.00  0.00     0.293 HD
ENDBRANCH  15  22
TORSDOF 3
ENDMDL
MODEL 7
REMARK VINA RESULT:    -6.275      3.742      5.266
REMARK INTER + INTRA:          -6.825
REMARK INTER:                  -6.825
REMARK INTRA:                   0.000
REMARK UNBOUND:                 0.000
REMARK SMILES Cc1cc(O)c2c(c1)C(=O)c1cc(O)cc(O)c1C2=O
REMARK SMILES IDX 1 1 2 2 8 3 7 4 6 5 4 6 3 7 19 8 20 9 18 10 11 11 9 12 10 13
REMARK SMILES IDX 12 14 13 15 15 16 16 17 5 18 17 20 14 22
REMARK H PARENT 5 19 17 21 14 23
REMARK Flexibility Score: inf
ROOT
ATOM      1  C   UNL     1       4.278  -0.675  10.121  1.00  0.00     0.044 C 
ATOM      2  C   UNL     1       4.252  -0.484   8.632  1.00  0.00    -0.047 A 
ATOM      3  C   UNL     1       5.426  -0.175   7.940  1.00  0.00     0.016 A 
ATOM      4  C   UNL     1       5.405   0.051   6.554  1.00  0.00     0.038 A 
ATOM      5  C   UNL     1       4.179  -0.004   5.849  1.00  0.00     0.076 A 
ATOM      6  C   UNL     1       3.000  -0.379   6.548  1.00  0.00     0.127 A 
ATOM      7  C   UNL     1       3.044  -0.574   7.932  1.00  0.00     0.050 A 
ATOM      8  C   UNL     1       4.170   0.394   4.413  1.00  0.00     0.201 C 
ATOM      9  O   UNL     1       3.096   0.759   3.864  1.00  0.00    -0.288 OA
ATOM     10  C   UNL     1       5.444   0.477   3.653  1.00  0.00     0.076 A 
ATOM     11  C   UNL     1       6.667   0.469   4.357  1.00  0.00     0.041 A 
ATOM     12  C   UNL     1       6.667   0.342   5.832  1.00  0.00     0.194 C 
ATOM     13  O   UNL     1       7.747   0.463   6.474  1.00  0.00    -0.289 OA
ATOM     14  C   UNL     1       7.879   0.584   3.654  1.00  0.00     0.059 A 
ATOM     15  C   UNL     1       7.883   0.700   2.261  1.00  0.00     0.120 A 
ATOM     16  C   UNL     1       6.677   0.700   1.561  1.00  0.00     0.093 A 
ATOM     17  C   UNL     1       5.458   0.588   2.242  1.00  0.00     0.131 A 
ENDROOT
BRANCH   6  18
ATOM     18  O   UNL     1       1.776  -0.601   5.914  1.00  0.00    -0.507 OA
ATOM     19  H   UNL     1       1.689  -0.901   4.953  1.00  0.00     0.293 HD
ENDBRANCH   6  18
BRANCH  17  20
ATOM     20  O   UNL     1       4.267   0.577   1.515  1.00  0.00    -0.507 OA
ATOM     21  H   UNL     1       3.501   1.203   1.738  1.00  0.00     0.293 HD
ENDBRANCH  17  20
BRANCH  15  22
ATOM     22  O   UNL     1       9.083   0.815   1.562  1.00  0.00    -0.508 OA
ATOM     23  H   UNL     1       9.621  -0.002   1.294  1.00  0.00     0.293 HD
ENDBRANCH  15  22
TORSDOF 3
ENDMDL
MODEL 8
REMARK VINA RESULT:    -6.109      2.215      4.180
REMARK INTER + INTRA:          -6.644
REMARK INTER:                  -6.644
REMARK INTRA:                   0.000
REMARK UNBOUND:                 0.000
REMARK SMILES Cc1cc(O)c2c(c1)C(=O)c1cc(O)cc(O)c1C2=O
REMARK SMILES IDX 1 1 2 2 8 3 7 4 6 5 4 6 3 7 19 8 20 9 18 10 11 11 9 12 10 13
REMARK SMILES IDX 12 14 13 15 15 16 16 17 5 18 17 20 14 22
REMARK H PARENT 5 19 17 21 14 23
REMARK Flexibility Score: inf
ROOT
ATOM      1  C   UNL     1      10.098  -2.118   8.901  1.00  0.00     0.044 C 
ATOM      2  C   UNL     1       9.282  -2.178   7.643  1.00  0.00    -0.047 A 
ATOM      3  C   UNL     1       9.243  -1.084   6.775  1.00  0.00     0.016 A 
ATOM      4  C   UNL     1       8.446  -1.112   5.619  1.00  0.00     0.038 A 
ATOM      5  C   UNL     1       7.650  -2.248   5.338  1.00  0.00     0.076 A 
ATOM      6  C   UNL     1       7.743  -3.380   6.191  1.00  0.00     0.127 A 
ATOM      7  C   UNL     1       8.524  -3.316   7.350  1.00  0.00     0.050 A 
ATOM      8  C   UNL     1       6.701  -2.181   4.190  1.00  0.00     0.201 C 
ATOM      9  O   UNL     1       5.709  -2.956   4.144  1.00  0.00    -0.288 OA
ATOM     10  C   UNL     1       6.852  -1.125   3.156  1.00  0.00     0.076 A 
ATOM     11  C   UNL     1       7.696  -0.024   3.416  1.00  0.00     0.041 A 
ATOM     12  C   UNL     1       8.445   0.046   4.691  1.00  0.00     0.194 C 
ATOM     13  O   UNL     1       9.098   1.086   4.981  1.00  0.00    -0.289 OA
ATOM     14  C   UNL     1       7.820   1.001   2.463  1.00  0.00     0.059 A 
ATOM     15  C   UNL     1       7.118   0.937   1.256  1.00  0.00     0.120 A 
ATOM     16  C   UNL     1       6.290  -0.154   0.992  1.00  0.00     0.093 A 
ATOM     17  C   UNL     1       6.151  -1.186   1.929  1.00  0.00     0.131 A 
ENDROOT
BRANCH   6  18
ATOM     18  O   UNL     1       7.111  -4.595   5.917  1.00  0.00    -0.507 OA
ATOM     19  H   UNL     1       6.696  -4.823   5.025  1.00  0.00     0.293 HD
ENDBRANCH   6  18
BRANCH  17  20
ATOM     20  O   UNL     1       5.326  -2.271   1.633  1.00  0.00    -0.507 OA
ATOM     21  H   UNL     1       5.701  -3.146   1.284  1.00  0.00     0.293 HD
ENDBRANCH  17  20
BRANCH  15  22
ATOM     22  O   UNL     1       7.239   1.952   0.309  1.00  0.00    -0.508 OA
ATOM     23  H   UNL     1       6.427   2.435  -0.057  1.00  0.00     0.293 HD
ENDBRANCH  15  22
TORSDOF 3
ENDMDL
MODEL 9
REMARK VINA RESULT:    -5.936      2.688      5.794
REMARK INTER + INTRA:          -6.456
REMARK INTER:                  -6.456
REMARK INTRA:                   0.000
REMARK UNBOUND:                 0.000
REMARK SMILES Cc1cc(O)c2c(c1)C(=O)c1cc(O)cc(O)c1C2=O
REMARK SMILES IDX 1 1 2 2 8 3 7 4 6 5 4 6 3 7 19 8 20 9 18 10 11 11 9 12 10 13
REMARK SMILES IDX 12 14 13 15 15 16 16 17 5 18 17 20 14 22
REMARK H PARENT 5 19 17 21 14 23
REMARK Flexibility Score: inf
ROOT
ATOM      1  C   UNL     1       6.424   2.089  -0.280  1.00  0.00     0.044 C 
ATOM      2  C   UNL     1       6.880   1.490   1.018  1.00  0.00    -0.047 A 
ATOM      3  C   UNL     1       5.946   1.113   1.987  1.00  0.00     0.016 A 
ATOM      4  C   UNL     1       6.364   0.595   3.224  1.00  0.00     0.038 A 
ATOM      5  C   UNL     1       7.744   0.476   3.509  1.00  0.00     0.076 A 
ATOM      6  C   UNL     1       8.686   0.802   2.496  1.00  0.00     0.127 A 
ATOM      7  C   UNL     1       8.245   1.341   1.284  1.00  0.00     0.050 A 
ATOM      8  C   UNL     1       8.151   0.070   4.885  1.00  0.00     0.201 C 
ATOM      9  O   UNL     1       9.305   0.343   5.309  1.00  0.00    -0.288 OA
ATOM     10  C   UNL     1       7.162  -0.551   5.803  1.00  0.00     0.076 A 
ATOM     11  C   UNL     1       5.789  -0.485   5.483  1.00  0.00     0.041 A 
ATOM     12  C   UNL     1       5.357   0.167   4.226  1.00  0.00     0.194 C 
ATOM     13  O   UNL     1       4.128   0.342   3.998  1.00  0.00    -0.289 OA
ATOM     14  C   UNL     1       4.839  -1.035   6.360  1.00  0.00     0.059 A 
ATOM     15  C   UNL     1       5.244  -1.655   7.546  1.00  0.00     0.120 A 
ATOM     16  C   UNL     1       6.600  -1.731   7.862  1.00  0.00     0.093 A 
ATOM     17  C   UNL     1       7.563  -1.186   7.002  1.00  0.00     0.131 A 
ENDROOT
BRANCH   6  18
ATOM     18  O   UNL     1      10.058   0.581   2.632  1.00  0.00    -0.507 OA
ATOM     19  H   UNL     1      10.627   0.135   1.927  1.00  0.00     0.293 HD
ENDBRANCH   6  18
BRANCH  17  20
ATOM     20  O   UNL     1       8.914  -1.288   7.336  1.00  0.00    -0.507 OA
ATOM     21  H   UNL     1       9.342  -0.670   8.017  1.00  0.00     0.293 HD
ENDBRANCH  17  20
BRANCH  15  22
ATOM     22  O   UNL     1       4.304  -2.201   8.418  1.00  0.00    -0.508 OA
ATOM     23  H   UNL     1       4.113  -1.784   9.321  1.00  0.00     0.293 HD
ENDBRANCH  15  22
TORSDOF 3
ENDMDL
