MODEL 1
REMARK VINA RESULT:    -3.266      0.000      0.000
REMARK INTER + INTRA:          -4.155
REMARK INTER:                  -3.934
REMARK INTRA:                  -0.221
REMARK UNBOUND:                -0.221
REMARK SMILES OCC(O)CO
REMARK SMILES IDX 3 1 5 2 6 3 2 5 1 6 4 8
REMARK H PARENT 6 4 1 7 4 9
REMARK Flexibility Score: inf
ROOT
ATOM      1  C   UNL     1      30.931  34.715  24.479  1.00  0.00     0.165 C 
ENDROOT
BRANCH   1   2
ATOM      2  C   UNL     1      31.901  33.817  23.704  1.00  0.00     0.190 C 
BRANCH   2   3
ATOM      3  O   UNL     1      32.022  34.280  22.388  1.00  0.00    -0.394 OA
ATOM      4  H   UNL     1      32.895  33.944  22.057  1.00  0.00     0.210 HD
ENDBRANCH   2   3
ENDBRANCH   1   2
BRANCH   1   5
ATOM      5  C   UNL     1      29.829  35.272  23.560  1.00  0.00     0.190 C 
BRANCH   5   6
ATOM      6  O   UNL     1      30.176  36.535  23.060  1.00  0.00    -0.394 OA
ATOM      7  H   UNL     1      30.941  36.400  22.442  1.00  0.00     0.210 HD
ENDBRANCH   5   6
ENDBRANCH   1   5
BRANCH   1   8
ATOM      8  O   UNL     1      31.645  35.768  25.073  1.00  0.00    -0.388 OA
ATOM      9  H   UNL     1      31.171  36.607  24.833  1.00  0.00     0.211 HD
ENDBRANCH   1   8
TORSDOF 5
ENDMDL
MODEL 2
REMARK VINA RESULT:    -3.208      0.592      2.509
REMARK INTER + INTRA:          -4.085
REMARK INTER:                  -3.877
REMARK INTRA:                  -0.208
REMARK UNBOUND:                -0.221
REMARK SMILES OCC(O)CO
REMARK SMILES IDX 3 1 5 2 6 3 2 5 1 6 4 8
REMARK H PARENT 6 4 1 7 4 9
REMARK Flexibility Score: inf
ROOT
ATOM      1  C   UNL     1      30.969  34.335  23.743  1.00  0.00     0.165 C 
ENDROOT
BRANCH   1   2
ATOM      2  C   UNL     1      29.765  35.265  23.568  1.00  0.00     0.190 C 
BRANCH   2   3
ATOM      3  O   UNL     1      30.192  36.498  23.058  1.00  0.00    -0.394 OA
ATOM      4  H   UNL     1      29.853  37.188  23.686  1.00  0.00     0.210 HD
ENDBRANCH   2   3
ENDBRANCH   1   2
BRANCH   1   5
ATOM      5  C   UNL     1      31.721  34.634  25.052  1.00  0.00     0.190 C 
BRANCH   5   6
ATOM      6  O   UNL     1      31.797  36.014  25.289  1.00  0.00    -0.394 OA
ATOM      7  H   UNL     1      31.268  36.194  26.110  1.00  0.00     0.210 HD
ENDBRANCH   5   6
ENDBRANCH   1   5
BRANCH   1   8
ATOM      8  O   UNL     1      31.832  34.479  22.644  1.00  0.00    -0.388 OA
ATOM      9  H   UNL     1      32.718  34.129  22.927  1.00  0.00     0.211 HD
ENDBRANCH   1   8
TORSDOF 5
ENDMDL
MODEL 3
REMARK VINA RESULT:    -3.103     10.719     11.516
REMARK INTER + INTRA:          -3.959
REMARK INTER:                  -3.735
REMARK INTRA:                  -0.224
REMARK UNBOUND:                -0.221
REMARK SMILES OCC(O)CO
REMARK SMILES IDX 3 1 5 2 6 3 2 5 1 6 4 8
REMARK H PARENT 6 4 1 7 4 9
REMARK Flexibility Score: inf
ROOT
ATOM      1  C   UNL     1      32.321  25.072  28.964  1.00  0.00     0.165 C 
ENDROOT
BRANCH   1   2
ATOM      2  C   UNL     1      30.999  25.650  29.480  1.00  0.00     0.190 C 
BRANCH   2   3
ATOM      3  O   UNL     1      31.229  26.901  30.065  1.00  0.00    -0.394 OA
ATOM      4  H   UNL     1      30.444  27.085  30.643  1.00  0.00     0.210 HD
ENDBRANCH   2   3
ENDBRANCH   1   2
BRANCH   1   5
ATOM      5  C   UNL     1      33.510  25.545  29.818  1.00  0.00     0.190 C 
BRANCH   5   6
ATOM      6  O   UNL     1      33.349  25.174  31.161  1.00  0.00    -0.394 OA
ATOM      7  H   UNL     1      33.556  25.977  31.708  1.00  0.00     0.210 HD
ENDBRANCH   5   6
ENDBRANCH   1   5
BRANCH   1   8
ATOM      8  O   UNL     1      32.504  25.452  27.624  1.00  0.00    -0.388 OA
ATOM      9  H   UNL     1      31.621  25.362  27.178  1.00  0.00     0.211 HD
ENDBRANCH   1   8
TORSDOF 5
ENDMDL
MODEL 4
REMARK VINA RESULT:    -3.090      1.336      2.609
REMARK INTER + INTRA:          -3.943
REMARK INTER:                  -3.723
REMARK INTRA:                  -0.220
REMARK UNBOUND:                -0.221
REMARK SMILES OCC(O)CO
REMARK SMILES IDX 3 1 5 2 6 3 2 5 1 6 4 8
REMARK H PARENT 6 4 1 7 4 9
REMARK Flexibility Score: inf
ROOT
ATOM      1  C   UNL     1      30.086  34.357  24.036  1.00  0.00     0.165 C 
ENDROOT
BRANCH   1   2
ATOM      2  C   UNL     1      30.624  35.787  24.147  1.00  0.00     0.190 C 
BRANCH   2   3
ATOM      3  O   UNL     1      30.175  36.546  23.058  1.00  0.00    -0.394 OA
ATOM      4  H   UNL     1      29.457  36.013  22.628  1.00  0.00     0.210 HD
ENDBRANCH   2   3
ENDBRANCH   1   2
BRANCH   1   5
ATOM      5  C   UNL     1      30.925  33.518  23.057  1.00  0.00     0.190 C 
BRANCH   5   6
ATOM      6  O   UNL     1      31.835  34.320  22.353  1.00  0.00    -0.394 OA
ATOM      7  H   UNL     1      32.724  33.884  22.433  1.00  0.00     0.210 HD
ENDBRANCH   5   6
ENDBRANCH   1   5
BRANCH   1   8
ATOM      8  O   UNL     1      28.746  34.396  23.617  1.00  0.00    -0.388 OA
ATOM      9  H   UNL     1      28.714  34.974  22.810  1.00  0.00     0.211 HD
ENDBRANCH   1   8
TORSDOF 5
ENDMDL
MODEL 5
REMARK VINA RESULT:    -3.031     10.186     10.827
REMARK INTER + INTRA:          -3.872
REMARK INTER:                  -3.660
REMARK INTRA:                  -0.213
REMARK UNBOUND:                -0.221
REMARK SMILES OCC(O)CO
REMARK SMILES IDX 3 1 5 2 6 3 2 5 1 6 4 8
REMARK H PARENT 6 4 1 7 4 9
REMARK Flexibility Score: inf
ROOT
ATOM      1  C   UNL     1      33.086  25.537  29.400  1.00  0.00     0.165 C 
ENDROOT
BRANCH   1   2
ATOM      2  C   UNL     1      33.571  26.756  28.609  1.00  0.00     0.190 C 
BRANCH   2   3
ATOM      3  O   UNL     1      33.358  26.545  27.241  1.00  0.00    -0.394 OA
ATOM      4  H   UNL     1      34.107  25.972  26.930  1.00  0.00     0.210 HD
ENDBRANCH   2   3
ENDBRANCH   1   2
BRANCH   1   5
ATOM      5  C   UNL     1      31.551  25.429  29.374  1.00  0.00     0.190 C 
BRANCH   5   6
ATOM      6  O   UNL     1      31.086  25.121  28.088  1.00  0.00    -0.394 OA
ATOM      7  H   UNL     1      30.171  24.750  28.195  1.00  0.00     0.210 HD
ENDBRANCH   5   6
ENDBRANCH   1   5
BRANCH   1   8
ATOM      8  O   UNL     1      33.544  25.628  30.724  1.00  0.00    -0.388 OA
ATOM      9  H   UNL     1      33.703  24.699  31.037  1.00  0.00     0.211 HD
ENDBRANCH   1   8
TORSDOF 5
ENDMDL
MODEL 6
REMARK VINA RESULT:    -3.030     10.333     11.026
REMARK INTER + INTRA:          -3.872
REMARK INTER:                  -3.690
REMARK INTRA:                  -0.182
REMARK UNBOUND:                -0.221
REMARK SMILES OCC(O)CO
REMARK SMILES IDX 3 1 5 2 6 3 2 5 1 6 4 8
REMARK H PARENT 6 4 1 7 4 9
REMARK Flexibility Score: inf
ROOT
ATOM      1  C   UNL     1      35.128  36.983  13.548  1.00  0.00     0.165 C 
ENDROOT
BRANCH   1   2
ATOM      2  C   UNL     1      34.636  36.980  14.999  1.00  0.00     0.190 C 
BRANCH   2   3
ATOM      3  O   UNL     1      33.235  36.964  15.022  1.00  0.00    -0.394 OA
ATOM      4  H   UNL     1      32.941  37.676  14.396  1.00  0.00     0.210 HD
ENDBRANCH   2   3
ENDBRANCH   1   2
BRANCH   1   5
ATOM      5  C   UNL     1      33.955  36.857  12.561  1.00  0.00     0.190 C 
BRANCH   5   6
ATOM      6  O   UNL     1      33.546  38.115  12.094  1.00  0.00    -0.394 OA
ATOM      7  H   UNL     1      33.695  38.758  12.836  1.00  0.00     0.210 HD
ENDBRANCH   5   6
ENDBRANCH   1   5
BRANCH   1   8
ATOM      8  O   UNL     1      36.035  35.927  13.362  1.00  0.00    -0.388 OA
ATOM      9  H   UNL     1      35.510  35.155  13.021  1.00  0.00     0.211 HD
ENDBRANCH   1   8
TORSDOF 5
ENDMDL
MODEL 7
REMARK VINA RESULT:    -3.025      9.001      9.855
REMARK INTER + INTRA:          -3.865
REMARK INTER:                  -3.641
REMARK INTRA:                  -0.223
REMARK UNBOUND:                -0.221
REMARK SMILES OCC(O)CO
REMARK SMILES IDX 3 1 5 2 6 3 2 5 1 6 4 8
REMARK H PARENT 6 4 1 7 4 9
REMARK Flexibility Score: inf
ROOT
ATOM      1  C   UNL     1      35.358  36.655  15.571  1.00  0.00     0.165 C 
ENDROOT
BRANCH   1   2
ATOM      2  C   UNL     1      33.941  36.940  15.061  1.00  0.00     0.190 C 
BRANCH   2   3
ATOM      3  O   UNL     1      33.376  35.762  14.557  1.00  0.00    -0.394 OA
ATOM      4  H   UNL     1      32.707  36.044  13.880  1.00  0.00     0.210 HD
ENDBRANCH   2   3
ENDBRANCH   1   2
BRANCH   1   5
ATOM      5  C   UNL     1      36.047  35.569  14.726  1.00  0.00     0.190 C 
BRANCH   5   6
ATOM      6  O   UNL     1      36.078  35.925  13.370  1.00  0.00    -0.394 OA
ATOM      7  H   UNL     1      36.999  35.740  13.046  1.00  0.00     0.210 HD
ENDBRANCH   5   6
ENDBRANCH   1   5
BRANCH   1   8
ATOM      8  O   UNL     1      35.298  36.258  16.916  1.00  0.00    -0.388 OA
ATOM      9  H   UNL     1      34.478  36.668  17.300  1.00  0.00     0.211 HD
ENDBRANCH   1   8
TORSDOF 5
ENDMDL
MODEL 8
REMARK VINA RESULT:    -3.011     10.826     11.552
REMARK INTER + INTRA:          -3.848
REMARK INTER:                  -3.633
REMARK INTRA:                  -0.215
REMARK UNBOUND:                -0.221
REMARK SMILES OCC(O)CO
REMARK SMILES IDX 3 1 5 2 6 3 2 5 1 6 4 8
REMARK H PARENT 6 4 1 7 4 9
REMARK Flexibility Score: inf
ROOT
ATOM      1  C   UNL     1      32.408  25.710  29.064  1.00  0.00     0.165 C 
ENDROOT
BRANCH   1   2
ATOM      2  C   UNL     1      33.337  24.796  29.869  1.00  0.00     0.190 C 
BRANCH   2   3
ATOM      3  O   UNL     1      33.453  25.278  31.179  1.00  0.00    -0.394 OA
ATOM      4  H   UNL     1      32.978  24.625  31.756  1.00  0.00     0.210 HD
ENDBRANCH   2   3
ENDBRANCH   1   2
BRANCH   1   5
ATOM      5  C   UNL     1      30.951  25.590  29.545  1.00  0.00     0.190 C 
BRANCH   5   6
ATOM      6  O   UNL     1      30.788  26.155  30.818  1.00  0.00    -0.394 OA
ATOM      7  H   UNL     1      30.338  25.471  31.380  1.00  0.00     0.210 HD
ENDBRANCH   5   6
ENDBRANCH   1   5
BRANCH   1   8
ATOM      8  O   UNL     1      32.498  25.382  27.701  1.00  0.00    -0.388 OA
ATOM      9  H   UNL     1      32.941  24.495  27.649  1.00  0.00     0.211 HD
ENDBRANCH   1   8
TORSDOF 5
ENDMDL
MODEL 9
REMARK VINA RESULT:    -2.965      9.570     10.312
REMARK INTER + INTRA:          -3.793
REMARK INTER:                  -3.570
REMARK INTRA:                  -0.223
REMARK UNBOUND:                -0.221
REMARK SMILES OCC(O)CO
REMARK SMILES IDX 3 1 5 2 6 3 2 5 1 6 4 8
REMARK H PARENT 6 4 1 7 4 9
REMARK Flexibility Score: inf
ROOT
ATOM      1  C   UNL     1      34.422  36.502  13.454  1.00  0.00     0.165 C 
ENDROOT
BRANCH   1   2
ATOM      2  C   UNL     1      33.911  35.068  13.282  1.00  0.00     0.190 C 
BRANCH   2   3
ATOM      3  O   UNL     1      32.968  34.782  14.277  1.00  0.00    -0.394 OA
ATOM      4  H   UNL     1      32.826  35.629  14.775  1.00  0.00     0.210 HD
ENDBRANCH   2   3
ENDBRANCH   1   2
BRANCH   1   5
ATOM      5  C   UNL     1      34.858  36.769  14.905  1.00  0.00     0.190 C 
BRANCH   5   6
ATOM      6  O   UNL     1      33.777  37.193  15.690  1.00  0.00    -0.394 OA
ATOM      7  H   UNL     1      33.216  37.777  15.115  1.00  0.00     0.210 HD
ENDBRANCH   5   6
ENDBRANCH   1   5
BRANCH   1   8
ATOM      8  O   UNL     1      33.415  37.404  13.076  1.00  0.00    -0.388 OA
ATOM      9  H   UNL     1      32.746  37.412  13.810  1.00  0.00     0.211 HD
ENDBRANCH   1   8
TORSDOF 5
ENDMDL
