MODEL 1
REMARK VINA RESULT:    -6.131      0.000      0.000
REMARK INTER + INTRA:          -6.131
REMARK INTER:                  -6.131
REMARK INTRA:                   0.000
REMARK UNBOUND:                 0.000
REMARK SMILES CC(C)=C1CC[C@H](C)CC1=O
REMARK SMILES IDX 8 1 7 2 6 3 5 4 4 5 2 6 1 7 3 8 10 9 11 10 9 11
REMARK H PARENT
REMARK Flexibility Score: inf
ROOT
ATOM      1  C   UNL     1     -11.375 -17.226  26.157  1.00  0.00     0.008 C 
ATOM      2  C   UNL     1     -11.630 -16.505  27.485  1.00  0.00    -0.006 C 
ATOM      3  C   UNL     1     -13.046 -15.909  27.515  1.00  0.00     0.008 C 
ATOM      4  C   UNL     1     -13.283 -15.096  28.795  1.00  0.00     0.039 C 
ATOM      5  C   UNL     1     -12.954 -15.884  30.056  1.00  0.00    -0.006 C 
ATOM      6  C   UNL     1     -13.633 -15.674  31.222  1.00  0.00    -0.070 C 
ATOM      7  C   UNL     1     -14.730 -14.637  31.313  1.00  0.00     0.039 C 
ATOM      8  C   UNL     1     -13.355 -16.489  32.464  1.00  0.00     0.039 C 
ATOM      9  C   UNL     1     -11.779 -16.802  29.968  1.00  0.00     0.159 C 
ATOM     10  O   UNL     1     -11.049 -17.030  30.970  1.00  0.00    -0.295 OA
ATOM     11  C   UNL     1     -11.442 -17.470  28.666  1.00  0.00     0.084 C 
ENDROOT
TORSDOF 0
ENDMDL
MODEL 2
REMARK VINA RESULT:    -5.536      1.734      4.465
REMARK INTER + INTRA:          -5.536
REMARK INTER:                  -5.536
REMARK INTRA:                   0.000
REMARK UNBOUND:                 0.000
REMARK SMILES CC(C)=C1CC[C@H](C)CC1=O
REMARK SMILES IDX 8 1 7 2 6 3 5 4 4 5 2 6 1 7 3 8 10 9 11 10 9 11
REMARK H PARENT
REMARK Flexibility Score: inf
ROOT
ATOM      1  C   UNL     1     -11.421 -16.460  32.648  1.00  0.00     0.008 C 
ATOM      2  C   UNL     1     -11.426 -16.075  31.165  1.00  0.00    -0.006 C 
ATOM      3  C   UNL     1     -10.702 -17.141  30.327  1.00  0.00     0.008 C 
ATOM      4  C   UNL     1     -10.609 -16.723  28.853  1.00  0.00     0.039 C 
ATOM      5  C   UNL     1     -11.961 -16.337  28.268  1.00  0.00    -0.006 C 
ATOM      6  C   UNL     1     -12.252 -16.552  26.951  1.00  0.00    -0.070 C 
ATOM      7  C   UNL     1     -11.235 -17.164  26.014  1.00  0.00     0.039 C 
ATOM      8  C   UNL     1     -13.609 -16.226  26.373  1.00  0.00     0.039 C 
ATOM      9  C   UNL     1     -12.890 -15.613  29.187  1.00  0.00     0.159 C 
ATOM     10  O   UNL     1     -13.702 -14.752  28.752  1.00  0.00    -0.295 OA
ATOM     11  C   UNL     1     -12.866 -15.899  30.660  1.00  0.00     0.084 C 
ENDROOT
TORSDOF 0
ENDMDL
MODEL 3
REMARK VINA RESULT:    -5.525      2.978      5.604
REMARK INTER + INTRA:          -5.525
REMARK INTER:                  -5.525
REMARK INTRA:                   0.000
REMARK UNBOUND:                 0.000
REMARK SMILES CC(C)=C1CC[C@H](C)CC1=O
REMARK SMILES IDX 8 1 7 2 6 3 5 4 4 5 2 6 1 7 3 8 10 9 11 10 9 11
REMARK H PARENT
REMARK Flexibility Score: inf
ROOT
ATOM      1  C   UNL     1      -9.880 -14.070  36.193  1.00  0.00     0.008 C 
ATOM      2  C   UNL     1     -10.978 -14.806  35.417  1.00  0.00    -0.006 C 
ATOM      3  C   UNL     1     -12.262 -13.962  35.365  1.00  0.00     0.008 C 
ATOM      4  C   UNL     1     -13.403 -14.725  34.679  1.00  0.00     0.039 C 
ATOM      5  C   UNL     1     -13.005 -15.269  33.314  1.00  0.00    -0.006 C 
ATOM      6  C   UNL     1     -13.917 -15.389  32.304  1.00  0.00    -0.070 C 
ATOM      7  C   UNL     1     -15.364 -15.002  32.506  1.00  0.00     0.039 C 
ATOM      8  C   UNL     1     -13.521 -15.874  30.928  1.00  0.00     0.039 C 
ATOM      9  C   UNL     1     -11.602 -15.766  33.190  1.00  0.00     0.159 C 
ATOM     10  O   UNL     1     -11.312 -16.724  32.423  1.00  0.00    -0.295 OA
ATOM     11  C   UNL     1     -10.504 -15.129  33.992  1.00  0.00     0.084 C 
ENDROOT
TORSDOF 0
ENDMDL
MODEL 4
REMARK VINA RESULT:    -5.508      2.060      3.844
REMARK INTER + INTRA:          -5.508
REMARK INTER:                  -5.508
REMARK INTRA:                   0.000
REMARK UNBOUND:                 0.000
REMARK SMILES CC(C)=C1CC[C@H](C)CC1=O
REMARK SMILES IDX 8 1 7 2 6 3 5 4 4 5 2 6 1 7 3 8 10 9 11 10 9 11
REMARK H PARENT
REMARK Flexibility Score: inf
ROOT
ATOM      1  C   UNL     1     -12.578 -20.561  31.733  1.00  0.00     0.008 C 
ATOM      2  C   UNL     1     -12.275 -19.413  30.764  1.00  0.00    -0.006 C 
ATOM      3  C   UNL     1     -12.988 -19.636  29.420  1.00  0.00     0.008 C 
ATOM      4  C   UNL     1     -12.615 -18.549  28.404  1.00  0.00     0.039 C 
ATOM      5  C   UNL     1     -12.822 -17.142  28.949  1.00  0.00    -0.006 C 
ATOM      6  C   UNL     1     -13.177 -16.109  28.131  1.00  0.00    -0.070 C 
ATOM      7  C   UNL     1     -13.362 -16.314  26.644  1.00  0.00     0.039 C 
ATOM      8  C   UNL     1     -13.441 -14.721  28.669  1.00  0.00     0.039 C 
ATOM      9  C   UNL     1     -12.501 -16.947  30.395  1.00  0.00     0.159 C 
ATOM     10  O   UNL     1     -12.052 -15.849  30.823  1.00  0.00    -0.295 OA
ATOM     11  C   UNL     1     -12.706 -18.069  31.370  1.00  0.00     0.084 C 
ENDROOT
TORSDOF 0
ENDMDL
MODEL 5
REMARK VINA RESULT:    -5.374      1.925      2.133
REMARK INTER + INTRA:          -5.374
REMARK INTER:                  -5.374
REMARK INTRA:                   0.000
REMARK UNBOUND:                 0.000
REMARK SMILES CC(C)=C1CC[C@H](C)CC1=O
REMARK SMILES IDX 8 1 7 2 6 3 5 4 4 5 2 6 1 7 3 8 10 9 11 10 9 11
REMARK H PARENT
REMARK Flexibility Score: inf
ROOT
ATOM      1  C   UNL     1     -11.381 -17.005  26.121  1.00  0.00     0.008 C 
ATOM      2  C   UNL     1     -11.327 -17.308  27.621  1.00  0.00    -0.006 C 
ATOM      3  C   UNL     1     -10.947 -16.048  28.416  1.00  0.00     0.008 C 
ATOM      4  C   UNL     1     -10.789 -16.358  29.911  1.00  0.00     0.039 C 
ATOM      5  C   UNL     1     -12.002 -17.071  30.491  1.00  0.00    -0.006 C 
ATOM      6  C   UNL     1     -12.381 -16.885  31.790  1.00  0.00    -0.070 C 
ATOM      7  C   UNL     1     -11.599 -15.976  32.711  1.00  0.00     0.039 C 
ATOM      8  C   UNL     1     -13.616 -17.543  32.361  1.00  0.00     0.039 C 
ATOM      9  C   UNL     1     -12.670 -18.063  29.596  1.00  0.00     0.159 C 
ATOM     10  O   UNL     1     -13.229 -19.092  30.061  1.00  0.00    -0.295 OA
ATOM     11  C   UNL     1     -12.679 -17.849  28.110  1.00  0.00     0.084 C 
ENDROOT
TORSDOF 0
ENDMDL
MODEL 6
REMARK VINA RESULT:    -5.348      2.419      3.702
REMARK INTER + INTRA:          -5.348
REMARK INTER:                  -5.348
REMARK INTRA:                   0.000
REMARK UNBOUND:                 0.000
REMARK SMILES CC(C)=C1CC[C@H](C)CC1=O
REMARK SMILES IDX 8 1 7 2 6 3 5 4 4 5 2 6 1 7 3 8 10 9 11 10 9 11
REMARK H PARENT
REMARK Flexibility Score: inf
ROOT
ATOM      1  C   UNL     1     -12.468 -16.548  28.715  1.00  0.00     0.008 C 
ATOM      2  C   UNL     1     -12.362 -16.619  30.242  1.00  0.00    -0.006 C 
ATOM      3  C   UNL     1     -11.036 -16.008  30.722  1.00  0.00     0.008 C 
ATOM      4  C   UNL     1     -10.867 -16.162  32.239  1.00  0.00     0.039 C 
ATOM      5  C   UNL     1     -12.067 -15.638  33.017  1.00  0.00    -0.006 C 
ATOM      6  C   UNL     1     -11.923 -15.088  34.258  1.00  0.00    -0.070 C 
ATOM      7  C   UNL     1     -10.567 -14.993  34.921  1.00  0.00     0.039 C 
ATOM      8  C   UNL     1     -13.097 -14.513  35.015  1.00  0.00     0.039 C 
ATOM      9  C   UNL     1     -13.404 -15.869  32.393  1.00  0.00     0.159 C 
ATOM     10  O   UNL     1     -14.432 -16.056  33.098  1.00  0.00    -0.295 OA
ATOM     11  C   UNL     1     -13.544 -15.888  30.898  1.00  0.00     0.084 C 
ENDROOT
TORSDOF 0
ENDMDL
MODEL 7
REMARK VINA RESULT:    -5.202      1.755      4.715
REMARK INTER + INTRA:          -5.202
REMARK INTER:                  -5.202
REMARK INTRA:                   0.000
REMARK UNBOUND:                 0.000
REMARK SMILES CC(C)=C1CC[C@H](C)CC1=O
REMARK SMILES IDX 8 1 7 2 6 3 5 4 4 5 2 6 1 7 3 8 10 9 11 10 9 11
REMARK H PARENT
REMARK Flexibility Score: inf
ROOT
ATOM      1  C   UNL     1     -14.702 -14.498  33.322  1.00  0.00     0.008 C 
ATOM      2  C   UNL     1     -13.791 -15.369  32.450  1.00  0.00    -0.006 C 
ATOM      3  C   UNL     1     -14.051 -16.860  32.716  1.00  0.00     0.008 C 
ATOM      4  C   UNL     1     -13.078 -17.746  31.926  1.00  0.00     0.039 C 
ATOM      5  C   UNL     1     -13.058 -17.412  30.441  1.00  0.00    -0.006 C 
ATOM      6  C   UNL     1     -12.822 -18.374  29.501  1.00  0.00    -0.070 C 
ATOM      7  C   UNL     1     -12.553 -19.808  29.897  1.00  0.00     0.039 C 
ATOM      8  C   UNL     1     -12.856 -18.065  28.021  1.00  0.00     0.039 C 
ATOM      9  C   UNL     1     -13.193 -15.966  30.093  1.00  0.00     0.159 C 
ATOM     10  O   UNL     1     -12.626 -15.482  29.076  1.00  0.00    -0.295 OA
ATOM     11  C   UNL     1     -14.010 -15.055  30.962  1.00  0.00     0.084 C 
ENDROOT
TORSDOF 0
ENDMDL
MODEL 8
REMARK VINA RESULT:    -5.176      1.583      4.545
REMARK INTER + INTRA:          -5.176
REMARK INTER:                  -5.176
REMARK INTRA:                   0.000
REMARK UNBOUND:                 0.000
REMARK SMILES CC(C)=C1CC[C@H](C)CC1=O
REMARK SMILES IDX 8 1 7 2 6 3 5 4 4 5 2 6 1 7 3 8 10 9 11 10 9 11
REMARK H PARENT
REMARK Flexibility Score: inf
ROOT
ATOM      1  C   UNL     1     -13.270 -14.774  34.799  1.00  0.00     0.008 C 
ATOM      2  C   UNL     1     -13.008 -15.563  33.512  1.00  0.00    -0.006 C 
ATOM      3  C   UNL     1     -13.836 -14.993  32.349  1.00  0.00     0.008 C 
ATOM      4  C   UNL     1     -13.665 -15.834  31.077  1.00  0.00     0.039 C 
ATOM      5  C   UNL     1     -12.202 -16.042  30.707  1.00  0.00    -0.006 C 
ATOM      6  C   UNL     1     -11.810 -16.160  29.404  1.00  0.00    -0.070 C 
ATOM      7  C   UNL     1     -12.815 -16.107  28.276  1.00  0.00     0.039 C 
ATOM      8  C   UNL     1     -10.356 -16.310  29.022  1.00  0.00     0.039 C 
ATOM      9  C   UNL     1     -11.257 -16.224  31.849  1.00  0.00     0.159 C 
ATOM     10  O   UNL     1     -10.236 -16.956  31.743  1.00  0.00    -0.295 OA
ATOM     11  C   UNL     1     -11.514 -15.533  33.156  1.00  0.00     0.084 C 
ENDROOT
TORSDOF 0
ENDMDL
MODEL 9
REMARK VINA RESULT:    -5.094      2.321      3.409
REMARK INTER + INTRA:          -5.094
REMARK INTER:                  -5.094
REMARK INTRA:                   0.000
REMARK UNBOUND:                 0.000
REMARK SMILES CC(C)=C1CC[C@H](C)CC1=O
REMARK SMILES IDX 8 1 7 2 6 3 5 4 4 5 2 6 1 7 3 8 10 9 11 10 9 11
REMARK H PARENT
REMARK Flexibility Score: inf
ROOT
ATOM      1  C   UNL     1      -9.875 -14.782  29.374  1.00  0.00     0.008 C 
ATOM      2  C   UNL     1     -11.026 -15.763  29.622  1.00  0.00    -0.006 C 
ATOM      3  C   UNL     1     -11.248 -16.659  28.393  1.00  0.00     0.008 C 
ATOM      4  C   UNL     1     -12.462 -17.579  28.585  1.00  0.00     0.039 C 
ATOM      5  C   UNL     1     -12.395 -18.372  29.883  1.00  0.00    -0.006 C 
ATOM      6  C   UNL     1     -12.936 -19.622  29.979  1.00  0.00    -0.070 C 
ATOM      7  C   UNL     1     -13.640 -20.264  28.805  1.00  0.00     0.039 C 
ATOM      8  C   UNL     1     -12.825 -20.442  31.244  1.00  0.00     0.039 C 
ATOM      9  C   UNL     1     -11.813 -17.658  31.058  1.00  0.00     0.159 C 
ATOM     10  O   UNL     1     -12.210 -17.895  32.231  1.00  0.00    -0.295 OA
ATOM     11  C   UNL     1     -10.738 -16.629  30.858  1.00  0.00     0.084 C 
ENDROOT
TORSDOF 0
ENDMDL
