MODEL 1
REMARK VINA RESULT:    -3.276      0.000      0.000
REMARK INTER + INTRA:          -5.226
REMARK INTER:                  -4.617
REMARK INTRA:                  -0.609
REMARK UNBOUND:                -0.609
REMARK SMILES CCCCCCCCC(=O)[O-]
REMARK SMILES IDX 6 1 7 2 8 3 9 4 10 5 11 6 5 7 4 8 3 9 2 10 1 11
REMARK H PARENT
REMARK Flexibility Score: inf
ROOT
ATOM      1  C   UNL     1      43.767  31.481  88.730  1.00  0.00     0.000 C 
ENDROOT
BRANCH   1   2
ATOM      2  C   UNL     1      44.494  31.175  90.050  1.00  0.00     0.006 C 
BRANCH   2   3
ATOM      3  C   UNL     1      44.058  29.833  90.654  1.00  0.00     0.053 C 
BRANCH   3   4
ATOM      4  C   UNL     1      43.822  29.939  92.130  1.00  0.00     0.041 C 
ATOM      5  O   UNL     1      44.091  31.006  92.740  1.00  0.00    -0.550 OA
ATOM      6  O   UNL     1      43.272  28.869  92.825  1.00  0.00    -0.550 OA
ENDBRANCH   3   4
ENDBRANCH   2   3
ENDBRANCH   1   2
BRANCH   1   7
ATOM      7  C   UNL     1      43.568  30.229  87.858  1.00  0.00     0.000 C 
BRANCH   7   8
ATOM      8  C   UNL     1      42.287  30.299  87.009  1.00  0.00    -0.000 C 
BRANCH   8   9
ATOM      9  C   UNL     1      41.246  31.280  87.578  1.00  0.00    -0.000 C 
BRANCH   9  10
ATOM     10  C   UNL     1      40.056  30.618  88.298  1.00  0.00    -0.003 C 
ATOM     11  C   UNL     1      40.439  29.993  89.638  1.00  0.00     0.004 C 
ENDBRANCH   9  10
ENDBRANCH   8   9
ENDBRANCH   7   8
ENDBRANCH   1   7
TORSDOF 7
ENDMDL
MODEL 2
REMARK VINA RESULT:    -3.181      2.476      2.921
REMARK INTER + INTRA:          -5.091
REMARK INTER:                  -4.604
REMARK INTRA:                  -0.487
REMARK UNBOUND:                -0.609
REMARK SMILES CCCCCCCCC(=O)[O-]
REMARK SMILES IDX 6 1 7 2 8 3 9 4 10 5 11 6 5 7 4 8 3 9 2 10 1 11
REMARK H PARENT
REMARK Flexibility Score: inf
ROOT
ATOM      1  C   UNL     1      43.546  30.163  90.521  1.00  0.00     0.000 C 
ENDROOT
BRANCH   1   2
ATOM      2  C   UNL     1      44.708  31.078  90.947  1.00  0.00     0.006 C 
BRANCH   2   3
ATOM      3  C   UNL     1      46.065  30.368  90.864  1.00  0.00     0.053 C 
BRANCH   3   4
ATOM      4  C   UNL     1      47.079  31.190  90.129  1.00  0.00     0.041 C 
ATOM      5  O   UNL     1      48.291  31.147  90.462  1.00  0.00    -0.550 OA
ATOM      6  O   UNL     1      46.688  31.978  89.052  1.00  0.00    -0.550 OA
ENDBRANCH   3   4
ENDBRANCH   2   3
ENDBRANCH   1   2
BRANCH   1   7
ATOM      7  C   UNL     1      43.459  29.987  88.996  1.00  0.00     0.000 C 
BRANCH   7   8
ATOM      8  C   UNL     1      43.208  31.314  88.262  1.00  0.00    -0.000 C 
BRANCH   8   9
ATOM      9  C   UNL     1      41.889  31.318  87.467  1.00  0.00    -0.000 C 
BRANCH   9  10
ATOM     10  C   UNL     1      40.912  30.183  87.825  1.00  0.00    -0.003 C 
ATOM     11  C   UNL     1      39.602  30.687  88.428  1.00  0.00     0.004 C 
ENDBRANCH   9  10
ENDBRANCH   8   9
ENDBRANCH   7   8
ENDBRANCH   1   7
TORSDOF 7
ENDMDL
MODEL 3
REMARK VINA RESULT:    -3.166      1.183      1.901
REMARK INTER + INTRA:          -5.070
REMARK INTER:                  -4.362
REMARK INTRA:                  -0.708
REMARK UNBOUND:                -0.609
REMARK SMILES CCCCCCCCC(=O)[O-]
REMARK SMILES IDX 6 1 7 2 8 3 9 4 10 5 11 6 5 7 4 8 3 9 2 10 1 11
REMARK H PARENT
REMARK Flexibility Score: inf
ROOT
ATOM      1  C   UNL     1      43.471  30.270  87.829  1.00  0.00     0.000 C 
ENDROOT
BRANCH   1   2
ATOM      2  C   UNL     1      43.796  31.261  88.961  1.00  0.00     0.006 C 
BRANCH   2   3
ATOM      3  C   UNL     1      43.901  30.566  90.325  1.00  0.00     0.053 C 
BRANCH   3   4
ATOM      4  C   UNL     1      44.826  31.296  91.250  1.00  0.00     0.041 C 
ATOM      5  O   UNL     1      45.967  31.652  90.854  1.00  0.00    -0.550 OA
ATOM      6  O   UNL     1      44.415  31.613  92.539  1.00  0.00    -0.550 OA
ENDBRANCH   3   4
ENDBRANCH   2   3
ENDBRANCH   1   2
BRANCH   1   7
ATOM      7  C   UNL     1      42.308  30.744  86.941  1.00  0.00     0.000 C 
BRANCH   7   8
ATOM      8  C   UNL     1      41.098  31.223  87.761  1.00  0.00    -0.000 C 
BRANCH   8   9
ATOM      9  C   UNL     1      40.179  30.068  88.200  1.00  0.00    -0.000 C 
BRANCH   9  10
ATOM     10  C   UNL     1      40.373  29.601  89.654  1.00  0.00    -0.003 C 
ATOM     11  C   UNL     1      40.980  28.203  89.759  1.00  0.00     0.004 C 
ENDBRANCH   9  10
ENDBRANCH   8   9
ENDBRANCH   7   8
ENDBRANCH   1   7
TORSDOF 7
ENDMDL
MODEL 4
REMARK VINA RESULT:    -3.161      2.502      4.608
REMARK INTER + INTRA:          -5.063
REMARK INTER:                  -4.630
REMARK INTRA:                  -0.432
REMARK UNBOUND:                -0.609
REMARK SMILES CCCCCCCCC(=O)[O-]
REMARK SMILES IDX 6 1 7 2 8 3 9 4 10 5 11 6 5 7 4 8 3 9 2 10 1 11
REMARK H PARENT
REMARK Flexibility Score: inf
ROOT
ATOM      1  C   UNL     1      43.891  31.530  89.030  1.00  0.00     0.000 C 
ENDROOT
BRANCH   1   2
ATOM      2  C   UNL     1      43.139  30.437  88.252  1.00  0.00     0.006 C 
BRANCH   2   3
ATOM      3  C   UNL     1      41.787  30.932  87.719  1.00  0.00     0.053 C 
BRANCH   3   4
ATOM      4  C   UNL     1      40.651  30.489  88.590  1.00  0.00     0.041 C 
ATOM      5  O   UNL     1      40.879  29.893  89.674  1.00  0.00    -0.550 OA
ATOM      6  O   UNL     1      39.341  30.766  88.219  1.00  0.00    -0.550 OA
ENDBRANCH   3   4
ENDBRANCH   2   3
ENDBRANCH   1   2
BRANCH   1   7
ATOM      7  C   UNL     1      45.404  31.265  89.112  1.00  0.00     0.000 C 
BRANCH   7   8
ATOM      8  C   UNL     1      45.928  31.282  90.558  1.00  0.00    -0.000 C 
BRANCH   8   9
ATOM      9  C   UNL     1      44.802  31.411  91.600  1.00  0.00    -0.000 C 
BRANCH   9  10
ATOM     10  C   UNL     1      44.502  30.126  92.394  1.00  0.00    -0.003 C 
ATOM     11  C   UNL     1      45.327  28.928  91.928  1.00  0.00     0.004 C 
ENDBRANCH   9  10
ENDBRANCH   8   9
ENDBRANCH   7   8
ENDBRANCH   1   7
TORSDOF 7
ENDMDL
MODEL 5
REMARK VINA RESULT:    -3.160      1.449      2.008
REMARK INTER + INTRA:          -5.062
REMARK INTER:                  -4.450
REMARK INTRA:                  -0.613
REMARK UNBOUND:                -0.609
REMARK SMILES CCCCCCCCC(=O)[O-]
REMARK SMILES IDX 6 1 7 2 8 3 9 4 10 5 11 6 5 7 4 8 3 9 2 10 1 11
REMARK H PARENT
REMARK Flexibility Score: inf
ROOT
ATOM      1  C   UNL     1      43.674  28.754  89.812  1.00  0.00     0.000 C 
ENDROOT
BRANCH   1   2
ATOM      2  C   UNL     1      43.100  29.587  90.971  1.00  0.00     0.006 C 
BRANCH   2   3
ATOM      3  C   UNL     1      44.120  29.789  92.099  1.00  0.00     0.053 C 
BRANCH   3   4
ATOM      4  C   UNL     1      44.613  31.203  92.156  1.00  0.00     0.041 C 
ATOM      5  O   UNL     1      45.444  31.618  91.307  1.00  0.00    -0.550 OA
ATOM      6  O   UNL     1      44.126  32.072  93.125  1.00  0.00    -0.550 OA
ENDBRANCH   3   4
ENDBRANCH   2   3
ENDBRANCH   1   2
BRANCH   1   7
ATOM      7  C   UNL     1      43.901  29.586  88.539  1.00  0.00     0.000 C 
BRANCH   7   8
ATOM      8  C   UNL     1      43.346  31.015  88.661  1.00  0.00    -0.000 C 
BRANCH   8   9
ATOM      9  C   UNL     1      42.238  31.316  87.636  1.00  0.00    -0.000 C 
BRANCH   9  10
ATOM     10  C   UNL     1      41.166  30.220  87.497  1.00  0.00    -0.003 C 
ATOM     11  C   UNL     1      39.892  30.525  88.284  1.00  0.00     0.004 C 
ENDBRANCH   9  10
ENDBRANCH   8   9
ENDBRANCH   7   8
ENDBRANCH   1   7
TORSDOF 7
ENDMDL
MODEL 6
REMARK VINA RESULT:    -3.149      1.289      2.646
REMARK INTER + INTRA:          -5.047
REMARK INTER:                  -4.332
REMARK INTRA:                  -0.715
REMARK UNBOUND:                -0.609
REMARK SMILES CCCCCCCCC(=O)[O-]
REMARK SMILES IDX 6 1 7 2 8 3 9 4 10 5 11 6 5 7 4 8 3 9 2 10 1 11
REMARK H PARENT
REMARK Flexibility Score: inf
ROOT
ATOM      1  C   UNL     1      42.227  28.559  90.069  1.00  0.00     0.000 C 
ENDROOT
BRANCH   1   2
ATOM      2  C   UNL     1      42.739  29.767  90.872  1.00  0.00     0.006 C 
BRANCH   2   3
ATOM      3  C   UNL     1      44.016  30.365  90.266  1.00  0.00     0.053 C 
BRANCH   3   4
ATOM      4  C   UNL     1      44.816  31.116  91.286  1.00  0.00     0.041 C 
ATOM      5  O   UNL     1      45.894  31.676  90.959  1.00  0.00    -0.550 OA
ATOM      6  O   UNL     1      44.351  31.228  92.591  1.00  0.00    -0.550 OA
ENDBRANCH   3   4
ENDBRANCH   2   3
ENDBRANCH   1   2
BRANCH   1   7
ATOM      7  C   UNL     1      40.742  28.684  89.691  1.00  0.00     0.000 C 
BRANCH   7   8
ATOM      8  C   UNL     1      40.284  30.147  89.576  1.00  0.00    -0.000 C 
BRANCH   8   9
ATOM      9  C   UNL     1      40.169  30.624  88.116  1.00  0.00    -0.000 C 
BRANCH   9  10
ATOM     10  C   UNL     1      41.455  31.235  87.529  1.00  0.00    -0.003 C 
ATOM     11  C   UNL     1      42.234  30.258  86.649  1.00  0.00     0.004 C 
ENDBRANCH   9  10
ENDBRANCH   8   9
ENDBRANCH   7   8
ENDBRANCH   1   7
TORSDOF 7
ENDMDL
MODEL 7
REMARK VINA RESULT:    -3.128      1.296      1.999
REMARK INTER + INTRA:          -5.017
REMARK INTER:                  -4.520
REMARK INTRA:                  -0.498
REMARK UNBOUND:                -0.609
REMARK SMILES CCCCCCCCC(=O)[O-]
REMARK SMILES IDX 6 1 7 2 8 3 9 4 10 5 11 6 5 7 4 8 3 9 2 10 1 11
REMARK H PARENT
REMARK Flexibility Score: inf
ROOT
ATOM      1  C   UNL     1      45.765  31.239  90.425  1.00  0.00     0.000 C 
ENDROOT
BRANCH   1   2
ATOM      2  C   UNL     1      44.683  31.438  91.501  1.00  0.00     0.006 C 
BRANCH   2   3
ATOM      3  C   UNL     1      44.561  30.223  92.430  1.00  0.00     0.053 C 
BRANCH   3   4
ATOM      4  C   UNL     1      43.700  29.152  91.834  1.00  0.00     0.041 C 
ATOM      5  O   UNL     1      42.510  29.403  91.512  1.00  0.00    -0.550 OA
ATOM      6  O   UNL     1      44.224  27.887  91.601  1.00  0.00    -0.550 OA
ENDBRANCH   3   4
ENDBRANCH   2   3
ENDBRANCH   1   2
BRANCH   1   7
ATOM      7  C   UNL     1      45.175  31.067  89.015  1.00  0.00     0.000 C 
BRANCH   7   8
ATOM      8  C   UNL     1      43.720  31.559  88.921  1.00  0.00    -0.000 C 
BRANCH   8   9
ATOM      9  C   UNL     1      42.795  30.554  88.211  1.00  0.00    -0.000 C 
BRANCH   9  10
ATOM     10  C   UNL     1      41.527  31.168  87.588  1.00  0.00    -0.003 C 
ATOM     11  C   UNL     1      40.245  30.752  88.306  1.00  0.00     0.004 C 
ENDBRANCH   9  10
ENDBRANCH   8   9
ENDBRANCH   7   8
ENDBRANCH   1   7
TORSDOF 7
ENDMDL
MODEL 8
REMARK VINA RESULT:    -3.093      3.120      5.157
REMARK INTER + INTRA:          -4.967
REMARK INTER:                  -4.631
REMARK INTRA:                  -0.337
REMARK UNBOUND:                -0.609
REMARK SMILES CCCCCCCCC(=O)[O-]
REMARK SMILES IDX 6 1 7 2 8 3 9 4 10 5 11 6 5 7 4 8 3 9 2 10 1 11
REMARK H PARENT
REMARK Flexibility Score: inf
ROOT
ATOM      1  C   UNL     1      42.274  30.555  89.008  1.00  0.00     0.000 C 
ENDROOT
BRANCH   1   2
ATOM      2  C   UNL     1      41.272  30.771  87.861  1.00  0.00     0.006 C 
BRANCH   2   3
ATOM      3  C   UNL     1      39.818  30.603  88.323  1.00  0.00     0.053 C 
BRANCH   3   4
ATOM      4  C   UNL     1      39.221  29.323  87.824  1.00  0.00     0.041 C 
ATOM      5  O   UNL     1      39.910  28.271  87.797  1.00  0.00    -0.550 OA
ATOM      6  O   UNL     1      37.891  29.286  87.422  1.00  0.00    -0.550 OA
ENDBRANCH   3   4
ENDBRANCH   2   3
ENDBRANCH   1   2
BRANCH   1   7
ATOM      7  C   UNL     1      43.598  31.307  88.789  1.00  0.00     0.000 C 
BRANCH   7   8
ATOM      8  C   UNL     1      44.602  31.078  89.930  1.00  0.00    -0.000 C 
BRANCH   8   9
ATOM      9  C   UNL     1      44.081  30.099  90.998  1.00  0.00    -0.000 C 
BRANCH   9  10
ATOM     10  C   UNL     1      44.437  30.470  92.449  1.00  0.00    -0.003 C 
ATOM     11  C   UNL     1      44.252  31.957  92.749  1.00  0.00     0.004 C 
ENDBRANCH   9  10
ENDBRANCH   8   9
ENDBRANCH   7   8
ENDBRANCH   1   7
TORSDOF 7
ENDMDL
MODEL 9
REMARK VINA RESULT:    -3.076      1.621      2.580
REMARK INTER + INTRA:          -4.943
REMARK INTER:                  -4.565
REMARK INTRA:                  -0.379
REMARK UNBOUND:                -0.609
REMARK SMILES CCCCCCCCC(=O)[O-]
REMARK SMILES IDX 6 1 7 2 8 3 9 4 10 5 11 6 5 7 4 8 3 9 2 10 1 11
REMARK H PARENT
REMARK Flexibility Score: inf
ROOT
ATOM      1  C   UNL     1      42.712  30.480  87.974  1.00  0.00     0.000 C 
ENDROOT
BRANCH   1   2
ATOM      2  C   UNL     1      43.651  31.335  88.843  1.00  0.00     0.006 C 
BRANCH   2   3
ATOM      3  C   UNL     1      44.782  30.504  89.463  1.00  0.00     0.053 C 
BRANCH   3   4
ATOM      4  C   UNL     1      45.475  31.244  90.566  1.00  0.00     0.041 C 
ATOM      5  O   UNL     1      44.828  31.628  91.575  1.00  0.00    -0.550 OA
ATOM      6  O   UNL     1      46.843  31.479  90.495  1.00  0.00    -0.550 OA
ENDBRANCH   3   4
ENDBRANCH   2   3
ENDBRANCH   1   2
BRANCH   1   7
ATOM      7  C   UNL     1      41.494  31.269  87.464  1.00  0.00     0.000 C 
BRANCH   7   8
ATOM      8  C   UNL     1      40.204  30.919  88.224  1.00  0.00    -0.000 C 
BRANCH   8   9
ATOM      9  C   UNL     1      40.371  29.708  89.160  1.00  0.00    -0.000 C 
BRANCH   9  10
ATOM     10  C   UNL     1      39.687  28.416  88.678  1.00  0.00    -0.003 C 
ATOM     11  C   UNL     1      38.638  28.661  87.595  1.00  0.00     0.004 C 
ENDBRANCH   9  10
ENDBRANCH   8   9
ENDBRANCH   7   8
ENDBRANCH   1   7
TORSDOF 7
ENDMDL
