MODEL 1
REMARK VINA RESULT:    -3.584      0.000      0.000
REMARK INTER + INTRA:          -4.533
REMARK INTER:                  -4.423
REMARK INTRA:                  -0.110
REMARK UNBOUND:                -0.110
REMARK SMILES CCCCCC(=O)[O-]
REMARK SMILES IDX 4 1 5 2 6 3 7 4 8 5 3 6 2 7 1 8
REMARK H PARENT
REMARK Flexibility Score: inf
ROOT
ATOM      1  C   UNL     1      14.961  45.028   0.221  1.00  0.00     0.006 C 
ENDROOT
BRANCH   1   2
ATOM      2  C   UNL     1      13.430  45.052   0.197  1.00  0.00     0.053 C 
BRANCH   2   3
ATOM      3  C   UNL     1      12.883  43.660   0.249  1.00  0.00     0.041 C 
ATOM      4  O   UNL     1      12.115  43.247  -0.659  1.00  0.00    -0.550 OA
ATOM      5  O   UNL     1      13.184  42.835   1.324  1.00  0.00    -0.550 OA
ENDBRANCH   2   3
ENDBRANCH   1   2
BRANCH   1   6
ATOM      6  C   UNL     1      15.542  46.158  -0.642  1.00  0.00     0.000 C 
BRANCH   6   7
ATOM      7  C   UNL     1      14.453  47.019  -1.299  1.00  0.00    -0.003 C 
ATOM      8  C   UNL     1      15.018  48.030  -2.296  1.00  0.00     0.004 C 
ENDBRANCH   6   7
ENDBRANCH   1   6
TORSDOF 4
ENDMDL
MODEL 2
REMARK VINA RESULT:    -3.526      2.914      4.215
REMARK INTER + INTRA:          -4.461
REMARK INTER:                  -4.334
REMARK INTRA:                  -0.127
REMARK UNBOUND:                -0.110
REMARK SMILES CCCCCC(=O)[O-]
REMARK SMILES IDX 4 1 5 2 6 3 7 4 8 5 3 6 2 7 1 8
REMARK H PARENT
REMARK Flexibility Score: inf
ROOT
ATOM      1  C   UNL     1      14.062  45.497   0.222  1.00  0.00     0.006 C 
ENDROOT
BRANCH   1   2
ATOM      2  C   UNL     1      15.505  45.719  -0.240  1.00  0.00     0.053 C 
BRANCH   2   3
ATOM      3  C   UNL     1      15.562  46.782  -1.290  1.00  0.00     0.041 C 
ATOM      4  O   UNL     1      14.520  47.412  -1.610  1.00  0.00    -0.550 OA
ATOM      5  O   UNL     1      16.755  47.044  -1.950  1.00  0.00    -0.550 OA
ENDBRANCH   2   3
ENDBRANCH   1   2
BRANCH   1   6
ATOM      6  C   UNL     1      13.827  44.028   0.606  1.00  0.00     0.000 C 
BRANCH   6   7
ATOM      7  C   UNL     1      12.557  43.448  -0.034  1.00  0.00    -0.003 C 
ATOM      8  C   UNL     1      11.855  44.440  -0.961  1.00  0.00     0.004 C 
ENDBRANCH   6   7
ENDBRANCH   1   6
TORSDOF 4
ENDMDL
MODEL 3
REMARK VINA RESULT:    -3.515      2.515      4.125
REMARK INTER + INTRA:          -4.447
REMARK INTER:                  -4.275
REMARK INTRA:                  -0.173
REMARK UNBOUND:                -0.110
REMARK SMILES CCCCCC(=O)[O-]
REMARK SMILES IDX 4 1 5 2 6 3 7 4 8 5 3 6 2 7 1 8
REMARK H PARENT
REMARK Flexibility Score: inf
ROOT
ATOM      1  C   UNL     1      13.359  45.750  -0.133  1.00  0.00     0.006 C 
ENDROOT
BRANCH   1   2
ATOM      2  C   UNL     1      14.503  46.178  -1.057  1.00  0.00     0.053 C 
BRANCH   2   3
ATOM      3  C   UNL     1      15.824  45.967  -0.388  1.00  0.00     0.041 C 
ATOM      4  O   UNL     1      16.706  46.864  -0.431  1.00  0.00    -0.550 OA
ATOM      5  O   UNL     1      16.098  44.761   0.242  1.00  0.00    -0.550 OA
ENDBRANCH   2   3
ENDBRANCH   1   2
BRANCH   1   6
ATOM      6  C   UNL     1      12.306  44.937  -0.902  1.00  0.00     0.000 C 
BRANCH   6   7
ATOM      7  C   UNL     1      12.263  43.465  -0.465  1.00  0.00    -0.003 C 
ATOM      8  C   UNL     1      13.053  43.204   0.817  1.00  0.00     0.004 C 
ENDBRANCH   6   7
ENDBRANCH   1   6
TORSDOF 4
ENDMDL
MODEL 4
REMARK VINA RESULT:    -3.147      1.101      1.569
REMARK INTER + INTRA:          -3.993
REMARK INTER:                  -3.898
REMARK INTRA:                  -0.095
REMARK UNBOUND:                -0.110
REMARK SMILES CCCCCC(=O)[O-]
REMARK SMILES IDX 4 1 5 2 6 3 7 4 8 5 3 6 2 7 1 8
REMARK H PARENT
REMARK Flexibility Score: inf
ROOT
ATOM      1  C   UNL     1      14.563  45.965  -0.852  1.00  0.00     0.006 C 
ENDROOT
BRANCH   1   2
ATOM      2  C   UNL     1      13.147  45.831  -0.284  1.00  0.00     0.053 C 
BRANCH   2   3
ATOM      3  C   UNL     1      12.778  44.390  -0.131  1.00  0.00     0.041 C 
ATOM      4  O   UNL     1      11.896  43.879  -0.871  1.00  0.00    -0.550 OA
ATOM      5  O   UNL     1      13.373  43.621   0.861  1.00  0.00    -0.550 OA
ENDBRANCH   2   3
ENDBRANCH   1   2
BRANCH   1   6
ATOM      6  C   UNL     1      14.721  47.282  -1.628  1.00  0.00     0.000 C 
BRANCH   6   7
ATOM      7  C   UNL     1      15.902  48.125  -1.124  1.00  0.00    -0.003 C 
ATOM      8  C   UNL     1      16.767  47.383  -0.106  1.00  0.00     0.004 C 
ENDBRANCH   6   7
ENDBRANCH   1   6
TORSDOF 4
ENDMDL
MODEL 5
REMARK VINA RESULT:    -3.051     10.982     12.286
REMARK INTER + INTRA:          -3.875
REMARK INTER:                  -3.785
REMARK INTRA:                  -0.089
REMARK UNBOUND:                -0.110
REMARK SMILES CCCCCC(=O)[O-]
REMARK SMILES IDX 4 1 5 2 6 3 7 4 8 5 3 6 2 7 1 8
REMARK H PARENT
REMARK Flexibility Score: inf
ROOT
ATOM      1  C   UNL     1      14.480  38.765   9.182  1.00  0.00     0.006 C 
ENDROOT
BRANCH   1   2
ATOM      2  C   UNL     1      14.123  37.782  10.301  1.00  0.00     0.053 C 
BRANCH   2   3
ATOM      3  C   UNL     1      14.561  38.316  11.627  1.00  0.00     0.041 C 
ATOM      4  O   UNL     1      13.743  38.389  12.582  1.00  0.00    -0.550 OA
ATOM      5  O   UNL     1      15.859  38.778  11.796  1.00  0.00    -0.550 OA
ENDBRANCH   2   3
ENDBRANCH   1   2
BRANCH   1   6
ATOM      6  C   UNL     1      13.807  38.363   7.861  1.00  0.00     0.000 C 
BRANCH   6   7
ATOM      7  C   UNL     1      14.672  38.689   6.634  1.00  0.00    -0.003 C 
ATOM      8  C   UNL     1      16.111  39.050   7.004  1.00  0.00     0.004 C 
ENDBRANCH   6   7
ENDBRANCH   1   6
TORSDOF 4
ENDMDL
MODEL 6
REMARK VINA RESULT:    -2.950     11.685     13.226
REMARK INTER + INTRA:          -3.750
REMARK INTER:                  -3.680
REMARK INTRA:                  -0.070
REMARK UNBOUND:                -0.110
REMARK SMILES CCCCCC(=O)[O-]
REMARK SMILES IDX 4 1 5 2 6 3 7 4 8 5 3 6 2 7 1 8
REMARK H PARENT
REMARK Flexibility Score: inf
ROOT
ATOM      1  C   UNL     1      13.997  37.946  10.362  1.00  0.00     0.006 C 
ENDROOT
BRANCH   1   2
ATOM      2  C   UNL     1      15.115  37.655  11.367  1.00  0.00     0.053 C 
BRANCH   2   3
ATOM      3  C   UNL     1      14.699  38.058  12.746  1.00  0.00     0.041 C 
ATOM      4  O   UNL     1      13.541  38.507  12.952  1.00  0.00    -0.550 OA
ATOM      5  O   UNL     1      15.605  37.983  13.795  1.00  0.00    -0.550 OA
ENDBRANCH   2   3
ENDBRANCH   1   2
BRANCH   1   6
ATOM      6  C   UNL     1      14.523  38.768   9.176  1.00  0.00     0.000 C 
BRANCH   6   7
ATOM      7  C   UNL     1      13.854  38.383   7.848  1.00  0.00    -0.003 C 
ATOM      8  C   UNL     1      14.724  38.702   6.633  1.00  0.00     0.004 C 
ENDBRANCH   6   7
ENDBRANCH   1   6
TORSDOF 4
ENDMDL
MODEL 7
REMARK VINA RESULT:    -2.924     11.033     12.817
REMARK INTER + INTRA:          -3.718
REMARK INTER:                  -3.611
REMARK INTRA:                  -0.107
REMARK UNBOUND:                -0.110
REMARK SMILES CCCCCC(=O)[O-]
REMARK SMILES IDX 4 1 5 2 6 3 7 4 8 5 3 6 2 7 1 8
REMARK H PARENT
REMARK Flexibility Score: inf
ROOT
ATOM      1  C   UNL     1      14.088  37.980  10.179  1.00  0.00     0.006 C 
ENDROOT
BRANCH   1   2
ATOM      2  C   UNL     1      14.792  38.995   9.274  1.00  0.00     0.053 C 
BRANCH   2   3
ATOM      3  C   UNL     1      14.430  38.761   7.842  1.00  0.00     0.041 C 
ATOM      4  O   UNL     1      15.086  39.318   6.923  1.00  0.00    -0.550 OA
ATOM      5  O   UNL     1      13.338  37.965   7.522  1.00  0.00    -0.550 OA
ENDBRANCH   2   3
ENDBRANCH   1   2
BRANCH   1   6
ATOM      6  C   UNL     1      15.072  37.366  11.187  1.00  0.00     0.000 C 
BRANCH   6   7
ATOM      7  C   UNL     1      15.109  38.133  12.517  1.00  0.00    -0.003 C 
ATOM      8  C   UNL     1      13.715  38.481  13.038  1.00  0.00     0.004 C 
ENDBRANCH   6   7
ENDBRANCH   1   6
TORSDOF 4
ENDMDL
MODEL 8
REMARK VINA RESULT:    -2.899      9.589     11.505
REMARK INTER + INTRA:          -3.687
REMARK INTER:                  -3.817
REMARK INTRA:                   0.130
REMARK UNBOUND:                -0.110
REMARK SMILES CCCCCC(=O)[O-]
REMARK SMILES IDX 4 1 5 2 6 3 7 4 8 5 3 6 2 7 1 8
REMARK H PARENT
REMARK Flexibility Score: inf
ROOT
ATOM      1  C   UNL     1      13.847  38.403   7.823  1.00  0.00     0.006 C 
ENDROOT
BRANCH   1   2
ATOM      2  C   UNL     1      14.822  38.682   6.674  1.00  0.00     0.053 C 
BRANCH   2   3
ATOM      3  C   UNL     1      15.770  39.777   7.046  1.00  0.00     0.041 C 
ATOM      4  O   UNL     1      15.399  40.980   6.996  1.00  0.00    -0.550 OA
ATOM      5  O   UNL     1      17.077  39.474   7.402  1.00  0.00    -0.550 OA
ENDBRANCH   2   3
ENDBRANCH   1   2
BRANCH   1   6
ATOM      6  C   UNL     1      14.480  38.753   9.178  1.00  0.00     0.000 C 
BRANCH   6   7
ATOM      7  C   UNL     1      14.042  37.798  10.298  1.00  0.00    -0.003 C 
ATOM      8  C   UNL     1      14.619  38.180  11.661  1.00  0.00     0.004 C 
ENDBRANCH   6   7
ENDBRANCH   1   6
TORSDOF 4
ENDMDL
MODEL 9
REMARK VINA RESULT:    -2.773      9.623     11.312
REMARK INTER + INTRA:          -3.532
REMARK INTER:                  -3.278
REMARK INTRA:                  -0.254
REMARK UNBOUND:                -0.110
REMARK SMILES CCCCCC(=O)[O-]
REMARK SMILES IDX 4 1 5 2 6 3 7 4 8 5 3 6 2 7 1 8
REMARK H PARENT
REMARK Flexibility Score: inf
ROOT
ATOM      1  C   UNL     1      15.281  40.134   8.861  1.00  0.00     0.006 C 
ENDROOT
BRANCH   1   2
ATOM      2  C   UNL     1      15.766  40.212   7.410  1.00  0.00     0.053 C 
BRANCH   2   3
ATOM      3  C   UNL     1      15.566  38.901   6.720  1.00  0.00     0.041 C 
ATOM      4  O   UNL     1      14.422  38.376   6.674  1.00  0.00    -0.550 OA
ATOM      5  O   UNL     1      16.652  38.234   6.167  1.00  0.00    -0.550 OA
ENDBRANCH   2   3
ENDBRANCH   1   2
BRANCH   1   6
ATOM      6  C   UNL     1      16.236  39.287   9.715  1.00  0.00     0.000 C 
BRANCH   6   7
ATOM      7  C   UNL     1      15.494  38.368  10.696  1.00  0.00    -0.003 C 
ATOM      8  C   UNL     1      14.110  37.959  10.191  1.00  0.00     0.004 C 
ENDBRANCH   6   7
ENDBRANCH   1   6
TORSDOF 4
ENDMDL
