MODEL 1
REMARK VINA RESULT:    -4.425      0.000      0.000
REMARK INTER + INTRA:         -10.289
REMARK INTER:                  -8.305
REMARK INTRA:                  -1.984
REMARK UNBOUND:                -1.984
REMARK SMILES CCCCCCCCC=CCCCCCCCC(=O)[O-]
REMARK SMILES IDX 10 1 9 2 11 3 12 4 13 5 14 6 15 7 16 8 17 9 18 10 19 11
REMARK SMILES IDX 20 12 8 13 7 14 6 15 5 16 4 17 3 18 2 19 1 20
REMARK H PARENT
REMARK Flexibility Score: inf
ROOT
ATOM      1  C   UNL     1     -12.077  -7.647  15.665  1.00  0.00    -0.031 C 
ATOM      2  C   UNL     1     -12.130  -8.486  16.716  1.00  0.00    -0.031 C 
ENDROOT
BRANCH   1   3
ATOM      3  C   UNL     1     -11.120  -6.487  15.540  1.00  0.00     0.027 C 
BRANCH   3   4
ATOM      4  C   UNL     1     -11.850  -5.173  15.224  1.00  0.00     0.004 C 
BRANCH   4   5
ATOM      5  C   UNL     1     -12.952  -5.363  14.167  1.00  0.00     0.000 C 
BRANCH   5   6
ATOM      6  C   UNL     1     -12.532  -4.854  12.779  1.00  0.00     0.000 C 
BRANCH   6   7
ATOM      7  C   UNL     1     -11.767  -5.913  11.969  1.00  0.00     0.000 C 
BRANCH   7   8
ATOM      8  C   UNL     1     -10.261  -5.630  11.980  1.00  0.00     0.006 C 
BRANCH   8   9
ATOM      9  C   UNL     1      -9.468  -6.887  12.346  1.00  0.00     0.053 C 
BRANCH   9  10
ATOM     10  C   UNL     1      -8.818  -7.470  11.132  1.00  0.00     0.041 C 
ATOM     11  O   UNL     1      -8.073  -8.481  11.236  1.00  0.00    -0.550 OA
ATOM     12  O   UNL     1      -9.069  -6.925   9.878  1.00  0.00    -0.550 OA
ENDBRANCH   9  10
ENDBRANCH   8   9
ENDBRANCH   7   8
ENDBRANCH   6   7
ENDBRANCH   5   6
ENDBRANCH   4   5
ENDBRANCH   3   4
ENDBRANCH   1   3
BRANCH   2  13
ATOM     13  C   UNL     1     -11.179  -8.451  17.887  1.00  0.00     0.027 C 
BRANCH  13  14
ATOM     14  C   UNL     1     -11.945  -8.251  19.203  1.00  0.00     0.004 C 
BRANCH  14  15
ATOM     15  C   UNL     1     -11.463  -7.020  19.987  1.00  0.00     0.000 C 
BRANCH  15  16
ATOM     16  C   UNL     1     -10.439  -6.183  19.204  1.00  0.00     0.000 C 
BRANCH  16  17
ATOM     17  C   UNL     1     -10.994  -4.782  18.903  1.00  0.00    -0.000 C 
BRANCH  17  18
ATOM     18  C   UNL     1     -12.084  -4.349  19.895  1.00  0.00    -0.000 C 
BRANCH  18  19
ATOM     19  C   UNL     1     -11.546  -3.431  21.003  1.00  0.00    -0.003 C 
ATOM     20  C   UNL     1     -11.791  -4.036  22.383  1.00  0.00     0.004 C 
ENDBRANCH  18  19
ENDBRANCH  17  18
ENDBRANCH  16  17
ENDBRANCH  15  16
ENDBRANCH  14  15
ENDBRANCH  13  14
ENDBRANCH   2  13
TORSDOF 15
ENDMDL
MODEL 2
REMARK VINA RESULT:    -4.252      3.747      8.192
REMARK INTER + INTRA:          -9.964
REMARK INTER:                  -8.669
REMARK INTRA:                  -1.294
REMARK UNBOUND:                -1.984
REMARK SMILES CCCCCCCCC=CCCCCCCCC(=O)[O-]
REMARK SMILES IDX 10 1 9 2 11 3 12 4 13 5 14 6 15 7 16 8 17 9 18 10 19 11
REMARK SMILES IDX 20 12 8 13 7 14 6 15 5 16 4 17 3 18 2 19 1 20
REMARK H PARENT
REMARK Flexibility Score: inf
ROOT
ATOM      1  C   UNL     1     -11.170  -5.968  16.001  1.00  0.00    -0.031 C 
ATOM      2  C   UNL     1     -12.047  -5.158  15.379  1.00  0.00    -0.031 C 
ENDROOT
BRANCH   1   3
ATOM      3  C   UNL     1     -11.114  -7.467  15.827  1.00  0.00     0.027 C 
BRANCH   3   4
ATOM      4  C   UNL     1     -10.717  -8.180  17.128  1.00  0.00     0.004 C 
BRANCH   4   5
ATOM      5  C   UNL     1     -11.937  -8.481  18.018  1.00  0.00     0.000 C 
BRANCH   5   6
ATOM      6  C   UNL     1     -11.737  -8.013  19.468  1.00  0.00     0.000 C 
BRANCH   6   7
ATOM      7  C   UNL     1     -10.459  -7.179  19.649  1.00  0.00     0.000 C 
BRANCH   7   8
ATOM      8  C   UNL     1     -10.764  -5.856  20.359  1.00  0.00     0.006 C 
BRANCH   8   9
ATOM      9  C   UNL     1     -11.240  -4.794  19.364  1.00  0.00     0.053 C 
BRANCH   9  10
ATOM     10  C   UNL     1     -12.119  -3.793  20.045  1.00  0.00     0.041 C 
ATOM     11  O   UNL     1     -12.990  -3.165  19.387  1.00  0.00    -0.550 OA
ATOM     12  O   UNL     1     -12.008  -3.586  21.414  1.00  0.00    -0.550 OA
ENDBRANCH   9  10
ENDBRANCH   8   9
ENDBRANCH   7   8
ENDBRANCH   6   7
ENDBRANCH   5   6
ENDBRANCH   4   5
ENDBRANCH   3   4
ENDBRANCH   1   3
BRANCH   2  13
ATOM     13  C   UNL     1     -13.045  -5.612  14.343  1.00  0.00     0.027 C 
BRANCH  13  14
ATOM     14  C   UNL     1     -13.068  -4.644  13.151  1.00  0.00     0.004 C 
BRANCH  14  15
ATOM     15  C   UNL     1     -12.237  -5.151  11.960  1.00  0.00     0.000 C 
BRANCH  15  16
ATOM     16  C   UNL     1     -11.176  -6.181  12.375  1.00  0.00     0.000 C 
BRANCH  16  17
ATOM     17  C   UNL     1     -10.215  -6.475  11.213  1.00  0.00    -0.000 C 
BRANCH  17  18
ATOM     18  C   UNL     1      -9.083  -5.441  11.103  1.00  0.00    -0.000 C 
BRANCH  18  19
ATOM     19  C   UNL     1      -7.907  -5.939  10.248  1.00  0.00    -0.003 C 
ATOM     20  C   UNL     1      -8.275  -7.222   9.506  1.00  0.00     0.004 C 
ENDBRANCH  18  19
ENDBRANCH  17  18
ENDBRANCH  16  17
ENDBRANCH  15  16
ENDBRANCH  14  15
ENDBRANCH  13  14
ENDBRANCH   2  13
TORSDOF 15
ENDMDL
MODEL 3
REMARK VINA RESULT:    -4.204     16.418     18.758
REMARK INTER + INTRA:          -9.875
REMARK INTER:                  -7.723
REMARK INTRA:                  -2.152
REMARK UNBOUND:                -1.984
REMARK SMILES CCCCCCCCC=CCCCCCCCC(=O)[O-]
REMARK SMILES IDX 10 1 9 2 11 3 12 4 13 5 14 6 15 7 16 8 17 9 18 10 19 11
REMARK SMILES IDX 20 12 8 13 7 14 6 15 5 16 4 17 3 18 2 19 1 20
REMARK H PARENT
REMARK Flexibility Score: inf
ROOT
ATOM      1  C   UNL     1       5.407  -7.115  14.581  1.00  0.00    -0.031 C 
ATOM      2  C   UNL     1       5.206  -6.127  13.689  1.00  0.00    -0.031 C 
ENDROOT
BRANCH   1   3
ATOM      3  C   UNL     1       6.762  -7.603  15.031  1.00  0.00     0.027 C 
BRANCH   3   4
ATOM      4  C   UNL     1       6.691  -8.331  16.381  1.00  0.00     0.004 C 
BRANCH   4   5
ATOM      5  C   UNL     1       7.121  -7.426  17.550  1.00  0.00     0.000 C 
BRANCH   5   6
ATOM      6  C   UNL     1       6.098  -7.419  18.697  1.00  0.00     0.000 C 
BRANCH   6   7
ATOM      7  C   UNL     1       6.279  -6.220  19.641  1.00  0.00     0.000 C 
BRANCH   7   8
ATOM      8  C   UNL     1       6.270  -6.670  21.106  1.00  0.00     0.006 C 
BRANCH   8   9
ATOM      9  C   UNL     1       7.125  -5.742  21.972  1.00  0.00     0.053 C 
BRANCH   9  10
ATOM     10  C   UNL     1       6.441  -5.459  23.272  1.00  0.00     0.041 C 
ATOM     11  O   UNL     1       6.852  -4.527  24.014  1.00  0.00    -0.550 OA
ATOM     12  O   UNL     1       5.322  -6.194  23.645  1.00  0.00    -0.550 OA
ENDBRANCH   9  10
ENDBRANCH   8   9
ENDBRANCH   7   8
ENDBRANCH   6   7
ENDBRANCH   5   6
ENDBRANCH   4   5
ENDBRANCH   3   4
ENDBRANCH   1   3
BRANCH   2  13
ATOM     13  C   UNL     1       6.303  -5.295  13.073  1.00  0.00     0.027 C 
BRANCH  13  14
ATOM     14  C   UNL     1       5.715  -4.093  12.320  1.00  0.00     0.004 C 
BRANCH  14  15
ATOM     15  C   UNL     1       5.572  -2.848  13.212  1.00  0.00     0.000 C 
BRANCH  15  16
ATOM     16  C   UNL     1       6.752  -2.675  14.180  1.00  0.00     0.000 C 
BRANCH  16  17
ATOM     17  C   UNL     1       6.255  -2.464  15.618  1.00  0.00    -0.000 C 
BRANCH  17  18
ATOM     18  C   UNL     1       6.332  -3.742  16.467  1.00  0.00    -0.000 C 
BRANCH  18  19
ATOM     19  C   UNL     1       4.948  -4.250  16.900  1.00  0.00    -0.003 C 
ATOM     20  C   UNL     1       3.854  -3.257  16.512  1.00  0.00     0.004 C 
ENDBRANCH  18  19
ENDBRANCH  17  18
ENDBRANCH  16  17
ENDBRANCH  15  16
ENDBRANCH  14  15
ENDBRANCH  13  14
ENDBRANCH   2  13
TORSDOF 15
ENDMDL
MODEL 4
REMARK VINA RESULT:    -4.174     15.272     17.101
REMARK INTER + INTRA:          -9.818
REMARK INTER:                  -6.821
REMARK INTRA:                  -2.997
REMARK UNBOUND:                -1.984
REMARK SMILES CCCCCCCCC=CCCCCCCCC(=O)[O-]
REMARK SMILES IDX 10 1 9 2 11 3 12 4 13 5 14 6 15 7 16 8 17 9 18 10 19 11
REMARK SMILES IDX 20 12 8 13 7 14 6 15 5 16 4 17 3 18 2 19 1 20
REMARK H PARENT
REMARK Flexibility Score: inf
ROOT
ATOM      1  C   UNL     1       4.660  -6.608  17.874  1.00  0.00    -0.031 C 
ATOM      2  C   UNL     1       4.538  -5.345  17.423  1.00  0.00    -0.031 C 
ENDROOT
BRANCH   1   3
ATOM      3  C   UNL     1       5.843  -7.132  18.650  1.00  0.00     0.027 C 
BRANCH   3   4
ATOM      4  C   UNL     1       7.037  -7.441  17.736  1.00  0.00     0.004 C 
BRANCH   4   5
ATOM      5  C   UNL     1       6.650  -8.367  16.570  1.00  0.00     0.000 C 
BRANCH   5   6
ATOM      6  C   UNL     1       6.789  -7.681  15.201  1.00  0.00     0.000 C 
BRANCH   6   7
ATOM      7  C   UNL     1       5.483  -7.708  14.392  1.00  0.00     0.000 C 
BRANCH   7   8
ATOM      8  C   UNL     1       5.170  -6.324  13.811  1.00  0.00     0.006 C 
BRANCH   8   9
ATOM      9  C   UNL     1       6.407  -5.712  13.149  1.00  0.00     0.053 C 
BRANCH   9  10
ATOM     10  C   UNL     1       6.090  -5.262  11.758  1.00  0.00     0.041 C 
ATOM     11  O   UNL     1       4.922  -4.894  11.463  1.00  0.00    -0.550 OA
ATOM     12  O   UNL     1       7.093  -5.205  10.799  1.00  0.00    -0.550 OA
ENDBRANCH   9  10
ENDBRANCH   8   9
ENDBRANCH   7   8
ENDBRANCH   6   7
ENDBRANCH   5   6
ENDBRANCH   4   5
ENDBRANCH   3   4
ENDBRANCH   1   3
BRANCH   2  13
ATOM     13  C   UNL     1       5.523  -4.238  17.706  1.00  0.00     0.027 C 
BRANCH  13  14
ATOM     14  C   UNL     1       6.443  -4.007  16.497  1.00  0.00     0.004 C 
BRANCH  14  15
ATOM     15  C   UNL     1       6.414  -2.552  16.001  1.00  0.00     0.000 C 
BRANCH  15  16
ATOM     16  C   UNL     1       5.979  -2.437  14.532  1.00  0.00     0.000 C 
BRANCH  16  17
ATOM     17  C   UNL     1       4.526  -1.950  14.428  1.00  0.00    -0.000 C 
BRANCH  17  18
ATOM     18  C   UNL     1       3.534  -3.093  14.163  1.00  0.00    -0.000 C 
BRANCH  18  19
ATOM     19  C   UNL     1       2.518  -3.271  15.302  1.00  0.00    -0.003 C 
ATOM     20  C   UNL     1       2.519  -2.060  16.232  1.00  0.00     0.004 C 
ENDBRANCH  18  19
ENDBRANCH  17  18
ENDBRANCH  16  17
ENDBRANCH  15  16
ENDBRANCH  14  15
ENDBRANCH  13  14
ENDBRANCH   2  13
TORSDOF 15
ENDMDL
MODEL 5
REMARK VINA RESULT:    -4.135      3.155      6.365
REMARK INTER + INTRA:          -9.744
REMARK INTER:                  -8.025
REMARK INTRA:                  -1.719
REMARK UNBOUND:                -1.984
REMARK SMILES CCCCCCCCC=CCCCCCCCC(=O)[O-]
REMARK SMILES IDX 10 1 9 2 11 3 12 4 13 5 14 6 15 7 16 8 17 9 18 10 19 11
REMARK SMILES IDX 20 12 8 13 7 14 6 15 5 16 4 17 3 18 2 19 1 20
REMARK H PARENT
REMARK Flexibility Score: inf
ROOT
ATOM      1  C   UNL     1     -11.060  -8.487  23.864  1.00  0.00    -0.031 C 
ATOM      2  C   UNL     1     -11.799  -8.130  24.932  1.00  0.00    -0.031 C 
ENDROOT
BRANCH   1   3
ATOM      3  C   UNL     1     -10.917  -7.666  22.606  1.00  0.00     0.027 C 
BRANCH   3   4
ATOM      4  C   UNL     1      -9.696  -8.092  21.779  1.00  0.00     0.004 C 
BRANCH   4   5
ATOM      5  C   UNL     1     -10.083  -9.014  20.608  1.00  0.00     0.000 C 
BRANCH   5   6
ATOM      6  C   UNL     1     -11.605  -9.125  20.424  1.00  0.00     0.000 C 
BRANCH   6   7
ATOM      7  C   UNL     1     -12.109  -8.347  19.198  1.00  0.00     0.000 C 
BRANCH   7   8
ATOM      8  C   UNL     1     -11.284  -8.692  17.953  1.00  0.00     0.006 C 
BRANCH   8   9
ATOM      9  C   UNL     1     -11.089  -7.461  17.064  1.00  0.00     0.053 C 
BRANCH   9  10
ATOM     10  C   UNL     1     -11.702  -7.683  15.718  1.00  0.00     0.041 C 
ATOM     11  O   UNL     1     -12.754  -8.367  15.606  1.00  0.00    -0.550 OA
ATOM     12  O   UNL     1     -11.139  -7.096  14.591  1.00  0.00    -0.550 OA
ENDBRANCH   9  10
ENDBRANCH   8   9
ENDBRANCH   7   8
ENDBRANCH   6   7
ENDBRANCH   5   6
ENDBRANCH   4   5
ENDBRANCH   3   4
ENDBRANCH   1   3
BRANCH   2  13
ATOM     13  C   UNL     1     -12.521  -6.814  25.070  1.00  0.00     0.027 C 
BRANCH  13  14
ATOM     14  C   UNL     1     -11.621  -5.768  25.745  1.00  0.00     0.004 C 
BRANCH  14  15
ATOM     15  C   UNL     1     -11.245  -4.614  24.802  1.00  0.00     0.000 C 
BRANCH  15  16
ATOM     16  C   UNL     1     -12.390  -4.226  23.854  1.00  0.00     0.000 C 
BRANCH  16  17
ATOM     17  C   UNL     1     -11.882  -4.088  22.410  1.00  0.00    -0.000 C 
BRANCH  17  18
ATOM     18  C   UNL     1     -10.349  -4.116  22.314  1.00  0.00    -0.000 C 
BRANCH  18  19
ATOM     19  C   UNL     1      -9.786  -2.953  21.483  1.00  0.00    -0.003 C 
ATOM     20  C   UNL     1      -9.839  -1.643  22.267  1.00  0.00     0.004 C 
ENDBRANCH  18  19
ENDBRANCH  17  18
ENDBRANCH  16  17
ENDBRANCH  15  16
ENDBRANCH  14  15
ENDBRANCH  13  14
ENDBRANCH   2  13
TORSDOF 15
ENDMDL
MODEL 6
REMARK VINA RESULT:    -4.127     15.831     18.118
REMARK INTER + INTRA:          -9.729
REMARK INTER:                  -6.940
REMARK INTRA:                  -2.790
REMARK UNBOUND:                -1.984
REMARK SMILES CCCCCCCCC=CCCCCCCCC(=O)[O-]
REMARK SMILES IDX 10 1 9 2 11 3 12 4 13 5 14 6 15 7 16 8 17 9 18 10 19 11
REMARK SMILES IDX 20 12 8 13 7 14 6 15 5 16 4 17 3 18 2 19 1 20
REMARK H PARENT
REMARK Flexibility Score: inf
ROOT
ATOM      1  C   UNL     1       5.054  -6.126  13.289  1.00  0.00    -0.031 C 
ATOM      2  C   UNL     1       4.795  -5.060  12.509  1.00  0.00    -0.031 C 
ENDROOT
BRANCH   1   3
ATOM      3  C   UNL     1       6.369  -6.381  13.985  1.00  0.00     0.027 C 
BRANCH   3   4
ATOM      4  C   UNL     1       6.406  -7.763  14.653  1.00  0.00     0.004 C 
BRANCH   4   5
ATOM      5  C   UNL     1       6.999  -7.705  16.072  1.00  0.00     0.000 C 
BRANCH   5   6
ATOM      6  C   UNL     1       6.416  -8.783  16.999  1.00  0.00     0.000 C 
BRANCH   6   7
ATOM      7  C   UNL     1       5.940  -8.210  18.343  1.00  0.00     0.000 C 
BRANCH   7   8
ATOM      8  C   UNL     1       6.993  -7.272  18.943  1.00  0.00     0.006 C 
BRANCH   8   9
ATOM      9  C   UNL     1       6.341  -6.014  19.524  1.00  0.00     0.053 C 
BRANCH   9  10
ATOM     10  C   UNL     1       6.366  -6.052  21.020  1.00  0.00     0.041 C 
ATOM     11  O   UNL     1       7.108  -6.875  21.619  1.00  0.00    -0.550 OA
ATOM     12  O   UNL     1       5.605  -5.150  21.752  1.00  0.00    -0.550 OA
ENDBRANCH   9  10
ENDBRANCH   8   9
ENDBRANCH   7   8
ENDBRANCH   6   7
ENDBRANCH   5   6
ENDBRANCH   4   5
ENDBRANCH   3   4
ENDBRANCH   1   3
BRANCH   2  13
ATOM     13  C   UNL     1       5.747  -3.912  12.286  1.00  0.00     0.027 C 
BRANCH  13  14
ATOM     14  C   UNL     1       5.426  -2.748  13.236  1.00  0.00     0.004 C 
BRANCH  14  15
ATOM     15  C   UNL     1       6.590  -2.422  14.187  1.00  0.00     0.000 C 
BRANCH  15  16
ATOM     16  C   UNL     1       6.378  -2.990  15.598  1.00  0.00     0.000 C 
BRANCH  16  17
ATOM     17  C   UNL     1       4.885  -3.228  15.874  1.00  0.00    -0.000 C 
BRANCH  17  18
ATOM     18  C   UNL     1       4.624  -4.527  16.651  1.00  0.00    -0.000 C 
BRANCH  18  19
ATOM     19  C   UNL     1       3.253  -5.142  16.332  1.00  0.00    -0.003 C 
ATOM     20  C   UNL     1       3.281  -6.660  16.499  1.00  0.00     0.004 C 
ENDBRANCH  18  19
ENDBRANCH  17  18
ENDBRANCH  16  17
ENDBRANCH  15  16
ENDBRANCH  14  15
ENDBRANCH  13  14
ENDBRANCH   2  13
TORSDOF 15
ENDMDL
MODEL 7
REMARK VINA RESULT:    -4.100      4.963      8.134
REMARK INTER + INTRA:          -9.679
REMARK INTER:                  -7.138
REMARK INTRA:                  -2.541
REMARK UNBOUND:                -1.984
REMARK SMILES CCCCCCCCC=CCCCCCCCC(=O)[O-]
REMARK SMILES IDX 10 1 9 2 11 3 12 4 13 5 14 6 15 7 16 8 17 9 18 10 19 11
REMARK SMILES IDX 20 12 8 13 7 14 6 15 5 16 4 17 3 18 2 19 1 20
REMARK H PARENT
REMARK Flexibility Score: inf
ROOT
ATOM      1  C   UNL     1     -10.765  -5.585  24.419  1.00  0.00    -0.031 C 
ATOM      2  C   UNL     1     -10.499  -6.891  24.229  1.00  0.00    -0.031 C 
ENDROOT
BRANCH   1   3
ATOM      3  C   UNL     1     -12.133  -4.959  24.292  1.00  0.00     0.027 C 
BRANCH   3   4
ATOM      4  C   UNL     1     -12.163  -3.861  23.219  1.00  0.00     0.004 C 
BRANCH   4   5
ATOM      5  C   UNL     1     -10.755  -3.525  22.695  1.00  0.00     0.000 C 
BRANCH   5   6
ATOM      6  C   UNL     1     -10.626  -3.735  21.178  1.00  0.00     0.000 C 
BRANCH   6   7
ATOM      7  C   UNL     1     -11.670  -4.718  20.627  1.00  0.00     0.000 C 
BRANCH   7   8
ATOM      8  C   UNL     1     -11.103  -6.140  20.560  1.00  0.00     0.006 C 
BRANCH   8   9
ATOM      9  C   UNL     1     -11.129  -6.676  19.126  1.00  0.00     0.053 C 
BRANCH   9  10
ATOM     10  C   UNL     1     -11.603  -8.094  19.104  1.00  0.00     0.041 C 
ATOM     11  O   UNL     1     -11.768  -8.724  20.182  1.00  0.00    -0.550 OA
ATOM     12  O   UNL     1     -11.907  -8.708  17.895  1.00  0.00    -0.550 OA
ENDBRANCH   9  10
ENDBRANCH   8   9
ENDBRANCH   7   8
ENDBRANCH   6   7
ENDBRANCH   5   6
ENDBRANCH   4   5
ENDBRANCH   3   4
ENDBRANCH   1   3
BRANCH   2  13
ATOM     13  C   UNL     1     -11.543  -7.944  23.951  1.00  0.00     0.027 C 
BRANCH  13  14
ATOM     14  C   UNL     1     -12.219  -8.396  25.254  1.00  0.00     0.004 C 
BRANCH  14  15
ATOM     15  C   UNL     1     -11.206  -8.811  26.334  1.00  0.00     0.000 C 
BRANCH  15  16
ATOM     16  C   UNL     1     -11.486  -8.152  27.693  1.00  0.00     0.000 C 
BRANCH  16  17
ATOM     17  C   UNL     1     -12.406  -6.932  27.530  1.00  0.00    -0.000 C 
BRANCH  17  18
ATOM     18  C   UNL     1     -11.815  -5.655  28.147  1.00  0.00    -0.000 C 
BRANCH  18  19
ATOM     19  C   UNL     1     -10.279  -5.656  28.152  1.00  0.00    -0.003 C 
ATOM     20  C   UNL     1      -9.729  -4.285  27.765  1.00  0.00     0.004 C 
ENDBRANCH  18  19
ENDBRANCH  17  18
ENDBRANCH  16  17
ENDBRANCH  15  16
ENDBRANCH  14  15
ENDBRANCH  13  14
ENDBRANCH   2  13
TORSDOF 15
ENDMDL
MODEL 8
REMARK VINA RESULT:    -4.087     16.548     18.769
REMARK INTER + INTRA:          -9.655
REMARK INTER:                  -7.053
REMARK INTRA:                  -2.602
REMARK UNBOUND:                -1.984
REMARK SMILES CCCCCCCCC=CCCCCCCCC(=O)[O-]
REMARK SMILES IDX 10 1 9 2 11 3 12 4 13 5 14 6 15 7 16 8 17 9 18 10 19 11
REMARK SMILES IDX 20 12 8 13 7 14 6 15 5 16 4 17 3 18 2 19 1 20
REMARK H PARENT
REMARK Flexibility Score: inf
ROOT
ATOM      1  C   UNL     1       6.761  -5.268  17.049  1.00  0.00    -0.031 C 
ATOM      2  C   UNL     1       5.930  -4.341  17.560  1.00  0.00    -0.031 C 
ENDROOT
BRANCH   1   3
ATOM      3  C   UNL     1       6.341  -6.650  16.612  1.00  0.00     0.027 C 
BRANCH   3   4
ATOM      4  C   UNL     1       6.756  -7.724  17.627  1.00  0.00     0.004 C 
BRANCH   4   5
ATOM      5  C   UNL     1       5.542  -8.349  18.338  1.00  0.00     0.000 C 
BRANCH   5   6
ATOM      6  C   UNL     1       5.611  -8.197  19.866  1.00  0.00     0.000 C 
BRANCH   6   7
ATOM      7  C   UNL     1       6.862  -7.433  20.327  1.00  0.00     0.000 C 
BRANCH   7   8
ATOM      8  C   UNL     1       6.537  -6.511  21.507  1.00  0.00     0.006 C 
BRANCH   8   9
ATOM      9  C   UNL     1       6.636  -5.039  21.098  1.00  0.00     0.053 C 
BRANCH   9  10
ATOM     10  C   UNL     1       6.886  -4.177  22.295  1.00  0.00     0.041 C 
ATOM     11  O   UNL     1       6.870  -2.922  22.185  1.00  0.00    -0.550 OA
ATOM     12  O   UNL     1       7.091  -4.757  23.540  1.00  0.00    -0.550 OA
ENDBRANCH   9  10
ENDBRANCH   8   9
ENDBRANCH   7   8
ENDBRANCH   6   7
ENDBRANCH   5   6
ENDBRANCH   4   5
ENDBRANCH   3   4
ENDBRANCH   1   3
BRANCH   2  13
ATOM     13  C   UNL     1       4.436  -4.508  17.686  1.00  0.00     0.027 C 
BRANCH  13  14
ATOM     14  C   UNL     1       3.707  -3.713  16.593  1.00  0.00     0.004 C 
BRANCH  14  15
ATOM     15  C   UNL     1       4.344  -2.337  16.336  1.00  0.00     0.000 C 
BRANCH  15  16
ATOM     16  C   UNL     1       4.706  -2.119  14.859  1.00  0.00     0.000 C 
BRANCH  16  17
ATOM     17  C   UNL     1       6.230  -2.051  14.674  1.00  0.00    -0.000 C 
BRANCH  17  18
ATOM     18  C   UNL     1       6.769  -3.171  13.769  1.00  0.00    -0.000 C 
BRANCH  18  19
ATOM     19  C   UNL     1       5.745  -4.294  13.544  1.00  0.00    -0.003 C 
ATOM     20  C   UNL     1       6.433  -5.579  13.090  1.00  0.00     0.004 C 
ENDBRANCH  18  19
ENDBRANCH  17  18
ENDBRANCH  16  17
ENDBRANCH  15  16
ENDBRANCH  14  15
ENDBRANCH  13  14
ENDBRANCH   2  13
TORSDOF 15
ENDMDL
MODEL 9
REMARK VINA RESULT:    -4.044     15.580     17.344
REMARK INTER + INTRA:          -9.574
REMARK INTER:                  -7.111
REMARK INTRA:                  -2.463
REMARK UNBOUND:                -1.984
REMARK SMILES CCCCCCCCC=CCCCCCCCC(=O)[O-]
REMARK SMILES IDX 10 1 9 2 11 3 12 4 13 5 14 6 15 7 16 8 17 9 18 10 19 11
REMARK SMILES IDX 20 12 8 13 7 14 6 15 5 16 4 17 3 18 2 19 1 20
REMARK H PARENT
REMARK Flexibility Score: inf
ROOT
ATOM      1  C   UNL     1       5.067  -5.594  13.011  1.00  0.00    -0.031 C 
ATOM      2  C   UNL     1       5.148  -6.659  13.830  1.00  0.00    -0.031 C 
ENDROOT
BRANCH   1   3
ATOM      3  C   UNL     1       6.147  -4.553  12.846  1.00  0.00     0.027 C 
BRANCH   3   4
ATOM      4  C   UNL     1       5.679  -3.164  13.305  1.00  0.00     0.004 C 
BRANCH   4   5
ATOM      5  C   UNL     1       6.752  -2.437  14.135  1.00  0.00     0.000 C 
BRANCH   5   6
ATOM      6  C   UNL     1       6.379  -2.339  15.623  1.00  0.00     0.000 C 
BRANCH   6   7
ATOM      7  C   UNL     1       6.376  -3.707  16.323  1.00  0.00     0.000 C 
BRANCH   7   8
ATOM      8  C   UNL     1       5.167  -3.843  17.255  1.00  0.00     0.006 C 
BRANCH   8   9
ATOM      9  C   UNL     1       4.051  -4.654  16.592  1.00  0.00     0.053 C 
BRANCH   9  10
ATOM     10  C   UNL     1       3.037  -3.744  15.972  1.00  0.00     0.041 C 
ATOM     11  O   UNL     1       2.837  -2.599  16.455  1.00  0.00    -0.550 OA
ATOM     12  O   UNL     1       2.346  -4.144  14.835  1.00  0.00    -0.550 OA
ENDBRANCH   9  10
ENDBRANCH   8   9
ENDBRANCH   7   8
ENDBRANCH   6   7
ENDBRANCH   5   6
ENDBRANCH   4   5
ENDBRANCH   3   4
ENDBRANCH   1   3
BRANCH   2  13
ATOM     13  C   UNL     1       6.368  -7.024  14.640  1.00  0.00     0.027 C 
BRANCH  13  14
ATOM     14  C   UNL     1       6.259  -8.462  15.167  1.00  0.00     0.004 C 
BRANCH  14  15
ATOM     15  C   UNL     1       6.770  -8.603  16.611  1.00  0.00     0.000 C 
BRANCH  15  16
ATOM     16  C   UNL     1       6.067  -7.646  17.584  1.00  0.00     0.000 C 
BRANCH  16  17
ATOM     17  C   UNL     1       7.056  -7.098  18.625  1.00  0.00    -0.000 C 
BRANCH  17  18
ATOM     18  C   UNL     1       6.772  -7.614  20.044  1.00  0.00    -0.000 C 
BRANCH  18  19
ATOM     19  C   UNL     1       6.834  -6.502  21.102  1.00  0.00    -0.003 C 
ATOM     20  C   UNL     1       6.041  -5.276  20.655  1.00  0.00     0.004 C 
ENDBRANCH  18  19
ENDBRANCH  17  18
ENDBRANCH  16  17
ENDBRANCH  15  16
ENDBRANCH  14  15
ENDBRANCH  13  14
ENDBRANCH   2  13
TORSDOF 15
ENDMDL
