MODEL 1
REMARK VINA RESULT:    -2.861      0.000      0.000
REMARK INTER + INTRA:          -3.112
REMARK INTER:                  -3.112
REMARK INTRA:                   0.000
REMARK UNBOUND:                 0.000
REMARK SMILES [NH3+]CC(=O)[O-]
REMARK SMILES IDX 2 1 1 2 3 6 4 7 5 8
REMARK H PARENT 1 3 1 4 1 5
REMARK Flexibility Score: inf
ROOT
ATOM      1  C   UNL     1      -7.159 -17.741 -15.192  1.00  0.00     0.312 C 
ENDROOT
BRANCH   1   2
ATOM      2  N   UNL     1      -6.800 -16.509 -14.493  1.00  0.00    -0.353 N 
ATOM      3  H   UNL     1      -7.536 -15.781 -14.647  1.00  0.00     0.344 HD
ATOM      4  H   UNL     1      -6.727 -16.705 -13.469  1.00  0.00     0.344 HD
ATOM      5  H   UNL     1      -5.877 -16.156 -14.837  1.00  0.00     0.344 HD
ENDBRANCH   1   2
BRANCH   1   6
ATOM      6  C   UNL     1      -6.393 -18.904 -14.639  1.00  0.00     0.096 C 
ATOM      7  O   UNL     1      -6.030 -19.841 -15.397  1.00  0.00    -0.544 OA
ATOM      8  O   UNL     1      -6.037 -18.926 -13.296  1.00  0.00    -0.544 OA
ENDBRANCH   1   6
TORSDOF 2
ENDMDL
MODEL 2
REMARK VINA RESULT:    -2.846      1.316      1.605
REMARK INTER + INTRA:          -3.096
REMARK INTER:                  -3.096
REMARK INTRA:                   0.000
REMARK UNBOUND:                 0.000
REMARK SMILES [NH3+]CC(=O)[O-]
REMARK SMILES IDX 2 1 1 2 3 6 4 7 5 8
REMARK H PARENT 1 3 1 4 1 5
REMARK Flexibility Score: inf
ROOT
ATOM      1  C   UNL     1      -7.178 -17.588 -13.992  1.00  0.00     0.312 C 
ENDROOT
BRANCH   1   2
ATOM      2  N   UNL     1      -7.230 -16.175 -14.362  1.00  0.00    -0.353 N 
ATOM      3  H   UNL     1      -7.842 -15.651 -13.694  1.00  0.00     0.344 HD
ATOM      4  H   UNL     1      -6.265 -15.775 -14.323  1.00  0.00     0.344 HD
ATOM      5  H   UNL     1      -7.600 -16.072 -15.336  1.00  0.00     0.344 HD
ENDBRANCH   1   2
BRANCH   1   6
ATOM      6  C   UNL     1      -7.034 -18.448 -15.210  1.00  0.00     0.096 C 
ATOM      7  O   UNL     1      -7.524 -18.078 -16.309  1.00  0.00    -0.544 OA
ATOM      8  O   UNL     1      -6.314 -19.634 -15.142  1.00  0.00    -0.544 OA
ENDBRANCH   1   6
TORSDOF 2
ENDMDL
MODEL 3
REMARK VINA RESULT:    -2.701      3.881      4.479
REMARK INTER + INTRA:          -2.938
REMARK INTER:                  -2.938
REMARK INTRA:                   0.000
REMARK UNBOUND:                 0.000
REMARK SMILES [NH3+]CC(=O)[O-]
REMARK SMILES IDX 2 1 1 2 3 6 4 7 5 8
REMARK H PARENT 1 3 1 4 1 5
REMARK Flexibility Score: inf
ROOT
ATOM      1  C   UNL     1      -5.677 -22.001 -11.913  1.00  0.00     0.312 C 
ENDROOT
BRANCH   1   2
ATOM      2  N   UNL     1      -7.007 -22.598 -12.004  1.00  0.00    -0.353 N 
ATOM      3  H   UNL     1      -7.628 -22.003 -12.600  1.00  0.00     0.344 HD
ATOM      4  H   UNL     1      -6.928 -23.546 -12.439  1.00  0.00     0.344 HD
ATOM      5  H   UNL     1      -7.423 -22.698 -11.049  1.00  0.00     0.344 HD
ENDBRANCH   1   2
BRANCH   1   6
ATOM      6  C   UNL     1      -5.713 -20.564 -12.334  1.00  0.00     0.096 C 
ATOM      7  O   UNL     1      -5.433 -19.655 -11.509  1.00  0.00    -0.544 OA
ATOM      8  O   UNL     1      -6.004 -20.233 -13.651  1.00  0.00    -0.544 OA
ENDBRANCH   1   6
TORSDOF 2
ENDMDL
MODEL 4
REMARK VINA RESULT:    -2.673      2.307      2.809
REMARK INTER + INTRA:          -2.907
REMARK INTER:                  -2.907
REMARK INTRA:                   0.000
REMARK UNBOUND:                 0.000
REMARK SMILES [NH3+]CC(=O)[O-]
REMARK SMILES IDX 2 1 1 2 3 6 4 7 5 8
REMARK H PARENT 1 3 1 4 1 5
REMARK Flexibility Score: inf
ROOT
ATOM      1  C   UNL     1      -6.324 -19.500 -14.995  1.00  0.00     0.312 C 
ENDROOT
BRANCH   1   2
ATOM      2  N   UNL     1      -6.401 -20.297 -13.773  1.00  0.00    -0.353 N 
ATOM      3  H   UNL     1      -7.401 -20.443 -13.501  1.00  0.00     0.344 HD
ATOM      4  H   UNL     1      -5.957 -21.229 -13.943  1.00  0.00     0.344 HD
ATOM      5  H   UNL     1      -5.890 -19.816 -12.997  1.00  0.00     0.344 HD
ENDBRANCH   1   2
BRANCH   1   6
ATOM      6  C   UNL     1      -6.969 -18.162 -14.794  1.00  0.00     0.096 C 
ATOM      7  O   UNL     1      -7.105 -17.693 -13.634  1.00  0.00    -0.544 OA
ATOM      8  O   UNL     1      -7.371 -17.413 -15.893  1.00  0.00    -0.544 OA
ENDBRANCH   1   6
TORSDOF 2
ENDMDL
MODEL 5
REMARK VINA RESULT:    -2.651      2.539      2.832
REMARK INTER + INTRA:          -2.884
REMARK INTER:                  -2.884
REMARK INTRA:                   0.000
REMARK UNBOUND:                 0.000
REMARK SMILES [NH3+]CC(=O)[O-]
REMARK SMILES IDX 2 1 1 2 3 6 4 7 5 8
REMARK H PARENT 1 3 1 4 1 5
REMARK Flexibility Score: inf
ROOT
ATOM      1  C   UNL     1      -5.603 -19.994 -12.962  1.00  0.00     0.312 C 
ENDROOT
BRANCH   1   2
ATOM      2  N   UNL     1      -6.372 -21.219 -12.756  1.00  0.00    -0.353 N 
ATOM      3  H   UNL     1      -5.791 -21.927 -12.248  1.00  0.00     0.344 HD
ATOM      4  H   UNL     1      -7.217 -21.000 -12.181  1.00  0.00     0.344 HD
ATOM      5  H   UNL     1      -6.679 -21.610 -13.677  1.00  0.00     0.344 HD
ENDBRANCH   1   2
BRANCH   1   6
ATOM      6  C   UNL     1      -6.109 -19.247 -14.158  1.00  0.00     0.096 C 
ATOM      7  O   UNL     1      -6.081 -19.783 -15.297  1.00  0.00    -0.544 OA
ATOM      8  O   UNL     1      -6.657 -17.981 -14.006  1.00  0.00    -0.544 OA
ENDBRANCH   1   6
TORSDOF 2
ENDMDL
MODEL 6
REMARK VINA RESULT:    -2.612     14.761     14.960
REMARK INTER + INTRA:          -2.841
REMARK INTER:                  -2.841
REMARK INTRA:                   0.000
REMARK UNBOUND:                 0.000
REMARK SMILES [NH3+]CC(=O)[O-]
REMARK SMILES IDX 2 1 1 2 3 6 4 7 5 8
REMARK H PARENT 1 3 1 4 1 5
REMARK Flexibility Score: inf
ROOT
ATOM      1  C   UNL     1       2.974 -30.090 -13.645  1.00  0.00     0.312 C 
ENDROOT
BRANCH   1   2
ATOM      2  N   UNL     1       2.855 -28.644 -13.820  1.00  0.00    -0.353 N 
ATOM      3  H   UNL     1       2.653 -28.187 -12.900  1.00  0.00     0.344 HD
ATOM      4  H   UNL     1       3.756 -28.269 -14.194  1.00  0.00     0.344 HD
ATOM      5  H   UNL     1       2.089 -28.426 -14.499  1.00  0.00     0.344 HD
ENDBRANCH   1   2
BRANCH   1   6
ATOM      6  C   UNL     1       2.375 -30.516 -12.339  1.00  0.00     0.096 C 
ATOM      7  O   UNL     1       1.858 -31.658 -12.222  1.00  0.00    -0.544 OA
ATOM      8  O   UNL     1       2.436 -29.671 -11.239  1.00  0.00    -0.544 OA
ENDBRANCH   1   6
TORSDOF 2
ENDMDL
MODEL 7
REMARK VINA RESULT:    -2.597      4.379      4.701
REMARK INTER + INTRA:          -2.824
REMARK INTER:                  -2.824
REMARK INTRA:                   0.000
REMARK UNBOUND:                 0.000
REMARK SMILES [NH3+]CC(=O)[O-]
REMARK SMILES IDX 2 1 1 2 3 6 4 7 5 8
REMARK H PARENT 1 3 1 4 1 5
REMARK Flexibility Score: inf
ROOT
ATOM      1  C   UNL     1      -6.348 -21.717 -10.943  1.00  0.00     0.312 C 
ENDROOT
BRANCH   1   2
ATOM      2  N   UNL     1      -6.985 -22.578 -11.938  1.00  0.00    -0.353 N 
ATOM      3  H   UNL     1      -7.414 -21.996 -12.695  1.00  0.00     0.344 HD
ATOM      4  H   UNL     1      -6.263 -23.205 -12.361  1.00  0.00     0.344 HD
ATOM      5  H   UNL     1      -7.722 -23.167 -11.485  1.00  0.00     0.344 HD
ENDBRANCH   1   2
BRANCH   1   6
ATOM      6  C   UNL     1      -5.429 -20.736 -11.604  1.00  0.00     0.096 C 
ATOM      7  O   UNL     1      -4.248 -21.068 -11.889  1.00  0.00    -0.544 OA
ATOM      8  O   UNL     1      -5.892 -19.474 -11.952  1.00  0.00    -0.544 OA
ENDBRANCH   1   6
TORSDOF 2
ENDMDL
MODEL 8
REMARK VINA RESULT:    -2.573      7.729      8.110
REMARK INTER + INTRA:          -2.799
REMARK INTER:                  -2.799
REMARK INTRA:                   0.000
REMARK UNBOUND:                 0.000
REMARK SMILES [NH3+]CC(=O)[O-]
REMARK SMILES IDX 2 1 1 2 3 6 4 7 5 8
REMARK H PARENT 1 3 1 4 1 5
REMARK Flexibility Score: inf
ROOT
ATOM      1  C   UNL     1      -2.600 -24.424 -12.195  1.00  0.00     0.312 C 
ENDROOT
BRANCH   1   2
ATOM      2  N   UNL     1      -1.776 -25.534 -12.667  1.00  0.00    -0.353 N 
ATOM      3  H   UNL     1      -1.354 -26.039 -11.853  1.00  0.00     0.344 HD
ATOM      4  H   UNL     1      -2.375 -26.200 -13.206  1.00  0.00     0.344 HD
ATOM      5  H   UNL     1      -1.017 -25.177 -13.294  1.00  0.00     0.344 HD
ENDBRANCH   1   2
BRANCH   1   6
ATOM      6  C   UNL     1      -1.759 -23.400 -11.496  1.00  0.00     0.096 C 
ATOM      7  O   UNL     1      -0.809 -23.761 -10.753  1.00  0.00    -0.544 OA
ATOM      8  O   UNL     1      -1.991 -22.047 -11.708  1.00  0.00    -0.544 OA
ENDBRANCH   1   6
TORSDOF 2
ENDMDL
