MODEL 1
REMARK VINA RESULT:    -5.987      0.000      0.000
REMARK INTER + INTRA:          -6.737
REMARK INTER:                  -6.687
REMARK INTRA:                  -0.049
REMARK UNBOUND:                -0.049
REMARK SMILES COc1cc2ccc(=O)oc2c(O)c1O
REMARK SMILES IDX 3 1 14 2 12 3 11 4 5 5 4 6 6 7 7 8 8 9 9 10 10 11 2 12 1 13
REMARK SMILES IDX 15 14 13 16
REMARK H PARENT 15 15 13 17
REMARK Flexibility Score: inf
ROOT
ATOM      1  C   UNL     1      -3.351  10.956  23.431  1.00  0.00     0.165 A 
ATOM      2  C   UNL     1      -2.424  11.714  24.171  1.00  0.00     0.204 A 
ATOM      3  C   UNL     1      -1.100  11.847  23.727  1.00  0.00     0.205 A 
ATOM      4  C   UNL     1      -0.693  11.222  22.537  1.00  0.00     0.184 A 
ATOM      5  C   UNL     1      -1.619  10.462  21.793  1.00  0.00     0.025 A 
ATOM      6  C   UNL     1      -2.940  10.330  22.239  1.00  0.00     0.062 A 
ATOM      7  C   UNL     1      -1.185   9.850  20.612  1.00  0.00     0.020 A 
ATOM      8  C   UNL     1       0.139  10.006  20.204  1.00  0.00     0.094 A 
ATOM      9  C   UNL     1       1.002  10.774  20.992  1.00  0.00     0.336 A 
ATOM     10  O   UNL     1       2.201  10.927  20.642  1.00  0.00    -0.246 OA
ATOM     11  O   UNL     1       0.564  11.344  22.111  1.00  0.00    -0.419 OA
ENDROOT
BRANCH   1  12
ATOM     12  O   UNL     1      -4.668  10.847  23.909  1.00  0.00    -0.493 OA
ATOM     13  C   UNL     1      -5.781  10.430  23.125  1.00  0.00     0.278 C 
ENDBRANCH   1  12
BRANCH   2  14
ATOM     14  O   UNL     1      -2.802  12.345  25.357  1.00  0.00    -0.502 OA
ATOM     15  H   UNL     1      -2.790  11.870  26.251  1.00  0.00     0.293 HD
ENDBRANCH   2  14
BRANCH   3  16
ATOM     16  O   UNL     1      -0.203  12.604  24.482  1.00  0.00    -0.502 OA
ATOM     17  H   UNL     1      -0.069  12.449  25.474  1.00  0.00     0.293 HD
ENDBRANCH   3  16
TORSDOF 3
ENDMDL
MODEL 2
REMARK VINA RESULT:    -5.625      1.334      4.840
REMARK INTER + INTRA:          -6.332
REMARK INTER:                  -6.269
REMARK INTRA:                  -0.064
REMARK UNBOUND:                -0.049
REMARK SMILES COc1cc2ccc(=O)oc2c(O)c1O
REMARK SMILES IDX 3 1 14 2 12 3 11 4 5 5 4 6 6 7 7 8 8 9 9 10 10 11 2 12 1 13
REMARK SMILES IDX 15 14 13 16
REMARK H PARENT 15 15 13 17
REMARK Flexibility Score: inf
ROOT
ATOM      1  C   UNL     1      -0.572  10.827  23.032  1.00  0.00     0.165 A 
ATOM      2  C   UNL     1      -1.006  11.730  24.021  1.00  0.00     0.204 A 
ATOM      3  C   UNL     1      -2.255  11.562  24.638  1.00  0.00     0.205 A 
ATOM      4  C   UNL     1      -3.079  10.485  24.272  1.00  0.00     0.184 A 
ATOM      5  C   UNL     1      -2.647   9.578  23.283  1.00  0.00     0.025 A 
ATOM      6  C   UNL     1      -1.401   9.749  22.667  1.00  0.00     0.062 A 
ATOM      7  C   UNL     1      -3.490   8.515  22.938  1.00  0.00     0.020 A 
ATOM      8  C   UNL     1      -4.722   8.381  23.575  1.00  0.00     0.094 A 
ATOM      9  C   UNL     1      -5.085   9.318  24.547  1.00  0.00     0.336 A 
ATOM     10  O   UNL     1      -6.193   9.217  25.134  1.00  0.00    -0.246 OA
ATOM     11  O   UNL     1      -4.266  10.320  24.856  1.00  0.00    -0.419 OA
ENDROOT
BRANCH   1  12
ATOM     12  O   UNL     1       0.684  11.030  22.437  1.00  0.00    -0.493 OA
ATOM     13  C   UNL     1       0.890  11.295  21.053  1.00  0.00     0.278 C 
ENDBRANCH   1  12
BRANCH   2  14
ATOM     14  O   UNL     1      -0.207  12.809  24.402  1.00  0.00    -0.502 OA
ATOM     15  H   UNL     1       0.668  13.025  23.940  1.00  0.00     0.293 HD
ENDBRANCH   2  14
BRANCH   3  16
ATOM     16  O   UNL     1      -2.659  12.474  25.614  1.00  0.00    -0.502 OA
ATOM     17  H   UNL     1      -2.020  12.830  26.315  1.00  0.00     0.293 HD
ENDBRANCH   3  16
TORSDOF 3
ENDMDL
MODEL 3
REMARK VINA RESULT:    -5.548      2.310      2.503
REMARK INTER + INTRA:          -6.246
REMARK INTER:                  -6.210
REMARK INTRA:                  -0.036
REMARK UNBOUND:                -0.049
REMARK SMILES COc1cc2ccc(=O)oc2c(O)c1O
REMARK SMILES IDX 3 1 14 2 12 3 11 4 5 5 4 6 6 7 7 8 8 9 9 10 10 11 2 12 1 13
REMARK SMILES IDX 15 14 13 16
REMARK H PARENT 15 15 13 17
REMARK Flexibility Score: inf
ROOT
ATOM      1  C   UNL     1      -4.908  11.668  23.166  1.00  0.00     0.165 A 
ATOM      2  C   UNL     1      -4.331  11.052  24.293  1.00  0.00     0.204 A 
ATOM      3  C   UNL     1      -3.217  10.212  24.151  1.00  0.00     0.205 A 
ATOM      4  C   UNL     1      -2.668   9.982  22.879  1.00  0.00     0.184 A 
ATOM      5  C   UNL     1      -3.242  10.598  21.748  1.00  0.00     0.025 A 
ATOM      6  C   UNL     1      -4.356  11.435  21.892  1.00  0.00     0.062 A 
ATOM      7  C   UNL     1      -2.675  10.351  20.493  1.00  0.00     0.020 A 
ATOM      8  C   UNL     1      -1.568   9.511  20.393  1.00  0.00     0.094 A 
ATOM      9  C   UNL     1      -1.051   8.935  21.558  1.00  0.00     0.336 A 
ATOM     10  O   UNL     1      -0.051   8.173  21.491  1.00  0.00    -0.246 OA
ATOM     11  O   UNL     1      -1.609   9.186  22.739  1.00  0.00    -0.419 OA
ENDROOT
BRANCH   1  12
ATOM     12  O   UNL     1      -6.024  12.501  23.349  1.00  0.00    -0.493 OA
ATOM     13  C   UNL     1      -7.373  12.049  23.392  1.00  0.00     0.278 C 
ENDBRANCH   1  12
BRANCH   2  14
ATOM     14  O   UNL     1      -4.857  11.262  25.569  1.00  0.00    -0.502 OA
ATOM     15  H   UNL     1      -5.805  11.004  25.812  1.00  0.00     0.293 HD
ENDBRANCH   2  14
BRANCH   3  16
ATOM     16  O   UNL     1      -2.668   9.614  25.287  1.00  0.00    -0.502 OA
ATOM     17  H   UNL     1      -3.130   9.644  26.188  1.00  0.00     0.293 HD
ENDBRANCH   3  16
TORSDOF 3
ENDMDL
MODEL 4
REMARK VINA RESULT:    -5.481      1.854      5.066
REMARK INTER + INTRA:          -6.171
REMARK INTER:                  -6.121
REMARK INTRA:                  -0.050
REMARK UNBOUND:                -0.049
REMARK SMILES COc1cc2ccc(=O)oc2c(O)c1O
REMARK SMILES IDX 3 1 14 2 12 3 11 4 5 5 4 6 6 7 7 8 8 9 9 10 10 11 2 12 1 13
REMARK SMILES IDX 15 14 13 16
REMARK H PARENT 15 15 13 17
REMARK Flexibility Score: inf
ROOT
ATOM      1  C   UNL     1      -2.253  10.596  21.974  1.00  0.00     0.165 A 
ATOM      2  C   UNL     1      -1.644  10.976  23.185  1.00  0.00     0.204 A 
ATOM      3  C   UNL     1      -2.377  11.662  24.165  1.00  0.00     0.205 A 
ATOM      4  C   UNL     1      -3.729  11.971  23.941  1.00  0.00     0.184 A 
ATOM      5  C   UNL     1      -4.343  11.591  22.730  1.00  0.00     0.025 A 
ATOM      6  C   UNL     1      -3.608  10.908  21.753  1.00  0.00     0.062 A 
ATOM      7  C   UNL     1      -5.691  11.913  22.534  1.00  0.00     0.020 A 
ATOM      8  C   UNL     1      -6.385  12.594  23.532  1.00  0.00     0.094 A 
ATOM      9  C   UNL     1      -5.712  12.939  24.708  1.00  0.00     0.336 A 
ATOM     10  O   UNL     1      -6.321  13.554  25.622  1.00  0.00    -0.246 OA
ATOM     11  O   UNL     1      -4.430  12.622  24.869  1.00  0.00    -0.419 OA
ENDROOT
BRANCH   1  12
ATOM     12  O   UNL     1      -1.485   9.912  21.018  1.00  0.00    -0.493 OA
ATOM     13  C   UNL     1      -1.730   9.935  19.615  1.00  0.00     0.278 C 
ENDBRANCH   1  12
BRANCH   2  14
ATOM     14  O   UNL     1      -0.302  10.682  23.432  1.00  0.00    -0.502 OA
ATOM     15  H   UNL     1      -0.013  10.057  24.175  1.00  0.00     0.293 HD
ENDBRANCH   2  14
BRANCH   3  16
ATOM     16  O   UNL     1      -1.746  12.026  25.355  1.00  0.00    -0.502 OA
ATOM     17  H   UNL     1      -2.245  12.479  26.112  1.00  0.00     0.293 HD
ENDBRANCH   3  16
TORSDOF 3
ENDMDL
MODEL 5
REMARK VINA RESULT:    -5.433      2.806      6.572
REMARK INTER + INTRA:          -6.118
REMARK INTER:                  -6.054
REMARK INTRA:                  -0.064
REMARK UNBOUND:                -0.049
REMARK SMILES COc1cc2ccc(=O)oc2c(O)c1O
REMARK SMILES IDX 3 1 14 2 12 3 11 4 5 5 4 6 6 7 7 8 8 9 9 10 10 11 2 12 1 13
REMARK SMILES IDX 15 14 13 16
REMARK H PARENT 15 15 13 17
REMARK Flexibility Score: inf
ROOT
ATOM      1  C   UNL     1      -3.673  10.489  22.326  1.00  0.00     0.165 A 
ATOM      2  C   UNL     1      -4.293   9.288  22.721  1.00  0.00     0.204 A 
ATOM      3  C   UNL     1      -5.590   9.302  23.256  1.00  0.00     0.205 A 
ATOM      4  C   UNL     1      -6.277  10.518  23.401  1.00  0.00     0.184 A 
ATOM      5  C   UNL     1      -5.659  11.722  23.006  1.00  0.00     0.025 A 
ATOM      6  C   UNL     1      -4.364  11.706  22.473  1.00  0.00     0.062 A 
ATOM      7  C   UNL     1      -6.368  12.919  23.162  1.00  0.00     0.020 A 
ATOM      8  C   UNL     1      -7.654  12.890  23.697  1.00  0.00     0.094 A 
ATOM      9  C   UNL     1      -8.204  11.659  24.066  1.00  0.00     0.336 A 
ATOM     10  O   UNL     1      -9.365  11.610  24.552  1.00  0.00    -0.246 OA
ATOM     11  O   UNL     1      -7.509  10.536  23.908  1.00  0.00    -0.419 OA
ENDROOT
BRANCH   1  12
ATOM     12  O   UNL     1      -2.373  10.435  21.795  1.00  0.00    -0.493 OA
ATOM     13  C   UNL     1      -2.070  10.355  20.407  1.00  0.00     0.278 C 
ENDBRANCH   1  12
BRANCH   2  14
ATOM     14  O   UNL     1      -3.632   8.066  22.589  1.00  0.00    -0.502 OA
ATOM     15  H   UNL     1      -2.723   7.987  22.149  1.00  0.00     0.293 HD
ENDBRANCH   2  14
BRANCH   3  16
ATOM     16  O   UNL     1      -6.179   8.096  23.639  1.00  0.00    -0.502 OA
ATOM     17  H   UNL     1      -5.748   7.199  23.444  1.00  0.00     0.293 HD
ENDBRANCH   3  16
TORSDOF 3
ENDMDL
MODEL 6
REMARK VINA RESULT:    -5.395      2.342      5.129
REMARK INTER + INTRA:          -6.075
REMARK INTER:                  -6.014
REMARK INTRA:                  -0.061
REMARK UNBOUND:                -0.049
REMARK SMILES COc1cc2ccc(=O)oc2c(O)c1O
REMARK SMILES IDX 3 1 14 2 12 3 11 4 5 5 4 6 6 7 7 8 8 9 9 10 10 11 2 12 1 13
REMARK SMILES IDX 15 14 13 16
REMARK H PARENT 15 15 13 17
REMARK Flexibility Score: inf
ROOT
ATOM      1  C   UNL     1      -0.437   9.761  23.332  1.00  0.00     0.165 A 
ATOM      2  C   UNL     1      -0.819   9.203  22.097  1.00  0.00     0.204 A 
ATOM      3  C   UNL     1      -1.999   9.620  21.463  1.00  0.00     0.205 A 
ATOM      4  C   UNL     1      -2.806  10.601  22.060  1.00  0.00     0.184 A 
ATOM      5  C   UNL     1      -2.427  11.163  23.297  1.00  0.00     0.025 A 
ATOM      6  C   UNL     1      -1.249  10.745  23.927  1.00  0.00     0.062 A 
ATOM      7  C   UNL     1      -3.252  12.139  23.868  1.00  0.00     0.020 A 
ATOM      8  C   UNL     1      -4.415  12.527  23.207  1.00  0.00     0.094 A 
ATOM      9  C   UNL     1      -4.729  11.927  21.983  1.00  0.00     0.336 A 
ATOM     10  O   UNL     1      -5.775  12.263  21.369  1.00  0.00    -0.246 OA
ATOM     11  O   UNL     1      -3.928  11.001  21.462  1.00  0.00    -0.419 OA
ENDROOT
BRANCH   1  12
ATOM     12  O   UNL     1       0.752   9.316  23.935  1.00  0.00    -0.493 OA
ATOM     13  C   UNL     1       2.026   9.928  23.760  1.00  0.00     0.278 C 
ENDBRANCH   1  12
BRANCH   2  14
ATOM     14  O   UNL     1      -0.034   8.225  21.483  1.00  0.00    -0.502 OA
ATOM     15  H   UNL     1       0.929   8.391  21.219  1.00  0.00     0.293 HD
ENDBRANCH   2  14
BRANCH   3  16
ATOM     16  O   UNL     1      -2.351   9.048  20.240  1.00  0.00    -0.502 OA
ATOM     17  H   UNL     1      -2.334   9.574  19.374  1.00  0.00     0.293 HD
ENDBRANCH   3  16
TORSDOF 3
ENDMDL
MODEL 7
REMARK VINA RESULT:    -5.389      2.234      5.451
REMARK INTER + INTRA:          -6.068
REMARK INTER:                  -6.007
REMARK INTRA:                  -0.062
REMARK UNBOUND:                -0.049
REMARK SMILES COc1cc2ccc(=O)oc2c(O)c1O
REMARK SMILES IDX 3 1 14 2 12 3 11 4 5 5 4 6 6 7 7 8 8 9 9 10 10 11 2 12 1 13
REMARK SMILES IDX 15 14 13 16
REMARK H PARENT 15 15 13 17
REMARK Flexibility Score: inf
ROOT
ATOM      1  C   UNL     1       0.140  10.131  22.773  1.00  0.00     0.165 A 
ATOM      2  C   UNL     1      -0.347   9.854  21.481  1.00  0.00     0.204 A 
ATOM      3  C   UNL     1      -1.675   9.439  21.296  1.00  0.00     0.205 A 
ATOM      4  C   UNL     1      -2.527   9.300  22.403  1.00  0.00     0.184 A 
ATOM      5  C   UNL     1      -2.044   9.576  23.698  1.00  0.00     0.025 A 
ATOM      6  C   UNL     1      -0.718   9.989  23.881  1.00  0.00     0.062 A 
ATOM      7  C   UNL     1      -2.916   9.428  24.783  1.00  0.00     0.020 A 
ATOM      8  C   UNL     1      -4.227   9.015  24.557  1.00  0.00     0.094 A 
ATOM      9  C   UNL     1      -4.638   8.758  23.246  1.00  0.00     0.336 A 
ATOM     10  O   UNL     1      -5.818   8.384  23.020  1.00  0.00    -0.246 OA
ATOM     11  O   UNL     1      -3.789   8.906  22.232  1.00  0.00    -0.419 OA
ENDROOT
BRANCH   1  12
ATOM     12  O   UNL     1       1.475  10.543  22.917  1.00  0.00    -0.493 OA
ATOM     13  C   UNL     1       2.453   9.859  23.694  1.00  0.00     0.278 C 
ENDBRANCH   1  12
BRANCH   2  14
ATOM     14  O   UNL     1       0.479   9.984  20.364  1.00  0.00    -0.502 OA
ATOM     15  H   UNL     1       0.566  10.854  19.853  1.00  0.00     0.293 HD
ENDBRANCH   2  14
BRANCH   3  16
ATOM     16  O   UNL     1      -2.128   9.172  20.004  1.00  0.00    -0.502 OA
ATOM     17  H   UNL     1      -2.226   8.226  19.652  1.00  0.00     0.293 HD
ENDBRANCH   3  16
TORSDOF 3
ENDMDL
MODEL 8
REMARK VINA RESULT:    -5.363      2.926      3.656
REMARK INTER + INTRA:          -6.039
REMARK INTER:                  -5.970
REMARK INTRA:                  -0.069
REMARK UNBOUND:                -0.049
REMARK SMILES COc1cc2ccc(=O)oc2c(O)c1O
REMARK SMILES IDX 3 1 14 2 12 3 11 4 5 5 4 6 6 7 7 8 8 9 9 10 10 11 2 12 1 13
REMARK SMILES IDX 15 14 13 16
REMARK H PARENT 15 15 13 17
REMARK Flexibility Score: inf
ROOT
ATOM      1  C   UNL     1      -5.991  11.015  22.756  1.00  0.00     0.165 A 
ATOM      2  C   UNL     1      -5.835   9.856  23.540  1.00  0.00     0.204 A 
ATOM      3  C   UNL     1      -4.688   9.059  23.408  1.00  0.00     0.205 A 
ATOM      4  C   UNL     1      -3.686   9.416  22.491  1.00  0.00     0.184 A 
ATOM      5  C   UNL     1      -3.839  10.577  21.705  1.00  0.00     0.025 A 
ATOM      6  C   UNL     1      -4.985  11.371  21.838  1.00  0.00     0.062 A 
ATOM      7  C   UNL     1      -2.825  10.908  20.799  1.00  0.00     0.020 A 
ATOM      8  C   UNL     1      -1.701  10.091  20.698  1.00  0.00     0.094 A 
ATOM      9  C   UNL     1      -1.617   8.955  21.510  1.00  0.00     0.336 A 
ATOM     10  O   UNL     1      -0.610   8.203  21.435  1.00  0.00    -0.246 OA
ATOM     11  O   UNL     1      -2.595   8.662  22.362  1.00  0.00    -0.419 OA
ENDROOT
BRANCH   1  12
ATOM     12  O   UNL     1      -7.154  11.787  22.917  1.00  0.00    -0.493 OA
ATOM     13  C   UNL     1      -7.245  12.954  23.727  1.00  0.00     0.278 C 
ENDBRANCH   1  12
BRANCH   2  14
ATOM     14  O   UNL     1      -6.815   9.478  24.458  1.00  0.00    -0.502 OA
ATOM     15  H   UNL     1      -7.800   9.467  24.224  1.00  0.00     0.293 HD
ENDBRANCH   2  14
BRANCH   3  16
ATOM     16  O   UNL     1      -4.562   7.915  24.198  1.00  0.00    -0.502 OA
ATOM     17  H   UNL     1      -5.311   7.239  24.291  1.00  0.00     0.293 HD
ENDBRANCH   3  16
TORSDOF 3
ENDMDL
MODEL 9
REMARK VINA RESULT:    -5.221      1.786      2.187
REMARK INTER + INTRA:          -5.880
REMARK INTER:                  -5.812
REMARK INTRA:                  -0.069
REMARK UNBOUND:                -0.049
REMARK SMILES COc1cc2ccc(=O)oc2c(O)c1O
REMARK SMILES IDX 3 1 14 2 12 3 11 4 5 5 4 6 6 7 7 8 8 9 9 10 10 11 2 12 1 13
REMARK SMILES IDX 15 14 13 16
REMARK H PARENT 15 15 13 17
REMARK Flexibility Score: inf
ROOT
ATOM      1  C   UNL     1      -4.467   9.872  23.040  1.00  0.00     0.165 A 
ATOM      2  C   UNL     1      -4.214  10.996  23.849  1.00  0.00     0.204 A 
ATOM      3  C   UNL     1      -2.897  11.373  24.149  1.00  0.00     0.205 A 
ATOM      4  C   UNL     1      -1.820  10.629  23.641  1.00  0.00     0.184 A 
ATOM      5  C   UNL     1      -2.069   9.503  22.829  1.00  0.00     0.025 A 
ATOM      6  C   UNL     1      -3.385   9.128  22.532  1.00  0.00     0.062 A 
ATOM      7  C   UNL     1      -0.977   8.780  22.337  1.00  0.00     0.020 A 
ATOM      8  C   UNL     1       0.316   9.187  22.658  1.00  0.00     0.094 A 
ATOM      9  C   UNL     1       0.489  10.314  23.467  1.00  0.00     0.336 A 
ATOM     10  O   UNL     1       1.648  10.699  23.769  1.00  0.00    -0.246 OA
ATOM     11  O   UNL     1      -0.567  10.983  23.923  1.00  0.00    -0.419 OA
ENDROOT
BRANCH   1  12
ATOM     12  O   UNL     1      -5.800   9.526  22.762  1.00  0.00    -0.493 OA
ATOM     13  C   UNL     1      -6.490   8.429  23.351  1.00  0.00     0.278 C 
ENDBRANCH   1  12
BRANCH   2  14
ATOM     14  O   UNL     1      -5.266  11.753  24.367  1.00  0.00    -0.502 OA
ATOM     15  H   UNL     1      -5.944  11.367  25.013  1.00  0.00     0.293 HD
ENDBRANCH   2  14
BRANCH   3  16
ATOM     16  O   UNL     1      -2.677  12.492  24.955  1.00  0.00    -0.502 OA
ATOM     17  H   UNL     1      -1.978  13.190  24.729  1.00  0.00     0.293 HD
ENDBRANCH   3  16
TORSDOF 3
ENDMDL
