MODEL 1
REMARK VINA RESULT:    -3.944      0.000      0.000
REMARK INTER + INTRA:          -5.271
REMARK INTER:                  -5.558
REMARK INTRA:                   0.287
REMARK UNBOUND:                 0.287
REMARK SMILES CC1=CCC(=C(C)C)C(=O)CC(C)=CCC1
REMARK SMILES IDX 12 1 14 2 13 3 15 4 16 5 2 6 1 7 3 8 11 10 9 11 10 12 5 13
REMARK SMILES IDX 6 14 7 15 8 16 4 17
REMARK H PARENT
REMARK Flexibility Score: 60.00
ROOT
ATOM      1  C   UNL     1      17.228  12.152  12.848  1.00  0.00    -0.070 C 
ATOM      2  C   UNL     1      17.012  12.480  14.143  1.00  0.00    -0.027 C 
ATOM      3  C   UNL     1      17.405  10.695  12.505  1.00  0.00     0.039 C 
ENDROOT
BRANCH   2   4
ATOM      4  C   UNL     1      16.874  13.889  14.673  1.00  0.00     0.032 C 
BRANCH   4   5
ATOM      5  C   UNL     1      18.238  14.588  14.787  1.00  0.00     0.034 C 
BRANCH   5   6
ATOM      6  C   UNL     1      18.230  16.022  14.279  1.00  0.00    -0.077 C 
ATOM      7  C   UNL     1      17.402  17.049  15.010  1.00  0.00     0.039 C 
ATOM      8  C   UNL     1      18.917  16.428  13.187  1.00  0.00    -0.023 CG0
ATOM      9  G   UNL     1      19.852  15.567  12.369  1.00  0.00     0.000 G0
ENDBRANCH   5   6
ENDBRANCH   4   5
ENDBRANCH   2   4
BRANCH   1  10
ATOM     10  C   UNL     1      17.297  13.181  11.736  1.00  0.00     0.111 C 
BRANCH  10  11
ATOM     11  C   UNL     1      18.721  13.468  11.350  1.00  0.00     0.163 C 
ATOM     12  O   UNL     1      19.523  12.508  11.191  1.00  0.00    -0.294 OA
BRANCH  11  13
ATOM     13  C   UNL     1      19.208  14.860  11.176  1.00  0.00    -0.002 C 
ATOM     14  C   UNL     1      19.066  15.492   9.979  1.00  0.00    -0.069 C 
ATOM     15  C   UNL     1      19.508  16.926   9.797  1.00  0.00     0.039 C 
ATOM     16  C   UNL     1      18.498  14.772   8.776  1.00  0.00     0.039 C 
BRANCH  13  17
ATOM     17  C   UNL     1      19.871  15.568  12.353  1.00  0.00     0.066 CG0
ATOM     18  G   UNL     1      18.917  16.405  13.174  1.00  0.00     0.000 G0
ENDBRANCH  13  17
ENDBRANCH  11  13
ENDBRANCH  10  11
ENDBRANCH   1  10
TORSDOF 0
ENDMDL
MODEL 2
REMARK VINA RESULT:    -3.922      3.131      5.992
REMARK INTER + INTRA:          -5.240
REMARK INTER:                  -5.701
REMARK INTRA:                   0.461
REMARK UNBOUND:                 0.287
REMARK SMILES CC1=CCC(=C(C)C)C(=O)CC(C)=CCC1
REMARK SMILES IDX 12 1 14 2 13 3 15 4 16 5 2 6 1 7 3 8 11 10 9 11 10 12 5 13
REMARK SMILES IDX 6 14 7 15 8 16 4 17
REMARK H PARENT
REMARK Flexibility Score: 60.00
ROOT
ATOM      1  C   UNL     1      17.134  19.122   9.450  1.00  0.00    -0.070 C 
ATOM      2  C   UNL     1      17.930  19.648   8.490  1.00  0.00    -0.027 C 
ATOM      3  C   UNL     1      16.099  20.018  10.082  1.00  0.00     0.039 C 
ENDROOT
BRANCH   2   4
ATOM      4  C   UNL     1      19.056  18.916   7.794  1.00  0.00     0.032 C 
BRANCH   4   5
ATOM      5  C   UNL     1      20.408  19.606   8.027  1.00  0.00     0.034 C 
BRANCH   5   6
ATOM      6  C   UNL     1      20.715  19.865   9.495  1.00  0.00    -0.077 C 
ATOM      7  C   UNL     1      20.907  21.287   9.959  1.00  0.00     0.039 C 
ATOM      8  C   UNL     1      20.846  18.879  10.412  1.00  0.00    -0.023 CG0
ATOM      9  G   UNL     1      20.622  17.407  10.155  1.00  0.00     0.000 G0
ENDBRANCH   5   6
ENDBRANCH   4   5
ENDBRANCH   2   4
BRANCH   1  10
ATOM     10  C   UNL     1      17.238  17.681   9.910  1.00  0.00     0.111 C 
BRANCH  10  11
ATOM     11  C   UNL     1      18.210  17.545  11.049  1.00  0.00     0.163 C 
ATOM     12  O   UNL     1      17.960  18.116  12.145  1.00  0.00    -0.294 OA
BRANCH  11  13
ATOM     13  C   UNL     1      19.469  16.772  10.900  1.00  0.00    -0.002 C 
ATOM     14  C   UNL     1      19.576  15.525  11.435  1.00  0.00    -0.069 C 
ATOM     15  C   UNL     1      20.830  14.702  11.250  1.00  0.00     0.039 C 
ATOM     16  C   UNL     1      18.461  14.932  12.268  1.00  0.00     0.039 C 
BRANCH  13  17
ATOM     17  C   UNL     1      20.638  17.394  10.144  1.00  0.00     0.066 CG0
ATOM     18  G   UNL     1      20.838  18.863  10.436  1.00  0.00     0.000 G0
ENDBRANCH  13  17
ENDBRANCH  11  13
ENDBRANCH  10  11
ENDBRANCH   1  10
TORSDOF 0
ENDMDL
MODEL 3
REMARK VINA RESULT:    -3.902      2.695      3.728
REMARK INTER + INTRA:          -5.212
REMARK INTER:                  -5.444
REMARK INTRA:                   0.232
REMARK UNBOUND:                 0.287
REMARK SMILES CC1=CCC(=C(C)C)C(=O)CC(C)=CCC1
REMARK SMILES IDX 12 1 14 2 13 3 15 4 16 5 2 6 1 7 3 8 11 10 9 11 10 12 5 13
REMARK SMILES IDX 6 14 7 15 8 16 4 17
REMARK H PARENT
REMARK Flexibility Score: 60.00
ROOT
ATOM      1  C   UNL     1      20.329  14.876  11.156  1.00  0.00    -0.070 C 
ATOM      2  C   UNL     1      19.640  14.704  12.308  1.00  0.00    -0.027 C 
ATOM      3  C   UNL     1      21.029  13.680  10.562  1.00  0.00     0.039 C 
ENDROOT
BRANCH   2   4
ATOM      4  C   UNL     1      18.932  15.800  13.072  1.00  0.00     0.032 C 
BRANCH   4   5
ATOM      5  C   UNL     1      17.510  16.033  12.542  1.00  0.00     0.034 C 
BRANCH   5   6
ATOM      6  C   UNL     1      17.154  17.504  12.382  1.00  0.00    -0.077 C 
ATOM      7  C   UNL     1      17.014  18.357  13.617  1.00  0.00     0.039 C 
ATOM      8  C   UNL     1      16.936  18.090  11.182  1.00  0.00    -0.023 CG0
ATOM      9  G   UNL     1      17.097  17.420   9.837  1.00  0.00     0.000 G0
ENDBRANCH   5   6
ENDBRANCH   4   5
ENDBRANCH   2   4
BRANCH   1  10
ATOM     10  C   UNL     1      20.423  16.211  10.442  1.00  0.00     0.111 C 
BRANCH  10  11
ATOM     11  C   UNL     1      19.387  16.321   9.358  1.00  0.00     0.163 C 
ATOM     12  O   UNL     1      19.275  15.391   8.515  1.00  0.00    -0.294 OA
BRANCH  11  13
ATOM     13  C   UNL     1      18.510  17.515   9.247  1.00  0.00    -0.002 C 
ATOM     14  C   UNL     1      18.968  18.648   8.648  1.00  0.00    -0.069 C 
ATOM     15  C   UNL     1      18.075  19.855   8.479  1.00  0.00     0.039 C 
ATOM     16  C   UNL     1      20.397  18.756   8.166  1.00  0.00     0.039 C 
BRANCH  13  17
ATOM     17  C   UNL     1      17.096  17.454   9.815  1.00  0.00     0.066 CG0
ATOM     18  G   UNL     1      16.960  18.092  11.177  1.00  0.00     0.000 G0
ENDBRANCH  13  17
ENDBRANCH  11  13
ENDBRANCH  10  11
ENDBRANCH   1  10
TORSDOF 0
ENDMDL
MODEL 4
REMARK VINA RESULT:    -3.640      3.168      5.694
REMARK INTER + INTRA:          -4.843
REMARK INTER:                  -5.207
REMARK INTRA:                   0.364
REMARK UNBOUND:                 0.287
REMARK SMILES CC1=CCC(=C(C)C)C(=O)CC(C)=CCC1
REMARK SMILES IDX 12 1 14 2 13 3 15 4 16 5 2 6 1 7 3 8 11 10 9 11 10 12 5 13
REMARK SMILES IDX 6 14 7 15 8 16 4 17
REMARK H PARENT
REMARK Flexibility Score: 60.00
ROOT
ATOM      1  C   UNL     1      15.878  19.654  13.179  1.00  0.00    -0.070 C 
ATOM      2  C   UNL     1      15.753  20.505  14.224  1.00  0.00    -0.027 C 
ATOM      3  C   UNL     1      14.888  19.770  12.048  1.00  0.00     0.039 C 
ENDROOT
BRANCH   2   4
ATOM      4  C   UNL     1      16.616  20.491  15.466  1.00  0.00     0.032 C 
BRANCH   4   5
ATOM      5  C   UNL     1      16.095  19.490  16.507  1.00  0.00     0.034 C 
BRANCH   5   6
ATOM      6  C   UNL     1      17.187  18.624  17.117  1.00  0.00    -0.077 C 
ATOM      7  C   UNL     1      18.146  19.247  18.101  1.00  0.00     0.039 C 
ATOM      8  C   UNL     1      17.360  17.318  16.810  1.00  0.00    -0.023 CG0
ATOM      9  G   UNL     1      16.463  16.504  15.906  1.00  0.00     0.000 G0
ENDBRANCH   5   6
ENDBRANCH   4   5
ENDBRANCH   2   4
BRANCH   1  10
ATOM     10  C   UNL     1      16.964  18.599  13.098  1.00  0.00     0.111 C 
BRANCH  10  11
ATOM     11  C   UNL     1      16.415  17.231  13.390  1.00  0.00     0.163 C 
ATOM     12  O   UNL     1      15.431  16.806  12.726  1.00  0.00    -0.294 OA
BRANCH  11  13
ATOM     13  C   UNL     1      16.992  16.380  14.462  1.00  0.00    -0.002 C 
ATOM     14  C   UNL     1      17.977  15.486  14.172  1.00  0.00    -0.069 C 
ATOM     15  C   UNL     1      18.613  14.648  15.257  1.00  0.00     0.039 C 
ATOM     16  C   UNL     1      18.444  15.269  12.750  1.00  0.00     0.039 C 
BRANCH  13  17
ATOM     17  C   UNL     1      16.465  16.519  15.886  1.00  0.00     0.066 CG0
ATOM     18  G   UNL     1      17.369  17.320  16.793  1.00  0.00     0.000 G0
ENDBRANCH  13  17
ENDBRANCH  11  13
ENDBRANCH  10  11
ENDBRANCH   1  10
TORSDOF 0
ENDMDL
MODEL 5
REMARK VINA RESULT:    -3.628      3.684      6.333
REMARK INTER + INTRA:          -4.825
REMARK INTER:                  -5.150
REMARK INTRA:                   0.324
REMARK UNBOUND:                 0.287
REMARK SMILES CC1=CCC(=C(C)C)C(=O)CC(C)=CCC1
REMARK SMILES IDX 12 1 14 2 13 3 15 4 16 5 2 6 1 7 3 8 11 10 9 11 10 12 5 13
REMARK SMILES IDX 6 14 7 15 8 16 4 17
REMARK H PARENT
REMARK Flexibility Score: 60.00
ROOT
ATOM      1  C   UNL     1      17.161  19.718  16.040  1.00  0.00    -0.070 C 
ATOM      2  C   UNL     1      16.623  20.673  15.246  1.00  0.00    -0.027 C 
ATOM      3  C   UNL     1      17.307  20.018  17.510  1.00  0.00     0.039 C 
ENDROOT
BRANCH   2   4
ATOM      4  C   UNL     1      16.459  20.568  13.746  1.00  0.00     0.032 C 
BRANCH   4   5
ATOM      5  C   UNL     1      15.244  19.707  13.368  1.00  0.00     0.034 C 
BRANCH   5   6
ATOM      6  C   UNL     1      15.543  18.673  12.293  1.00  0.00    -0.077 C 
ATOM      7  C   UNL     1      16.010  19.143  10.939  1.00  0.00     0.039 C 
ATOM      8  C   UNL     1      15.394  17.341  12.481  1.00  0.00    -0.023 CG0
ATOM      9  G   UNL     1      15.007  16.677  13.782  1.00  0.00     0.000 G0
ENDBRANCH   5   6
ENDBRANCH   4   5
ENDBRANCH   2   4
BRANCH   1  10
ATOM     10  C   UNL     1      17.619  18.371  15.516  1.00  0.00     0.111 C 
BRANCH  10  11
ATOM     11  C   UNL     1      16.575  17.315  15.750  1.00  0.00     0.163 C 
ATOM     12  O   UNL     1      16.023  17.231  16.881  1.00  0.00    -0.294 OA
BRANCH  11  13
ATOM     13  C   UNL     1      16.198  16.353  14.683  1.00  0.00    -0.002 C 
ATOM     14  C   UNL     1      16.907  15.203  14.514  1.00  0.00    -0.069 C 
ATOM     15  C   UNL     1      16.508  14.188  13.468  1.00  0.00     0.039 C 
ATOM     16  C   UNL     1      18.144  14.919  15.337  1.00  0.00     0.039 C 
BRANCH  13  17
ATOM     17  C   UNL     1      15.010  16.671  13.781  1.00  0.00     0.066 CG0
ATOM     18  G   UNL     1      15.398  17.315  12.470  1.00  0.00     0.000 G0
ENDBRANCH  13  17
ENDBRANCH  11  13
ENDBRANCH  10  11
ENDBRANCH   1  10
TORSDOF 0
ENDMDL
MODEL 6
REMARK VINA RESULT:    -3.559      3.217      5.820
REMARK INTER + INTRA:          -4.729
REMARK INTER:                  -5.222
REMARK INTRA:                   0.494
REMARK UNBOUND:                 0.287
REMARK SMILES CC1=CCC(=C(C)C)C(=O)CC(C)=CCC1
REMARK SMILES IDX 12 1 14 2 13 3 15 4 16 5 2 6 1 7 3 8 11 10 9 11 10 12 5 13
REMARK SMILES IDX 6 14 7 15 8 16 4 17
REMARK H PARENT
REMARK Flexibility Score: 60.00
ROOT
ATOM      1  C   UNL     1      16.637  18.981  16.110  1.00  0.00    -0.070 C 
ATOM      2  C   UNL     1      15.438  18.899  16.732  1.00  0.00    -0.027 C 
ATOM      3  C   UNL     1      17.043  20.309  15.524  1.00  0.00     0.039 C 
ENDROOT
BRANCH   2   4
ATOM      4  C   UNL     1      14.845  17.639  17.320  1.00  0.00     0.032 C 
BRANCH   4   5
ATOM      5  C   UNL     1      13.578  17.204  16.569  1.00  0.00     0.034 C 
BRANCH   5   6
ATOM      6  C   UNL     1      13.703  17.307  15.056  1.00  0.00    -0.077 C 
ATOM      7  C   UNL     1      12.900  18.356  14.329  1.00  0.00     0.039 C 
ATOM      8  C   UNL     1      14.486  16.489  14.316  1.00  0.00    -0.023 CG0
ATOM      9  G   UNL     1      15.412  15.429  14.867  1.00  0.00     0.000 G0
ENDBRANCH   5   6
ENDBRANCH   4   5
ENDBRANCH   2   4
BRANCH   1  10
ATOM     10  C   UNL     1      17.581  17.802  15.981  1.00  0.00     0.111 C 
BRANCH  10  11
ATOM     11  C   UNL     1      17.409  17.111  14.657  1.00  0.00     0.163 C 
ATOM     12  O   UNL     1      17.672  17.737  13.595  1.00  0.00    -0.294 OA
BRANCH  11  13
ATOM     13  C   UNL     1      16.911  15.714  14.575  1.00  0.00    -0.002 C 
ATOM     14  C   UNL     1      17.759  14.701  14.248  1.00  0.00    -0.069 C 
ATOM     15  C   UNL     1      17.284  13.267  14.210  1.00  0.00     0.039 C 
ATOM     16  C   UNL     1      19.198  14.976  13.871  1.00  0.00     0.039 C 
BRANCH  13  17
ATOM     17  C   UNL     1      15.439  15.432  14.859  1.00  0.00     0.066 CG0
ATOM     18  G   UNL     1      14.502  16.486  14.316  1.00  0.00     0.000 G0
ENDBRANCH  13  17
ENDBRANCH  11  13
ENDBRANCH  10  11
ENDBRANCH   1  10
TORSDOF 0
ENDMDL
MODEL 7
REMARK VINA RESULT:    -3.539      3.276      6.182
REMARK INTER + INTRA:          -4.699
REMARK INTER:                  -5.023
REMARK INTRA:                   0.323
REMARK UNBOUND:                 0.287
REMARK SMILES CC1=CCC(=C(C)C)C(=O)CC(C)=CCC1
REMARK SMILES IDX 12 1 14 2 13 3 15 4 16 5 2 6 1 7 3 8 11 10 9 11 10 12 5 13
REMARK SMILES IDX 6 14 7 15 8 16 4 17
REMARK H PARENT
REMARK Flexibility Score: 60.00
ROOT
ATOM      1  C   UNL     1      16.304  19.960  10.468  1.00  0.00    -0.070 C 
ATOM      2  C   UNL     1      16.648  20.397   9.234  1.00  0.00    -0.027 C 
ATOM      3  C   UNL     1      14.901  20.230  10.950  1.00  0.00     0.039 C 
ENDROOT
BRANCH   2   4
ATOM      4  C   UNL     1      18.022  20.269   8.616  1.00  0.00     0.032 C 
BRANCH   4   5
ATOM      5  C   UNL     1      18.304  18.832   8.153  1.00  0.00     0.034 C 
BRANCH   5   6
ATOM      6  C   UNL     1      19.637  18.286   8.642  1.00  0.00    -0.077 C 
ATOM      7  C   UNL     1      20.903  19.018   8.273  1.00  0.00     0.039 C 
ATOM      8  C   UNL     1      19.754  17.159   9.381  1.00  0.00    -0.023 CG0
ATOM      9  G   UNL     1      18.603  16.332   9.906  1.00  0.00     0.000 G0
ENDBRANCH   5   6
ENDBRANCH   4   5
ENDBRANCH   2   4
BRANCH   1  10
ATOM     10  C   UNL     1      17.263  19.215  11.376  1.00  0.00     0.111 C 
BRANCH  10  11
ATOM     11  C   UNL     1      16.989  17.737  11.359  1.00  0.00     0.163 C 
ATOM     12  O   UNL     1      15.798  17.329  11.434  1.00  0.00    -0.294 OA
BRANCH  11  13
ATOM     13  C   UNL     1      18.095  16.749  11.280  1.00  0.00    -0.002 C 
ATOM     14  C   UNL     1      18.650  16.249  12.418  1.00  0.00    -0.069 C 
ATOM     15  C   UNL     1      19.740  15.204  12.358  1.00  0.00     0.039 C 
ATOM     16  C   UNL     1      18.226  16.749  13.781  1.00  0.00     0.039 C 
BRANCH  13  17
ATOM     17  C   UNL     1      18.599  16.306   9.911  1.00  0.00     0.066 CG0
ATOM     18  G   UNL     1      19.734  17.149   9.379  1.00  0.00     0.000 G0
ENDBRANCH  13  17
ENDBRANCH  11  13
ENDBRANCH  10  11
ENDBRANCH   1  10
TORSDOF 0
ENDMDL
MODEL 8
REMARK VINA RESULT:    -3.506      3.155      5.837
REMARK INTER + INTRA:          -4.653
REMARK INTER:                  -5.343
REMARK INTRA:                   0.689
REMARK UNBOUND:                 0.287
REMARK SMILES CC1=CCC(=C(C)C)C(=O)CC(C)=CCC1
REMARK SMILES IDX 12 1 14 2 13 3 15 4 16 5 2 6 1 7 3 8 11 10 9 11 10 12 5 13
REMARK SMILES IDX 6 14 7 15 8 16 4 17
REMARK H PARENT
REMARK Flexibility Score: 60.00
ROOT
ATOM      1  C   UNL     1      19.767  18.668   8.288  1.00  0.00    -0.070 C 
ATOM      2  C   UNL     1      18.555  19.240   8.099  1.00  0.00    -0.027 C 
ATOM      3  C   UNL     1      20.982  19.393   7.766  1.00  0.00     0.039 C 
ENDROOT
BRANCH   2   4
ATOM      4  C   UNL     1      17.231  18.629   8.500  1.00  0.00     0.032 C 
BRANCH   4   5
ATOM      5  C   UNL     1      16.373  19.615   9.306  1.00  0.00     0.034 C 
BRANCH   5   6
ATOM      6  C   UNL     1      16.952  19.949  10.673  1.00  0.00    -0.077 C 
ATOM      7  C   UNL     1      17.020  21.393  11.102  1.00  0.00     0.039 C 
ATOM      8  C   UNL     1      17.431  19.014  11.526  1.00  0.00    -0.023 CG0
ATOM      9  G   UNL     1      17.385  17.520  11.305  1.00  0.00     0.000 G0
ENDBRANCH   5   6
ENDBRANCH   4   5
ENDBRANCH   2   4
BRANCH   1  10
ATOM     10  C   UNL     1      19.952  17.341   8.998  1.00  0.00     0.111 C 
BRANCH  10  11
ATOM     11  C   UNL     1      19.837  17.503  10.488  1.00  0.00     0.163 C 
ATOM     12  O   UNL     1      20.695  18.195  11.102  1.00  0.00    -0.294 OA
BRANCH  11  13
ATOM     13  C   UNL     1      18.749  16.844  11.254  1.00  0.00    -0.002 C 
ATOM     14  C   UNL     1      18.978  15.665  11.894  1.00  0.00    -0.069 C 
ATOM     15  C   UNL     1      17.899  15.005  12.721  1.00  0.00     0.039 C 
ATOM     16  C   UNL     1      20.305  14.951  11.768  1.00  0.00     0.039 C 
BRANCH  13  17
ATOM     17  C   UNL     1      17.376  17.504  11.312  1.00  0.00     0.066 CG0
ATOM     18  G   UNL     1      17.427  18.997  11.538  1.00  0.00     0.000 G0
ENDBRANCH  13  17
ENDBRANCH  11  13
ENDBRANCH  10  11
ENDBRANCH   1  10
TORSDOF 0
ENDMDL
MODEL 9
REMARK VINA RESULT:    -3.381     16.420     18.583
REMARK INTER + INTRA:          -4.477
REMARK INTER:                  -5.164
REMARK INTRA:                   0.687
REMARK UNBOUND:                 0.287
REMARK SMILES CC1=CCC(=C(C)C)C(=O)CC(C)=CCC1
REMARK SMILES IDX 12 1 14 2 13 3 15 4 16 5 2 6 1 7 3 8 11 10 9 11 10 12 5 13
REMARK SMILES IDX 6 14 7 15 8 16 4 17
REMARK H PARENT
REMARK Flexibility Score: 60.00
ROOT
ATOM      1  C   UNL     1       6.962   8.891  23.779  1.00  0.00    -0.070 C 
ATOM      2  C   UNL     1       6.676   7.729  24.411  1.00  0.00    -0.027 C 
ATOM      3  C   UNL     1       8.303   9.018  23.101  1.00  0.00     0.039 C 
ENDROOT
BRANCH   2   4
ATOM      4  C   UNL     1       5.412   7.449  25.191  1.00  0.00     0.032 C 
BRANCH   4   5
ATOM      5  C   UNL     1       4.239   7.099  24.263  1.00  0.00     0.034 C 
BRANCH   5   6
ATOM      6  C   UNL     1       3.063   8.057  24.381  1.00  0.00    -0.077 C 
ATOM      7  C   UNL     1       2.279   8.092  25.669  1.00  0.00     0.039 C 
ATOM      8  C   UNL     1       2.664   8.873  23.379  1.00  0.00    -0.023 CG0
ATOM      9  G   UNL     1       3.361   9.030  22.047  1.00  0.00     0.000 G0
ENDBRANCH   5   6
ENDBRANCH   4   5
ENDBRANCH   2   4
BRANCH   1  10
ATOM     10  C   UNL     1       5.998  10.059  23.724  1.00  0.00     0.111 C 
BRANCH  10  11
ATOM     11  C   UNL     1       5.577  10.350  22.310  1.00  0.00     0.163 C 
ATOM     12  O   UNL     1       6.455  10.634  21.451  1.00  0.00    -0.294 OA
BRANCH  11  13
ATOM     13  C   UNL     1       4.147  10.334  21.912  1.00  0.00    -0.002 C 
ATOM     14  C   UNL     1       3.552  11.465  21.442  1.00  0.00    -0.069 C 
ATOM     15  C   UNL     1       2.113  11.455  20.983  1.00  0.00     0.039 C 
ATOM     16  C   UNL     1       4.297  12.780  21.399  1.00  0.00     0.039 C 
BRANCH  13  17
ATOM     17  C   UNL     1       3.355   9.037  22.039  1.00  0.00     0.066 CG0
ATOM     18  G   UNL     1       2.666   8.873  23.374  1.00  0.00     0.000 G0
ENDBRANCH  13  17
ENDBRANCH  11  13
ENDBRANCH  10  11
ENDBRANCH   1  10
TORSDOF 0
ENDMDL
