MODEL 1
REMARK VINA RESULT:    -2.697      0.000      0.000
REMARK INTER + INTRA:          -4.004
REMARK INTER:                  -4.116
REMARK INTRA:                   0.112
REMARK UNBOUND:                 0.112
REMARK SMILES CC1=CCC[C@H](C)C(=O)C[C@@H](C(C)C)C(=O)C1
REMARK SMILES IDX 8 1 9 2 6 3 7 4 5 5 4 6 3 7 2 8 1 9 10 11 11 12 15 13 16 14
REMARK SMILES IDX 17 15 12 17 13 18 14 19
REMARK H PARENT
REMARK Flexibility Score: 70.00
ROOT
ATOM      1  C   UNL     1      -9.682 -12.837  -5.481  1.00  0.00     0.136 C 
ATOM      2  O   UNL     1      -9.185 -13.829  -4.965  1.00  0.00    -0.299 OA
ENDROOT
BRANCH   1   3
ATOM      3  C   UNL     1      -9.393 -11.466  -4.903  1.00  0.00     0.053 C 
ATOM      4  C   UNL     1      -9.486 -11.499  -3.369  1.00  0.00     0.016 C 
BRANCH   3   5
ATOM      5  C   UNL     1      -8.002 -10.974  -5.361  1.00  0.00     0.015 C 
BRANCH   5   6
ATOM      6  C   UNL     1      -8.024 -10.430  -6.805  1.00  0.00     0.028 C 
BRANCH   6   7
ATOM      7  C   UNL     1      -7.086 -11.201  -7.697  1.00  0.00    -0.028 C 
ATOM      8  C   UNL     1      -7.466 -12.092  -8.641  1.00  0.00    -0.070 CG0
ATOM      9  C   UNL     1      -6.386 -12.819  -9.402  1.00  0.00     0.039 C 
ATOM     10  G   UNL     1      -8.921 -12.404  -8.961  1.00  0.00     0.000 G0
ENDBRANCH   6   7
ENDBRANCH   5   6
ENDBRANCH   3   5
ENDBRANCH   1   3
BRANCH   1  11
ATOM     11  C   UNL     1     -10.575 -13.005  -6.689  1.00  0.00     0.087 C 
BRANCH  11  12
ATOM     12  C   UNL     1     -10.195 -14.245  -7.540  1.00  0.00     0.066 C 
BRANCH  12  13
ATOM     13  C   UNL     1      -9.299 -13.848  -8.708  1.00  0.00     0.140 C 
ATOM     14  O   UNL     1      -8.922 -14.718  -9.482  1.00  0.00    -0.299 OA
BRANCH  13  15
ATOM     15  C   UNL     1      -8.924 -12.409  -8.978  1.00  0.00     0.106 CG0
ATOM     16  G   UNL     1      -7.473 -12.115  -8.630  1.00  0.00     0.000 G0
ENDBRANCH  13  15
ENDBRANCH  12  13
BRANCH  12  17
ATOM     17  C   UNL     1     -11.438 -15.060  -8.022  1.00  0.00    -0.006 C 
ATOM     18  C   UNL     1     -12.702 -14.740  -7.204  1.00  0.00     0.008 C 
ATOM     19  C   UNL     1     -11.169 -16.575  -7.943  1.00  0.00     0.008 C 
ENDBRANCH  12  17
ENDBRANCH  11  12
ENDBRANCH   1  11
TORSDOF 1
ENDMDL
MODEL 2
REMARK VINA RESULT:    -2.633      3.133      3.946
REMARK INTER + INTRA:          -3.906
REMARK INTER:                  -3.710
REMARK INTRA:                  -0.196
REMARK UNBOUND:                 0.112
REMARK SMILES CC1=CCC[C@H](C)C(=O)C[C@@H](C(C)C)C(=O)C1
REMARK SMILES IDX 8 1 9 2 6 3 7 4 5 5 4 6 3 7 2 8 1 9 10 11 11 12 15 13 16 14
REMARK SMILES IDX 17 15 12 17 13 18 14 19
REMARK H PARENT
REMARK Flexibility Score: 70.00
ROOT
ATOM      1  C   UNL     1      -9.638 -12.882  -5.592  1.00  0.00     0.136 C 
ATOM      2  O   UNL     1     -10.748 -12.366  -5.621  1.00  0.00    -0.299 OA
ENDROOT
BRANCH   1   3
ATOM      3  C   UNL     1      -8.701 -12.580  -4.440  1.00  0.00     0.053 C 
ATOM      4  C   UNL     1      -9.256 -11.434  -3.580  1.00  0.00     0.016 C 
BRANCH   3   5
ATOM      5  C   UNL     1      -8.474 -13.849  -3.588  1.00  0.00     0.015 C 
BRANCH   5   6
ATOM      6  C   UNL     1      -7.100 -14.495  -3.861  1.00  0.00     0.028 C 
BRANCH   6   7
ATOM      7  C   UNL     1      -7.183 -15.999  -3.827  1.00  0.00    -0.028 C 
ATOM      8  C   UNL     1      -7.465 -16.788  -4.889  1.00  0.00    -0.070 CG0
ATOM      9  C   UNL     1      -7.567 -18.275  -4.658  1.00  0.00     0.039 C 
ATOM     10  G   UNL     1      -7.696 -16.249  -6.293  1.00  0.00     0.000 G0
ENDBRANCH   6   7
ENDBRANCH   5   6
ENDBRANCH   3   5
ENDBRANCH   1   3
BRANCH   1  11
ATOM     11  C   UNL     1      -9.229 -13.810  -6.712  1.00  0.00     0.087 C 
BRANCH  11  12
ATOM     12  C   UNL     1     -10.067 -15.114  -6.738  1.00  0.00     0.066 C 
BRANCH  12  13
ATOM     13  C   UNL     1      -9.163 -16.342  -6.716  1.00  0.00     0.140 C 
ATOM     14  O   UNL     1      -9.613 -17.411  -7.103  1.00  0.00    -0.299 OA
BRANCH  13  15
ATOM     15  C   UNL     1      -7.711 -16.261  -6.300  1.00  0.00     0.106 CG0
ATOM     16  G   UNL     1      -7.485 -16.784  -4.890  1.00  0.00     0.000 G0
ENDBRANCH  13  15
ENDBRANCH  12  13
BRANCH  12  17
ATOM     17  C   UNL     1     -11.078 -15.169  -7.929  1.00  0.00    -0.006 C 
ATOM     18  C   UNL     1     -10.679 -14.228  -9.080  1.00  0.00     0.008 C 
ATOM     19  C   UNL     1     -12.500 -14.803  -7.464  1.00  0.00     0.008 C 
ENDBRANCH  12  17
ENDBRANCH  11  12
ENDBRANCH   1  11
TORSDOF 1
ENDMDL
MODEL 3
REMARK VINA RESULT:    -2.593      2.696      4.226
REMARK INTER + INTRA:          -3.845
REMARK INTER:                  -3.820
REMARK INTRA:                  -0.025
REMARK UNBOUND:                 0.112
REMARK SMILES CC1=CCC[C@H](C)C(=O)C[C@@H](C(C)C)C(=O)C1
REMARK SMILES IDX 8 1 9 2 6 3 7 4 5 5 4 6 3 7 2 8 1 9 10 11 11 12 15 13 16 14
REMARK SMILES IDX 17 15 12 17 13 18 14 19
REMARK H PARENT
REMARK Flexibility Score: 70.00
ROOT
ATOM      1  C   UNL     1      -9.260 -11.959  -4.010  1.00  0.00     0.136 C 
ATOM      2  O   UNL     1      -9.279 -11.387  -2.928  1.00  0.00    -0.299 OA
ENDROOT
BRANCH   1   3
ATOM      3  C   UNL     1      -9.623 -11.195  -5.267  1.00  0.00     0.053 C 
ATOM      4  C   UNL     1      -8.512 -10.197  -5.631  1.00  0.00     0.016 C 
BRANCH   3   5
ATOM      5  C   UNL     1      -9.887 -12.176  -6.432  1.00  0.00     0.015 C 
BRANCH   5   6
ATOM      6  C   UNL     1      -8.805 -12.084  -7.527  1.00  0.00     0.028 C 
BRANCH   6   7
ATOM      7  C   UNL     1      -8.294 -13.449  -7.911  1.00  0.00    -0.028 C 
ATOM      8  C   UNL     1      -7.239 -14.073  -7.342  1.00  0.00    -0.070 CG0
ATOM      9  C   UNL     1      -6.829 -15.415  -7.896  1.00  0.00     0.039 C 
ATOM     10  G   UNL     1      -6.443 -13.486  -6.186  1.00  0.00     0.000 G0
ENDBRANCH   6   7
ENDBRANCH   5   6
ENDBRANCH   3   5
ENDBRANCH   1   3
BRANCH   1  11
ATOM     11  C   UNL     1      -8.876 -13.419  -4.064  1.00  0.00     0.087 C 
BRANCH  11  12
ATOM     12  C   UNL     1      -7.381 -13.652  -3.724  1.00  0.00     0.066 C 
BRANCH  12  13
ATOM     13  C   UNL     1      -6.640 -14.254  -4.913  1.00  0.00     0.140 C 
ATOM     14  O   UNL     1      -6.259 -15.415  -4.843  1.00  0.00    -0.299 OA
BRANCH  13  15
ATOM     15  C   UNL     1      -6.429 -13.486  -6.198  1.00  0.00     0.106 CG0
ATOM     16  G   UNL     1      -7.231 -14.064  -7.355  1.00  0.00     0.000 G0
ENDBRANCH  13  15
ENDBRANCH  12  13
BRANCH  12  17
ATOM     17  C   UNL     1      -7.173 -14.503  -2.429  1.00  0.00    -0.006 C 
ATOM     18  C   UNL     1      -8.403 -15.363  -2.090  1.00  0.00     0.008 C 
ATOM     19  C   UNL     1      -6.853 -13.601  -1.222  1.00  0.00     0.008 C 
ENDBRANCH  12  17
ENDBRANCH  11  12
ENDBRANCH   1  11
TORSDOF 1
ENDMDL
MODEL 4
REMARK VINA RESULT:    -2.488      2.046      4.476
REMARK INTER + INTRA:          -3.685
REMARK INTER:                  -3.716
REMARK INTRA:                   0.030
REMARK UNBOUND:                 0.112
REMARK SMILES CC1=CCC[C@H](C)C(=O)C[C@@H](C(C)C)C(=O)C1
REMARK SMILES IDX 8 1 9 2 6 3 7 4 5 5 4 6 3 7 2 8 1 9 10 11 11 12 15 13 16 14
REMARK SMILES IDX 17 15 12 17 13 18 14 19
REMARK H PARENT
REMARK Flexibility Score: 70.00
ROOT
ATOM      1  C   UNL     1      -8.500 -11.049  -4.709  1.00  0.00     0.136 C 
ATOM      2  O   UNL     1      -8.724 -10.095  -3.976  1.00  0.00    -0.299 OA
ENDROOT
BRANCH   1   3
ATOM      3  C   UNL     1      -9.421 -12.252  -4.676  1.00  0.00     0.053 C 
ATOM      4  C   UNL     1     -10.763 -11.921  -5.347  1.00  0.00     0.016 C 
BRANCH   3   5
ATOM      5  C   UNL     1      -8.745 -13.462  -5.360  1.00  0.00     0.015 C 
BRANCH   5   6
ATOM      6  C   UNL     1      -9.588 -14.016  -6.528  1.00  0.00     0.028 C 
BRANCH   6   7
ATOM      7  C   UNL     1      -8.733 -14.298  -7.737  1.00  0.00    -0.028 C 
ATOM      8  C   UNL     1      -8.352 -13.378  -8.652  1.00  0.00    -0.070 CG0
ATOM      9  C   UNL     1      -7.544 -13.852  -9.835  1.00  0.00     0.039 C 
ATOM     10  G   UNL     1      -8.706 -11.902  -8.553  1.00  0.00     0.000 G0
ENDBRANCH   6   7
ENDBRANCH   5   6
ENDBRANCH   3   5
ENDBRANCH   1   3
BRANCH   1  11
ATOM     11  C   UNL     1      -7.304 -11.003  -5.631  1.00  0.00     0.087 C 
BRANCH  11  12
ATOM     12  C   UNL     1      -7.567 -10.157  -6.903  1.00  0.00     0.066 C 
BRANCH  12  13
ATOM     13  C   UNL     1      -7.540 -11.029  -8.153  1.00  0.00     0.140 C 
ATOM     14  O   UNL     1      -6.513 -11.073  -8.817  1.00  0.00    -0.299 OA
BRANCH  13  15
ATOM     15  C   UNL     1      -8.713 -11.895  -8.553  1.00  0.00     0.106 CG0
ATOM     16  G   UNL     1      -8.334 -13.364  -8.665  1.00  0.00     0.000 G0
ENDBRANCH  13  15
ENDBRANCH  12  13
BRANCH  12  17
ATOM     17  C   UNL     1      -6.601  -8.935  -7.035  1.00  0.00    -0.006 C 
ATOM     18  C   UNL     1      -6.082  -8.448  -5.671  1.00  0.00     0.008 C 
ATOM     19  C   UNL     1      -7.294  -7.758  -7.748  1.00  0.00     0.008 C 
ENDBRANCH  12  17
ENDBRANCH  11  12
ENDBRANCH   1  11
TORSDOF 1
ENDMDL
MODEL 5
REMARK VINA RESULT:    -2.436      2.259      3.183
REMARK INTER + INTRA:          -3.605
REMARK INTER:                  -3.576
REMARK INTRA:                  -0.029
REMARK UNBOUND:                 0.112
REMARK SMILES CC1=CCC[C@H](C)C(=O)C[C@@H](C(C)C)C(=O)C1
REMARK SMILES IDX 8 1 9 2 6 3 7 4 5 5 4 6 3 7 2 8 1 9 10 11 11 12 15 13 16 14
REMARK SMILES IDX 17 15 12 17 13 18 14 19
REMARK H PARENT
REMARK Flexibility Score: 70.00
ROOT
ATOM      1  C   UNL     1      -7.986 -14.662  -4.659  1.00  0.00     0.136 C 
ATOM      2  O   UNL     1      -6.870 -15.156  -4.744  1.00  0.00    -0.299 OA
ENDROOT
BRANCH   1   3
ATOM      3  C   UNL     1      -8.520 -14.246  -3.303  1.00  0.00     0.053 C 
ATOM      4  C   UNL     1      -7.808 -15.021  -2.183  1.00  0.00     0.016 C 
BRANCH   3   5
ATOM      5  C   UNL     1      -8.358 -12.722  -3.108  1.00  0.00     0.015 C 
BRANCH   5   6
ATOM      6  C   UNL     1      -9.370 -11.917  -3.950  1.00  0.00     0.028 C 
BRANCH   6   7
ATOM      7  C   UNL     1      -8.682 -10.861  -4.775  1.00  0.00    -0.028 C 
ATOM      8  C   UNL     1      -8.660 -10.821  -6.126  1.00  0.00    -0.070 CG0
ATOM      9  C   UNL     1      -7.869  -9.720  -6.788  1.00  0.00     0.039 C 
ATOM     10  G   UNL     1      -9.379 -11.833  -7.005  1.00  0.00     0.000 G0
ENDBRANCH   6   7
ENDBRANCH   5   6
ENDBRANCH   3   5
ENDBRANCH   1   3
BRANCH   1  11
ATOM     11  C   UNL     1      -8.808 -14.480  -5.913  1.00  0.00     0.087 C 
BRANCH  11  12
ATOM     12  C   UNL     1      -7.941 -14.095  -7.140  1.00  0.00     0.066 C 
BRANCH  12  13
ATOM     13  C   UNL     1      -8.397 -12.767  -7.733  1.00  0.00     0.140 C 
ATOM     14  O   UNL     1      -8.008 -12.457  -8.851  1.00  0.00    -0.299 OA
BRANCH  13  15
ATOM     15  C   UNL     1      -9.368 -11.858  -7.014  1.00  0.00     0.106 CG0
ATOM     16  G   UNL     1      -8.660 -10.819  -6.158  1.00  0.00     0.000 G0
ENDBRANCH  13  15
ENDBRANCH  12  13
BRANCH  12  17
ATOM     17  C   UNL     1      -7.885 -15.219  -8.226  1.00  0.00    -0.006 C 
ATOM     18  C   UNL     1      -8.916 -16.333  -7.970  1.00  0.00     0.008 C 
ATOM     19  C   UNL     1      -6.482 -15.851  -8.295  1.00  0.00     0.008 C 
ENDBRANCH  12  17
ENDBRANCH  11  12
ENDBRANCH   1  11
TORSDOF 1
ENDMDL
MODEL 6
REMARK VINA RESULT:    -2.321      3.097      4.617
REMARK INTER + INTRA:          -3.431
REMARK INTER:                  -3.527
REMARK INTRA:                   0.096
REMARK UNBOUND:                 0.112
REMARK SMILES CC1=CCC[C@H](C)C(=O)C[C@@H](C(C)C)C(=O)C1
REMARK SMILES IDX 8 1 9 2 6 3 7 4 5 5 4 6 3 7 2 8 1 9 10 11 11 12 15 13 16 14
REMARK SMILES IDX 17 15 12 17 13 18 14 19
REMARK H PARENT
REMARK Flexibility Score: 70.00
ROOT
ATOM      1  C   UNL     1      -8.305 -13.600  -3.762  1.00  0.00     0.136 C 
ATOM      2  O   UNL     1      -8.994 -12.766  -3.189  1.00  0.00    -0.299 OA
ENDROOT
BRANCH   1   3
ATOM      3  C   UNL     1      -7.573 -14.651  -2.953  1.00  0.00     0.053 C 
ATOM      4  C   UNL     1      -7.642 -14.322  -1.454  1.00  0.00     0.016 C 
BRANCH   3   5
ATOM      5  C   UNL     1      -8.161 -16.051  -3.239  1.00  0.00     0.015 C 
BRANCH   5   6
ATOM      6  C   UNL     1      -7.307 -16.847  -4.247  1.00  0.00     0.028 C 
BRANCH   6   7
ATOM      7  C   UNL     1      -8.168 -17.691  -5.151  1.00  0.00    -0.028 C 
ATOM      8  C   UNL     1      -8.686 -17.287  -6.333  1.00  0.00    -0.070 CG0
ATOM      9  C   UNL     1      -9.578 -18.248  -7.078  1.00  0.00     0.039 C 
ATOM     10  G   UNL     1      -8.426 -15.915  -6.935  1.00  0.00     0.000 G0
ENDBRANCH   6   7
ENDBRANCH   5   6
ENDBRANCH   3   5
ENDBRANCH   1   3
BRANCH   1  11
ATOM     11  C   UNL     1      -8.200 -13.557  -5.269  1.00  0.00     0.087 C 
BRANCH  11  12
ATOM     12  C   UNL     1      -9.578 -13.710  -5.964  1.00  0.00     0.066 C 
BRANCH  12  13
ATOM     13  C   UNL     1      -9.626 -14.981  -6.804  1.00  0.00     0.140 C 
ATOM     14  O   UNL     1     -10.640 -15.226  -7.444  1.00  0.00    -0.299 OA
BRANCH  13  15
ATOM     15  C   UNL     1      -8.436 -15.906  -6.927  1.00  0.00     0.106 CG0
ATOM     16  G   UNL     1      -8.712 -17.282  -6.338  1.00  0.00     0.000 G0
ENDBRANCH  13  15
ENDBRANCH  12  13
BRANCH  12  17
ATOM     17  C   UNL     1      -9.983 -12.453  -6.802  1.00  0.00    -0.006 C 
ATOM     18  C   UNL     1      -9.018 -12.194  -7.972  1.00  0.00     0.008 C 
ATOM     19  C   UNL     1     -10.036 -11.193  -5.917  1.00  0.00     0.008 C 
ENDBRANCH  12  17
ENDBRANCH  11  12
ENDBRANCH   1  11
TORSDOF 1
ENDMDL
MODEL 7
REMARK VINA RESULT:    -2.312      1.808      4.171
REMARK INTER + INTRA:          -3.416
REMARK INTER:                  -3.573
REMARK INTRA:                   0.157
REMARK UNBOUND:                 0.112
REMARK SMILES CC1=CCC[C@H](C)C(=O)C[C@@H](C(C)C)C(=O)C1
REMARK SMILES IDX 8 1 9 2 6 3 7 4 5 5 4 6 3 7 2 8 1 9 10 11 11 12 15 13 16 14
REMARK SMILES IDX 17 15 12 17 13 18 14 19
REMARK H PARENT
REMARK Flexibility Score: 70.00
ROOT
ATOM      1  C   UNL     1     -10.113 -14.159  -7.297  1.00  0.00     0.136 C 
ATOM      2  O   UNL     1     -11.207 -13.802  -6.880  1.00  0.00    -0.299 OA
ENDROOT
BRANCH   1   3
ATOM      3  C   UNL     1      -9.890 -14.305  -8.788  1.00  0.00     0.053 C 
ATOM      4  C   UNL     1     -11.100 -14.981  -9.450  1.00  0.00     0.016 C 
BRANCH   3   5
ATOM      5  C   UNL     1      -9.612 -12.924  -9.425  1.00  0.00     0.015 C 
BRANCH   5   6
ATOM      6  C   UNL     1      -8.108 -12.581  -9.437  1.00  0.00     0.028 C 
BRANCH   6   7
ATOM      7  C   UNL     1      -7.868 -11.148  -9.036  1.00  0.00    -0.028 C 
ATOM      8  C   UNL     1      -7.555 -10.731  -7.788  1.00  0.00    -0.070 CG0
ATOM      9  C   UNL     1      -7.409  -9.248  -7.555  1.00  0.00     0.039 C 
ATOM     10  G   UNL     1      -7.356 -11.678  -6.614  1.00  0.00     0.000 G0
ENDBRANCH   6   7
ENDBRANCH   5   6
ENDBRANCH   3   5
ENDBRANCH   1   3
BRANCH   1  11
ATOM     11  C   UNL     1      -9.008 -14.447  -6.307  1.00  0.00     0.087 C 
BRANCH  11  12
ATOM     12  C   UNL     1      -8.882 -13.348  -5.221  1.00  0.00     0.066 C 
BRANCH  12  13
ATOM     13  C   UNL     1      -8.621 -11.986  -5.854  1.00  0.00     0.140 C 
ATOM     14  O   UNL     1      -9.451 -11.099  -5.706  1.00  0.00    -0.299 OA
BRANCH  13  15
ATOM     15  C   UNL     1      -7.338 -11.678  -6.593  1.00  0.00     0.106 CG0
ATOM     16  G   UNL     1      -7.562 -10.742  -7.771  1.00  0.00     0.000 G0
ENDBRANCH  13  15
ENDBRANCH  12  13
BRANCH  12  17
ATOM     17  C   UNL     1      -7.816 -13.687  -4.129  1.00  0.00    -0.006 C 
ATOM     18  C   UNL     1      -7.426 -15.175  -4.132  1.00  0.00     0.008 C 
ATOM     19  C   UNL     1      -8.327 -13.313  -2.724  1.00  0.00     0.008 C 
ENDBRANCH  12  17
ENDBRANCH  11  12
ENDBRANCH   1  11
TORSDOF 1
ENDMDL
MODEL 8
REMARK VINA RESULT:    -2.267      3.501      4.774
REMARK INTER + INTRA:          -3.348
REMARK INTER:                  -3.332
REMARK INTRA:                  -0.016
REMARK UNBOUND:                 0.112
REMARK SMILES CC1=CCC[C@H](C)C(=O)C[C@@H](C(C)C)C(=O)C1
REMARK SMILES IDX 8 1 9 2 6 3 7 4 5 5 4 6 3 7 2 8 1 9 10 11 11 12 15 13 16 14
REMARK SMILES IDX 17 15 12 17 13 18 14 19
REMARK H PARENT
REMARK Flexibility Score: 70.00
ROOT
ATOM      1  C   UNL     1      -8.391 -12.806  -6.209  1.00  0.00     0.136 C 
ATOM      2  O   UNL     1      -9.087 -12.282  -7.068  1.00  0.00    -0.299 OA
ENDROOT
BRANCH   1   3
ATOM      3  C   UNL     1      -8.138 -12.078  -4.903  1.00  0.00     0.053 C 
ATOM      4  C   UNL     1      -8.573 -10.609  -5.013  1.00  0.00     0.016 C 
BRANCH   3   5
ATOM      5  C   UNL     1      -8.875 -12.788  -3.745  1.00  0.00     0.015 C 
BRANCH   5   6
ATOM      6  C   UNL     1      -7.921 -13.164  -2.592  1.00  0.00     0.028 C 
BRANCH   6   7
ATOM      7  C   UNL     1      -8.231 -14.534  -2.048  1.00  0.00    -0.028 C 
ATOM      8  C   UNL     1      -7.929 -15.702  -2.660  1.00  0.00    -0.070 CG0
ATOM      9  C   UNL     1      -8.370 -16.982  -1.996  1.00  0.00     0.039 C 
ATOM     10  G   UNL     1      -7.184 -15.784  -3.984  1.00  0.00     0.000 G0
ENDBRANCH   6   7
ENDBRANCH   5   6
ENDBRANCH   3   5
ENDBRANCH   1   3
BRANCH   1  11
ATOM     11  C   UNL     1      -7.797 -14.170  -6.473  1.00  0.00     0.087 C 
BRANCH  11  12
ATOM     12  C   UNL     1      -8.764 -15.321  -6.095  1.00  0.00     0.066 C 
BRANCH  12  13
ATOM     13  C   UNL     1      -8.108 -16.279  -5.106  1.00  0.00     0.140 C 
ATOM     14  O   UNL     1      -8.278 -17.482  -5.251  1.00  0.00    -0.299 OA
BRANCH  13  15
ATOM     15  C   UNL     1      -7.200 -15.792  -4.000  1.00  0.00     0.106 CG0
ATOM     16  G   UNL     1      -7.917 -15.702  -2.661  1.00  0.00     0.000 G0
ENDBRANCH  13  15
ENDBRANCH  12  13
BRANCH  12  17
ATOM     17  C   UNL     1      -9.328 -16.080  -7.340  1.00  0.00    -0.006 C 
ATOM     18  C   UNL     1      -8.444 -15.898  -8.587  1.00  0.00     0.008 C 
ATOM     19  C   UNL     1     -10.756 -15.609  -7.673  1.00  0.00     0.008 C 
ENDBRANCH  12  17
ENDBRANCH  11  12
ENDBRANCH   1  11
TORSDOF 1
ENDMDL
MODEL 9
REMARK VINA RESULT:    -2.204      2.743      5.407
REMARK INTER + INTRA:          -3.251
REMARK INTER:                  -3.229
REMARK INTRA:                  -0.021
REMARK UNBOUND:                 0.112
REMARK SMILES CC1=CCC[C@H](C)C(=O)C[C@@H](C(C)C)C(=O)C1
REMARK SMILES IDX 8 1 9 2 6 3 7 4 5 5 4 6 3 7 2 8 1 9 10 11 11 12 15 13 16 14
REMARK SMILES IDX 17 15 12 17 13 18 14 19
REMARK H PARENT
REMARK Flexibility Score: 70.00
ROOT
ATOM      1  C   UNL     1     -10.102 -13.694  -7.527  1.00  0.00     0.136 C 
ATOM      2  O   UNL     1      -9.415 -12.942  -8.206  1.00  0.00    -0.299 OA
ENDROOT
BRANCH   1   3
ATOM      3  C   UNL     1     -11.027 -14.683  -8.207  1.00  0.00     0.053 C 
ATOM      4  C   UNL     1     -10.686 -14.801  -9.700  1.00  0.00     0.016 C 
BRANCH   3   5
ATOM      5  C   UNL     1     -10.943 -16.060  -7.510  1.00  0.00     0.015 C 
BRANCH   5   6
ATOM      6  C   UNL     1      -9.524 -16.660  -7.577  1.00  0.00     0.028 C 
BRANCH   6   7
ATOM      7  C   UNL     1      -9.155 -17.343  -6.285  1.00  0.00    -0.028 C 
ATOM      8  C   UNL     1      -8.212 -16.910  -5.418  1.00  0.00    -0.070 CG0
ATOM      9  C   UNL     1      -7.931 -17.755  -4.201  1.00  0.00     0.039 C 
ATOM     10  G   UNL     1      -7.416 -15.629  -5.618  1.00  0.00     0.000 G0
ENDBRANCH   6   7
ENDBRANCH   5   6
ENDBRANCH   3   5
ENDBRANCH   1   3
BRANCH   1  11
ATOM     11  C   UNL     1     -10.010 -13.615  -6.021  1.00  0.00     0.087 C 
BRANCH  11  12
ATOM     12  C   UNL     1      -8.580 -13.268  -5.532  1.00  0.00     0.066 C 
BRANCH  12  13
ATOM     13  C   UNL     1      -7.936 -14.466  -4.841  1.00  0.00     0.140 C 
ATOM     14  O   UNL     1      -7.911 -14.497  -3.618  1.00  0.00    -0.299 OA
BRANCH  13  15
ATOM     15  C   UNL     1      -7.396 -15.644  -5.619  1.00  0.00     0.106 CG0
ATOM     16  G   UNL     1      -8.231 -16.900  -5.418  1.00  0.00     0.000 G0
ENDBRANCH  13  15
ENDBRANCH  12  13
BRANCH  12  17
ATOM     17  C   UNL     1      -8.535 -11.993  -4.628  1.00  0.00    -0.006 C 
ATOM     18  C   UNL     1      -9.919 -11.627  -4.063  1.00  0.00     0.008 C 
ATOM     19  C   UNL     1      -7.983 -10.784  -5.406  1.00  0.00     0.008 C 
ENDBRANCH  12  17
ENDBRANCH  11  12
ENDBRANCH   1  11
TORSDOF 1
ENDMDL
