MODEL 1
REMARK VINA RESULT:    -4.066      0.000      0.000
REMARK INTER + INTRA:          -8.803
REMARK INTER:                  -6.919
REMARK INTRA:                  -1.884
REMARK UNBOUND:                -1.884
REMARK SMILES CCCCCCCCCCCCCC(=O)[O-]
REMARK SMILES IDX 8 1 9 2 10 3 11 4 12 5 13 6 14 7 15 8 16 9 7 10 6 11 5 12
REMARK SMILES IDX 4 13 3 14 2 15 1 16
REMARK H PARENT
REMARK Flexibility Score: inf
ROOT
ATOM      1  C   UNL     1       0.389   5.643  -9.407  1.00  0.00     0.000 C 
ENDROOT
BRANCH   1   2
ATOM      2  C   UNL     1       1.162   4.767  -8.401  1.00  0.00     0.000 C 
BRANCH   2   3
ATOM      3  C   UNL     1       0.334   4.252  -7.210  1.00  0.00     0.000 C 
BRANCH   3   4
ATOM      4  C   UNL     1       0.769   4.869  -5.870  1.00  0.00     0.000 C 
BRANCH   4   5
ATOM      5  C   UNL     1       2.062   5.696  -5.989  1.00  0.00     0.006 C 
BRANCH   5   6
ATOM      6  C   UNL     1       1.890   7.194  -5.688  1.00  0.00     0.053 C 
BRANCH   6   7
ATOM      7  C   UNL     1       2.607   7.601  -4.438  1.00  0.00     0.041 C 
ATOM      8  O   UNL     1       3.455   8.532  -4.468  1.00  0.00    -0.550 OA
ATOM      9  O   UNL     1       2.364   6.931  -3.247  1.00  0.00    -0.550 OA
ENDBRANCH   6   7
ENDBRANCH   5   6
ENDBRANCH   4   5
ENDBRANCH   3   4
ENDBRANCH   2   3
ENDBRANCH   1   2
BRANCH   1  10
ATOM     10  C   UNL     1      -0.056   7.020  -8.873  1.00  0.00     0.000 C 
BRANCH  10  11
ATOM     11  C   UNL     1       0.514   8.230  -9.636  1.00  0.00    -0.000 C 
BRANCH  11  12
ATOM     12  C   UNL     1       1.428   9.107  -8.763  1.00  0.00    -0.000 C 
BRANCH  12  13
ATOM     13  C   UNL     1       2.797   9.365  -9.416  1.00  0.00    -0.000 C 
BRANCH  13  14
ATOM     14  C   UNL     1       3.461   8.074  -9.923  1.00  0.00    -0.000 C 
BRANCH  14  15
ATOM     15  C   UNL     1       3.946   7.172  -8.777  1.00  0.00    -0.003 C 
ATOM     16  C   UNL     1       4.883   7.894  -7.810  1.00  0.00     0.004 C 
ENDBRANCH  14  15
ENDBRANCH  13  14
ENDBRANCH  12  13
ENDBRANCH  11  12
ENDBRANCH  10  11
ENDBRANCH   1  10
TORSDOF 12
ENDMDL
MODEL 2
REMARK VINA RESULT:    -3.980     18.124     21.048
REMARK INTER + INTRA:          -8.655
REMARK INTER:                  -6.609
REMARK INTRA:                  -2.046
REMARK UNBOUND:                -1.884
REMARK SMILES CCCCCCCCCCCCCC(=O)[O-]
REMARK SMILES IDX 8 1 9 2 10 3 11 4 12 5 13 6 14 7 15 8 16 9 7 10 6 11 5 12
REMARK SMILES IDX 4 13 3 14 2 15 1 16
REMARK H PARENT
REMARK Flexibility Score: inf
ROOT
ATOM      1  C   UNL     1      -5.613  -2.997   8.484  1.00  0.00     0.000 C 
ENDROOT
BRANCH   1   2
ATOM      2  C   UNL     1      -6.960  -2.825   7.753  1.00  0.00     0.000 C 
BRANCH   2   3
ATOM      3  C   UNL     1      -7.979  -3.955   7.985  1.00  0.00     0.000 C 
BRANCH   3   4
ATOM      4  C   UNL     1      -8.073  -4.927   6.797  1.00  0.00     0.000 C 
BRANCH   4   5
ATOM      5  C   UNL     1      -7.870  -6.396   7.212  1.00  0.00     0.006 C 
BRANCH   5   6
ATOM      6  C   UNL     1      -7.585  -7.353   6.044  1.00  0.00     0.053 C 
BRANCH   6   7
ATOM      7  C   UNL     1      -6.906  -8.608   6.500  1.00  0.00     0.041 C 
ATOM      8  O   UNL     1      -7.341  -9.237   7.500  1.00  0.00    -0.550 OA
ATOM      9  O   UNL     1      -5.773  -9.064   5.840  1.00  0.00    -0.550 OA
ENDBRANCH   6   7
ENDBRANCH   5   6
ENDBRANCH   4   5
ENDBRANCH   3   4
ENDBRANCH   2   3
ENDBRANCH   1   2
BRANCH   1  10
ATOM     10  C   UNL     1      -5.520  -4.226   9.410  1.00  0.00     0.000 C 
BRANCH  10  11
ATOM     11  C   UNL     1      -4.828  -5.455   8.794  1.00  0.00    -0.000 C 
BRANCH  11  12
ATOM     12  C   UNL     1      -3.827  -5.083   7.687  1.00  0.00    -0.000 C 
BRANCH  12  13
ATOM     13  C   UNL     1      -4.129  -5.793   6.356  1.00  0.00    -0.000 C 
BRANCH  13  14
ATOM     14  C   UNL     1      -4.734  -4.846   5.306  1.00  0.00    -0.000 C 
BRANCH  14  15
ATOM     15  C   UNL     1      -3.758  -3.736   4.882  1.00  0.00    -0.003 C 
ATOM     16  C   UNL     1      -4.305  -2.333   5.144  1.00  0.00     0.004 C 
ENDBRANCH  14  15
ENDBRANCH  13  14
ENDBRANCH  12  13
ENDBRANCH  11  12
ENDBRANCH  10  11
ENDBRANCH   1  10
TORSDOF 12
ENDMDL
MODEL 3
REMARK VINA RESULT:    -3.968      1.113      3.796
REMARK INTER + INTRA:          -8.635
REMARK INTER:                  -6.916
REMARK INTRA:                  -1.719
REMARK UNBOUND:                -1.884
REMARK SMILES CCCCCCCCCCCCCC(=O)[O-]
REMARK SMILES IDX 8 1 9 2 10 3 11 4 12 5 13 6 14 7 15 8 16 9 7 10 6 11 5 12
REMARK SMILES IDX 4 13 3 14 2 15 1 16
REMARK H PARENT
REMARK Flexibility Score: inf
ROOT
ATOM      1  C   UNL     1       0.446   8.032  -8.131  1.00  0.00     0.000 C 
ENDROOT
BRANCH   1   2
ATOM      2  C   UNL     1       1.298   9.311  -7.999  1.00  0.00     0.000 C 
BRANCH   2   3
ATOM      3  C   UNL     1       2.555   9.355  -8.887  1.00  0.00     0.000 C 
BRANCH   3   4
ATOM      4  C   UNL     1       3.666   8.411  -8.394  1.00  0.00     0.000 C 
BRANCH   4   5
ATOM      5  C   UNL     1       4.242   8.833  -7.030  1.00  0.00     0.006 C 
BRANCH   5   6
ATOM      6  C   UNL     1       3.930   7.862  -5.880  1.00  0.00     0.053 C 
BRANCH   6   7
ATOM      7  C   UNL     1       3.174   8.530  -4.772  1.00  0.00     0.041 C 
ATOM      8  O   UNL     1       2.953   9.769  -4.813  1.00  0.00    -0.550 OA
ATOM      9  O   UNL     1       2.742   7.789  -3.680  1.00  0.00    -0.550 OA
ENDBRANCH   6   7
ENDBRANCH   5   6
ENDBRANCH   4   5
ENDBRANCH   3   4
ENDBRANCH   2   3
ENDBRANCH   1   2
BRANCH   1  10
ATOM     10  C   UNL     1      -0.017   7.697  -9.563  1.00  0.00     0.000 C 
BRANCH  10  11
ATOM     11  C   UNL     1       0.201   6.234  -9.993  1.00  0.00    -0.000 C 
BRANCH  11  12
ATOM     12  C   UNL     1       1.650   5.762  -9.782  1.00  0.00    -0.000 C 
BRANCH  12  13
ATOM     13  C   UNL     1       1.797   4.833  -8.564  1.00  0.00    -0.000 C 
BRANCH  13  14
ATOM     14  C   UNL     1       0.447   4.272  -8.085  1.00  0.00    -0.000 C 
BRANCH  14  15
ATOM     15  C   UNL     1       0.317   4.280  -6.553  1.00  0.00    -0.003 C 
ATOM     16  C   UNL     1       1.411   5.099  -5.869  1.00  0.00     0.004 C 
ENDBRANCH  14  15
ENDBRANCH  13  14
ENDBRANCH  12  13
ENDBRANCH  11  12
ENDBRANCH  10  11
ENDBRANCH   1  10
TORSDOF 12
ENDMDL
MODEL 4
REMARK VINA RESULT:    -3.941      1.701      4.741
REMARK INTER + INTRA:          -8.589
REMARK INTER:                  -6.854
REMARK INTRA:                  -1.735
REMARK UNBOUND:                -1.884
REMARK SMILES CCCCCCCCCCCCCC(=O)[O-]
REMARK SMILES IDX 8 1 9 2 10 3 11 4 12 5 13 6 14 7 15 8 16 9 7 10 6 11 5 12
REMARK SMILES IDX 4 13 3 14 2 15 1 16
REMARK H PARENT
REMARK Flexibility Score: inf
ROOT
ATOM      1  C   UNL     1       2.159   6.658  -4.459  1.00  0.00     0.000 C 
ENDROOT
BRANCH   1   2
ATOM      2  C   UNL     1       2.321   8.146  -4.829  1.00  0.00     0.000 C 
BRANCH   2   3
ATOM      3  C   UNL     1       1.667   8.565  -6.158  1.00  0.00     0.000 C 
BRANCH   3   4
ATOM      4  C   UNL     1       2.490   9.616  -6.923  1.00  0.00     0.000 C 
BRANCH   4   5
ATOM      5  C   UNL     1       3.014   9.094  -8.273  1.00  0.00     0.006 C 
BRANCH   5   6
ATOM      6  C   UNL     1       3.540   7.650  -8.236  1.00  0.00     0.053 C 
BRANCH   6   7
ATOM      7  C   UNL     1       4.961   7.583  -7.767  1.00  0.00     0.041 C 
ATOM      8  O   UNL     1       5.218   7.415  -6.546  1.00  0.00    -0.550 OA
ATOM      9  O   UNL     1       6.000   7.738  -8.675  1.00  0.00    -0.550 OA
ENDBRANCH   6   7
ENDBRANCH   5   6
ENDBRANCH   4   5
ENDBRANCH   3   4
ENDBRANCH   2   3
ENDBRANCH   1   2
BRANCH   1  10
ATOM     10  C   UNL     1       1.961   5.702  -5.653  1.00  0.00     0.000 C 
BRANCH  10  11
ATOM     11  C   UNL     1       0.707   4.813  -5.575  1.00  0.00    -0.000 C 
BRANCH  11  12
ATOM     12  C   UNL     1       0.321   4.207  -6.935  1.00  0.00    -0.000 C 
BRANCH  12  13
ATOM     13  C   UNL     1       1.234   4.687  -8.075  1.00  0.00    -0.000 C 
BRANCH  13  14
ATOM     14  C   UNL     1       0.526   4.681  -9.441  1.00  0.00    -0.000 C 
BRANCH  14  15
ATOM     15  C   UNL     1       0.448   6.082 -10.069  1.00  0.00    -0.003 C 
ATOM     16  C   UNL     1      -0.100   7.134  -9.106  1.00  0.00     0.004 C 
ENDBRANCH  14  15
ENDBRANCH  13  14
ENDBRANCH  12  13
ENDBRANCH  11  12
ENDBRANCH  10  11
ENDBRANCH   1  10
TORSDOF 12
ENDMDL
MODEL 5
REMARK VINA RESULT:    -3.860      2.253      4.160
REMARK INTER + INTRA:          -8.452
REMARK INTER:                  -6.868
REMARK INTRA:                  -1.584
REMARK UNBOUND:                -1.884
REMARK SMILES CCCCCCCCCCCCCC(=O)[O-]
REMARK SMILES IDX 8 1 9 2 10 3 11 4 12 5 13 6 14 7 15 8 16 9 7 10 6 11 5 12
REMARK SMILES IDX 4 13 3 14 2 15 1 16
REMARK H PARENT
REMARK Flexibility Score: inf
ROOT
ATOM      1  C   UNL     1       1.073   8.851  -6.558  1.00  0.00     0.000 C 
ENDROOT
BRANCH   1   2
ATOM      2  C   UNL     1       1.094   9.307  -8.031  1.00  0.00     0.000 C 
BRANCH   2   3
ATOM      3  C   UNL     1       1.213   8.173  -9.065  1.00  0.00     0.000 C 
BRANCH   3   4
ATOM      4  C   UNL     1       0.032   7.189  -9.009  1.00  0.00     0.000 C 
BRANCH   4   5
ATOM      5  C   UNL     1       0.485   5.718  -8.963  1.00  0.00     0.006 C 
BRANCH   5   6
ATOM      6  C   UNL     1       1.183   5.309  -7.656  1.00  0.00     0.053 C 
BRANCH   6   7
ATOM      7  C   UNL     1       0.355   4.352  -6.854  1.00  0.00     0.041 C 
ATOM      8  O   UNL     1       0.299   4.458  -5.601  1.00  0.00    -0.550 OA
ATOM      9  O   UNL     1      -0.328   3.323  -7.489  1.00  0.00    -0.550 OA
ENDBRANCH   6   7
ENDBRANCH   5   6
ENDBRANCH   4   5
ENDBRANCH   3   4
ENDBRANCH   2   3
ENDBRANCH   1   2
BRANCH   1  10
ATOM     10  C   UNL     1       1.778   9.798  -5.567  1.00  0.00     0.000 C 
BRANCH  10  11
ATOM     11  C   UNL     1       3.262   9.480  -5.304  1.00  0.00    -0.000 C 
BRANCH  11  12
ATOM     12  C   UNL     1       3.626   8.023  -5.638  1.00  0.00    -0.000 C 
BRANCH  12  13
ATOM     13  C   UNL     1       4.825   7.920  -6.597  1.00  0.00    -0.000 C 
BRANCH  13  14
ATOM     14  C   UNL     1       4.867   9.073  -7.614  1.00  0.00    -0.000 C 
BRANCH  14  15
ATOM     15  C   UNL     1       5.290   8.606  -9.016  1.00  0.00    -0.003 C 
ATOM     16  C   UNL     1       4.653   7.276  -9.415  1.00  0.00     0.004 C 
ENDBRANCH  14  15
ENDBRANCH  13  14
ENDBRANCH  12  13
ENDBRANCH  11  12
ENDBRANCH  10  11
ENDBRANCH   1  10
TORSDOF 12
ENDMDL
MODEL 6
REMARK VINA RESULT:    -3.835      2.042      3.911
REMARK INTER + INTRA:          -8.409
REMARK INTER:                  -6.783
REMARK INTRA:                  -1.626
REMARK UNBOUND:                -1.884
REMARK SMILES CCCCCCCCCCCCCC(=O)[O-]
REMARK SMILES IDX 8 1 9 2 10 3 11 4 12 5 13 6 14 7 15 8 16 9 7 10 6 11 5 12
REMARK SMILES IDX 4 13 3 14 2 15 1 16
REMARK H PARENT
REMARK Flexibility Score: inf
ROOT
ATOM      1  C   UNL     1       0.702   4.659  -5.971  1.00  0.00     0.000 C 
ENDROOT
BRANCH   1   2
ATOM      2  C   UNL     1       0.283   4.133  -7.358  1.00  0.00     0.000 C 
BRANCH   2   3
ATOM      3  C   UNL     1       1.214   4.530  -8.518  1.00  0.00     0.000 C 
BRANCH   3   4
ATOM      4  C   UNL     1       0.447   4.901  -9.799  1.00  0.00     0.000 C 
BRANCH   4   5
ATOM      5  C   UNL     1       0.313   6.423  -9.991  1.00  0.00     0.006 C 
BRANCH   5   6
ATOM      6  C   UNL     1       1.340   7.256  -9.208  1.00  0.00     0.053 C 
BRANCH   6   7
ATOM      7  C   UNL     1       0.682   8.242  -8.293  1.00  0.00     0.041 C 
ATOM      8  O   UNL     1      -0.063   7.842  -7.360  1.00  0.00    -0.550 OA
ATOM      9  O   UNL     1       0.864   9.604  -8.492  1.00  0.00    -0.550 OA
ENDBRANCH   6   7
ENDBRANCH   5   6
ENDBRANCH   4   5
ENDBRANCH   3   4
ENDBRANCH   2   3
ENDBRANCH   1   2
BRANCH   1  10
ATOM     10  C   UNL     1       1.944   5.572  -5.963  1.00  0.00     0.000 C 
BRANCH  10  11
ATOM     11  C   UNL     1       2.185   6.332  -4.645  1.00  0.00    -0.000 C 
BRANCH  11  12
ATOM     12  C   UNL     1       2.244   7.857  -4.840  1.00  0.00    -0.000 C 
BRANCH  12  13
ATOM     13  C   UNL     1       3.650   8.348  -5.227  1.00  0.00    -0.000 C 
BRANCH  13  14
ATOM     14  C   UNL     1       3.621   9.380  -6.368  1.00  0.00    -0.000 C 
BRANCH  14  15
ATOM     15  C   UNL     1       4.407   8.913  -7.604  1.00  0.00    -0.003 C 
ATOM     16  C   UNL     1       4.743   7.423  -7.565  1.00  0.00     0.004 C 
ENDBRANCH  14  15
ENDBRANCH  13  14
ENDBRANCH  12  13
ENDBRANCH  11  12
ENDBRANCH  10  11
ENDBRANCH   1  10
TORSDOF 12
ENDMDL
MODEL 7
REMARK VINA RESULT:    -3.825      2.414      3.769
REMARK INTER + INTRA:          -8.393
REMARK INTER:                  -6.464
REMARK INTRA:                  -1.928
REMARK UNBOUND:                -1.884
REMARK SMILES CCCCCCCCCCCCCC(=O)[O-]
REMARK SMILES IDX 8 1 9 2 10 3 11 4 12 5 13 6 14 7 15 8 16 9 7 10 6 11 5 12
REMARK SMILES IDX 4 13 3 14 2 15 1 16
REMARK H PARENT
REMARK Flexibility Score: inf
ROOT
ATOM      1  C   UNL     1       1.500   9.561  -6.064  1.00  0.00     0.000 C 
ENDROOT
BRANCH   1   2
ATOM      2  C   UNL     1       2.991   9.403  -5.702  1.00  0.00     0.000 C 
BRANCH   2   3
ATOM      3  C   UNL     1       3.471   7.951  -5.528  1.00  0.00     0.000 C 
BRANCH   3   4
ATOM      4  C   UNL     1       2.324   6.979  -5.202  1.00  0.00     0.000 C 
BRANCH   4   5
ATOM      5  C   UNL     1       2.181   5.856  -6.247  1.00  0.00     0.006 C 
BRANCH   5   6
ATOM      6  C   UNL     1       0.966   4.940  -6.034  1.00  0.00     0.053 C 
BRANCH   6   7
ATOM      7  C   UNL     1       0.538   4.271  -7.304  1.00  0.00     0.041 C 
ATOM      8  O   UNL     1      -0.282   3.316  -7.272  1.00  0.00    -0.550 OA
ATOM      9  O   UNL     1       1.069   4.682  -8.519  1.00  0.00    -0.550 OA
ENDBRANCH   6   7
ENDBRANCH   5   6
ENDBRANCH   4   5
ENDBRANCH   3   4
ENDBRANCH   2   3
ENDBRANCH   1   2
BRANCH   1  10
ATOM     10  C   UNL     1       1.198   9.670  -7.572  1.00  0.00     0.000 C 
BRANCH  10  11
ATOM     11  C   UNL     1       0.716   8.367  -8.236  1.00  0.00    -0.000 C 
BRANCH  11  12
ATOM     12  C   UNL     1       1.446   8.065  -9.555  1.00  0.00    -0.000 C 
BRANCH  12  13
ATOM     13  C   UNL     1       2.934   8.450  -9.507  1.00  0.00    -0.000 C 
BRANCH  13  14
ATOM     14  C   UNL     1       3.840   7.260  -9.144  1.00  0.00    -0.000 C 
BRANCH  14  15
ATOM     15  C   UNL     1       5.333   7.623  -9.187  1.00  0.00    -0.003 C 
ATOM     16  C   UNL     1       5.670   8.853  -8.344  1.00  0.00     0.004 C 
ENDBRANCH  14  15
ENDBRANCH  13  14
ENDBRANCH  12  13
ENDBRANCH  11  12
ENDBRANCH  10  11
ENDBRANCH   1  10
TORSDOF 12
ENDMDL
MODEL 8
REMARK VINA RESULT:    -3.784      2.296      4.521
REMARK INTER + INTRA:          -8.322
REMARK INTER:                  -6.735
REMARK INTRA:                  -1.586
REMARK UNBOUND:                -1.884
REMARK SMILES CCCCCCCCCCCCCC(=O)[O-]
REMARK SMILES IDX 8 1 9 2 10 3 11 4 12 5 13 6 14 7 15 8 16 9 7 10 6 11 5 12
REMARK SMILES IDX 4 13 3 14 2 15 1 16
REMARK H PARENT
REMARK Flexibility Score: inf
ROOT
ATOM      1  C   UNL     1       4.824   7.595  -7.757  1.00  0.00     0.000 C 
ENDROOT
BRANCH   1   2
ATOM      2  C   UNL     1       4.239   7.191  -9.125  1.00  0.00     0.000 C 
BRANCH   2   3
ATOM      3  C   UNL     1       2.713   7.342  -9.255  1.00  0.00     0.000 C 
BRANCH   3   4
ATOM      4  C   UNL     1       2.043   6.110  -9.888  1.00  0.00     0.000 C 
BRANCH   4   5
ATOM      5  C   UNL     1       0.983   5.472  -8.972  1.00  0.00     0.006 C 
BRANCH   5   6
ATOM      6  C   UNL     1       1.539   4.894  -7.661  1.00  0.00     0.053 C 
BRANCH   6   7
ATOM      7  C   UNL     1       0.480   4.203  -6.858  1.00  0.00     0.041 C 
ATOM      8  O   UNL     1       0.320   4.487  -5.642  1.00  0.00    -0.550 OA
ATOM      9  O   UNL     1      -0.309   3.223  -7.445  1.00  0.00    -0.550 OA
ENDBRANCH   6   7
ENDBRANCH   5   6
ENDBRANCH   4   5
ENDBRANCH   3   4
ENDBRANCH   2   3
ENDBRANCH   1   2
BRANCH   1  10
ATOM     10  C   UNL     1       5.202   9.083  -7.618  1.00  0.00     0.000 C 
BRANCH  10  11
ATOM     11  C   UNL     1       4.017  10.036  -7.377  1.00  0.00    -0.000 C 
BRANCH  11  12
ATOM     12  C   UNL     1       3.363   9.837  -6.000  1.00  0.00    -0.000 C 
BRANCH  12  13
ATOM     13  C   UNL     1       1.847   9.591  -6.097  1.00  0.00    -0.000 C 
BRANCH  13  14
ATOM     14  C   UNL     1       1.471   8.122  -5.843  1.00  0.00    -0.000 C 
BRANCH  14  15
ATOM     15  C   UNL     1       2.574   7.351  -5.101  1.00  0.00    -0.003 C 
ATOM     16  C   UNL     1       2.323   7.257  -3.596  1.00  0.00     0.004 C 
ENDBRANCH  14  15
ENDBRANCH  13  14
ENDBRANCH  12  13
ENDBRANCH  11  12
ENDBRANCH  10  11
ENDBRANCH   1  10
TORSDOF 12
ENDMDL
MODEL 9
REMARK VINA RESULT:    -3.748      2.290      3.875
REMARK INTER + INTRA:          -8.262
REMARK INTER:                  -6.687
REMARK INTRA:                  -1.574
REMARK UNBOUND:                -1.884
REMARK SMILES CCCCCCCCCCCCCC(=O)[O-]
REMARK SMILES IDX 8 1 9 2 10 3 11 4 12 5 13 6 14 7 15 8 16 9 7 10 6 11 5 12
REMARK SMILES IDX 4 13 3 14 2 15 1 16
REMARK H PARENT
REMARK Flexibility Score: inf
ROOT
ATOM      1  C   UNL     1       2.160   6.392  -4.276  1.00  0.00     0.000 C 
ENDROOT
BRANCH   1   2
ATOM      2  C   UNL     1       1.872   5.772  -5.658  1.00  0.00     0.000 C 
BRANCH   2   3
ATOM      3  C   UNL     1       0.748   4.720  -5.682  1.00  0.00     0.000 C 
BRANCH   3   4
ATOM      4  C   UNL     1       0.375   4.280  -7.108  1.00  0.00     0.000 C 
BRANCH   4   5
ATOM      5  C   UNL     1       1.167   5.036  -8.191  1.00  0.00     0.006 C 
BRANCH   5   6
ATOM      6  C   UNL     1       0.295   5.727  -9.251  1.00  0.00     0.053 C 
BRANCH   6   7
ATOM      7  C   UNL     1       0.064   7.172  -8.931  1.00  0.00     0.041 C 
ATOM      8  O   UNL     1      -0.218   7.524  -7.755  1.00  0.00    -0.550 OA
ATOM      9  O   UNL     1       0.127   8.125  -9.939  1.00  0.00    -0.550 OA
ENDBRANCH   6   7
ENDBRANCH   5   6
ENDBRANCH   4   5
ENDBRANCH   3   4
ENDBRANCH   2   3
ENDBRANCH   1   2
BRANCH   1  10
ATOM     10  C   UNL     1       2.618   7.864  -4.299  1.00  0.00     0.000 C 
BRANCH  10  11
ATOM     11  C   UNL     1       2.014   8.717  -5.429  1.00  0.00    -0.000 C 
BRANCH  11  12
ATOM     12  C   UNL     1       3.084   9.439  -6.267  1.00  0.00    -0.000 C 
BRANCH  12  13
ATOM     13  C   UNL     1       2.988   9.099  -7.765  1.00  0.00    -0.000 C 
BRANCH  13  14
ATOM     14  C   UNL     1       3.707   7.786  -8.119  1.00  0.00    -0.000 C 
BRANCH  14  15
ATOM     15  C   UNL     1       4.933   7.528  -7.228  1.00  0.00    -0.003 C 
ATOM     16  C   UNL     1       6.195   8.223  -7.740  1.00  0.00     0.004 C 
ENDBRANCH  14  15
ENDBRANCH  13  14
ENDBRANCH  12  13
ENDBRANCH  11  12
ENDBRANCH  10  11
ENDBRANCH   1  10
TORSDOF 12
ENDMDL
