MODEL 1
REMARK VINA RESULT:    -3.815      0.000      0.000
REMARK INTER + INTRA:          -5.470
REMARK INTER:                  -5.153
REMARK INTRA:                  -0.317
REMARK UNBOUND:                -0.317
REMARK SMILES CCCCCCCC(=O)[O-]
REMARK SMILES IDX 5 1 6 2 7 3 8 4 9 5 10 6 4 7 3 8 2 9 1 10
REMARK H PARENT
REMARK Flexibility Score: inf
ROOT
ATOM      1  C   UNL     1      18.376  29.650  28.983  1.00  0.00     0.000 C 
ENDROOT
BRANCH   1   2
ATOM      2  C   UNL     1      18.336  28.605  30.103  1.00  0.00     0.006 C 
BRANCH   2   3
ATOM      3  C   UNL     1      17.879  29.231  31.424  1.00  0.00     0.053 C 
BRANCH   3   4
ATOM      4  C   UNL     1      18.564  28.574  32.581  1.00  0.00     0.041 C 
ATOM      5  O   UNL     1      18.432  29.039  33.743  1.00  0.00    -0.550 OA
ATOM      6  O   UNL     1      19.309  27.419  32.382  1.00  0.00    -0.550 OA
ENDBRANCH   3   4
ENDBRANCH   2   3
ENDBRANCH   1   2
BRANCH   1   7
ATOM      7  C   UNL     1      18.567  28.986  27.615  1.00  0.00     0.000 C 
BRANCH   7   8
ATOM      8  C   UNL     1      17.520  27.888  27.385  1.00  0.00    -0.000 C 
BRANCH   8   9
ATOM      9  C   UNL     1      18.152  26.656  26.728  1.00  0.00    -0.003 C 
ATOM     10  C   UNL     1      18.705  25.695  27.776  1.00  0.00     0.004 C 
ENDBRANCH   8   9
ENDBRANCH   7   8
ENDBRANCH   1   7
TORSDOF 6
ENDMDL
MODEL 2
REMARK VINA RESULT:    -3.753      2.762      5.241
REMARK INTER + INTRA:          -5.386
REMARK INTER:                  -5.150
REMARK INTRA:                  -0.236
REMARK UNBOUND:                -0.317
REMARK SMILES CCCCCCCC(=O)[O-]
REMARK SMILES IDX 5 1 6 2 7 3 8 4 9 5 10 6 4 7 3 8 2 9 1 10
REMARK H PARENT
REMARK Flexibility Score: inf
ROOT
ATOM      1  C   UNL     1      18.006  28.652  30.617  1.00  0.00     0.000 C 
ENDROOT
BRANCH   1   2
ATOM      2  C   UNL     1      18.822  29.567  29.696  1.00  0.00     0.006 C 
BRANCH   2   3
ATOM      3  C   UNL     1      18.270  29.543  28.267  1.00  0.00     0.053 C 
BRANCH   3   4
ATOM      4  C   UNL     1      18.339  28.160  27.702  1.00  0.00     0.041 C 
ATOM      5  O   UNL     1      17.308  27.616  27.227  1.00  0.00    -0.550 OA
ATOM      6  O   UNL     1      19.555  27.489  27.652  1.00  0.00    -0.550 OA
ENDBRANCH   3   4
ENDBRANCH   2   3
ENDBRANCH   1   2
BRANCH   1   7
ATOM      7  C   UNL     1      18.333  28.919  32.090  1.00  0.00     0.000 C 
BRANCH   7   8
ATOM      8  C   UNL     1      19.231  27.816  32.664  1.00  0.00    -0.000 C 
BRANCH   8   9
ATOM      9  C   UNL     1      19.210  27.833  34.197  1.00  0.00    -0.003 C 
ATOM     10  C   UNL     1      18.106  28.745  34.722  1.00  0.00     0.004 C 
ENDBRANCH   8   9
ENDBRANCH   7   8
ENDBRANCH   1   7
TORSDOF 6
ENDMDL
MODEL 3
REMARK VINA RESULT:    -3.703      3.216      5.565
REMARK INTER + INTRA:          -5.319
REMARK INTER:                  -4.916
REMARK INTRA:                  -0.403
REMARK UNBOUND:                -0.317
REMARK SMILES CCCCCCCC(=O)[O-]
REMARK SMILES IDX 5 1 6 2 7 3 8 4 9 5 10 6 4 7 3 8 2 9 1 10
REMARK H PARENT
REMARK Flexibility Score: inf
ROOT
ATOM      1  C   UNL     1      18.983  28.077  31.747  1.00  0.00     0.000 C 
ENDROOT
BRANCH   1   2
ATOM      2  C   UNL     1      18.052  28.541  30.621  1.00  0.00     0.006 C 
BRANCH   2   3
ATOM      3  C   UNL     1      18.282  30.019  30.291  1.00  0.00     0.053 C 
BRANCH   3   4
ATOM      4  C   UNL     1      18.346  30.221  28.810  1.00  0.00     0.041 C 
ATOM      5  O   UNL     1      18.233  29.239  28.030  1.00  0.00    -0.550 OA
ATOM      6  O   UNL     1      18.482  31.502  28.289  1.00  0.00    -0.550 OA
ENDBRANCH   3   4
ENDBRANCH   2   3
ENDBRANCH   1   2
BRANCH   1   7
ATOM      7  C   UNL     1      18.999  29.086  32.900  1.00  0.00     0.000 C 
BRANCH   7   8
ATOM      8  C   UNL     1      18.651  28.409  34.232  1.00  0.00    -0.000 C 
BRANCH   8   9
ATOM      9  C   UNL     1      17.497  29.134  34.932  1.00  0.00    -0.003 C 
ATOM     10  C   UNL     1      16.877  30.190  34.022  1.00  0.00     0.004 C 
ENDBRANCH   8   9
ENDBRANCH   7   8
ENDBRANCH   1   7
TORSDOF 6
ENDMDL
MODEL 4
REMARK VINA RESULT:    -3.698      3.306      5.076
REMARK INTER + INTRA:          -5.312
REMARK INTER:                  -5.025
REMARK INTRA:                  -0.287
REMARK UNBOUND:                -0.317
REMARK SMILES CCCCCCCC(=O)[O-]
REMARK SMILES IDX 5 1 6 2 7 3 8 4 9 5 10 6 4 7 3 8 2 9 1 10
REMARK H PARENT
REMARK Flexibility Score: inf
ROOT
ATOM      1  C   UNL     1      18.356  30.151  29.588  1.00  0.00     0.000 C 
ENDROOT
BRANCH   1   2
ATOM      2  C   UNL     1      18.348  29.618  28.150  1.00  0.00     0.006 C 
BRANCH   2   3
ATOM      3  C   UNL     1      18.108  28.105  28.126  1.00  0.00     0.053 C 
BRANCH   3   4
ATOM      4  C   UNL     1      18.451  27.542  26.783  1.00  0.00     0.041 C 
ATOM      5  O   UNL     1      19.359  28.069  26.088  1.00  0.00    -0.550 OA
ATOM      6  O   UNL     1      17.804  26.403  26.321  1.00  0.00    -0.550 OA
ENDBRANCH   3   4
ENDBRANCH   2   3
ENDBRANCH   1   2
BRANCH   1   7
ATOM      7  C   UNL     1      18.117  29.022  30.596  1.00  0.00     0.000 C 
BRANCH   7   8
ATOM      8  C   UNL     1      17.790  29.583  31.986  1.00  0.00    -0.000 C 
BRANCH   8   9
ATOM      9  C   UNL     1      18.541  28.815  33.079  1.00  0.00    -0.003 C 
ATOM     10  C   UNL     1      19.365  27.677  32.485  1.00  0.00     0.004 C 
ENDBRANCH   8   9
ENDBRANCH   7   8
ENDBRANCH   1   7
TORSDOF 6
ENDMDL
MODEL 5
REMARK VINA RESULT:    -3.694      1.301      1.834
REMARK INTER + INTRA:          -5.306
REMARK INTER:                  -5.106
REMARK INTRA:                  -0.201
REMARK UNBOUND:                -0.317
REMARK SMILES CCCCCCCC(=O)[O-]
REMARK SMILES IDX 5 1 6 2 7 3 8 4 9 5 10 6 4 7 3 8 2 9 1 10
REMARK H PARENT
REMARK Flexibility Score: inf
ROOT
ATOM      1  C   UNL     1      18.135  28.642  30.116  1.00  0.00     0.000 C 
ENDROOT
BRANCH   1   2
ATOM      2  C   UNL     1      17.701  29.375  31.391  1.00  0.00     0.006 C 
BRANCH   2   3
ATOM      3  C   UNL     1      18.451  28.841  32.615  1.00  0.00     0.053 C 
BRANCH   3   4
ATOM      4  C   UNL     1      17.986  29.532  33.857  1.00  0.00     0.041 C 
ATOM      5  O   UNL     1      17.912  30.789  33.894  1.00  0.00    -0.550 OA
ATOM      6  O   UNL     1      17.585  28.787  34.959  1.00  0.00    -0.550 OA
ENDBRANCH   3   4
ENDBRANCH   2   3
ENDBRANCH   1   2
BRANCH   1   7
ATOM      7  C   UNL     1      18.372  29.628  28.967  1.00  0.00     0.000 C 
BRANCH   7   8
ATOM      8  C   UNL     1      18.406  28.902  27.616  1.00  0.00    -0.000 C 
BRANCH   8   9
ATOM      9  C   UNL     1      17.594  27.604  27.668  1.00  0.00    -0.003 C 
ATOM     10  C   UNL     1      18.033  26.635  26.576  1.00  0.00     0.004 C 
ENDBRANCH   8   9
ENDBRANCH   7   8
ENDBRANCH   1   7
TORSDOF 6
ENDMDL
MODEL 6
REMARK VINA RESULT:    -3.685      2.694      5.610
REMARK INTER + INTRA:          -5.295
REMARK INTER:                  -4.923
REMARK INTRA:                  -0.372
REMARK UNBOUND:                -0.317
REMARK SMILES CCCCCCCC(=O)[O-]
REMARK SMILES IDX 5 1 6 2 7 3 8 4 9 5 10 6 4 7 3 8 2 9 1 10
REMARK H PARENT
REMARK Flexibility Score: inf
ROOT
ATOM      1  C   UNL     1      19.332  27.540  33.128  1.00  0.00     0.000 C 
ENDROOT
BRANCH   1   2
ATOM      2  C   UNL     1      19.472  27.509  31.602  1.00  0.00     0.006 C 
BRANCH   2   3
ATOM      3  C   UNL     1      18.362  28.322  30.931  1.00  0.00     0.053 C 
BRANCH   3   4
ATOM      4  C   UNL     1      18.295  28.011  29.469  1.00  0.00     0.041 C 
ATOM      5  O   UNL     1      18.294  26.816  29.074  1.00  0.00    -0.550 OA
ATOM      6  O   UNL     1      18.183  29.041  28.543  1.00  0.00    -0.550 OA
ENDBRANCH   3   4
ENDBRANCH   2   3
ENDBRANCH   1   2
BRANCH   1   7
ATOM      7  C   UNL     1      18.904  28.929  33.614  1.00  0.00     0.000 C 
BRANCH   7   8
ATOM      8  C   UNL     1      18.094  28.833  34.914  1.00  0.00    -0.000 C 
BRANCH   8   9
ATOM      9  C   UNL     1      16.829  29.695  34.838  1.00  0.00    -0.003 C 
ATOM     10  C   UNL     1      16.783  30.493  33.538  1.00  0.00     0.004 C 
ENDBRANCH   8   9
ENDBRANCH   7   8
ENDBRANCH   1   7
TORSDOF 6
ENDMDL
MODEL 7
REMARK VINA RESULT:    -3.680      2.565      5.285
REMARK INTER + INTRA:          -5.288
REMARK INTER:                  -5.022
REMARK INTRA:                  -0.265
REMARK UNBOUND:                -0.317
REMARK SMILES CCCCCCCC(=O)[O-]
REMARK SMILES IDX 5 1 6 2 7 3 8 4 9 5 10 6 4 7 3 8 2 9 1 10
REMARK H PARENT
REMARK Flexibility Score: inf
ROOT
ATOM      1  C   UNL     1      18.272  30.457  31.104  1.00  0.00     0.000 C 
ENDROOT
BRANCH   1   2
ATOM      2  C   UNL     1      18.390  29.625  29.822  1.00  0.00     0.006 C 
BRANCH   2   3
ATOM      3  C   UNL     1      18.072  28.151  30.091  1.00  0.00     0.053 C 
BRANCH   3   4
ATOM      4  C   UNL     1      18.217  27.347  28.838  1.00  0.00     0.041 C 
ATOM      5  O   UNL     1      18.820  26.242  28.860  1.00  0.00    -0.550 OA
ATOM      6  O   UNL     1      17.642  27.793  27.655  1.00  0.00    -0.550 OA
ENDBRANCH   3   4
ENDBRANCH   2   3
ENDBRANCH   1   2
BRANCH   1   7
ATOM      7  C   UNL     1      17.740  29.609  32.265  1.00  0.00     0.000 C 
BRANCH   7   8
ATOM      8  C   UNL     1      16.867  30.448  33.207  1.00  0.00    -0.000 C 
BRANCH   8   9
ATOM      9  C   UNL     1      16.935  29.912  34.641  1.00  0.00    -0.003 C 
ATOM     10  C   UNL     1      17.979  28.808  34.768  1.00  0.00     0.004 C 
ENDBRANCH   8   9
ENDBRANCH   7   8
ENDBRANCH   1   7
TORSDOF 6
ENDMDL
MODEL 8
REMARK VINA RESULT:    -3.647      2.261      3.461
REMARK INTER + INTRA:          -5.244
REMARK INTER:                  -4.849
REMARK INTRA:                  -0.395
REMARK UNBOUND:                -0.317
REMARK SMILES CCCCCCCC(=O)[O-]
REMARK SMILES IDX 5 1 6 2 7 3 8 4 9 5 10 6 4 7 3 8 2 9 1 10
REMARK H PARENT
REMARK Flexibility Score: inf
ROOT
ATOM      1  C   UNL     1      18.847  28.196  31.631  1.00  0.00     0.000 C 
ENDROOT
BRANCH   1   2
ATOM      2  C   UNL     1      18.430  28.924  32.914  1.00  0.00     0.006 C 
BRANCH   2   3
ATOM      3  C   UNL     1      17.533  30.125  32.600  1.00  0.00     0.053 C 
BRANCH   3   4
ATOM      4  C   UNL     1      16.835  30.595  33.836  1.00  0.00     0.041 C 
ATOM      5  O   UNL     1      16.671  29.813  34.809  1.00  0.00    -0.550 OA
ATOM      6  O   UNL     1      16.408  31.914  33.934  1.00  0.00    -0.550 OA
ENDBRANCH   3   4
ENDBRANCH   2   3
ENDBRANCH   1   2
BRANCH   1   7
ATOM      7  C   UNL     1      17.930  28.573  30.462  1.00  0.00     0.000 C 
BRANCH   7   8
ATOM      8  C   UNL     1      18.688  28.526  29.129  1.00  0.00    -0.000 C 
BRANCH   8   9
ATOM      9  C   UNL     1      18.344  29.740  28.258  1.00  0.00    -0.003 C 
ATOM     10  C   UNL     1      18.457  31.037  29.053  1.00  0.00     0.004 C 
ENDBRANCH   8   9
ENDBRANCH   7   8
ENDBRANCH   1   7
TORSDOF 6
ENDMDL
MODEL 9
REMARK VINA RESULT:    -3.641      2.355      4.465
REMARK INTER + INTRA:          -5.236
REMARK INTER:                  -4.849
REMARK INTRA:                  -0.387
REMARK UNBOUND:                -0.317
REMARK SMILES CCCCCCCC(=O)[O-]
REMARK SMILES IDX 5 1 6 2 7 3 8 4 9 5 10 6 4 7 3 8 2 9 1 10
REMARK H PARENT
REMARK Flexibility Score: inf
ROOT
ATOM      1  C   UNL     1      18.593  29.295  28.008  1.00  0.00     0.000 C 
ENDROOT
BRANCH   1   2
ATOM      2  C   UNL     1      17.754  28.065  27.643  1.00  0.00     0.006 C 
BRANCH   2   3
ATOM      3  C   UNL     1      18.581  27.050  26.848  1.00  0.00     0.053 C 
BRANCH   3   4
ATOM      4  C   UNL     1      19.110  25.982  27.752  1.00  0.00     0.041 C 
ATOM      5  O   UNL     1      18.665  24.807  27.673  1.00  0.00    -0.550 OA
ATOM      6  O   UNL     1      20.130  26.273  28.648  1.00  0.00    -0.550 OA
ENDBRANCH   3   4
ENDBRANCH   2   3
ENDBRANCH   1   2
BRANCH   1   7
ATOM      7  C   UNL     1      18.370  29.701  29.469  1.00  0.00     0.000 C 
BRANCH   7   8
ATOM      8  C   UNL     1      17.955  28.494  30.320  1.00  0.00    -0.000 C 
BRANCH   8   9
ATOM      9  C   UNL     1      18.508  28.609  31.744  1.00  0.00    -0.003 C 
ATOM     10  C   UNL     1      19.486  27.478  32.048  1.00  0.00     0.004 C 
ENDBRANCH   8   9
ENDBRANCH   7   8
ENDBRANCH   1   7
TORSDOF 6
ENDMDL
