MODEL 1
REMARK VINA RESULT:    -5.456      0.000      0.000
REMARK INTER + INTRA:          -6.893
REMARK INTER:                  -6.572
REMARK INTRA:                  -0.321
REMARK UNBOUND:                -0.321
REMARK SMILES O=c1c(O)c(-c2ccc(O)c(O)c2)oc2cc(O)cc(O)c12
REMARK SMILES IDX 5 1 3 2 2 3 1 4 22 5 20 6 19 7 17 8 16 9 15 10 14 11 6 12
REMARK SMILES IDX 7 13 8 14 9 15 13 16 11 17 10 18 12 20 4 22 21 24 18 26
REMARK H PARENT 10 19 12 21 4 23 21 25 18 27
REMARK Flexibility Score: inf
ROOT
ATOM      1  C   UNL     1     146.096 154.954 163.004  1.00  0.00     0.180 A 
ATOM      2  C   UNL     1     145.126 154.548 163.940  1.00  0.00     0.208 A 
ATOM      3  C   UNL     1     144.051 155.406 164.218  1.00  0.00     0.238 A 
ATOM      4  O   UNL     1     143.182 155.058 165.064  1.00  0.00    -0.285 OA
ATOM      5  C   UNL     1     143.951 156.641 163.545  1.00  0.00     0.111 A 
ATOM      6  C   UNL     1     142.898 157.562 163.766  1.00  0.00     0.134 A 
ATOM      7  C   UNL     1     142.866 158.767 163.048  1.00  0.00     0.093 A 
ATOM      8  C   UNL     1     143.862 159.069 162.117  1.00  0.00     0.123 A 
ATOM      9  C   UNL     1     144.906 158.164 161.896  1.00  0.00     0.094 A 
ATOM     10  C   UNL     1     144.957 156.959 162.602  1.00  0.00     0.146 A 
ATOM     11  O   UNL     1     145.962 156.120 162.376  1.00  0.00    -0.452 OA
ENDROOT
BRANCH   1  12
ATOM     12  C   UNL     1     147.268 154.114 162.670  1.00  0.00     0.025 A 
ATOM     13  C   UNL     1     148.461 154.275 163.393  1.00  0.00     0.016 A 
ATOM     14  C   UNL     1     149.573 153.478 163.108  1.00  0.00     0.051 A 
ATOM     15  C   UNL     1     149.505 152.498 162.110  1.00  0.00     0.157 A 
ATOM     16  C   UNL     1     147.197 153.115 161.682  1.00  0.00     0.062 A 
ATOM     17  C   UNL     1     148.308 152.314 161.397  1.00  0.00     0.158 A 
BRANCH  15  18
ATOM     18  O   UNL     1     150.617 151.706 161.828  1.00  0.00    -0.504 OA
ATOM     19  H   UNL     1     151.527 151.909 162.224  1.00  0.00     0.293 HD
ENDBRANCH  15  18
BRANCH  17  20
ATOM     20  O   UNL     1     148.203 151.338 160.406  1.00  0.00    -0.504 OA
ATOM     21  H   UNL     1     147.310 150.954 160.122  1.00  0.00     0.293 HD
ENDBRANCH  17  20
ENDBRANCH   1  12
BRANCH   2  22
ATOM     22  O   UNL     1     145.220 153.298 164.557  1.00  0.00    -0.502 OA
ATOM     23  H   UNL     1     146.092 152.785 164.613  1.00  0.00     0.293 HD
ENDBRANCH   2  22
BRANCH   6  24
ATOM     24  O   UNL     1     141.887 157.288 164.688  1.00  0.00    -0.507 OA
ATOM     25  H   UNL     1     141.270 158.014 165.032  1.00  0.00     0.293 HD
ENDBRANCH   6  24
BRANCH   8  26
ATOM     26  O   UNL     1     143.806 160.272 161.418  1.00  0.00    -0.508 OA
ATOM     27  H   UNL     1     144.462 160.485 160.676  1.00  0.00     0.293 HD
ENDBRANCH   8  26
TORSDOF 6
ENDMDL
MODEL 2
REMARK VINA RESULT:    -5.174      3.352      6.130
REMARK INTER + INTRA:          -6.554
REMARK INTER:                  -6.240
REMARK INTRA:                  -0.314
REMARK UNBOUND:                -0.321
REMARK SMILES O=c1c(O)c(-c2ccc(O)c(O)c2)oc2cc(O)cc(O)c12
REMARK SMILES IDX 5 1 3 2 2 3 1 4 22 5 20 6 19 7 17 8 16 9 15 10 14 11 6 12
REMARK SMILES IDX 7 13 8 14 9 15 13 16 11 17 10 18 12 20 4 22 21 24 18 26
REMARK H PARENT 10 19 12 21 4 23 21 25 18 27
REMARK Flexibility Score: inf
ROOT
ATOM      1  C   UNL     1     145.011 157.670 161.016  1.00  0.00     0.180 A 
ATOM      2  C   UNL     1     145.913 158.745 161.136  1.00  0.00     0.208 A 
ATOM      3  C   UNL     1     146.275 159.458 159.983  1.00  0.00     0.238 A 
ATOM      4  O   UNL     1     147.091 160.416 160.076  1.00  0.00    -0.285 OA
ATOM      5  C   UNL     1     145.717 159.102 158.738  1.00  0.00     0.111 A 
ATOM      6  C   UNL     1     146.027 159.771 157.530  1.00  0.00     0.134 A 
ATOM      7  C   UNL     1     145.422 159.362 156.332  1.00  0.00     0.093 A 
ATOM      8  C   UNL     1     144.515 158.299 156.319  1.00  0.00     0.123 A 
ATOM      9  C   UNL     1     144.206 157.632 157.510  1.00  0.00     0.094 A 
ATOM     10  C   UNL     1     144.800 158.025 158.713  1.00  0.00     0.146 A 
ATOM     11  O   UNL     1     144.493 157.372 159.828  1.00  0.00    -0.452 OA
ENDROOT
BRANCH   1  12
ATOM     12  C   UNL     1     144.595 156.858 162.182  1.00  0.00     0.025 A 
ATOM     13  C   UNL     1     143.339 157.083 162.768  1.00  0.00     0.016 A 
ATOM     14  C   UNL     1     142.918 156.315 163.857  1.00  0.00     0.051 A 
ATOM     15  C   UNL     1     143.738 155.299 164.365  1.00  0.00     0.157 A 
ATOM     16  C   UNL     1     145.407 155.824 162.683  1.00  0.00     0.062 A 
ATOM     17  C   UNL     1     144.987 155.051 163.771  1.00  0.00     0.158 A 
BRANCH  15  18
ATOM     18  O   UNL     1     143.316 154.535 165.452  1.00  0.00    -0.504 OA
ATOM     19  H   UNL     1     143.816 153.704 165.742  1.00  0.00     0.293 HD
ENDBRANCH  15  18
BRANCH  17  20
ATOM     20  O   UNL     1     145.821 154.038 164.244  1.00  0.00    -0.504 OA
ATOM     21  H   UNL     1     145.868 153.128 163.801  1.00  0.00     0.293 HD
ENDBRANCH  17  20
ENDBRANCH   1  12
BRANCH   2  22
ATOM     22  O   UNL     1     146.414 159.109 162.389  1.00  0.00    -0.502 OA
ATOM     23  H   UNL     1     147.226 159.704 162.496  1.00  0.00     0.293 HD
ENDBRANCH   2  22
BRANCH   6  24
ATOM     24  O   UNL     1     146.927 160.837 157.510  1.00  0.00    -0.507 OA
ATOM     25  H   UNL     1     147.930 160.688 157.525  1.00  0.00     0.293 HD
ENDBRANCH   6  24
BRANCH   8  26
ATOM     26  O   UNL     1     143.928 157.913 155.117  1.00  0.00    -0.508 OA
ATOM     27  H   UNL     1     142.929 157.764 155.039  1.00  0.00     0.293 HD
ENDBRANCH   8  26
TORSDOF 6
ENDMDL
MODEL 3
REMARK VINA RESULT:    -5.137      4.094      7.002
REMARK INTER + INTRA:          -6.509
REMARK INTER:                  -6.177
REMARK INTRA:                  -0.332
REMARK UNBOUND:                -0.321
REMARK SMILES O=c1c(O)c(-c2ccc(O)c(O)c2)oc2cc(O)cc(O)c12
REMARK SMILES IDX 5 1 3 2 2 3 1 4 22 5 20 6 19 7 17 8 16 9 15 10 14 11 6 12
REMARK SMILES IDX 7 13 8 14 9 15 13 16 11 17 10 18 12 20 4 22 21 24 18 26
REMARK H PARENT 10 19 12 21 4 23 21 25 18 27
REMARK Flexibility Score: inf
ROOT
ATOM      1  C   UNL     1     144.881 157.581 158.977  1.00  0.00     0.180 A 
ATOM      2  C   UNL     1     146.112 156.959 159.265  1.00  0.00     0.208 A 
ATOM      3  C   UNL     1     146.411 156.631 160.596  1.00  0.00     0.238 A 
ATOM      4  O   UNL     1     147.515 156.084 160.868  1.00  0.00    -0.285 OA
ATOM      5  C   UNL     1     145.472 156.908 161.611  1.00  0.00     0.111 A 
ATOM      6  C   UNL     1     145.695 156.606 162.976  1.00  0.00     0.134 A 
ATOM      7  C   UNL     1     144.706 156.905 163.925  1.00  0.00     0.093 A 
ATOM      8  C   UNL     1     143.502 157.498 163.537  1.00  0.00     0.123 A 
ATOM      9  C   UNL     1     143.277 157.801 162.190  1.00  0.00     0.094 A 
ATOM     10  C   UNL     1     144.250 157.512 161.230  1.00  0.00     0.146 A 
ATOM     11  O   UNL     1     144.013 157.813 159.958  1.00  0.00    -0.452 OA
ENDROOT
BRANCH   1  12
ATOM     12  C   UNL     1     144.501 157.975 157.602  1.00  0.00     0.025 A 
ATOM     13  C   UNL     1     143.751 157.088 156.812  1.00  0.00     0.016 A 
ATOM     14  C   UNL     1     143.364 157.448 155.518  1.00  0.00     0.051 A 
ATOM     15  C   UNL     1     143.706 158.704 155.001  1.00  0.00     0.157 A 
ATOM     16  C   UNL     1     144.825 159.242 157.086  1.00  0.00     0.062 A 
ATOM     17  C   UNL     1     144.437 159.606 155.792  1.00  0.00     0.158 A 
BRANCH  15  18
ATOM     18  O   UNL     1     143.320 159.059 153.709  1.00  0.00    -0.504 OA
ATOM     19  H   UNL     1     143.198 158.363 152.983  1.00  0.00     0.293 HD
ENDBRANCH  15  18
BRANCH  17  20
ATOM     20  O   UNL     1     144.782 160.870 155.311  1.00  0.00    -0.504 OA
ATOM     21  H   UNL     1     145.675 161.052 154.871  1.00  0.00     0.293 HD
ENDBRANCH  17  20
ENDBRANCH   1  12
BRANCH   2  22
ATOM     22  O   UNL     1     147.004 156.651 158.235  1.00  0.00    -0.502 OA
ATOM     23  H   UNL     1     147.779 156.011 158.362  1.00  0.00     0.293 HD
ENDBRANCH   2  22
BRANCH   6  24
ATOM     24  O   UNL     1     146.886 156.012 163.395  1.00  0.00    -0.507 OA
ATOM     25  H   UNL     1     147.033 155.011 163.333  1.00  0.00     0.293 HD
ENDBRANCH   6  24
BRANCH   8  26
ATOM     26  O   UNL     1     142.536 157.784 164.500  1.00  0.00    -0.508 OA
ATOM     27  H   UNL     1     141.571 157.961 164.246  1.00  0.00     0.293 HD
ENDBRANCH   8  26
TORSDOF 6
ENDMDL
MODEL 4
REMARK VINA RESULT:    -5.099      4.668      7.359
REMARK INTER + INTRA:          -6.463
REMARK INTER:                  -6.150
REMARK INTRA:                  -0.313
REMARK UNBOUND:                -0.321
REMARK SMILES O=c1c(O)c(-c2ccc(O)c(O)c2)oc2cc(O)cc(O)c12
REMARK SMILES IDX 5 1 3 2 2 3 1 4 22 5 20 6 19 7 17 8 16 9 15 10 14 11 6 12
REMARK SMILES IDX 7 13 8 14 9 15 13 16 11 17 10 18 12 20 4 22 21 24 18 26
REMARK H PARENT 10 19 12 21 4 23 21 25 18 27
REMARK Flexibility Score: inf
ROOT
ATOM      1  C   UNL     1     144.880 158.065 159.234  1.00  0.00     0.180 A 
ATOM      2  C   UNL     1     145.696 159.154 158.870  1.00  0.00     0.208 A 
ATOM      3  C   UNL     1     145.839 159.469 157.510  1.00  0.00     0.238 A 
ATOM      4  O   UNL     1     146.576 160.436 157.171  1.00  0.00    -0.285 OA
ATOM      5  C   UNL     1     145.152 158.708 156.541  1.00  0.00     0.111 A 
ATOM      6  C   UNL     1     145.241 158.962 155.151  1.00  0.00     0.134 A 
ATOM      7  C   UNL     1     144.518 158.164 154.251  1.00  0.00     0.093 A 
ATOM      8  C   UNL     1     143.712 157.121 154.712  1.00  0.00     0.123 A 
ATOM      9  C   UNL     1     143.622 156.864 156.084  1.00  0.00     0.094 A 
ATOM     10  C   UNL     1     144.335 157.647 156.997  1.00  0.00     0.146 A 
ATOM     11  O   UNL     1     144.236 157.379 158.294  1.00  0.00    -0.452 OA
ENDROOT
BRANCH   1  12
ATOM     12  C   UNL     1     144.694 157.659 160.645  1.00  0.00     0.025 A 
ATOM     13  C   UNL     1     143.509 158.007 161.313  1.00  0.00     0.016 A 
ATOM     14  C   UNL     1     143.304 157.616 162.639  1.00  0.00     0.051 A 
ATOM     15  C   UNL     1     144.271 156.859 163.312  1.00  0.00     0.157 A 
ATOM     16  C   UNL     1     145.654 156.882 161.318  1.00  0.00     0.062 A 
ATOM     17  C   UNL     1     145.450 156.487 162.644  1.00  0.00     0.158 A 
BRANCH  15  18
ATOM     18  O   UNL     1     144.064 156.472 164.635  1.00  0.00    -0.504 OA
ATOM     19  H   UNL     1     144.785 156.002 165.169  1.00  0.00     0.293 HD
ENDBRANCH  15  18
BRANCH  17  20
ATOM     20  O   UNL     1     146.427 155.721 163.281  1.00  0.00    -0.504 OA
ATOM     21  H   UNL     1     147.370 156.062 163.423  1.00  0.00     0.293 HD
ENDBRANCH  17  20
ENDBRANCH   1  12
BRANCH   2  22
ATOM     22  O   UNL     1     146.326 159.923 159.852  1.00  0.00    -0.502 OA
ATOM     23  H   UNL     1     146.217 159.736 160.841  1.00  0.00     0.293 HD
ENDBRANCH   2  22
BRANCH   6  24
ATOM     24  O   UNL     1     146.036 159.998 154.660  1.00  0.00    -0.507 OA
ATOM     25  H   UNL     1     147.032 159.880 154.511  1.00  0.00     0.293 HD
ENDBRANCH   6  24
BRANCH   8  26
ATOM     26  O   UNL     1     143.005 156.344 153.797  1.00  0.00    -0.508 OA
ATOM     27  H   UNL     1     142.650 156.736 152.933  1.00  0.00     0.293 HD
ENDBRANCH   8  26
TORSDOF 6
ENDMDL
MODEL 5
REMARK VINA RESULT:    -5.074     12.507     13.928
REMARK INTER + INTRA:          -6.433
REMARK INTER:                  -6.201
REMARK INTRA:                  -0.232
REMARK UNBOUND:                -0.321
REMARK SMILES O=c1c(O)c(-c2ccc(O)c(O)c2)oc2cc(O)cc(O)c12
REMARK SMILES IDX 5 1 3 2 2 3 1 4 22 5 20 6 19 7 17 8 16 9 15 10 14 11 6 12
REMARK SMILES IDX 7 13 8 14 9 15 13 16 11 17 10 18 12 20 4 22 21 24 18 26
REMARK H PARENT 10 19 12 21 4 23 21 25 18 27
REMARK Flexibility Score: inf
ROOT
ATOM      1  C   UNL     1     153.551 151.377 153.157  1.00  0.00     0.180 A 
ATOM      2  C   UNL     1     152.874 152.612 153.187  1.00  0.00     0.208 A 
ATOM      3  C   UNL     1     153.556 153.748 153.649  1.00  0.00     0.238 A 
ATOM      4  O   UNL     1     152.957 154.857 153.692  1.00  0.00    -0.285 OA
ATOM      5  C   UNL     1     154.903 153.637 154.053  1.00  0.00     0.111 A 
ATOM      6  C   UNL     1     155.662 154.733 154.528  1.00  0.00     0.134 A 
ATOM      7  C   UNL     1     157.001 154.543 154.902  1.00  0.00     0.093 A 
ATOM      8  C   UNL     1     157.594 153.281 154.809  1.00  0.00     0.123 A 
ATOM      9  C   UNL     1     156.848 152.194 154.342  1.00  0.00     0.094 A 
ATOM     10  C   UNL     1     155.513 152.363 153.966  1.00  0.00     0.146 A 
ATOM     11  O   UNL     1     154.826 151.313 153.530  1.00  0.00    -0.452 OA
ENDROOT
BRANCH   1  12
ATOM     12  C   UNL     1     152.894 150.132 152.700  1.00  0.00     0.025 A 
ATOM     13  C   UNL     1     152.639 149.947 151.331  1.00  0.00     0.016 A 
ATOM     14  C   UNL     1     152.038 148.770 150.876  1.00  0.00     0.051 A 
ATOM     15  C   UNL     1     151.700 147.754 151.778  1.00  0.00     0.157 A 
ATOM     16  C   UNL     1     152.571 149.100 153.600  1.00  0.00     0.062 A 
ATOM     17  C   UNL     1     151.973 147.920 153.147  1.00  0.00     0.158 A 
BRANCH  15  18
ATOM     18  O   UNL     1     151.100 146.582 151.321  1.00  0.00    -0.504 OA
ATOM     19  H   UNL     1     150.425 146.592 150.566  1.00  0.00     0.293 HD
ENDBRANCH  15  18
BRANCH  17  20
ATOM     20  O   UNL     1     151.661 146.921 154.070  1.00  0.00    -0.504 OA
ATOM     21  H   UNL     1     152.295 146.156 154.269  1.00  0.00     0.293 HD
ENDBRANCH  17  20
ENDBRANCH   1  12
BRANCH   2  22
ATOM     22  O   UNL     1     151.555 152.705 152.735  1.00  0.00    -0.502 OA
ATOM     23  H   UNL     1     151.263 152.343 151.836  1.00  0.00     0.293 HD
ENDBRANCH   2  22
BRANCH   6  24
ATOM     24  O   UNL     1     155.099 156.006 154.630  1.00  0.00    -0.507 OA
ATOM     25  H   UNL     1     154.940 156.585 153.814  1.00  0.00     0.293 HD
ENDBRANCH   6  24
BRANCH   8  26
ATOM     26  O   UNL     1     158.925 153.119 155.186  1.00  0.00    -0.508 OA
ATOM     27  H   UNL     1     159.685 153.452 154.604  1.00  0.00     0.293 HD
ENDBRANCH   8  26
TORSDOF 6
ENDMDL
MODEL 6
REMARK VINA RESULT:    -5.022      3.861      6.605
REMARK INTER + INTRA:          -6.371
REMARK INTER:                  -6.074
REMARK INTRA:                  -0.296
REMARK UNBOUND:                -0.321
REMARK SMILES O=c1c(O)c(-c2ccc(O)c(O)c2)oc2cc(O)cc(O)c12
REMARK SMILES IDX 5 1 3 2 2 3 1 4 22 5 20 6 19 7 17 8 16 9 15 10 14 11 6 12
REMARK SMILES IDX 7 13 8 14 9 15 13 16 11 17 10 18 12 20 4 22 21 24 18 26
REMARK H PARENT 10 19 12 21 4 23 21 25 18 27
REMARK Flexibility Score: inf
ROOT
ATOM      1  C   UNL     1     144.744 157.854 159.579  1.00  0.00     0.180 A 
ATOM      2  C   UNL     1     143.930 158.518 160.516  1.00  0.00     0.208 A 
ATOM      3  C   UNL     1     144.036 158.172 161.872  1.00  0.00     0.238 A 
ATOM      4  O   UNL     1     143.303 158.752 162.720  1.00  0.00    -0.285 OA
ATOM      5  C   UNL     1     144.963 157.187 162.271  1.00  0.00     0.111 A 
ATOM      6  C   UNL     1     145.134 156.783 163.617  1.00  0.00     0.134 A 
ATOM      7  C   UNL     1     146.087 155.803 163.933  1.00  0.00     0.093 A 
ATOM      8  C   UNL     1     146.869 155.221 162.933  1.00  0.00     0.123 A 
ATOM      9  C   UNL     1     146.704 155.615 161.602  1.00  0.00     0.094 A 
ATOM     10  C   UNL     1     145.760 156.589 161.266  1.00  0.00     0.146 A 
ATOM     11  O   UNL     1     145.619 156.941 159.993  1.00  0.00    -0.452 OA
ENDROOT
BRANCH   1  12
ATOM     12  C   UNL     1     144.677 158.149 158.130  1.00  0.00     0.025 A 
ATOM     13  C   UNL     1     145.364 159.263 157.620  1.00  0.00     0.016 A 
ATOM     14  C   UNL     1     145.331 159.549 156.252  1.00  0.00     0.051 A 
ATOM     15  C   UNL     1     144.627 158.718 155.372  1.00  0.00     0.157 A 
ATOM     16  C   UNL     1     143.988 157.306 157.240  1.00  0.00     0.062 A 
ATOM     17  C   UNL     1     143.956 157.588 155.870  1.00  0.00     0.158 A 
BRANCH  15  18
ATOM     18  O   UNL     1     144.595 159.007 154.009  1.00  0.00    -0.504 OA
ATOM     19  H   UNL     1     143.916 158.577 153.392  1.00  0.00     0.293 HD
ENDBRANCH  15  18
BRANCH  17  20
ATOM     20  O   UNL     1     143.256 156.732 155.018  1.00  0.00    -0.504 OA
ATOM     21  H   UNL     1     142.794 157.067 154.181  1.00  0.00     0.293 HD
ENDBRANCH  17  20
ENDBRANCH   1  12
BRANCH   2  22
ATOM     22  O   UNL     1     143.053 159.524 160.102  1.00  0.00    -0.502 OA
ATOM     23  H   UNL     1     143.140 159.984 159.204  1.00  0.00     0.293 HD
ENDBRANCH   2  22
BRANCH   6  24
ATOM     24  O   UNL     1     144.369 157.347 164.638  1.00  0.00    -0.507 OA
ATOM     25  H   UNL     1     144.176 158.342 164.672  1.00  0.00     0.293 HD
ENDBRANCH   6  24
BRANCH   8  26
ATOM     26  O   UNL     1     147.808 154.250 163.275  1.00  0.00    -0.508 OA
ATOM     27  H   UNL     1     148.665 154.133 162.747  1.00  0.00     0.293 HD
ENDBRANCH   8  26
TORSDOF 6
ENDMDL
MODEL 7
REMARK VINA RESULT:    -4.964      8.005     10.961
REMARK INTER + INTRA:          -6.300
REMARK INTER:                  -5.979
REMARK INTRA:                  -0.322
REMARK UNBOUND:                -0.321
REMARK SMILES O=c1c(O)c(-c2ccc(O)c(O)c2)oc2cc(O)cc(O)c12
REMARK SMILES IDX 5 1 3 2 2 3 1 4 22 5 20 6 19 7 17 8 16 9 15 10 14 11 6 12
REMARK SMILES IDX 7 13 8 14 9 15 13 16 11 17 10 18 12 20 4 22 21 24 18 26
REMARK H PARENT 10 19 12 21 4 23 21 25 18 27
REMARK Flexibility Score: inf
ROOT
ATOM      1  C   UNL     1     153.664 156.787 168.148  1.00  0.00     0.180 A 
ATOM      2  C   UNL     1     154.666 155.803 168.258  1.00  0.00     0.208 A 
ATOM      3  C   UNL     1     154.382 154.496 167.832  1.00  0.00     0.238 A 
ATOM      4  O   UNL     1     155.267 153.603 167.936  1.00  0.00    -0.285 OA
ATOM      5  C   UNL     1     153.116 154.200 167.286  1.00  0.00     0.111 A 
ATOM      6  C   UNL     1     152.751 152.910 166.830  1.00  0.00     0.134 A 
ATOM      7  C   UNL     1     151.473 152.698 166.291  1.00  0.00     0.093 A 
ATOM      8  C   UNL     1     150.556 153.747 166.198  1.00  0.00     0.123 A 
ATOM      9  C   UNL     1     150.910 155.023 166.648  1.00  0.00     0.094 A 
ATOM     10  C   UNL     1     152.177 155.254 167.190  1.00  0.00     0.146 A 
ATOM     11  O   UNL     1     152.486 156.475 167.614  1.00  0.00    -0.452 OA
ENDROOT
BRANCH   1  12
ATOM     12  C   UNL     1     153.881 158.182 168.593  1.00  0.00     0.025 A 
ATOM     13  C   UNL     1     153.665 158.519 169.939  1.00  0.00     0.016 A 
ATOM     14  C   UNL     1     153.883 159.825 170.385  1.00  0.00     0.051 A 
ATOM     15  C   UNL     1     154.335 160.810 169.497  1.00  0.00     0.157 A 
ATOM     16  C   UNL     1     154.354 159.169 167.709  1.00  0.00     0.062 A 
ATOM     17  C   UNL     1     154.575 160.477 168.153  1.00  0.00     0.158 A 
BRANCH  15  18
ATOM     18  O   UNL     1     154.549 162.113 169.945  1.00  0.00    -0.504 OA
ATOM     19  H   UNL     1     154.777 162.863 169.303  1.00  0.00     0.293 HD
ENDBRANCH  15  18
BRANCH  17  20
ATOM     20  O   UNL     1     155.039 161.431 167.247  1.00  0.00    -0.504 OA
ATOM     21  H   UNL     1     154.582 162.327 167.129  1.00  0.00     0.293 HD
ENDBRANCH  17  20
ENDBRANCH   1  12
BRANCH   2  22
ATOM     22  O   UNL     1     155.928 156.133 168.756  1.00  0.00    -0.502 OA
ATOM     23  H   UNL     1     156.054 156.737 169.559  1.00  0.00     0.293 HD
ENDBRANCH   2  22
BRANCH   6  24
ATOM     24  O   UNL     1     153.645 151.841 166.908  1.00  0.00    -0.507 OA
ATOM     25  H   UNL     1     154.179 151.654 167.749  1.00  0.00     0.293 HD
ENDBRANCH   6  24
BRANCH   8  26
ATOM     26  O   UNL     1     149.294 153.510 165.658  1.00  0.00    -0.508 OA
ATOM     27  H   UNL     1     149.109 153.634 164.670  1.00  0.00     0.293 HD
ENDBRANCH   8  26
TORSDOF 6
ENDMDL
MODEL 8
REMARK VINA RESULT:    -4.897      4.557      7.075
REMARK INTER + INTRA:          -6.220
REMARK INTER:                  -6.432
REMARK INTRA:                   0.212
REMARK UNBOUND:                -0.321
REMARK SMILES O=c1c(O)c(-c2ccc(O)c(O)c2)oc2cc(O)cc(O)c12
REMARK SMILES IDX 5 1 3 2 2 3 1 4 22 5 20 6 19 7 17 8 16 9 15 10 14 11 6 12
REMARK SMILES IDX 7 13 8 14 9 15 13 16 11 17 10 18 12 20 4 22 21 24 18 26
REMARK H PARENT 10 19 12 21 4 23 21 25 18 27
REMARK Flexibility Score: inf
ROOT
ATOM      1  C   UNL     1     144.886 158.597 159.244  1.00  0.00     0.180 A 
ATOM      2  C   UNL     1     145.906 159.444 159.718  1.00  0.00     0.208 A 
ATOM      3  C   UNL     1     146.095 159.568 161.103  1.00  0.00     0.238 A 
ATOM      4  O   UNL     1     146.998 160.333 161.540  1.00  0.00    -0.285 OA
ATOM      5  C   UNL     1     145.280 158.833 161.988  1.00  0.00     0.111 A 
ATOM      6  C   UNL     1     145.407 158.899 163.396  1.00  0.00     0.134 A 
ATOM      7  C   UNL     1     144.562 158.128 164.208  1.00  0.00     0.093 A 
ATOM      8  C   UNL     1     143.596 157.293 163.642  1.00  0.00     0.123 A 
ATOM      9  C   UNL     1     143.464 157.225 162.251  1.00  0.00     0.094 A 
ATOM     10  C   UNL     1     144.295 157.986 161.425  1.00  0.00     0.146 A 
ATOM     11  O   UNL     1     144.146 157.906 160.107  1.00  0.00    -0.452 OA
ENDROOT
BRANCH   1  12
ATOM     12  C   UNL     1     144.613 158.427 157.799  1.00  0.00     0.025 A 
ATOM     13  C   UNL     1     144.091 157.209 157.333  1.00  0.00     0.016 A 
ATOM     14  C   UNL     1     143.807 157.034 155.976  1.00  0.00     0.051 A 
ATOM     15  C   UNL     1     144.023 158.077 155.068  1.00  0.00     0.157 A 
ATOM     16  C   UNL     1     144.809 159.479 156.887  1.00  0.00     0.062 A 
ATOM     17  C   UNL     1     144.523 159.307 155.528  1.00  0.00     0.158 A 
BRANCH  15  18
ATOM     18  O   UNL     1     143.740 157.899 153.715  1.00  0.00    -0.504 OA
ATOM     19  H   UNL     1     144.098 157.104 153.199  1.00  0.00     0.293 HD
ENDBRANCH  15  18
BRANCH  17  20
ATOM     20  O   UNL     1     144.736 160.372 154.651  1.00  0.00    -0.504 OA
ATOM     21  H   UNL     1     143.983 160.978 154.348  1.00  0.00     0.293 HD
ENDBRANCH  17  20
ENDBRANCH   1  12
BRANCH   2  22
ATOM     22  O   UNL     1     146.733 160.124 158.820  1.00  0.00    -0.502 OA
ATOM     23  H   UNL     1     146.407 160.910 158.272  1.00  0.00     0.293 HD
ENDBRANCH   2  22
BRANCH   6  24
ATOM     24  O   UNL     1     146.363 159.722 163.992  1.00  0.00    -0.507 OA
ATOM     25  H   UNL     1     146.324 160.732 163.909  1.00  0.00     0.293 HD
ENDBRANCH   6  24
BRANCH   8  26
ATOM     26  O   UNL     1     142.771 156.538 164.471  1.00  0.00    -0.508 OA
ATOM     27  H   UNL     1     141.798 156.782 164.614  1.00  0.00     0.293 HD
ENDBRANCH   8  26
TORSDOF 6
ENDMDL
MODEL 9
REMARK VINA RESULT:    -4.751      4.309      6.430
REMARK INTER + INTRA:          -6.044
REMARK INTER:                  -5.775
REMARK INTRA:                  -0.269
REMARK UNBOUND:                -0.321
REMARK SMILES O=c1c(O)c(-c2ccc(O)c(O)c2)oc2cc(O)cc(O)c12
REMARK SMILES IDX 5 1 3 2 2 3 1 4 22 5 20 6 19 7 17 8 16 9 15 10 14 11 6 12
REMARK SMILES IDX 7 13 8 14 9 15 13 16 11 17 10 18 12 20 4 22 21 24 18 26
REMARK H PARENT 10 19 12 21 4 23 21 25 18 27
REMARK Flexibility Score: inf
ROOT
ATOM      1  C   UNL     1     147.515 159.314 163.109  1.00  0.00     0.180 A 
ATOM      2  C   UNL     1     147.068 159.658 161.819  1.00  0.00     0.208 A 
ATOM      3  C   UNL     1     145.854 159.126 161.359  1.00  0.00     0.238 A 
ATOM      4  O   UNL     1     145.448 159.417 160.200  1.00  0.00    -0.285 OA
ATOM      5  C   UNL     1     145.100 158.280 162.198  1.00  0.00     0.111 A 
ATOM      6  C   UNL     1     143.865 157.705 161.811  1.00  0.00     0.134 A 
ATOM      7  C   UNL     1     143.170 156.880 162.708  1.00  0.00     0.093 A 
ATOM      8  C   UNL     1     143.684 156.620 163.981  1.00  0.00     0.123 A 
ATOM      9  C   UNL     1     144.904 157.184 164.368  1.00  0.00     0.094 A 
ATOM     10  C   UNL     1     145.612 158.007 163.488  1.00  0.00     0.146 A 
ATOM     11  O   UNL     1     146.770 158.526 163.879  1.00  0.00    -0.452 OA
ENDROOT
BRANCH   1  12
ATOM     12  C   UNL     1     148.794 159.820 163.659  1.00  0.00     0.025 A 
ATOM     13  C   UNL     1     149.920 158.981 163.671  1.00  0.00     0.016 A 
ATOM     14  C   UNL     1     151.142 159.444 164.167  1.00  0.00     0.051 A 
ATOM     15  C   UNL     1     151.261 160.756 164.641  1.00  0.00     0.157 A 
ATOM     16  C   UNL     1     148.923 161.143 164.118  1.00  0.00     0.062 A 
ATOM     17  C   UNL     1     150.145 161.610 164.612  1.00  0.00     0.158 A 
BRANCH  15  18
ATOM     18  O   UNL     1     152.481 161.214 165.137  1.00  0.00    -0.504 OA
ATOM     19  H   UNL     1     152.807 160.960 166.062  1.00  0.00     0.293 HD
ENDBRANCH  15  18
BRANCH  17  20
ATOM     20  O   UNL     1     150.234 162.927 165.065  1.00  0.00    -0.504 OA
ATOM     21  H   UNL     1     151.116 163.424 165.105  1.00  0.00     0.293 HD
ENDBRANCH  17  20
ENDBRANCH   1  12
BRANCH   2  22
ATOM     22  O   UNL     1     147.809 160.537 161.026  1.00  0.00    -0.502 OA
ATOM     23  H   UNL     1     148.815 160.466 160.931  1.00  0.00     0.293 HD
ENDBRANCH   2  22
BRANCH   6  24
ATOM     24  O   UNL     1     143.325 157.947 160.547  1.00  0.00    -0.507 OA
ATOM     25  H   UNL     1     142.998 158.867 160.275  1.00  0.00     0.293 HD
ENDBRANCH   6  24
BRANCH   8  26
ATOM     26  O   UNL     1     142.973 155.798 164.852  1.00  0.00    -0.508 OA
ATOM     27  H   UNL     1     143.170 155.784 165.846  1.00  0.00     0.293 HD
ENDBRANCH   8  26
TORSDOF 6
ENDMDL
