MODEL 1
REMARK VINA RESULT:    -6.374      0.000      0.000
REMARK INTER + INTRA:         -10.736
REMARK INTER:                  -9.914
REMARK INTRA:                  -0.822
REMARK UNBOUND:                -0.822
REMARK SMILES COc1cc(CNC(=O)CCCCC=CC(C)C)ccc1O
REMARK SMILES IDX 11 1 12 2 13 3 14 4 15 5 16 6 17 7 18 8 10 9 8 10 9 11 7 12
REMARK SMILES IDX 6 14 5 15 4 16 19 17 3 18 20 19 21 20 2 21 1 22 22 23
REMARK H PARENT 7 13 22 24
REMARK Flexibility Score: inf
ROOT
ATOM      1  C   UNL     1       6.267 -12.993  89.943  1.00  0.00     0.010 C 
ENDROOT
BRANCH   1   2
ATOM      2  C   UNL     1       7.356 -13.871  89.307  1.00  0.00     0.005 C 
BRANCH   2   3
ATOM      3  C   UNL     1       8.350 -14.422  90.340  1.00  0.00     0.027 C 
BRANCH   3   4
ATOM      4  C   UNL     1       9.746 -14.469  89.781  1.00  0.00    -0.031 C 
ATOM      5  C   UNL     1      10.151 -13.562  88.878  1.00  0.00    -0.028 C 
BRANCH   5   6
ATOM      6  C   UNL     1      11.544 -13.553  88.292  1.00  0.00     0.005 C 
ATOM      7  C   UNL     1      11.904 -12.171  87.735  1.00  0.00     0.012 C 
ATOM      8  C   UNL     1      12.586 -14.031  89.312  1.00  0.00     0.012 C 
ENDBRANCH   5   6
ENDBRANCH   3   4
ENDBRANCH   2   3
ENDBRANCH   1   2
BRANCH   1   9
ATOM      9  C   UNL     1       6.770 -12.217  91.168  1.00  0.00     0.100 C 
BRANCH   9  10
ATOM     10  C   UNL     1       6.214 -10.825  91.160  1.00  0.00     0.220 C 
ATOM     11  O   UNL     1       6.947  -9.864  91.513  1.00  0.00    -0.275 OA
ATOM     12  N   UNL     1       4.843 -10.598  90.801  1.00  0.00    -0.352 N 
ATOM     13  H   UNL     1       4.264 -11.403  90.471  1.00  0.00     0.163 HD
BRANCH  12  14
ATOM     14  C   UNL     1       4.185  -9.311  91.004  1.00  0.00     0.151 C 
BRANCH  14  15
ATOM     15  C   UNL     1       3.973  -8.633  89.680  1.00  0.00    -0.025 A 
ATOM     16  C   UNL     1       3.050  -9.146  88.756  1.00  0.00     0.056 A 
ATOM     17  C   UNL     1       4.747  -7.516  89.335  1.00  0.00     0.009 A 
ATOM     18  C   UNL     1       2.883  -8.534  87.496  1.00  0.00     0.160 A 
ATOM     19  C   UNL     1       4.582  -6.902  88.092  1.00  0.00     0.050 A 
ATOM     20  C   UNL     1       3.652  -7.406  87.173  1.00  0.00     0.157 A 
BRANCH  18  21
ATOM     21  O   UNL     1       1.970  -9.019  86.546  1.00  0.00    -0.493 OA
ATOM     22  C   UNL     1       0.556  -9.010  86.709  1.00  0.00     0.278 C 
ENDBRANCH  18  21
BRANCH  20  23
ATOM     23  O   UNL     1       3.486  -6.789  85.934  1.00  0.00    -0.504 OA
ATOM     24  H   UNL     1       4.206  -6.828  85.221  1.00  0.00     0.293 HD
ENDBRANCH  20  23
ENDBRANCH  14  15
ENDBRANCH  12  14
ENDBRANCH   9  10
ENDBRANCH   1   9
TORSDOF 10
ENDMDL
MODEL 2
REMARK VINA RESULT:    -6.338      2.849      8.556
REMARK INTER + INTRA:         -10.679
REMARK INTER:                  -9.868
REMARK INTRA:                  -0.812
REMARK UNBOUND:                -0.822
REMARK SMILES COc1cc(CNC(=O)CCCCC=CC(C)C)ccc1O
REMARK SMILES IDX 11 1 12 2 13 3 14 4 15 5 16 6 17 7 18 8 10 9 8 10 9 11 7 12
REMARK SMILES IDX 6 14 5 15 4 16 19 17 3 18 20 19 21 20 2 21 1 22 22 23
REMARK H PARENT 7 13 22 24
REMARK Flexibility Score: inf
ROOT
ATOM      1  C   UNL     1       5.647  -9.411  92.007  1.00  0.00     0.010 C 
ENDROOT
BRANCH   1   2
ATOM      2  C   UNL     1       4.641  -8.796  91.022  1.00  0.00     0.005 C 
BRANCH   2   3
ATOM      3  C   UNL     1       3.419  -9.697  90.785  1.00  0.00     0.027 C 
BRANCH   3   4
ATOM      4  C   UNL     1       2.746  -9.367  89.480  1.00  0.00    -0.031 C 
ATOM      5  C   UNL     1       3.464  -8.932  88.432  1.00  0.00    -0.028 C 
BRANCH   5   6
ATOM      6  C   UNL     1       2.843  -8.599  87.095  1.00  0.00     0.005 C 
ATOM      7  C   UNL     1       1.349  -8.943  87.074  1.00  0.00     0.012 C 
ATOM      8  C   UNL     1       3.082  -7.134  86.713  1.00  0.00     0.012 C 
ENDBRANCH   5   6
ENDBRANCH   3   4
ENDBRANCH   2   3
ENDBRANCH   1   2
BRANCH   1   9
ATOM      9  C   UNL     1       6.803 -10.134  91.302  1.00  0.00     0.100 C 
BRANCH   9  10
ATOM     10  C   UNL     1       6.570 -11.614  91.314  1.00  0.00     0.220 C 
ATOM     11  O   UNL     1       6.341 -12.197  92.406  1.00  0.00    -0.275 OA
ATOM     12  N   UNL     1       6.656 -12.367  90.094  1.00  0.00    -0.352 N 
ATOM     13  H   UNL     1       6.805 -11.859  89.192  1.00  0.00     0.163 HD
BRANCH  12  14
ATOM     14  C   UNL     1       6.678 -13.827  90.077  1.00  0.00     0.151 C 
BRANCH  14  15
ATOM     15  C   UNL     1       8.097 -14.315  90.125  1.00  0.00    -0.025 A 
ATOM     16  C   UNL     1       8.980 -14.048  89.066  1.00  0.00     0.056 A 
ATOM     17  C   UNL     1       8.532 -15.098  91.203  1.00  0.00     0.009 A 
ATOM     18  C   UNL     1      10.300 -14.543  89.092  1.00  0.00     0.160 A 
ATOM     19  C   UNL     1       9.839 -15.586  91.238  1.00  0.00     0.050 A 
ATOM     20  C   UNL     1      10.725 -15.310  90.188  1.00  0.00     0.157 A 
BRANCH  18  21
ATOM     21  O   UNL     1      11.210 -14.297  88.052  1.00  0.00    -0.493 OA
ATOM     22  C   UNL     1      12.137 -13.216  88.031  1.00  0.00     0.278 C 
ENDBRANCH  18  21
BRANCH  20  23
ATOM     23  O   UNL     1      12.031 -15.795  90.227  1.00  0.00    -0.504 OA
ATOM     24  H   UNL     1      12.822 -15.212  89.975  1.00  0.00     0.293 HD
ENDBRANCH  20  23
ENDBRANCH  14  15
ENDBRANCH  12  14
ENDBRANCH   9  10
ENDBRANCH   1   9
TORSDOF 10
ENDMDL
MODEL 3
REMARK VINA RESULT:    -6.143      2.987      8.740
REMARK INTER + INTRA:         -10.376
REMARK INTER:                  -9.538
REMARK INTRA:                  -0.838
REMARK UNBOUND:                -0.822
REMARK SMILES COc1cc(CNC(=O)CCCCC=CC(C)C)ccc1O
REMARK SMILES IDX 11 1 12 2 13 3 14 4 15 5 16 6 17 7 18 8 10 9 8 10 9 11 7 12
REMARK SMILES IDX 6 14 5 15 4 16 19 17 3 18 20 19 21 20 2 21 1 22 22 23
REMARK H PARENT 7 13 22 24
REMARK Flexibility Score: inf
ROOT
ATOM      1  C   UNL     1       5.622  -9.595  92.078  1.00  0.00     0.010 C 
ENDROOT
BRANCH   1   2
ATOM      2  C   UNL     1       4.735  -8.928  91.016  1.00  0.00     0.005 C 
BRANCH   2   3
ATOM      3  C   UNL     1       3.357  -9.595  90.892  1.00  0.00     0.027 C 
BRANCH   3   4
ATOM      4  C   UNL     1       2.798  -9.437  89.504  1.00  0.00    -0.031 C 
ATOM      5  C   UNL     1       3.444  -8.696  88.589  1.00  0.00    -0.028 C 
BRANCH   5   6
ATOM      6  C   UNL     1       2.937  -8.513  87.177  1.00  0.00     0.005 C 
ATOM      7  C   UNL     1       1.480  -8.973  87.045  1.00  0.00     0.012 C 
ATOM      8  C   UNL     1       3.110  -7.066  86.700  1.00  0.00     0.012 C 
ENDBRANCH   5   6
ENDBRANCH   3   4
ENDBRANCH   2   3
ENDBRANCH   1   2
BRANCH   1   9
ATOM      9  C   UNL     1       6.855 -10.283  91.476  1.00  0.00     0.100 C 
BRANCH   9  10
ATOM     10  C   UNL     1       6.614 -11.757  91.353  1.00  0.00     0.220 C 
ATOM     11  O   UNL     1       6.405 -12.439  92.391  1.00  0.00    -0.275 OA
ATOM     12  N   UNL     1       6.672 -12.392  90.067  1.00  0.00    -0.352 N 
ATOM     13  H   UNL     1       6.805 -11.803  89.214  1.00  0.00     0.163 HD
BRANCH  12  14
ATOM     14  C   UNL     1       6.685 -13.844  89.912  1.00  0.00     0.151 C 
BRANCH  14  15
ATOM     15  C   UNL     1       8.102 -14.344  89.926  1.00  0.00    -0.025 A 
ATOM     16  C   UNL     1       8.595 -15.060  91.030  1.00  0.00     0.056 A 
ATOM     17  C   UNL     1       8.961 -14.043  88.861  1.00  0.00     0.009 A 
ATOM     18  C   UNL     1       9.937 -15.491  91.061  1.00  0.00     0.160 A 
ATOM     19  C   UNL     1      10.289 -14.473  88.883  1.00  0.00     0.050 A 
ATOM     20  C   UNL     1      10.779 -15.198  89.978  1.00  0.00     0.157 A 
BRANCH  18  21
ATOM     21  O   UNL     1      10.465 -16.208  92.146  1.00  0.00    -0.493 OA
ATOM     22  C   UNL     1      10.254 -17.597  92.374  1.00  0.00     0.278 C 
ENDBRANCH  18  21
BRANCH  20  23
ATOM     23  O   UNL     1      12.104 -15.630  89.995  1.00  0.00    -0.504 OA
ATOM     24  H   UNL     1      12.567 -15.888  90.860  1.00  0.00     0.293 HD
ENDBRANCH  20  23
ENDBRANCH  14  15
ENDBRANCH  12  14
ENDBRANCH   9  10
ENDBRANCH   1   9
TORSDOF 10
ENDMDL
MODEL 4
REMARK VINA RESULT:    -6.136      3.249      7.655
REMARK INTER + INTRA:         -10.366
REMARK INTER:                  -9.465
REMARK INTRA:                  -0.901
REMARK UNBOUND:                -0.822
REMARK SMILES COc1cc(CNC(=O)CCCCC=CC(C)C)ccc1O
REMARK SMILES IDX 11 1 12 2 13 3 14 4 15 5 16 6 17 7 18 8 10 9 8 10 9 11 7 12
REMARK SMILES IDX 6 14 5 15 4 16 19 17 3 18 20 19 21 20 2 21 1 22 22 23
REMARK H PARENT 7 13 22 24
REMARK Flexibility Score: inf
ROOT
ATOM      1  C   UNL     1       6.203 -13.203  89.547  1.00  0.00     0.010 C 
ENDROOT
BRANCH   1   2
ATOM      2  C   UNL     1       5.259 -13.898  88.553  1.00  0.00     0.005 C 
BRANCH   2   3
ATOM      3  C   UNL     1       4.450 -12.901  87.710  1.00  0.00     0.027 C 
BRANCH   3   4
ATOM      4  C   UNL     1       4.136 -11.655  88.492  1.00  0.00    -0.031 C 
ATOM      5  C   UNL     1       3.066 -10.906  88.182  1.00  0.00    -0.028 C 
BRANCH   5   6
ATOM      6  C   UNL     1       2.694  -9.653  88.941  1.00  0.00     0.005 C 
ATOM      7  C   UNL     1       3.189  -9.714  90.391  1.00  0.00     0.012 C 
ATOM      8  C   UNL     1       3.204  -8.393  88.231  1.00  0.00     0.012 C 
ENDBRANCH   5   6
ENDBRANCH   3   4
ENDBRANCH   2   3
ENDBRANCH   1   2
BRANCH   1   9
ATOM      9  C   UNL     1       6.665 -14.134  90.677  1.00  0.00     0.100 C 
BRANCH   9  10
ATOM     10  C   UNL     1       8.114 -14.476  90.502  1.00  0.00     0.220 C 
ATOM     11  O   UNL     1       8.774 -14.895  91.489  1.00  0.00    -0.275 OA
ATOM     12  N   UNL     1       8.754 -14.277  89.233  1.00  0.00    -0.352 N 
ATOM     13  H   UNL     1       8.179 -13.968  88.416  1.00  0.00     0.163 HD
BRANCH  12  14
ATOM     14  C   UNL     1      10.202 -14.362  89.066  1.00  0.00     0.151 C 
BRANCH  14  15
ATOM     15  C   UNL     1      10.759 -13.002  88.758  1.00  0.00    -0.025 A 
ATOM     16  C   UNL     1      10.190 -11.852  89.330  1.00  0.00     0.056 A 
ATOM     17  C   UNL     1      11.814 -12.868  87.845  1.00  0.00     0.009 A 
ATOM     18  C   UNL     1      10.686 -10.572  89.007  1.00  0.00     0.160 A 
ATOM     19  C   UNL     1      12.314 -11.603  87.526  1.00  0.00     0.050 A 
ATOM     20  C   UNL     1      11.755 -10.456  88.105  1.00  0.00     0.157 A 
BRANCH  18  21
ATOM     21  O   UNL     1      10.143  -9.400  89.558  1.00  0.00    -0.493 OA
ATOM     22  C   UNL     1      10.579  -8.805  90.775  1.00  0.00     0.278 C 
ENDBRANCH  18  21
BRANCH  20  23
ATOM     23  O   UNL     1      12.258  -9.195  87.789  1.00  0.00    -0.504 OA
ATOM     24  H   UNL     1      13.225  -8.949  87.970  1.00  0.00     0.293 HD
ENDBRANCH  20  23
ENDBRANCH  14  15
ENDBRANCH  12  14
ENDBRANCH   9  10
ENDBRANCH   1   9
TORSDOF 10
ENDMDL
MODEL 5
REMARK VINA RESULT:    -6.031      5.529      7.899
REMARK INTER + INTRA:         -10.202
REMARK INTER:                  -9.673
REMARK INTRA:                  -0.529
REMARK UNBOUND:                -0.822
REMARK SMILES COc1cc(CNC(=O)CCCCC=CC(C)C)ccc1O
REMARK SMILES IDX 11 1 12 2 13 3 14 4 15 5 16 6 17 7 18 8 10 9 8 10 9 11 7 12
REMARK SMILES IDX 6 14 5 15 4 16 19 17 3 18 20 19 21 20 2 21 1 22 22 23
REMARK H PARENT 7 13 22 24
REMARK Flexibility Score: inf
ROOT
ATOM      1  C   UNL     1      10.350  -5.371  87.170  1.00  0.00     0.010 C 
ENDROOT
BRANCH   1   2
ATOM      2  C   UNL     1      10.046  -5.314  85.665  1.00  0.00     0.005 C 
BRANCH   2   3
ATOM      3  C   UNL     1      10.519  -4.005  85.014  1.00  0.00     0.027 C 
BRANCH   3   4
ATOM      4  C   UNL     1      10.638  -4.151  83.522  1.00  0.00    -0.031 C 
ATOM      5  C   UNL     1      10.148  -3.206  82.703  1.00  0.00    -0.028 C 
BRANCH   5   6
ATOM      6  C   UNL     1      10.251  -3.294  81.197  1.00  0.00     0.005 C 
ATOM      7  C   UNL     1      11.419  -4.191  80.771  1.00  0.00     0.012 C 
ATOM      8  C   UNL     1       8.932  -3.760  80.569  1.00  0.00     0.012 C 
ENDBRANCH   5   6
ENDBRANCH   3   4
ENDBRANCH   2   3
ENDBRANCH   1   2
BRANCH   1   9
ATOM      9  C   UNL     1       9.372  -6.270  87.939  1.00  0.00     0.100 C 
BRANCH   9  10
ATOM     10  C   UNL     1       8.025  -5.616  88.019  1.00  0.00     0.220 C 
ATOM     11  O   UNL     1       7.946  -4.394  88.309  1.00  0.00    -0.275 OA
ATOM     12  N   UNL     1       6.834  -6.392  87.817  1.00  0.00    -0.352 N 
ATOM     13  H   UNL     1       6.923  -7.396  87.536  1.00  0.00     0.163 HD
BRANCH  12  14
ATOM     14  C   UNL     1       5.503  -5.873  88.116  1.00  0.00     0.151 C 
BRANCH  14  15
ATOM     15  C   UNL     1       4.527  -7.010  88.228  1.00  0.00    -0.025 A 
ATOM     16  C   UNL     1       4.447  -7.767  89.407  1.00  0.00     0.056 A 
ATOM     17  C   UNL     1       3.733  -7.361  87.128  1.00  0.00     0.009 A 
ATOM     18  C   UNL     1       3.562  -8.861  89.497  1.00  0.00     0.160 A 
ATOM     19  C   UNL     1       2.850  -8.439  87.212  1.00  0.00     0.050 A 
ATOM     20  C   UNL     1       2.760  -9.188  88.393  1.00  0.00     0.157 A 
BRANCH  18  21
ATOM     21  O   UNL     1       3.454  -9.641  90.659  1.00  0.00    -0.493 OA
ATOM     22  C   UNL     1       4.560 -10.078  91.442  1.00  0.00     0.278 C 
ENDBRANCH  18  21
BRANCH  20  23
ATOM     23  O   UNL     1       1.874 -10.262  88.476  1.00  0.00    -0.504 OA
ATOM     24  H   UNL     1       2.200 -11.221  88.455  1.00  0.00     0.293 HD
ENDBRANCH  20  23
ENDBRANCH  14  15
ENDBRANCH  12  14
ENDBRANCH   9  10
ENDBRANCH   1   9
TORSDOF 10
ENDMDL
MODEL 6
REMARK VINA RESULT:    -6.000      1.046      2.190
REMARK INTER + INTRA:         -10.155
REMARK INTER:                  -9.462
REMARK INTRA:                  -0.692
REMARK UNBOUND:                -0.822
REMARK SMILES COc1cc(CNC(=O)CCCCC=CC(C)C)ccc1O
REMARK SMILES IDX 11 1 12 2 13 3 14 4 15 5 16 6 17 7 18 8 10 9 8 10 9 11 7 12
REMARK SMILES IDX 6 14 5 15 4 16 19 17 3 18 20 19 21 20 2 21 1 22 22 23
REMARK H PARENT 7 13 22 24
REMARK Flexibility Score: inf
ROOT
ATOM      1  C   UNL     1       6.546 -12.496  90.346  1.00  0.00     0.010 C 
ENDROOT
BRANCH   1   2
ATOM      2  C   UNL     1       7.258 -13.841  90.556  1.00  0.00     0.005 C 
BRANCH   2   3
ATOM      3  C   UNL     1       7.951 -14.349  89.282  1.00  0.00     0.027 C 
BRANCH   3   4
ATOM      4  C   UNL     1       9.237 -13.610  89.030  1.00  0.00    -0.031 C 
ATOM      5  C   UNL     1      10.369 -14.282  88.764  1.00  0.00    -0.028 C 
BRANCH   5   6
ATOM      6  C   UNL     1      11.686 -13.592  88.490  1.00  0.00     0.005 C 
ATOM      7  C   UNL     1      11.502 -12.076  88.354  1.00  0.00     0.012 C 
ATOM      8  C   UNL     1      12.732 -13.933  89.558  1.00  0.00     0.012 C 
ENDBRANCH   5   6
ENDBRANCH   3   4
ENDBRANCH   2   3
ENDBRANCH   1   2
BRANCH   1   9
ATOM      9  C   UNL     1       6.510 -11.639  91.619  1.00  0.00     0.100 C 
BRANCH   9  10
ATOM     10  C   UNL     1       5.646 -10.433  91.403  1.00  0.00     0.220 C 
ATOM     11  O   UNL     1       6.010  -9.320  91.867  1.00  0.00    -0.275 OA
ATOM     12  N   UNL     1       4.391 -10.558  90.718  1.00  0.00    -0.352 N 
ATOM     13  H   UNL     1       4.127 -11.481  90.304  1.00  0.00     0.163 HD
BRANCH  12  14
ATOM     14  C   UNL     1       3.406  -9.481  90.689  1.00  0.00     0.151 C 
BRANCH  14  15
ATOM     15  C   UNL     1       3.492  -8.747  89.380  1.00  0.00    -0.025 A 
ATOM     16  C   UNL     1       4.299  -7.605  89.256  1.00  0.00     0.056 A 
ATOM     17  C   UNL     1       2.715  -9.165  88.291  1.00  0.00     0.009 A 
ATOM     18  C   UNL     1       4.346  -6.891  88.040  1.00  0.00     0.160 A 
ATOM     19  C   UNL     1       2.763  -8.467  87.083  1.00  0.00     0.050 A 
ATOM     20  C   UNL     1       3.577  -7.334  86.953  1.00  0.00     0.157 A 
BRANCH  18  21
ATOM     21  O   UNL     1       5.140  -5.745  87.877  1.00  0.00    -0.493 OA
ATOM     22  C   UNL     1       6.535  -5.685  88.157  1.00  0.00     0.278 C 
ENDBRANCH  18  21
BRANCH  20  23
ATOM     23  O   UNL     1       3.625  -6.641  85.744  1.00  0.00    -0.504 OA
ATOM     24  H   UNL     1       3.052  -5.822  85.579  1.00  0.00     0.293 HD
ENDBRANCH  20  23
ENDBRANCH  14  15
ENDBRANCH  12  14
ENDBRANCH   9  10
ENDBRANCH   1   9
TORSDOF 10
ENDMDL
MODEL 7
REMARK VINA RESULT:    -5.972      1.742      3.070
REMARK INTER + INTRA:         -10.110
REMARK INTER:                  -9.104
REMARK INTRA:                  -1.006
REMARK UNBOUND:                -0.822
REMARK SMILES COc1cc(CNC(=O)CCCCC=CC(C)C)ccc1O
REMARK SMILES IDX 11 1 12 2 13 3 14 4 15 5 16 6 17 7 18 8 10 9 8 10 9 11 7 12
REMARK SMILES IDX 6 14 5 15 4 16 19 17 3 18 20 19 21 20 2 21 1 22 22 23
REMARK H PARENT 7 13 22 24
REMARK Flexibility Score: inf
ROOT
ATOM      1  C   UNL     1       7.967  -9.603  91.041  1.00  0.00     0.010 C 
ENDROOT
BRANCH   1   2
ATOM      2  C   UNL     1       9.504  -9.607  91.050  1.00  0.00     0.005 C 
BRANCH   2   3
ATOM      3  C   UNL     1      10.104  -9.487  89.641  1.00  0.00     0.027 C 
BRANCH   3   4
ATOM      4  C   UNL     1      10.894 -10.716  89.280  1.00  0.00    -0.031 C 
ATOM      5  C   UNL     1      10.329 -11.933  89.342  1.00  0.00    -0.028 C 
BRANCH   5   6
ATOM      6  C   UNL     1      11.069 -13.199  88.978  1.00  0.00     0.005 C 
ATOM      7  C   UNL     1      10.096 -14.350  88.697  1.00  0.00     0.012 C 
ATOM      8  C   UNL     1      12.023 -12.975  87.798  1.00  0.00     0.012 C 
ENDBRANCH   5   6
ENDBRANCH   3   4
ENDBRANCH   2   3
ENDBRANCH   1   2
BRANCH   1   9
ATOM      9  C   UNL     1       7.367 -10.968  91.407  1.00  0.00     0.100 C 
BRANCH   9  10
ATOM     10  C   UNL     1       5.903 -10.989  91.089  1.00  0.00     0.220 C 
ATOM     11  O   UNL     1       5.430 -11.940  90.413  1.00  0.00    -0.275 OA
ATOM     12  N   UNL     1       5.058  -9.906  91.509  1.00  0.00    -0.352 N 
ATOM     13  H   UNL     1       5.462  -9.148  92.104  1.00  0.00     0.163 HD
BRANCH  12  14
ATOM     14  C   UNL     1       3.688  -9.752  91.027  1.00  0.00     0.151 C 
BRANCH  14  15
ATOM     15  C   UNL     1       3.689  -9.019  89.716  1.00  0.00    -0.025 A 
ATOM     16  C   UNL     1       4.486  -7.876  89.539  1.00  0.00     0.056 A 
ATOM     17  C   UNL     1       2.843  -9.436  88.680  1.00  0.00     0.009 A 
ATOM     18  C   UNL     1       4.454  -7.163  88.323  1.00  0.00     0.160 A 
ATOM     19  C   UNL     1       2.811  -8.738  87.472  1.00  0.00     0.050 A 
ATOM     20  C   UNL     1       3.615  -7.605  87.289  1.00  0.00     0.157 A 
BRANCH  18  21
ATOM     21  O   UNL     1       5.236  -6.017  88.109  1.00  0.00    -0.493 OA
ATOM     22  C   UNL     1       6.660  -6.007  88.077  1.00  0.00     0.278 C 
ENDBRANCH  18  21
BRANCH  20  23
ATOM     23  O   UNL     1       3.585  -6.912  86.080  1.00  0.00    -0.504 OA
ATOM     24  H   UNL     1       2.964  -7.186  85.326  1.00  0.00     0.293 HD
ENDBRANCH  20  23
ENDBRANCH  14  15
ENDBRANCH  12  14
ENDBRANCH   9  10
ENDBRANCH   1   9
TORSDOF 10
ENDMDL
MODEL 8
REMARK VINA RESULT:    -5.911      2.641      7.215
REMARK INTER + INTRA:         -10.016
REMARK INTER:                  -8.985
REMARK INTRA:                  -1.030
REMARK UNBOUND:                -0.822
REMARK SMILES COc1cc(CNC(=O)CCCCC=CC(C)C)ccc1O
REMARK SMILES IDX 11 1 12 2 13 3 14 4 15 5 16 6 17 7 18 8 10 9 8 10 9 11 7 12
REMARK SMILES IDX 6 14 5 15 4 16 19 17 3 18 20 19 21 20 2 21 1 22 22 23
REMARK H PARENT 7 13 22 24
REMARK Flexibility Score: inf
ROOT
ATOM      1  C   UNL     1       3.750  -9.087  90.355  1.00  0.00     0.010 C 
ENDROOT
BRANCH   1   2
ATOM      2  C   UNL     1       3.380  -8.531  88.971  1.00  0.00     0.005 C 
BRANCH   2   3
ATOM      3  C   UNL     1       2.804  -9.605  88.036  1.00  0.00     0.027 C 
BRANCH   3   4
ATOM      4  C   UNL     1       3.169 -10.987  88.505  1.00  0.00    -0.031 C 
ATOM      5  C   UNL     1       4.016 -11.748  87.793  1.00  0.00    -0.028 C 
BRANCH   5   6
ATOM      6  C   UNL     1       4.428 -13.137  88.223  1.00  0.00     0.005 C 
ATOM      7  C   UNL     1       4.820 -13.999  87.017  1.00  0.00     0.012 C 
ATOM      8  C   UNL     1       5.552 -13.094  89.265  1.00  0.00     0.012 C 
ENDBRANCH   5   6
ENDBRANCH   3   4
ENDBRANCH   2   3
ENDBRANCH   1   2
BRANCH   1   9
ATOM      9  C   UNL     1       5.193  -8.760  90.760  1.00  0.00     0.100 C 
BRANCH   9  10
ATOM     10  C   UNL     1       5.863  -9.981  91.314  1.00  0.00     0.220 C 
ATOM     11  O   UNL     1       5.250 -10.699  92.147  1.00  0.00    -0.275 OA
ATOM     12  N   UNL     1       7.210 -10.299  90.935  1.00  0.00    -0.352 N 
ATOM     13  H   UNL     1       7.687  -9.715  90.211  1.00  0.00     0.163 HD
BRANCH  12  14
ATOM     14  C   UNL     1       7.992 -11.327  91.617  1.00  0.00     0.151 C 
BRANCH  14  15
ATOM     15  C   UNL     1       8.879 -12.030  90.629  1.00  0.00    -0.025 A 
ATOM     16  C   UNL     1       9.925 -11.341  89.994  1.00  0.00     0.056 A 
ATOM     17  C   UNL     1       8.626 -13.366  90.289  1.00  0.00     0.009 A 
ATOM     18  C   UNL     1      10.731 -11.990  89.035  1.00  0.00     0.160 A 
ATOM     19  C   UNL     1       9.424 -14.015  89.345  1.00  0.00     0.050 A 
ATOM     20  C   UNL     1      10.476 -13.332  88.719  1.00  0.00     0.157 A 
BRANCH  18  21
ATOM     21  O   UNL     1      11.785 -11.334  88.379  1.00  0.00    -0.493 OA
ATOM     22  C   UNL     1      11.623 -10.219  87.509  1.00  0.00     0.278 C 
ENDBRANCH  18  21
BRANCH  20  23
ATOM     23  O   UNL     1      11.274 -13.985  87.780  1.00  0.00    -0.504 OA
ATOM     24  H   UNL     1      12.161 -14.403  88.036  1.00  0.00     0.293 HD
ENDBRANCH  20  23
ENDBRANCH  14  15
ENDBRANCH  12  14
ENDBRANCH   9  10
ENDBRANCH   1   9
TORSDOF 10
ENDMDL
MODEL 9
REMARK VINA RESULT:    -5.905      2.967      4.583
REMARK INTER + INTRA:         -10.006
REMARK INTER:                  -9.252
REMARK INTRA:                  -0.754
REMARK UNBOUND:                -0.822
REMARK SMILES COc1cc(CNC(=O)CCCCC=CC(C)C)ccc1O
REMARK SMILES IDX 11 1 12 2 13 3 14 4 15 5 16 6 17 7 18 8 10 9 8 10 9 11 7 12
REMARK SMILES IDX 6 14 5 15 4 16 19 17 3 18 20 19 21 20 2 21 1 22 22 23
REMARK H PARENT 7 13 22 24
REMARK Flexibility Score: inf
ROOT
ATOM      1  C   UNL     1       9.687  -7.330  89.455  1.00  0.00     0.010 C 
ENDROOT
BRANCH   1   2
ATOM      2  C   UNL     1      10.931  -8.230  89.505  1.00  0.00     0.005 C 
BRANCH   2   3
ATOM      3  C   UNL     1      11.316  -8.785  88.125  1.00  0.00     0.027 C 
BRANCH   3   4
ATOM      4  C   UNL     1      11.407 -10.286  88.147  1.00  0.00    -0.031 C 
ATOM      5  C   UNL     1      10.843 -10.989  89.143  1.00  0.00    -0.028 C 
BRANCH   5   6
ATOM      6  C   UNL     1      10.891 -12.498  89.210  1.00  0.00     0.005 C 
ATOM      7  C   UNL     1       9.480 -13.099  89.230  1.00  0.00     0.012 C 
ATOM      8  C   UNL     1      11.730 -13.086  88.069  1.00  0.00     0.012 C 
ENDBRANCH   5   6
ENDBRANCH   3   4
ENDBRANCH   2   3
ENDBRANCH   1   2
BRANCH   1   9
ATOM      9  C   UNL     1       9.561  -6.564  88.131  1.00  0.00     0.100 C 
BRANCH   9  10
ATOM     10  C   UNL     1       8.268  -5.807  88.096  1.00  0.00     0.220 C 
ATOM     11  O   UNL     1       8.274  -4.562  88.288  1.00  0.00    -0.275 OA
ATOM     12  N   UNL     1       7.029  -6.504  87.894  1.00  0.00    -0.352 N 
ATOM     13  H   UNL     1       7.050  -7.530  87.695  1.00  0.00     0.163 HD
BRANCH  12  14
ATOM     14  C   UNL     1       5.731  -5.864  88.088  1.00  0.00     0.151 C 
BRANCH  14  15
ATOM     15  C   UNL     1       4.654  -6.908  88.160  1.00  0.00    -0.025 A 
ATOM     16  C   UNL     1       4.452  -7.643  89.340  1.00  0.00     0.056 A 
ATOM     17  C   UNL     1       3.885  -7.200  87.026  1.00  0.00     0.009 A 
ATOM     18  C   UNL     1       3.470  -8.653  89.394  1.00  0.00     0.160 A 
ATOM     19  C   UNL     1       2.907  -8.195  87.074  1.00  0.00     0.050 A 
ATOM     20  C   UNL     1       2.695  -8.921  88.255  1.00  0.00     0.157 A 
BRANCH  18  21
ATOM     21  O   UNL     1       3.238  -9.408  90.554  1.00  0.00    -0.493 OA
ATOM     22  C   UNL     1       4.254 -10.073  91.299  1.00  0.00     0.278 C 
ENDBRANCH  18  21
BRANCH  20  23
ATOM     23  O   UNL     1       1.715  -9.911  88.302  1.00  0.00    -0.504 OA
ATOM     24  H   UNL     1       1.789 -10.701  88.933  1.00  0.00     0.293 HD
ENDBRANCH  20  23
ENDBRANCH  14  15
ENDBRANCH  12  14
ENDBRANCH   9  10
ENDBRANCH   1   9
TORSDOF 10
ENDMDL
