MODEL 1
REMARK VINA RESULT:    -7.932      0.000      0.000
REMARK INTER + INTRA:          -9.312
REMARK INTER:                  -9.324
REMARK INTRA:                   0.011
REMARK UNBOUND:                 0.011
REMARK SMILES O=c1c(O)c(-c2ccc(O)cc2)oc2cc(O)cc(O)c12
REMARK SMILES IDX 5 1 3 2 2 3 1 4 21 5 19 6 18 7 16 8 15 9 14 10 13 11 6 12
REMARK SMILES IDX 7 13 8 14 9 15 12 16 11 17 10 18 4 20 20 22 17 24
REMARK H PARENT 10 19 4 21 20 23 17 25
REMARK Flexibility Score: inf
ROOT
ATOM      1  C   UNL     1     -13.717 -30.510 -13.780  1.00  0.00     0.180 A 
ATOM      2  C   UNL     1     -13.998 -29.556 -14.775  1.00  0.00     0.208 A 
ATOM      3  C   UNL     1     -14.219 -28.223 -14.396  1.00  0.00     0.238 A 
ATOM      4  O   UNL     1     -14.416 -27.364 -15.295  1.00  0.00    -0.285 OA
ATOM      5  C   UNL     1     -14.174 -27.863 -13.028  1.00  0.00     0.111 A 
ATOM      6  C   UNL     1     -14.424 -26.548 -12.528  1.00  0.00     0.134 A 
ATOM      7  C   UNL     1     -14.223 -26.278 -11.169  1.00  0.00     0.093 A 
ATOM      8  C   UNL     1     -13.846 -27.286 -10.281  1.00  0.00     0.123 A 
ATOM      9  C   UNL     1     -13.659 -28.587 -10.749  1.00  0.00     0.094 A 
ATOM     10  C   UNL     1     -13.815 -28.880 -12.106  1.00  0.00     0.146 A 
ATOM     11  O   UNL     1     -13.617 -30.128 -12.513  1.00  0.00    -0.452 OA
ENDROOT
BRANCH   1  12
ATOM     12  C   UNL     1     -13.496 -31.939 -14.099  1.00  0.00     0.021 A 
ATOM     13  C   UNL     1     -12.402 -32.614 -13.532  1.00  0.00     0.016 A 
ATOM     14  C   UNL     1     -12.188 -33.969 -13.801  1.00  0.00     0.047 A 
ATOM     15  C   UNL     1     -13.075 -34.671 -14.628  1.00  0.00     0.115 A 
ATOM     16  C   UNL     1     -14.394 -32.656 -14.913  1.00  0.00     0.016 A 
ATOM     17  C   UNL     1     -14.178 -34.012 -15.179  1.00  0.00     0.047 A 
BRANCH  15  18
ATOM     18  O   UNL     1     -12.872 -36.021 -14.904  1.00  0.00    -0.508 OA
ATOM     19  H   UNL     1     -13.649 -36.666 -14.992  1.00  0.00     0.293 HD
ENDBRANCH  15  18
ENDBRANCH   1  12
BRANCH   2  20
ATOM     20  O   UNL     1     -14.016 -29.930 -16.121  1.00  0.00    -0.502 OA
ATOM     21  H   UNL     1     -14.270 -30.863 -16.423  1.00  0.00     0.293 HD
ENDBRANCH   2  20
BRANCH   6  22
ATOM     22  O   UNL     1     -14.891 -25.491 -13.312  1.00  0.00    -0.507 OA
ATOM     23  H   UNL     1     -14.343 -24.999 -14.001  1.00  0.00     0.293 HD
ENDBRANCH   6  22
BRANCH   8  24
ATOM     24  O   UNL     1     -13.672 -26.984  -8.932  1.00  0.00    -0.508 OA
ATOM     25  H   UNL     1     -13.778 -26.038  -8.584  1.00  0.00     0.293 HD
ENDBRANCH   8  24
TORSDOF 5
ENDMDL
MODEL 2
REMARK VINA RESULT:    -7.795      1.856      6.579
REMARK INTER + INTRA:          -9.150
REMARK INTER:                  -9.324
REMARK INTRA:                   0.173
REMARK UNBOUND:                 0.011
REMARK SMILES O=c1c(O)c(-c2ccc(O)cc2)oc2cc(O)cc(O)c12
REMARK SMILES IDX 5 1 3 2 2 3 1 4 21 5 19 6 18 7 16 8 15 9 14 10 13 11 6 12
REMARK SMILES IDX 7 13 8 14 9 15 12 16 11 17 10 18 4 20 20 22 17 24
REMARK H PARENT 10 19 4 21 20 23 17 25
REMARK Flexibility Score: inf
ROOT
ATOM      1  C   UNL     1     -13.067 -29.088 -11.962  1.00  0.00     0.180 A 
ATOM      2  C   UNL     1     -14.261 -28.837 -12.661  1.00  0.00     0.208 A 
ATOM      3  C   UNL     1     -14.724 -29.791 -13.581  1.00  0.00     0.238 A 
ATOM      4  O   UNL     1     -15.821 -29.585 -14.164  1.00  0.00    -0.285 OA
ATOM      5  C   UNL     1     -13.981 -30.974 -13.803  1.00  0.00     0.111 A 
ATOM      6  C   UNL     1     -14.335 -31.990 -14.743  1.00  0.00     0.134 A 
ATOM      7  C   UNL     1     -13.597 -33.179 -14.785  1.00  0.00     0.093 A 
ATOM      8  C   UNL     1     -12.480 -33.363 -13.970  1.00  0.00     0.123 A 
ATOM      9  C   UNL     1     -12.089 -32.352 -13.091  1.00  0.00     0.094 A 
ATOM     10  C   UNL     1     -12.827 -31.170 -13.000  1.00  0.00     0.146 A 
ATOM     11  O   UNL     1     -12.428 -30.237 -12.144  1.00  0.00    -0.452 OA
ENDROOT
BRANCH   1  12
ATOM     12  C   UNL     1     -12.503 -28.120 -10.994  1.00  0.00     0.021 A 
ATOM     13  C   UNL     1     -13.353 -27.491 -10.068  1.00  0.00     0.016 A 
ATOM     14  C   UNL     1     -12.837 -26.591  -9.130  1.00  0.00     0.047 A 
ATOM     15  C   UNL     1     -11.463 -26.321  -9.096  1.00  0.00     0.115 A 
ATOM     16  C   UNL     1     -11.121 -27.857 -10.940  1.00  0.00     0.016 A 
ATOM     17  C   UNL     1     -10.608 -26.957 -10.000  1.00  0.00     0.047 A 
BRANCH  15  18
ATOM     18  O   UNL     1     -10.938 -25.426  -8.167  1.00  0.00    -0.508 OA
ATOM     19  H   UNL     1      -9.938 -25.316  -8.044  1.00  0.00     0.293 HD
ENDBRANCH  15  18
ENDBRANCH   1  12
BRANCH   2  20
ATOM     20  O   UNL     1     -14.990 -27.671 -12.410  1.00  0.00    -0.502 OA
ATOM     21  H   UNL     1     -15.907 -27.686 -11.980  1.00  0.00     0.293 HD
ENDBRANCH   2  20
BRANCH   6  22
ATOM     22  O   UNL     1     -15.377 -31.869 -15.665  1.00  0.00    -0.507 OA
ATOM     23  H   UNL     1     -15.465 -31.124 -16.340  1.00  0.00     0.293 HD
ENDBRANCH   6  22
BRANCH   8  24
ATOM     24  O   UNL     1     -11.760 -34.553 -14.051  1.00  0.00    -0.508 OA
ATOM     25  H   UNL     1     -11.548 -35.100 -13.224  1.00  0.00     0.293 HD
ENDBRANCH   8  24
TORSDOF 5
ENDMDL
MODEL 3
REMARK VINA RESULT:    -7.629      2.343      7.192
REMARK INTER + INTRA:          -8.956
REMARK INTER:                  -9.268
REMARK INTRA:                   0.312
REMARK UNBOUND:                 0.011
REMARK SMILES O=c1c(O)c(-c2ccc(O)cc2)oc2cc(O)cc(O)c12
REMARK SMILES IDX 5 1 3 2 2 3 1 4 21 5 19 6 18 7 16 8 15 9 14 10 13 11 6 12
REMARK SMILES IDX 7 13 8 14 9 15 12 16 11 17 10 18 4 20 20 22 17 24
REMARK H PARENT 10 19 4 21 20 23 17 25
REMARK Flexibility Score: inf
ROOT
ATOM      1  C   UNL     1     -11.990 -29.549 -11.357  1.00  0.00     0.180 A 
ATOM      2  C   UNL     1     -10.988 -30.533 -11.295  1.00  0.00     0.208 A 
ATOM      3  C   UNL     1     -11.103 -31.673 -12.106  1.00  0.00     0.238 A 
ATOM      4  O   UNL     1     -10.176 -32.525 -12.087  1.00  0.00    -0.285 OA
ATOM      5  C   UNL     1     -12.226 -31.824 -12.955  1.00  0.00     0.111 A 
ATOM      6  C   UNL     1     -12.465 -32.958 -13.789  1.00  0.00     0.134 A 
ATOM      7  C   UNL     1     -13.541 -32.940 -14.686  1.00  0.00     0.093 A 
ATOM      8  C   UNL     1     -14.423 -31.861 -14.731  1.00  0.00     0.123 A 
ATOM      9  C   UNL     1     -14.233 -30.774 -13.878  1.00  0.00     0.094 A 
ATOM     10  C   UNL     1     -13.148 -30.745 -12.999  1.00  0.00     0.146 A 
ATOM     11  O   UNL     1     -12.997 -29.688 -12.211  1.00  0.00    -0.452 OA
ENDROOT
BRANCH   1  12
ATOM     12  C   UNL     1     -11.951 -28.331 -10.515  1.00  0.00     0.021 A 
ATOM     13  C   UNL     1     -13.154 -27.767 -10.058  1.00  0.00     0.016 A 
ATOM     14  C   UNL     1     -13.138 -26.631  -9.243  1.00  0.00     0.047 A 
ATOM     15  C   UNL     1     -11.920 -26.054  -8.861  1.00  0.00     0.115 A 
ATOM     16  C   UNL     1     -10.731 -27.759 -10.111  1.00  0.00     0.016 A 
ATOM     17  C   UNL     1     -10.719 -26.623  -9.294  1.00  0.00     0.047 A 
BRANCH  15  18
ATOM     18  O   UNL     1     -11.893 -24.923  -8.050  1.00  0.00    -0.508 OA
ATOM     19  H   UNL     1     -11.075 -24.685  -7.500  1.00  0.00     0.293 HD
ENDBRANCH  15  18
ENDBRANCH   1  12
BRANCH   2  20
ATOM     20  O   UNL     1      -9.877 -30.355 -10.466  1.00  0.00    -0.502 OA
ATOM     21  H   UNL     1      -9.019 -30.879 -10.586  1.00  0.00     0.293 HD
ENDBRANCH   2  20
BRANCH   6  22
ATOM     22  O   UNL     1     -11.699 -34.125 -13.757  1.00  0.00    -0.507 OA
ATOM     23  H   UNL     1     -10.905 -34.310 -14.353  1.00  0.00     0.293 HD
ENDBRANCH   6  22
BRANCH   8  24
ATOM     24  O   UNL     1     -15.492 -31.885 -15.625  1.00  0.00    -0.508 OA
ATOM     25  H   UNL     1     -16.064 -31.065 -15.788  1.00  0.00     0.293 HD
ENDBRANCH   8  24
TORSDOF 5
ENDMDL
MODEL 4
REMARK VINA RESULT:    -7.416      2.352      3.995
REMARK INTER + INTRA:          -8.705
REMARK INTER:                  -9.278
REMARK INTRA:                   0.574
REMARK UNBOUND:                 0.011
REMARK SMILES O=c1c(O)c(-c2ccc(O)cc2)oc2cc(O)cc(O)c12
REMARK SMILES IDX 5 1 3 2 2 3 1 4 21 5 19 6 18 7 16 8 15 9 14 10 13 11 6 12
REMARK SMILES IDX 7 13 8 14 9 15 12 16 11 17 10 18 4 20 20 22 17 24
REMARK H PARENT 10 19 4 21 20 23 17 25
REMARK Flexibility Score: inf
ROOT
ATOM      1  C   UNL     1     -12.429 -29.473 -11.246  1.00  0.00     0.180 A 
ATOM      2  C   UNL     1     -11.306 -29.432 -10.401  1.00  0.00     0.208 A 
ATOM      3  C   UNL     1     -11.195 -28.390  -9.468  1.00  0.00     0.238 A 
ATOM      4  O   UNL     1     -10.215 -28.389  -8.676  1.00  0.00    -0.285 OA
ATOM      5  C   UNL     1     -12.196 -27.392  -9.402  1.00  0.00     0.111 A 
ATOM      6  C   UNL     1     -12.164 -26.268  -8.523  1.00  0.00     0.134 A 
ATOM      7  C   UNL     1     -13.273 -25.415  -8.452  1.00  0.00     0.093 A 
ATOM      8  C   UNL     1     -14.383 -25.607  -9.274  1.00  0.00     0.123 A 
ATOM      9  C   UNL     1     -14.399 -26.668 -10.180  1.00  0.00     0.094 A 
ATOM     10  C   UNL     1     -13.324 -27.557 -10.248  1.00  0.00     0.146 A 
ATOM     11  O   UNL     1     -13.384 -28.559 -11.116  1.00  0.00    -0.452 OA
ENDROOT
BRANCH   1  12
ATOM     12  C   UNL     1     -12.605 -30.526 -12.272  1.00  0.00     0.021 A 
ATOM     13  C   UNL     1     -11.592 -31.481 -12.465  1.00  0.00     0.016 A 
ATOM     14  C   UNL     1     -11.748 -32.497 -13.412  1.00  0.00     0.047 A 
ATOM     15  C   UNL     1     -12.925 -32.583 -14.166  1.00  0.00     0.115 A 
ATOM     16  C   UNL     1     -13.793 -30.631 -13.019  1.00  0.00     0.016 A 
ATOM     17  C   UNL     1     -13.947 -31.651 -13.964  1.00  0.00     0.047 A 
BRANCH  15  18
ATOM     18  O   UNL     1     -13.092 -33.591 -15.112  1.00  0.00    -0.508 OA
ATOM     19  H   UNL     1     -13.525 -34.476 -14.873  1.00  0.00     0.293 HD
ENDBRANCH  15  18
ENDBRANCH   1  12
BRANCH   2  20
ATOM     20  O   UNL     1     -10.340 -30.440 -10.467  1.00  0.00    -0.502 OA
ATOM     21  H   UNL     1      -9.815 -30.744  -9.657  1.00  0.00     0.293 HD
ENDBRANCH   2  20
BRANCH   6  22
ATOM     22  O   UNL     1     -11.067 -25.932  -7.725  1.00  0.00    -0.507 OA
ATOM     23  H   UNL     1     -10.158 -25.670  -8.077  1.00  0.00     0.293 HD
ENDBRANCH   6  22
BRANCH   8  24
ATOM     24  O   UNL     1     -15.461 -24.729  -9.187  1.00  0.00    -0.508 OA
ATOM     25  H   UNL     1     -15.326 -23.724  -9.182  1.00  0.00     0.293 HD
ENDBRANCH   8  24
TORSDOF 5
ENDMDL
MODEL 5
REMARK VINA RESULT:    -6.823      2.043      3.170
REMARK INTER + INTRA:          -8.008
REMARK INTER:                  -8.444
REMARK INTRA:                   0.436
REMARK UNBOUND:                 0.011
REMARK SMILES O=c1c(O)c(-c2ccc(O)cc2)oc2cc(O)cc(O)c12
REMARK SMILES IDX 5 1 3 2 2 3 1 4 21 5 19 6 18 7 16 8 15 9 14 10 13 11 6 12
REMARK SMILES IDX 7 13 8 14 9 15 12 16 11 17 10 18 4 20 20 22 17 24
REMARK H PARENT 10 19 4 21 20 23 17 25
REMARK Flexibility Score: inf
ROOT
ATOM      1  C   UNL     1     -12.736 -30.383 -12.400  1.00  0.00     0.180 A 
ATOM      2  C   UNL     1     -11.432 -30.352 -11.875  1.00  0.00     0.208 A 
ATOM      3  C   UNL     1     -11.080 -29.325 -10.985  1.00  0.00     0.238 A 
ATOM      4  O   UNL     1      -9.929 -29.334 -10.476  1.00  0.00    -0.285 OA
ATOM      5  C   UNL     1     -12.030 -28.332 -10.646  1.00  0.00     0.111 A 
ATOM      6  C   UNL     1     -11.769 -27.222  -9.786  1.00  0.00     0.134 A 
ATOM      7  C   UNL     1     -12.820 -26.374  -9.415  1.00  0.00     0.093 A 
ATOM      8  C   UNL     1     -14.106 -26.557  -9.923  1.00  0.00     0.123 A 
ATOM      9  C   UNL     1     -14.359 -27.603 -10.811  1.00  0.00     0.094 A 
ATOM     10  C   UNL     1     -13.339 -28.487 -11.171  1.00  0.00     0.146 A 
ATOM     11  O   UNL     1     -13.623 -29.475 -12.010  1.00  0.00    -0.452 OA
ENDROOT
BRANCH   1  12
ATOM     12  C   UNL     1     -13.174 -31.420 -13.362  1.00  0.00     0.021 A 
ATOM     13  C   UNL     1     -12.520 -32.664 -13.383  1.00  0.00     0.016 A 
ATOM     14  C   UNL     1     -12.932 -33.666 -14.267  1.00  0.00     0.047 A 
ATOM     15  C   UNL     1     -14.014 -33.443 -15.129  1.00  0.00     0.115 A 
ATOM     16  C   UNL     1     -14.272 -31.211 -14.216  1.00  0.00     0.016 A 
ATOM     17  C   UNL     1     -14.682 -32.216 -15.099  1.00  0.00     0.047 A 
BRANCH  15  18
ATOM     18  O   UNL     1     -14.433 -34.433 -16.014  1.00  0.00    -0.508 OA
ATOM     19  H   UNL     1     -14.270 -35.415 -15.826  1.00  0.00     0.293 HD
ENDBRANCH  15  18
ENDBRANCH   1  12
BRANCH   2  20
ATOM     20  O   UNL     1     -10.517 -31.355 -12.207  1.00  0.00    -0.502 OA
ATOM     21  H   UNL     1      -9.664 -31.165 -12.718  1.00  0.00     0.293 HD
ENDBRANCH   2  20
BRANCH   6  22
ATOM     22  O   UNL     1     -10.502 -26.896  -9.295  1.00  0.00    -0.507 OA
ATOM     23  H   UNL     1      -9.632 -27.222  -9.688  1.00  0.00     0.293 HD
ENDBRANCH   6  22
BRANCH   8  24
ATOM     24  O   UNL     1     -15.124 -25.684  -9.545  1.00  0.00    -0.508 OA
ATOM     25  H   UNL     1     -15.890 -25.461 -10.170  1.00  0.00     0.293 HD
ENDBRANCH   8  24
TORSDOF 5
ENDMDL
MODEL 6
REMARK VINA RESULT:    -6.573      1.790      7.130
REMARK INTER + INTRA:          -7.714
REMARK INTER:                  -7.524
REMARK INTRA:                  -0.191
REMARK UNBOUND:                 0.011
REMARK SMILES O=c1c(O)c(-c2ccc(O)cc2)oc2cc(O)cc(O)c12
REMARK SMILES IDX 5 1 3 2 2 3 1 4 21 5 19 6 18 7 16 8 15 9 14 10 13 11 6 12
REMARK SMILES IDX 7 13 8 14 9 15 12 16 11 17 10 18 4 20 20 22 17 24
REMARK H PARENT 10 19 4 21 20 23 17 25
REMARK Flexibility Score: inf
ROOT
ATOM      1  C   UNL     1     -12.759 -30.562 -12.621  1.00  0.00     0.180 A 
ATOM      2  C   UNL     1     -11.480 -31.002 -12.236  1.00  0.00     0.208 A 
ATOM      3  C   UNL     1     -11.041 -32.267 -12.655  1.00  0.00     0.238 A 
ATOM      4  O   UNL     1      -9.875 -32.633 -12.353  1.00  0.00    -0.285 OA
ATOM      5  C   UNL     1     -11.891 -33.084 -13.438  1.00  0.00     0.111 A 
ATOM      6  C   UNL     1     -11.564 -34.401 -13.884  1.00  0.00     0.134 A 
ATOM      7  C   UNL     1     -12.428 -35.065 -14.764  1.00  0.00     0.093 A 
ATOM      8  C   UNL     1     -13.634 -34.490 -15.161  1.00  0.00     0.123 A 
ATOM      9  C   UNL     1     -13.991 -33.229 -14.683  1.00  0.00     0.094 A 
ATOM     10  C   UNL     1     -13.134 -32.525 -13.834  1.00  0.00     0.146 A 
ATOM     11  O   UNL     1     -13.506 -31.323 -13.411  1.00  0.00    -0.452 OA
ENDROOT
BRANCH   1  12
ATOM     12  C   UNL     1     -13.301 -29.250 -12.198  1.00  0.00     0.021 A 
ATOM     13  C   UNL     1     -13.648 -29.046 -10.851  1.00  0.00     0.016 A 
ATOM     14  C   UNL     1     -14.141 -27.808 -10.427  1.00  0.00     0.047 A 
ATOM     15  C   UNL     1     -14.276 -26.754 -11.339  1.00  0.00     0.115 A 
ATOM     16  C   UNL     1     -13.422 -28.180 -13.104  1.00  0.00     0.016 A 
ATOM     17  C   UNL     1     -13.913 -26.943 -12.675  1.00  0.00     0.047 A 
BRANCH  15  18
ATOM     18  O   UNL     1     -14.766 -25.517 -10.927  1.00  0.00    -0.508 OA
ATOM     19  H   UNL     1     -15.524 -25.057 -11.419  1.00  0.00     0.293 HD
ENDBRANCH  15  18
ENDBRANCH   1  12
BRANCH   2  20
ATOM     20  O   UNL     1     -10.649 -30.170 -11.480  1.00  0.00    -0.502 OA
ATOM     21  H   UNL     1     -10.668 -30.158 -10.467  1.00  0.00     0.293 HD
ENDBRANCH   2  20
BRANCH   6  22
ATOM     22  O   UNL     1     -10.428 -35.103 -13.475  1.00  0.00    -0.507 OA
ATOM     23  H   UNL     1      -9.500 -34.713 -13.417  1.00  0.00     0.293 HD
ENDBRANCH   6  22
BRANCH   8  24
ATOM     24  O   UNL     1     -14.476 -35.188 -16.025  1.00  0.00    -0.508 OA
ATOM     25  H   UNL     1     -15.483 -35.086 -15.979  1.00  0.00     0.293 HD
ENDBRANCH   8  24
TORSDOF 5
ENDMDL
MODEL 7
REMARK VINA RESULT:    -6.531      1.412      1.683
REMARK INTER + INTRA:          -7.665
REMARK INTER:                  -7.921
REMARK INTRA:                   0.256
REMARK UNBOUND:                 0.011
REMARK SMILES O=c1c(O)c(-c2ccc(O)cc2)oc2cc(O)cc(O)c12
REMARK SMILES IDX 5 1 3 2 2 3 1 4 21 5 19 6 18 7 16 8 15 9 14 10 13 11 6 12
REMARK SMILES IDX 7 13 8 14 9 15 12 16 11 17 10 18 4 20 20 22 17 24
REMARK H PARENT 10 19 4 21 20 23 17 25
REMARK Flexibility Score: inf
ROOT
ATOM      1  C   UNL     1     -12.845 -30.360 -12.603  1.00  0.00     0.180 A 
ATOM      2  C   UNL     1     -13.723 -29.571 -13.367  1.00  0.00     0.208 A 
ATOM      3  C   UNL     1     -14.125 -28.322 -12.869  1.00  0.00     0.238 A 
ATOM      4  O   UNL     1     -14.868 -27.598 -13.582  1.00  0.00    -0.285 OA
ATOM      5  C   UNL     1     -13.659 -27.884 -11.607  1.00  0.00     0.111 A 
ATOM      6  C   UNL     1     -14.034 -26.654 -10.987  1.00  0.00     0.134 A 
ATOM      7  C   UNL     1     -13.409 -26.262  -9.796  1.00  0.00     0.093 A 
ATOM      8  C   UNL     1     -12.473 -27.084  -9.170  1.00  0.00     0.123 A 
ATOM      9  C   UNL     1     -12.143 -28.316  -9.736  1.00  0.00     0.094 A 
ATOM     10  C   UNL     1     -12.722 -28.718 -10.942  1.00  0.00     0.146 A 
ATOM     11  O   UNL     1     -12.373 -29.892 -11.453  1.00  0.00    -0.452 OA
ENDROOT
BRANCH   1  12
ATOM     12  C   UNL     1     -12.395 -31.698 -13.050  1.00  0.00     0.021 A 
ATOM     13  C   UNL     1     -11.140 -32.179 -12.640  1.00  0.00     0.016 A 
ATOM     14  C   UNL     1     -10.706 -33.449 -13.032  1.00  0.00     0.047 A 
ATOM     15  C   UNL     1     -11.527 -34.261 -13.825  1.00  0.00     0.115 A 
ATOM     16  C   UNL     1     -13.223 -32.526 -13.831  1.00  0.00     0.016 A 
ATOM     17  C   UNL     1     -12.786 -33.797 -14.220  1.00  0.00     0.047 A 
BRANCH  15  18
ATOM     18  O   UNL     1     -11.106 -35.527 -14.222  1.00  0.00    -0.508 OA
ATOM     19  H   UNL     1     -10.121 -35.756 -14.303  1.00  0.00     0.293 HD
ENDBRANCH  15  18
ENDBRANCH   1  12
BRANCH   2  20
ATOM     20  O   UNL     1     -14.154 -30.014 -14.621  1.00  0.00    -0.502 OA
ATOM     21  H   UNL     1     -14.551 -29.389 -15.311  1.00  0.00     0.293 HD
ENDBRANCH   2  20
BRANCH   6  22
ATOM     22  O   UNL     1     -15.025 -25.802 -11.481  1.00  0.00    -0.507 OA
ATOM     23  H   UNL     1     -15.318 -25.758 -12.445  1.00  0.00     0.293 HD
ENDBRANCH   6  22
BRANCH   8  24
ATOM     24  O   UNL     1     -11.883 -26.669  -7.978  1.00  0.00    -0.508 OA
ATOM     25  H   UNL     1     -10.892 -26.792  -7.806  1.00  0.00     0.293 HD
ENDBRANCH   8  24
TORSDOF 5
ENDMDL
