MODEL 1
REMARK VINA RESULT:    -4.564      0.000      0.000
REMARK INTER + INTRA:          -7.296
REMARK INTER:                  -6.165
REMARK INTRA:                  -1.131
REMARK UNBOUND:                -1.131
REMARK SMILES CC(=O)CCC=C(C)CCC=C(C)C
REMARK SMILES IDX 7 1 6 2 8 3 9 4 10 5 11 6 13 7 12 8 14 9 5 10 4 11 2 12 3 13
REMARK SMILES IDX 1 14
REMARK H PARENT
REMARK Flexibility Score: inf
ROOT
ATOM      1  C   UNL     1      39.416 -40.528  -2.906  1.00  0.00    -0.077 C 
ATOM      2  C   UNL     1      39.813 -41.228  -1.818  1.00  0.00    -0.028 C 
ATOM      3  C   UNL     1      39.094 -39.054  -2.832  1.00  0.00     0.039 C 
ENDROOT
BRANCH   1   4
ATOM      4  C   UNL     1      39.270 -41.248  -4.229  1.00  0.00     0.034 C 
BRANCH   4   5
ATOM      5  C   UNL     1      40.128 -40.581  -5.311  1.00  0.00     0.032 C 
BRANCH   5   6
ATOM      6  C   UNL     1      41.333 -41.424  -5.651  1.00  0.00    -0.028 C 
ATOM      7  C   UNL     1      42.866 -39.881  -4.423  1.00  0.00     0.039 C 
ATOM      8  C   UNL     1      42.585 -41.112  -5.249  1.00  0.00    -0.080 C 
ATOM      9  C   UNL     1      43.743 -41.999  -5.625  1.00  0.00     0.039 C 
ENDBRANCH   5   6
ENDBRANCH   4   5
ENDBRANCH   1   4
BRANCH   2  10
ATOM     10  C   UNL     1      40.046 -40.626  -0.454  1.00  0.00     0.035 C 
BRANCH  10  11
ATOM     11  C   UNL     1      41.453 -40.972   0.053  1.00  0.00     0.079 C 
BRANCH  11  12
ATOM     12  C   UNL     1      42.570 -40.226  -0.644  1.00  0.00     0.130 C 
ATOM     13  O   UNL     1      43.462 -40.876  -1.168  1.00  0.00    -0.300 OA
ATOM     14  C   UNL     1      42.626 -38.725  -0.726  1.00  0.00     0.087 C 
ENDBRANCH  11  12
ENDBRANCH  10  11
ENDBRANCH   2  10
TORSDOF 6
ENDMDL
MODEL 2
REMARK VINA RESULT:    -4.408      4.347      6.239
REMARK INTER + INTRA:          -7.084
REMARK INTER:                  -6.604
REMARK INTRA:                  -0.480
REMARK UNBOUND:                -1.131
REMARK SMILES CC(=O)CCC=C(C)CCC=C(C)C
REMARK SMILES IDX 7 1 6 2 8 3 9 4 10 5 11 6 13 7 12 8 14 9 5 10 4 11 2 12 3 13
REMARK SMILES IDX 1 14
REMARK H PARENT
REMARK Flexibility Score: inf
ROOT
ATOM      1  C   UNL     1      38.323 -40.440  -5.073  1.00  0.00    -0.077 C 
ATOM      2  C   UNL     1      38.525 -39.566  -6.087  1.00  0.00    -0.028 C 
ATOM      3  C   UNL     1      36.977 -40.586  -4.403  1.00  0.00     0.039 C 
ENDROOT
BRANCH   1   4
ATOM      4  C   UNL     1      39.485 -41.279  -4.585  1.00  0.00     0.034 C 
BRANCH   4   5
ATOM      5  C   UNL     1      40.821 -40.600  -4.909  1.00  0.00     0.032 C 
BRANCH   5   6
ATOM      6  C   UNL     1      41.674 -41.468  -5.803  1.00  0.00    -0.028 C 
ATOM      7  C   UNL     1      43.683 -41.127  -4.360  1.00  0.00     0.039 C 
ATOM      8  C   UNL     1      42.980 -41.713  -5.559  1.00  0.00    -0.080 C 
ATOM      9  C   UNL     1      43.772 -42.590  -6.494  1.00  0.00     0.039 C 
ENDBRANCH   5   6
ENDBRANCH   4   5
ENDBRANCH   1   4
BRANCH   2  10
ATOM     10  C   UNL     1      37.447 -38.707  -6.701  1.00  0.00     0.035 C 
BRANCH  10  11
ATOM     11  C   UNL     1      37.336 -38.979  -8.208  1.00  0.00     0.079 C 
BRANCH  11  12
ATOM     12  C   UNL     1      36.258 -38.183  -8.909  1.00  0.00     0.130 C 
ATOM     13  O   UNL     1      35.401 -38.790  -9.532  1.00  0.00    -0.300 OA
ATOM     14  C   UNL     1      36.191 -36.680  -8.868  1.00  0.00     0.087 C 
ENDBRANCH  11  12
ENDBRANCH  10  11
ENDBRANCH   2  10
TORSDOF 6
ENDMDL
MODEL 3
REMARK VINA RESULT:    -4.253      1.738      3.989
REMARK INTER + INTRA:          -6.876
REMARK INTER:                  -6.106
REMARK INTRA:                  -0.770
REMARK UNBOUND:                -1.131
REMARK SMILES CC(=O)CCC=C(C)CCC=C(C)C
REMARK SMILES IDX 7 1 6 2 8 3 9 4 10 5 11 6 13 7 12 8 14 9 5 10 4 11 2 12 3 13
REMARK SMILES IDX 1 14
REMARK H PARENT
REMARK Flexibility Score: inf
ROOT
ATOM      1  C   UNL     1      42.173 -40.714  -4.881  1.00  0.00    -0.077 C 
ATOM      2  C   UNL     1      41.998 -39.571  -4.179  1.00  0.00    -0.028 C 
ATOM      3  C   UNL     1      43.521 -41.387  -4.987  1.00  0.00     0.039 C 
ENDROOT
BRANCH   1   4
ATOM      4  C   UNL     1      40.987 -41.325  -5.597  1.00  0.00     0.034 C 
BRANCH   4   5
ATOM      5  C   UNL     1      39.678 -40.674  -5.135  1.00  0.00     0.032 C 
BRANCH   5   6
ATOM      6  C   UNL     1      39.032 -39.890  -6.252  1.00  0.00    -0.028 C 
ATOM      7  C   UNL     1      37.023 -39.391  -4.854  1.00  0.00     0.039 C 
ATOM      8  C   UNL     1      37.822 -39.301  -6.131  1.00  0.00    -0.080 C 
ATOM      9  C   UNL     1      37.236 -38.532  -7.287  1.00  0.00     0.039 C 
ENDBRANCH   5   6
ENDBRANCH   4   5
ENDBRANCH   1   4
BRANCH   2  10
ATOM     10  C   UNL     1      43.080 -38.885  -3.382  1.00  0.00     0.035 C 
BRANCH  10  11
ATOM     11  C   UNL     1      42.728 -38.885  -1.887  1.00  0.00     0.079 C 
BRANCH  11  12
ATOM     12  C   UNL     1      42.603 -40.262  -1.274  1.00  0.00     0.130 C 
ATOM     13  O   UNL     1      43.593 -40.978  -1.250  1.00  0.00    -0.300 OA
ATOM     14  C   UNL     1      41.320 -40.785  -0.687  1.00  0.00     0.087 C 
ENDBRANCH  11  12
ENDBRANCH  10  11
ENDBRANCH   2  10
TORSDOF 6
ENDMDL
MODEL 4
REMARK VINA RESULT:    -4.235      3.187      5.016
REMARK INTER + INTRA:          -6.851
REMARK INTER:                  -6.003
REMARK INTRA:                  -0.848
REMARK UNBOUND:                -1.131
REMARK SMILES CC(=O)CCC=C(C)CCC=C(C)C
REMARK SMILES IDX 7 1 6 2 8 3 9 4 10 5 11 6 13 7 12 8 14 9 5 10 4 11 2 12 3 13
REMARK SMILES IDX 1 14
REMARK H PARENT
REMARK Flexibility Score: inf
ROOT
ATOM      1  C   UNL     1      41.617 -37.931  -4.110  1.00  0.00    -0.077 C 
ATOM      2  C   UNL     1      40.424 -38.558  -4.230  1.00  0.00    -0.028 C 
ATOM      3  C   UNL     1      41.781 -36.464  -4.426  1.00  0.00     0.039 C 
ENDROOT
BRANCH   1   4
ATOM      4  C   UNL     1      42.824 -38.730  -3.667  1.00  0.00     0.034 C 
BRANCH   4   5
ATOM      5  C   UNL     1      42.491 -40.224  -3.591  1.00  0.00     0.032 C 
BRANCH   5   6
ATOM      6  C   UNL     1      43.400 -41.034  -4.485  1.00  0.00    -0.028 C 
ATOM      7  C   UNL     1      41.506 -41.659  -5.988  1.00  0.00     0.039 C 
ATOM      8  C   UNL     1      42.958 -41.690  -5.580  1.00  0.00    -0.080 C 
ATOM      9  C   UNL     1      43.921 -42.480  -6.428  1.00  0.00     0.039 C 
ENDBRANCH   5   6
ENDBRANCH   4   5
ENDBRANCH   1   4
BRANCH   2  10
ATOM     10  C   UNL     1      39.135 -37.874  -4.614  1.00  0.00     0.035 C 
BRANCH  10  11
ATOM     11  C   UNL     1      38.972 -37.852  -6.141  1.00  0.00     0.079 C 
BRANCH  11  12
ATOM     12  C   UNL     1      38.345 -39.101  -6.721  1.00  0.00     0.130 C 
ATOM     13  O   UNL     1      37.677 -39.811  -5.984  1.00  0.00    -0.300 OA
ATOM     14  C   UNL     1      38.502 -39.503  -8.162  1.00  0.00     0.087 C 
ENDBRANCH  11  12
ENDBRANCH  10  11
ENDBRANCH   2  10
TORSDOF 6
ENDMDL
MODEL 5
REMARK VINA RESULT:    -4.228      2.657      4.418
REMARK INTER + INTRA:          -6.842
REMARK INTER:                  -5.840
REMARK INTRA:                  -1.002
REMARK UNBOUND:                -1.131
REMARK SMILES CC(=O)CCC=C(C)CCC=C(C)C
REMARK SMILES IDX 7 1 6 2 8 3 9 4 10 5 11 6 13 7 12 8 14 9 5 10 4 11 2 12 3 13
REMARK SMILES IDX 1 14
REMARK H PARENT
REMARK Flexibility Score: inf
ROOT
ATOM      1  C   UNL     1      40.443 -40.309  -2.220  1.00  0.00    -0.077 C 
ATOM      2  C   UNL     1      39.619 -39.509  -2.935  1.00  0.00    -0.028 C 
ATOM      3  C   UNL     1      39.913 -41.398  -1.318  1.00  0.00     0.039 C 
ENDROOT
BRANCH   1   4
ATOM      4  C   UNL     1      41.939 -40.090  -2.311  1.00  0.00     0.034 C 
BRANCH   4   5
ATOM      5  C   UNL     1      42.326 -39.545  -3.690  1.00  0.00     0.032 C 
BRANCH   5   6
ATOM      6  C   UNL     1      43.220 -40.511  -4.430  1.00  0.00    -0.028 C 
ATOM      7  C   UNL     1      41.305 -41.385  -5.775  1.00  0.00     0.039 C 
ATOM      8  C   UNL     1      42.762 -41.353  -5.382  1.00  0.00    -0.080 C 
ATOM      9  C   UNL     1      43.710 -42.292  -6.082  1.00  0.00     0.039 C 
ENDBRANCH   5   6
ENDBRANCH   4   5
ENDBRANCH   1   4
BRANCH   2  10
ATOM     10  C   UNL     1      38.117 -39.649  -2.975  1.00  0.00     0.035 C 
BRANCH  10  11
ATOM     11  C   UNL     1      37.677 -40.364  -4.261  1.00  0.00     0.079 C 
BRANCH  11  12
ATOM     12  C   UNL     1      37.289 -39.436  -5.391  1.00  0.00     0.130 C 
ATOM     13  O   UNL     1      36.488 -38.544  -5.159  1.00  0.00    -0.300 OA
ATOM     14  C   UNL     1      37.849 -39.560  -6.782  1.00  0.00     0.087 C 
ENDBRANCH  11  12
ENDBRANCH  10  11
ENDBRANCH   2  10
TORSDOF 6
ENDMDL
MODEL 6
REMARK VINA RESULT:    -4.118      1.549      3.371
REMARK INTER + INTRA:          -6.693
REMARK INTER:                  -5.537
REMARK INTRA:                  -1.155
REMARK UNBOUND:                -1.131
REMARK SMILES CC(=O)CCC=C(C)CCC=C(C)C
REMARK SMILES IDX 7 1 6 2 8 3 9 4 10 5 11 6 13 7 12 8 14 9 5 10 4 11 2 12 3 13
REMARK SMILES IDX 1 14
REMARK H PARENT
REMARK Flexibility Score: inf
ROOT
ATOM      1  C   UNL     1      42.779 -39.848  -3.947  1.00  0.00    -0.077 C 
ATOM      2  C   UNL     1      42.832 -40.502  -2.763  1.00  0.00    -0.028 C 
ATOM      3  C   UNL     1      42.541 -38.359  -4.026  1.00  0.00     0.039 C 
ENDROOT
BRANCH   1   4
ATOM      4  C   UNL     1      42.942 -40.637  -5.229  1.00  0.00     0.034 C 
BRANCH   4   5
ATOM      5  C   UNL     1      41.716 -41.522  -5.484  1.00  0.00     0.032 C 
BRANCH   5   6
ATOM      6  C   UNL     1      40.529 -40.700  -5.925  1.00  0.00    -0.028 C 
ATOM      7  C   UNL     1      39.274 -41.233  -3.832  1.00  0.00     0.039 C 
ATOM      8  C   UNL     1      39.413 -40.563  -5.177  1.00  0.00    -0.080 C 
ATOM      9  C   UNL     1      38.264 -39.726  -5.679  1.00  0.00     0.039 C 
ENDBRANCH   5   6
ENDBRANCH   4   5
ENDBRANCH   1   4
BRANCH   2  10
ATOM     10  C   UNL     1      42.734 -39.834  -1.414  1.00  0.00     0.035 C 
BRANCH  10  11
ATOM     11  C   UNL     1      41.308 -39.954  -0.857  1.00  0.00     0.079 C 
BRANCH  11  12
ATOM     12  C   UNL     1      40.996 -41.291  -0.221  1.00  0.00     0.130 C 
ATOM     13  O   UNL     1      39.900 -41.789  -0.426  1.00  0.00    -0.300 OA
ATOM     14  C   UNL     1      41.976 -42.035   0.644  1.00  0.00     0.087 C 
ENDBRANCH  11  12
ENDBRANCH  10  11
ENDBRANCH   2  10
TORSDOF 6
ENDMDL
MODEL 7
REMARK VINA RESULT:    -4.105      2.573      5.578
REMARK INTER + INTRA:          -6.676
REMARK INTER:                  -5.875
REMARK INTRA:                  -0.801
REMARK UNBOUND:                -1.131
REMARK SMILES CC(=O)CCC=C(C)CCC=C(C)C
REMARK SMILES IDX 7 1 6 2 8 3 9 4 10 5 11 6 13 7 12 8 14 9 5 10 4 11 2 12 3 13
REMARK SMILES IDX 1 14
REMARK H PARENT
REMARK Flexibility Score: inf
ROOT
ATOM      1  C   UNL     1      42.513 -40.876  -4.506  1.00  0.00    -0.077 C 
ATOM      2  C   UNL     1      41.193 -40.578  -4.483  1.00  0.00    -0.028 C 
ATOM      3  C   UNL     1      43.141 -41.626  -5.656  1.00  0.00     0.039 C 
ENDROOT
BRANCH   1   4
ATOM      4  C   UNL     1      43.378 -40.463  -3.334  1.00  0.00     0.034 C 
BRANCH   4   5
ATOM      5  C   UNL     1      42.537 -39.779  -2.250  1.00  0.00     0.032 C 
BRANCH   5   6
ATOM      6  C   UNL     1      42.671 -40.490  -0.924  1.00  0.00    -0.028 C 
ATOM      7  C   UNL     1      40.250 -41.104  -0.912  1.00  0.00     0.039 C 
ATOM      8  C   UNL     1      41.633 -41.096  -0.308  1.00  0.00    -0.080 C 
ATOM      9  C   UNL     1      41.837 -41.788   1.015  1.00  0.00     0.039 C 
ENDBRANCH   5   6
ENDBRANCH   4   5
ENDBRANCH   1   4
BRANCH   2  10
ATOM     10  C   UNL     1      40.229 -40.886  -5.602  1.00  0.00     0.035 C 
BRANCH  10  11
ATOM     11  C   UNL     1      39.330 -39.674  -5.887  1.00  0.00     0.079 C 
BRANCH  11  12
ATOM     12  C   UNL     1      37.874 -39.877  -5.529  1.00  0.00     0.130 C 
ATOM     13  O   UNL     1      37.066 -39.035  -5.888  1.00  0.00    -0.300 OA
ATOM     14  C   UNL     1      37.379 -41.071  -4.758  1.00  0.00     0.087 C 
ENDBRANCH  11  12
ENDBRANCH  10  11
ENDBRANCH   2  10
TORSDOF 6
ENDMDL
MODEL 8
REMARK VINA RESULT:    -4.084      4.376      6.063
REMARK INTER + INTRA:          -6.647
REMARK INTER:                  -5.874
REMARK INTRA:                  -0.773
REMARK UNBOUND:                -1.131
REMARK SMILES CC(=O)CCC=C(C)CCC=C(C)C
REMARK SMILES IDX 7 1 6 2 8 3 9 4 10 5 11 6 13 7 12 8 14 9 5 10 4 11 2 12 3 13
REMARK SMILES IDX 1 14
REMARK H PARENT
REMARK Flexibility Score: inf
ROOT
ATOM      1  C   UNL     1      38.984 -38.715  -6.257  1.00  0.00    -0.077 C 
ATOM      2  C   UNL     1      38.464 -38.300  -7.436  1.00  0.00    -0.028 C 
ATOM      3  C   UNL     1      39.613 -37.751  -5.280  1.00  0.00     0.039 C 
ENDROOT
BRANCH   1   4
ATOM      4  C   UNL     1      38.952 -40.190  -5.920  1.00  0.00     0.034 C 
BRANCH   4   5
ATOM      5  C   UNL     1      40.063 -40.546  -4.925  1.00  0.00     0.032 C 
BRANCH   5   6
ATOM      6  C   UNL     1      41.212 -41.245  -5.613  1.00  0.00    -0.028 C 
ATOM      7  C   UNL     1      42.861 -40.330  -3.976  1.00  0.00     0.039 C 
ATOM      8  C   UNL     1      42.490 -41.152  -5.185  1.00  0.00    -0.080 C 
ATOM      9  C   UNL     1      43.587 -41.878  -5.919  1.00  0.00     0.039 C 
ENDBRANCH   5   6
ENDBRANCH   4   5
ENDBRANCH   1   4
BRANCH   2  10
ATOM     10  C   UNL     1      38.386 -36.858  -7.874  1.00  0.00     0.035 C 
BRANCH  10  11
ATOM     11  C   UNL     1      39.363 -36.594  -9.030  1.00  0.00     0.079 C 
BRANCH  11  12
ATOM     12  C   UNL     1      40.384 -35.514  -8.752  1.00  0.00     0.130 C 
ATOM     13  O   UNL     1      41.087 -35.129  -9.674  1.00  0.00    -0.300 OA
ATOM     14  C   UNL     1      40.568 -34.890  -7.395  1.00  0.00     0.087 C 
ENDBRANCH  11  12
ENDBRANCH  10  11
ENDBRANCH   2  10
TORSDOF 6
ENDMDL
MODEL 9
REMARK VINA RESULT:    -4.066      2.392      5.282
REMARK INTER + INTRA:          -6.624
REMARK INTER:                  -5.677
REMARK INTRA:                  -0.947
REMARK UNBOUND:                -1.131
REMARK SMILES CC(=O)CCC=C(C)CCC=C(C)C
REMARK SMILES IDX 7 1 6 2 8 3 9 4 10 5 11 6 13 7 12 8 14 9 5 10 4 11 2 12 3 13
REMARK SMILES IDX 1 14
REMARK H PARENT
REMARK Flexibility Score: inf
ROOT
ATOM      1  C   UNL     1      42.243 -40.200  -4.440  1.00  0.00    -0.077 C 
ATOM      2  C   UNL     1      40.890 -40.184  -4.395  1.00  0.00    -0.028 C 
ATOM      3  C   UNL     1      43.003 -41.267  -5.190  1.00  0.00     0.039 C 
ENDROOT
BRANCH   1   4
ATOM      4  C   UNL     1      43.014 -39.127  -3.700  1.00  0.00     0.034 C 
BRANCH   4   5
ATOM      5  C   UNL     1      42.398 -38.867  -2.321  1.00  0.00     0.032 C 
BRANCH   5   6
ATOM      6  C   UNL     1      42.878 -39.878  -1.307  1.00  0.00    -0.028 C 
ATOM      7  C   UNL     1      40.550 -40.666  -0.864  1.00  0.00     0.039 C 
ATOM      8  C   UNL     1      42.041 -40.702  -0.639  1.00  0.00    -0.080 C 
ATOM      9  C   UNL     1      42.589 -41.689   0.359  1.00  0.00     0.039 C 
ENDBRANCH   5   6
ENDBRANCH   4   5
ENDBRANCH   1   4
BRANCH   2  10
ATOM     10  C   UNL     1      40.001 -41.160  -5.125  1.00  0.00     0.035 C 
BRANCH  10  11
ATOM     11  C   UNL     1      38.634 -41.263  -4.433  1.00  0.00     0.079 C 
BRANCH  11  12
ATOM     12  C   UNL     1      37.579 -40.334  -4.992  1.00  0.00     0.130 C 
ATOM     13  O   UNL     1      36.589 -40.106  -4.313  1.00  0.00    -0.300 OA
ATOM     14  C   UNL     1      37.698 -39.674  -6.338  1.00  0.00     0.087 C 
ENDBRANCH  11  12
ENDBRANCH  10  11
ENDBRANCH   2  10
TORSDOF 6
ENDMDL
