MODEL 1
REMARK VINA RESULT:    -4.820      0.000      0.000
REMARK INTER + INTRA:          -5.274
REMARK INTER:                  -5.242
REMARK INTRA:                  -0.031
REMARK UNBOUND:                -0.031
REMARK SMILES COc1ccccc1O
REMARK SMILES IDX 3 1 4 2 5 3 6 4 7 5 8 6 2 7 1 8 9 9
REMARK H PARENT 9 10
REMARK Flexibility Score: inf
ROOT
ATOM      1  C   UNL     1      11.387 -10.954  47.605  1.00  0.00     0.160 A 
ATOM      2  C   UNL     1      11.361 -11.339  48.962  1.00  0.00     0.050 A 
ATOM      3  C   UNL     1      12.442 -12.028  49.519  1.00  0.00     0.004 A 
ATOM      4  C   UNL     1      13.556 -12.338  48.735  1.00  0.00     0.004 A 
ATOM      5  C   UNL     1      13.591 -11.961  47.391  1.00  0.00     0.050 A 
ATOM      6  C   UNL     1      12.510 -11.270  46.824  1.00  0.00     0.157 A 
ENDROOT
BRANCH   1   7
ATOM      7  O   UNL     1      10.325 -10.261  47.004  1.00  0.00    -0.493 OA
ATOM      8  C   UNL     1       8.950 -10.494  47.288  1.00  0.00     0.278 C 
ENDBRANCH   1   7
BRANCH   6   9
ATOM      9  O   UNL     1      12.543 -10.892  45.483  1.00  0.00    -0.504 OA
ATOM     10  H   UNL     1      12.066 -11.430  44.768  1.00  0.00     0.293 HD
ENDBRANCH   6   9
TORSDOF 2
ENDMDL
MODEL 2
REMARK VINA RESULT:    -4.687      2.373      3.141
REMARK INTER + INTRA:          -5.130
REMARK INTER:                  -5.093
REMARK INTRA:                  -0.037
REMARK UNBOUND:                -0.031
REMARK SMILES COc1ccccc1O
REMARK SMILES IDX 3 1 4 2 5 3 6 4 7 5 8 6 2 7 1 8 9 9
REMARK H PARENT 9 10
REMARK Flexibility Score: inf
ROOT
ATOM      1  C   UNL     1      11.945 -11.214  49.226  1.00  0.00     0.160 A 
ATOM      2  C   UNL     1      11.219 -10.777  48.099  1.00  0.00     0.050 A 
ATOM      3  C   UNL     1      11.665 -11.086  46.811  1.00  0.00     0.004 A 
ATOM      4  C   UNL     1      12.832 -11.832  46.633  1.00  0.00     0.004 A 
ATOM      5  C   UNL     1      13.558 -12.269  47.742  1.00  0.00     0.050 A 
ATOM      6  C   UNL     1      13.119 -11.962  49.038  1.00  0.00     0.157 A 
ENDROOT
BRANCH   1   7
ATOM      7  O   UNL     1      11.536 -10.926  50.537  1.00  0.00    -0.493 OA
ATOM      8  C   UNL     1      11.854  -9.727  51.235  1.00  0.00     0.278 C 
ENDBRANCH   1   7
BRANCH   6   9
ATOM      9  O   UNL     1      13.841 -12.398  50.147  1.00  0.00    -0.504 OA
ATOM     10  H   UNL     1      13.776 -11.926  51.042  1.00  0.00     0.293 HD
ENDBRANCH   6   9
TORSDOF 2
ENDMDL
MODEL 3
REMARK VINA RESULT:    -4.566     17.140     17.369
REMARK INTER + INTRA:          -4.998
REMARK INTER:                  -4.969
REMARK INTRA:                  -0.029
REMARK UNBOUND:                -0.031
REMARK SMILES COc1ccccc1O
REMARK SMILES IDX 3 1 4 2 5 3 6 4 7 5 8 6 2 7 1 8 9 9
REMARK H PARENT 9 10
REMARK Flexibility Score: inf
ROOT
ATOM      1  C   UNL     1       8.290   0.920  35.910  1.00  0.00     0.160 A 
ATOM      2  C   UNL     1       8.563   0.181  34.740  1.00  0.00     0.050 A 
ATOM      3  C   UNL     1       9.873   0.074  34.265  1.00  0.00     0.004 A 
ATOM      4  C   UNL     1      10.920   0.696  34.948  1.00  0.00     0.004 A 
ATOM      5  C   UNL     1      10.660   1.430  36.107  1.00  0.00     0.050 A 
ATOM      6  C   UNL     1       9.348   1.544  36.591  1.00  0.00     0.157 A 
ENDROOT
BRANCH   1   7
ATOM      7  O   UNL     1       6.990   1.055  36.423  1.00  0.00    -0.493 OA
ATOM      8  C   UNL     1       5.962   0.082  36.276  1.00  0.00     0.278 C 
ENDBRANCH   1   7
BRANCH   6   9
ATOM      9  O   UNL     1       9.086   2.275  37.748  1.00  0.00    -0.504 OA
ATOM     10  H   UNL     1       9.129   3.288  37.756  1.00  0.00     0.293 HD
ENDBRANCH   6   9
TORSDOF 2
ENDMDL
MODEL 4
REMARK VINA RESULT:    -4.540     17.220     17.660
REMARK INTER + INTRA:          -4.970
REMARK INTER:                  -4.941
REMARK INTRA:                  -0.028
REMARK UNBOUND:                -0.031
REMARK SMILES COc1ccccc1O
REMARK SMILES IDX 3 1 4 2 5 3 6 4 7 5 8 6 2 7 1 8 9 9
REMARK H PARENT 9 10
REMARK Flexibility Score: inf
ROOT
ATOM      1  C   UNL     1      10.376   1.253  35.728  1.00  0.00     0.160 A 
ATOM      2  C   UNL     1      10.294   0.433  34.584  1.00  0.00     0.050 A 
ATOM      3  C   UNL     1       9.072  -0.131  34.207  1.00  0.00     0.004 A 
ATOM      4  C   UNL     1       7.923   0.117  34.961  1.00  0.00     0.004 A 
ATOM      5  C   UNL     1       7.994   0.928  36.095  1.00  0.00     0.050 A 
ATOM      6  C   UNL     1       9.216   1.497  36.482  1.00  0.00     0.157 A 
ENDROOT
BRANCH   1   7
ATOM      7  O   UNL     1      11.582   1.839  36.144  1.00  0.00    -0.493 OA
ATOM      8  C   UNL     1      12.874   1.340  35.817  1.00  0.00     0.278 C 
ENDBRANCH   1   7
BRANCH   6   9
ATOM      9  O   UNL     1       9.289   2.307  37.613  1.00  0.00    -0.504 OA
ATOM     10  H   UNL     1       9.421   3.310  37.540  1.00  0.00     0.293 HD
ENDBRANCH   6   9
TORSDOF 2
ENDMDL
MODEL 5
REMARK VINA RESULT:    -4.522      1.510      2.449
REMARK INTER + INTRA:          -4.950
REMARK INTER:                  -4.923
REMARK INTRA:                  -0.027
REMARK UNBOUND:                -0.031
REMARK SMILES COc1ccccc1O
REMARK SMILES IDX 3 1 4 2 5 3 6 4 7 5 8 6 2 7 1 8 9 9
REMARK H PARENT 9 10
REMARK Flexibility Score: inf
ROOT
ATOM      1  C   UNL     1      12.256 -10.670  48.741  1.00  0.00     0.160 A 
ATOM      2  C   UNL     1      13.189 -11.636  49.172  1.00  0.00     0.050 A 
ATOM      3  C   UNL     1      13.842 -12.448  48.241  1.00  0.00     0.004 A 
ATOM      4  C   UNL     1      13.576 -12.306  46.877  1.00  0.00     0.004 A 
ATOM      5  C   UNL     1      12.655 -11.352  46.441  1.00  0.00     0.050 A 
ATOM      6  C   UNL     1      11.994 -10.533  47.368  1.00  0.00     0.157 A 
ENDROOT
BRANCH   1   7
ATOM      7  O   UNL     1      11.576  -9.833  49.640  1.00  0.00    -0.493 OA
ATOM      8  C   UNL     1      11.893  -9.712  51.022  1.00  0.00     0.278 C 
ENDBRANCH   1   7
BRANCH   6   9
ATOM      9  O   UNL     1      11.074  -9.581  46.935  1.00  0.00    -0.504 OA
ATOM     10  H   UNL     1      10.235  -9.374  47.465  1.00  0.00     0.293 HD
ENDBRANCH   6   9
TORSDOF 2
ENDMDL
MODEL 6
REMARK VINA RESULT:    -4.510     17.688     18.056
REMARK INTER + INTRA:          -4.937
REMARK INTER:                  -4.891
REMARK INTRA:                  -0.046
REMARK UNBOUND:                -0.031
REMARK SMILES COc1ccccc1O
REMARK SMILES IDX 3 1 4 2 5 3 6 4 7 5 8 6 2 7 1 8 9 9
REMARK H PARENT 9 10
REMARK Flexibility Score: inf
ROOT
ATOM      1  C   UNL     1      11.458   1.364  35.379  1.00  0.00     0.160 A 
ATOM      2  C   UNL     1      10.185   1.902  35.660  1.00  0.00     0.050 A 
ATOM      3  C   UNL     1       9.058   1.437  34.978  1.00  0.00     0.004 A 
ATOM      4  C   UNL     1       9.185   0.434  34.014  1.00  0.00     0.004 A 
ATOM      5  C   UNL     1      10.441  -0.105  33.728  1.00  0.00     0.050 A 
ATOM      6  C   UNL     1      11.578   0.357  34.407  1.00  0.00     0.157 A 
ENDROOT
BRANCH   1   7
ATOM      7  O   UNL     1      12.617   1.801  36.038  1.00  0.00    -0.493 OA
ATOM      8  C   UNL     1      13.258   3.050  35.797  1.00  0.00     0.278 C 
ENDBRANCH   1   7
BRANCH   6   9
ATOM      9  O   UNL     1      12.832  -0.180  34.124  1.00  0.00    -0.504 OA
ATOM     10  H   UNL     1      13.012  -1.175  34.198  1.00  0.00     0.293 HD
ENDBRANCH   6   9
TORSDOF 2
ENDMDL
MODEL 7
REMARK VINA RESULT:    -4.288     17.507     17.839
REMARK INTER + INTRA:          -4.696
REMARK INTER:                  -4.651
REMARK INTRA:                  -0.045
REMARK UNBOUND:                -0.031
REMARK SMILES COc1ccccc1O
REMARK SMILES IDX 3 1 4 2 5 3 6 4 7 5 8 6 2 7 1 8 9 9
REMARK H PARENT 9 10
REMARK Flexibility Score: inf
ROOT
ATOM      1  C   UNL     1      10.403   1.159  34.668  1.00  0.00     0.160 A 
ATOM      2  C   UNL     1      10.883   2.263  35.402  1.00  0.00     0.050 A 
ATOM      3  C   UNL     1      12.248   2.385  35.679  1.00  0.00     0.004 A 
ATOM      4  C   UNL     1      13.144   1.413  35.230  1.00  0.00     0.004 A 
ATOM      5  C   UNL     1      12.679   0.317  34.503  1.00  0.00     0.050 A 
ATOM      6  C   UNL     1      11.311   0.186  34.220  1.00  0.00     0.157 A 
ENDROOT
BRANCH   1   7
ATOM      7  O   UNL     1       9.042   0.996  34.366  1.00  0.00    -0.493 OA
ATOM      8  C   UNL     1       8.076   0.469  35.269  1.00  0.00     0.278 C 
ENDBRANCH   1   7
BRANCH   6   9
ATOM      9  O   UNL     1      10.844  -0.908  33.494  1.00  0.00    -0.504 OA
ATOM     10  H   UNL     1      10.127  -1.522  33.863  1.00  0.00     0.293 HD
ENDBRANCH   6   9
TORSDOF 2
ENDMDL
MODEL 8
REMARK VINA RESULT:    -4.287      1.588      2.490
REMARK INTER + INTRA:          -4.694
REMARK INTER:                  -4.667
REMARK INTRA:                  -0.027
REMARK UNBOUND:                -0.031
REMARK SMILES COc1ccccc1O
REMARK SMILES IDX 3 1 4 2 5 3 6 4 7 5 8 6 2 7 1 8 9 9
REMARK H PARENT 9 10
REMARK Flexibility Score: inf
ROOT
ATOM      1  C   UNL     1      11.178 -11.405  48.285  1.00  0.00     0.160 A 
ATOM      2  C   UNL     1      11.739 -11.466  46.993  1.00  0.00     0.050 A 
ATOM      3  C   UNL     1      13.049 -11.920  46.815  1.00  0.00     0.004 A 
ATOM      4  C   UNL     1      13.809 -12.317  47.916  1.00  0.00     0.004 A 
ATOM      5  C   UNL     1      13.263 -12.260  49.200  1.00  0.00     0.050 A 
ATOM      6  C   UNL     1      11.949 -11.805  49.388  1.00  0.00     0.157 A 
ENDROOT
BRANCH   1   7
ATOM      7  O   UNL     1       9.867 -10.955  48.511  1.00  0.00    -0.493 OA
ATOM      8  C   UNL     1       8.916 -10.699  47.484  1.00  0.00     0.278 C 
ENDBRANCH   1   7
BRANCH   6   9
ATOM      9  O   UNL     1      11.402 -11.747  50.668  1.00  0.00    -0.504 OA
ATOM     10  H   UNL     1      11.928 -11.382  51.454  1.00  0.00     0.293 HD
ENDBRANCH   6   9
TORSDOF 2
ENDMDL
MODEL 9
REMARK VINA RESULT:    -4.190     17.040     17.341
REMARK INTER + INTRA:          -4.589
REMARK INTER:                  -4.556
REMARK INTRA:                  -0.034
REMARK UNBOUND:                -0.031
REMARK SMILES COc1ccccc1O
REMARK SMILES IDX 3 1 4 2 5 3 6 4 7 5 8 6 2 7 1 8 9 9
REMARK H PARENT 9 10
REMARK Flexibility Score: inf
ROOT
ATOM      1  C   UNL     1       7.917   0.045  35.602  1.00  0.00     0.160 A 
ATOM      2  C   UNL     1       8.524   1.132  36.264  1.00  0.00     0.050 A 
ATOM      3  C   UNL     1       9.752   1.631  35.820  1.00  0.00     0.004 A 
ATOM      4  C   UNL     1      10.384   1.056  34.715  1.00  0.00     0.004 A 
ATOM      5  C   UNL     1       9.791  -0.020  34.053  1.00  0.00     0.050 A 
ATOM      6  C   UNL     1       8.559  -0.528  34.493  1.00  0.00     0.157 A 
ENDROOT
BRANCH   1   7
ATOM      7  O   UNL     1       6.686  -0.489  36.014  1.00  0.00    -0.493 OA
ATOM      8  C   UNL     1       5.555   0.291  36.387  1.00  0.00     0.278 C 
ENDBRANCH   1   7
BRANCH   6   9
ATOM      9  O   UNL     1       7.965  -1.602  33.833  1.00  0.00    -0.504 OA
ATOM     10  H   UNL     1       7.754  -2.469  34.314  1.00  0.00     0.293 HD
ENDBRANCH   6   9
TORSDOF 2
ENDMDL
