MODEL 1
REMARK VINA RESULT:    -3.809      0.000      0.000
REMARK INTER + INTRA:          -6.607
REMARK INTER:                  -5.814
REMARK INTRA:                  -0.793
REMARK UNBOUND:                -0.793
REMARK SMILES CCCCCCCCCC=CC(=O)[O-]
REMARK SMILES IDX 7 1 8 2 9 3 10 4 11 5 12 6 13 7 14 8 6 9 5 10 4 11 3 12 2 13
REMARK SMILES IDX 1 14
REMARK H PARENT
REMARK Flexibility Score: inf
ROOT
ATOM      1  C   UNL     1      58.537  29.026  51.056  1.00  0.00     0.000 C 
ENDROOT
BRANCH   1   2
ATOM      2  C   UNL     1      58.746  28.405  49.663  1.00  0.00     0.004 C 
BRANCH   2   3
ATOM      3  C   UNL     1      59.989  27.502  49.559  1.00  0.00     0.027 C 
BRANCH   3   4
ATOM      4  C   UNL     1      59.676  26.046  49.761  1.00  0.00    -0.025 C 
ATOM      5  C   UNL     1      59.600  25.508  50.982  1.00  0.00     0.020 C 
BRANCH   5   6
ATOM      6  C   UNL     1      59.300  24.083  51.189  1.00  0.00     0.064 C 
ATOM      7  O   UNL     1      59.883  23.216  50.489  1.00  0.00    -0.545 OA
ATOM      8  O   UNL     1      58.382  23.678  52.152  1.00  0.00    -0.545 OA
ENDBRANCH   5   6
ENDBRANCH   3   4
ENDBRANCH   2   3
ENDBRANCH   1   2
BRANCH   1   9
ATOM      9  C   UNL     1      57.216  28.594  51.717  1.00  0.00     0.000 C 
BRANCH   9  10
ATOM     10  C   UNL     1      56.366  27.697  50.800  1.00  0.00     0.000 C 
BRANCH  10  11
ATOM     11  C   UNL     1      54.959  28.273  50.557  1.00  0.00    -0.000 C 
BRANCH  11  12
ATOM     12  C   UNL     1      53.912  27.179  50.294  1.00  0.00    -0.000 C 
BRANCH  12  13
ATOM     13  C   UNL     1      54.546  25.819  49.962  1.00  0.00    -0.003 C 
ATOM     14  C   UNL     1      53.518  24.866  49.360  1.00  0.00     0.004 C 
ENDBRANCH  12  13
ENDBRANCH  11  12
ENDBRANCH  10  11
ENDBRANCH   9  10
ENDBRANCH   1   9
TORSDOF 9
ENDMDL
MODEL 2
REMARK VINA RESULT:    -3.702      3.030      5.589
REMARK INTER + INTRA:          -6.443
REMARK INTER:                  -4.974
REMARK INTRA:                  -1.469
REMARK UNBOUND:                -0.793
REMARK SMILES CCCCCCCCCC=CC(=O)[O-]
REMARK SMILES IDX 7 1 8 2 9 3 10 4 11 5 12 6 13 7 14 8 6 9 5 10 4 11 3 12 2 13
REMARK SMILES IDX 1 14
REMARK H PARENT
REMARK Flexibility Score: inf
ROOT
ATOM      1  C   UNL     1      58.746  24.885  51.925  1.00  0.00     0.000 C 
ENDROOT
BRANCH   1   2
ATOM      2  C   UNL     1      57.281  25.340  51.791  1.00  0.00     0.004 C 
BRANCH   2   3
ATOM      3  C   UNL     1      56.762  25.364  50.340  1.00  0.00     0.027 C 
BRANCH   3   4
ATOM      4  C   UNL     1      55.434  26.053  50.203  1.00  0.00    -0.025 C 
ATOM      5  C   UNL     1      55.276  27.342  50.519  1.00  0.00     0.020 C 
BRANCH   5   6
ATOM      6  C   UNL     1      53.979  28.023  50.393  1.00  0.00     0.064 C 
ATOM      7  O   UNL     1      52.953  27.358  50.098  1.00  0.00    -0.545 OA
ATOM      8  O   UNL     1      53.868  29.394  50.598  1.00  0.00    -0.545 OA
ENDBRANCH   5   6
ENDBRANCH   3   4
ENDBRANCH   2   3
ENDBRANCH   1   2
BRANCH   1   9
ATOM      9  C   UNL     1      59.510  24.912  50.591  1.00  0.00     0.000 C 
BRANCH   9  10
ATOM     10  C   UNL     1      60.836  25.686  50.688  1.00  0.00     0.000 C 
BRANCH  10  11
ATOM     11  C   UNL     1      60.650  27.197  50.462  1.00  0.00    -0.000 C 
BRANCH  11  12
ATOM     12  C   UNL     1      59.623  27.507  49.360  1.00  0.00    -0.000 C 
BRANCH  12  13
ATOM     13  C   UNL     1      58.682  28.662  49.736  1.00  0.00    -0.003 C 
ATOM     14  C   UNL     1      58.624  28.852  51.249  1.00  0.00     0.004 C 
ENDBRANCH  12  13
ENDBRANCH  11  12
ENDBRANCH  10  11
ENDBRANCH   9  10
ENDBRANCH   1   9
TORSDOF 9
ENDMDL
MODEL 3
REMARK VINA RESULT:    -3.568      1.345      2.153
REMARK INTER + INTRA:          -6.239
REMARK INTER:                  -5.628
REMARK INTRA:                  -0.611
REMARK UNBOUND:                -0.793
REMARK SMILES CCCCCCCCCC=CC(=O)[O-]
REMARK SMILES IDX 7 1 8 2 9 3 10 4 11 5 12 6 13 7 14 8 6 9 5 10 4 11 3 12 2 13
REMARK SMILES IDX 1 14
REMARK H PARENT
REMARK Flexibility Score: inf
ROOT
ATOM      1  C   UNL     1      56.485  27.745  50.679  1.00  0.00     0.000 C 
ENDROOT
BRANCH   1   2
ATOM      2  C   UNL     1      57.794  28.532  50.872  1.00  0.00     0.004 C 
BRANCH   2   3
ATOM      3  C   UNL     1      58.646  28.655  49.594  1.00  0.00     0.027 C 
BRANCH   3   4
ATOM      4  C   UNL     1      59.655  27.551  49.452  1.00  0.00    -0.025 C 
ATOM      5  C   UNL     1      59.848  26.648  50.419  1.00  0.00     0.020 C 
BRANCH   5   6
ATOM      6  C   UNL     1      60.837  25.567  50.291  1.00  0.00     0.064 C 
ATOM      7  O   UNL     1      60.454  24.370  50.299  1.00  0.00    -0.545 OA
ATOM      8  O   UNL     1      62.192  25.850  50.160  1.00  0.00    -0.545 OA
ENDBRANCH   5   6
ENDBRANCH   3   4
ENDBRANCH   2   3
ENDBRANCH   1   2
BRANCH   1   9
ATOM      9  C   UNL     1      55.281  28.398  51.380  1.00  0.00     0.000 C 
BRANCH   9  10
ATOM     10  C   UNL     1      54.282  29.010  50.383  1.00  0.00     0.000 C 
BRANCH  10  11
ATOM     11  C   UNL     1      52.907  28.319  50.432  1.00  0.00    -0.000 C 
BRANCH  11  12
ATOM     12  C   UNL     1      53.003  26.842  50.849  1.00  0.00    -0.000 C 
BRANCH  12  13
ATOM     13  C   UNL     1      52.876  25.881  49.657  1.00  0.00    -0.003 C 
ATOM     14  C   UNL     1      54.211  25.210  49.347  1.00  0.00     0.004 C 
ENDBRANCH  12  13
ENDBRANCH  11  12
ENDBRANCH  10  11
ENDBRANCH   9  10
ENDBRANCH   1   9
TORSDOF 9
ENDMDL
MODEL 4
REMARK VINA RESULT:    -3.556     11.446     13.201
REMARK INTER + INTRA:          -6.221
REMARK INTER:                  -5.294
REMARK INTRA:                  -0.927
REMARK UNBOUND:                -0.793
REMARK SMILES CCCCCCCCCC=CC(=O)[O-]
REMARK SMILES IDX 7 1 8 2 9 3 10 4 11 5 12 6 13 7 14 8 6 9 5 10 4 11 3 12 2 13
REMARK SMILES IDX 1 14
REMARK H PARENT
REMARK Flexibility Score: inf
ROOT
ATOM      1  C   UNL     1      61.321  31.456  59.877  1.00  0.00     0.000 C 
ENDROOT
BRANCH   1   2
ATOM      2  C   UNL     1      61.288  31.252  61.403  1.00  0.00     0.004 C 
BRANCH   2   3
ATOM      3  C   UNL     1      61.947  29.943  61.875  1.00  0.00     0.027 C 
BRANCH   3   4
ATOM      4  C   UNL     1      63.352  29.776  61.370  1.00  0.00    -0.025 C 
ATOM      5  C   UNL     1      63.810  28.594  60.947  1.00  0.00     0.020 C 
BRANCH   5   6
ATOM      6  C   UNL     1      65.186  28.420  60.456  1.00  0.00     0.064 C 
ATOM      7  O   UNL     1      66.118  29.091  60.967  1.00  0.00    -0.545 OA
ATOM      8  O   UNL     1      65.472  27.521  59.435  1.00  0.00    -0.545 OA
ENDBRANCH   5   6
ENDBRANCH   3   4
ENDBRANCH   2   3
ENDBRANCH   1   2
BRANCH   1   9
ATOM      9  C   UNL     1      60.520  32.686  59.415  1.00  0.00     0.000 C 
BRANCH   9  10
ATOM     10  C   UNL     1      60.749  33.909  60.320  1.00  0.00     0.000 C 
BRANCH  10  11
ATOM     11  C   UNL     1      62.007  34.703  59.925  1.00  0.00    -0.000 C 
BRANCH  11  12
ATOM     12  C   UNL     1      62.684  35.373  61.133  1.00  0.00    -0.000 C 
BRANCH  12  13
ATOM     13  C   UNL     1      64.143  34.927  61.315  1.00  0.00    -0.003 C 
ATOM     14  C   UNL     1      64.307  33.444  60.997  1.00  0.00     0.004 C 
ENDBRANCH  12  13
ENDBRANCH  11  12
ENDBRANCH  10  11
ENDBRANCH   9  10
ENDBRANCH   1   9
TORSDOF 9
ENDMDL
MODEL 5
REMARK VINA RESULT:    -3.522     12.169     13.751
REMARK INTER + INTRA:          -6.169
REMARK INTER:                  -5.561
REMARK INTRA:                  -0.607
REMARK UNBOUND:                -0.793
REMARK SMILES CCCCCCCCCC=CC(=O)[O-]
REMARK SMILES IDX 7 1 8 2 9 3 10 4 11 5 12 6 13 7 14 8 6 9 5 10 4 11 3 12 2 13
REMARK SMILES IDX 1 14
REMARK H PARENT
REMARK Flexibility Score: inf
ROOT
ATOM      1  C   UNL     1      61.711  30.507  61.751  1.00  0.00     0.000 C 
ENDROOT
BRANCH   1   2
ATOM      2  C   UNL     1      63.151  29.971  61.654  1.00  0.00     0.004 C 
BRANCH   2   3
ATOM      3  C   UNL     1      63.335  28.849  60.616  1.00  0.00     0.027 C 
BRANCH   3   4
ATOM      4  C   UNL     1      64.728  28.288  60.597  1.00  0.00    -0.025 C 
ATOM      5  C   UNL     1      65.803  29.075  60.707  1.00  0.00     0.020 C 
BRANCH   5   6
ATOM      6  C   UNL     1      67.172  28.536  60.684  1.00  0.00     0.064 C 
ATOM      7  O   UNL     1      67.616  28.013  59.631  1.00  0.00    -0.545 OA
ATOM      8  O   UNL     1      67.983  28.598  61.811  1.00  0.00    -0.545 OA
ENDBRANCH   5   6
ENDBRANCH   3   4
ENDBRANCH   2   3
ENDBRANCH   1   2
BRANCH   1   9
ATOM      9  C   UNL     1      61.330  31.426  60.578  1.00  0.00     0.000 C 
BRANCH   9  10
ATOM     10  C   UNL     1      62.401  32.494  60.296  1.00  0.00     0.000 C 
BRANCH  10  11
ATOM     11  C   UNL     1      61.834  33.924  60.358  1.00  0.00    -0.000 C 
BRANCH  11  12
ATOM     12  C   UNL     1      62.774  34.900  61.085  1.00  0.00    -0.000 C 
BRANCH  12  13
ATOM     13  C   UNL     1      64.199  34.346  61.239  1.00  0.00    -0.003 C 
ATOM     14  C   UNL     1      65.125  35.383  61.868  1.00  0.00     0.004 C 
ENDBRANCH  12  13
ENDBRANCH  11  12
ENDBRANCH  10  11
ENDBRANCH   9  10
ENDBRANCH   1   9
TORSDOF 9
ENDMDL
MODEL 6
REMARK VINA RESULT:    -3.519     12.018     13.684
REMARK INTER + INTRA:          -6.164
REMARK INTER:                  -5.016
REMARK INTRA:                  -1.148
REMARK UNBOUND:                -0.793
REMARK SMILES CCCCCCCCCC=CC(=O)[O-]
REMARK SMILES IDX 7 1 8 2 9 3 10 4 11 5 12 6 13 7 14 8 6 9 5 10 4 11 3 12 2 13
REMARK SMILES IDX 1 14
REMARK H PARENT
REMARK Flexibility Score: inf
ROOT
ATOM      1  C   UNL     1      61.667  32.446  60.639  1.00  0.00     0.000 C 
ENDROOT
BRANCH   1   2
ATOM      2  C   UNL     1      61.189  30.983  60.662  1.00  0.00     0.004 C 
BRANCH   2   3
ATOM      3  C   UNL     1      61.754  30.157  61.834  1.00  0.00     0.027 C 
BRANCH   3   4
ATOM      4  C   UNL     1      63.226  29.884  61.704  1.00  0.00    -0.025 C 
ATOM      5  C   UNL     1      63.699  28.984  60.837  1.00  0.00     0.020 C 
BRANCH   5   6
ATOM      6  C   UNL     1      65.137  28.705  60.706  1.00  0.00     0.064 C 
ATOM      7  O   UNL     1      65.952  29.661  60.651  1.00  0.00    -0.545 OA
ATOM      8  O   UNL     1      65.610  27.400  60.646  1.00  0.00    -0.545 OA
ENDBRANCH   5   6
ENDBRANCH   3   4
ENDBRANCH   2   3
ENDBRANCH   1   2
BRANCH   1   9
ATOM      9  C   UNL     1      62.472  32.798  59.376  1.00  0.00     0.000 C 
BRANCH   9  10
ATOM     10  C   UNL     1      63.973  32.966  59.664  1.00  0.00     0.000 C 
BRANCH  10  11
ATOM     11  C   UNL     1      64.248  33.373  61.123  1.00  0.00    -0.000 C 
BRANCH  11  12
ATOM     12  C   UNL     1      64.964  34.730  61.232  1.00  0.00    -0.000 C 
BRANCH  12  13
ATOM     13  C   UNL     1      64.130  35.887  60.658  1.00  0.00    -0.003 C 
ATOM     14  C   UNL     1      62.777  35.987  61.357  1.00  0.00     0.004 C 
ENDBRANCH  12  13
ENDBRANCH  11  12
ENDBRANCH  10  11
ENDBRANCH   9  10
ENDBRANCH   1   9
TORSDOF 9
ENDMDL
MODEL 7
REMARK VINA RESULT:    -3.474      1.857      4.059
REMARK INTER + INTRA:          -6.096
REMARK INTER:                  -4.879
REMARK INTRA:                  -1.217
REMARK UNBOUND:                -0.793
REMARK SMILES CCCCCCCCCC=CC(=O)[O-]
REMARK SMILES IDX 7 1 8 2 9 3 10 4 11 5 12 6 13 7 14 8 6 9 5 10 4 11 3 12 2 13
REMARK SMILES IDX 1 14
REMARK H PARENT
REMARK Flexibility Score: inf
ROOT
ATOM      1  C   UNL     1      53.241  25.422  50.073  1.00  0.00     0.000 C 
ENDROOT
BRANCH   1   2
ATOM      2  C   UNL     1      54.700  25.292  49.598  1.00  0.00     0.004 C 
BRANCH   2   3
ATOM      3  C   UNL     1      55.736  25.324  50.737  1.00  0.00     0.027 C 
BRANCH   3   4
ATOM      4  C   UNL     1      57.015  26.009  50.349  1.00  0.00    -0.025 C 
ATOM      5  C   UNL     1      58.170  25.342  50.261  1.00  0.00     0.020 C 
BRANCH   5   6
ATOM      6  C   UNL     1      59.429  26.006  49.887  1.00  0.00     0.064 C 
ATOM      7  O   UNL     1      60.524  25.425  50.100  1.00  0.00    -0.545 OA
ATOM      8  O   UNL     1      59.426  27.265  49.299  1.00  0.00    -0.545 OA
ENDBRANCH   5   6
ENDBRANCH   3   4
ENDBRANCH   2   3
ENDBRANCH   1   2
BRANCH   1   9
ATOM      9  C   UNL     1      52.985  26.702  50.888  1.00  0.00     0.000 C 
BRANCH   9  10
ATOM     10  C   UNL     1      53.128  27.977  50.040  1.00  0.00     0.000 C 
BRANCH  10  11
ATOM     11  C   UNL     1      54.144  28.967  50.636  1.00  0.00    -0.000 C 
BRANCH  11  12
ATOM     12  C   UNL     1      54.641  28.537  52.026  1.00  0.00    -0.000 C 
BRANCH  12  13
ATOM     13  C   UNL     1      56.074  29.009  52.315  1.00  0.00    -0.003 C 
ATOM     14  C   UNL     1      56.717  28.167  53.414  1.00  0.00     0.004 C 
ENDBRANCH  12  13
ENDBRANCH  11  12
ENDBRANCH  10  11
ENDBRANCH   9  10
ENDBRANCH   1   9
TORSDOF 9
ENDMDL
MODEL 8
REMARK VINA RESULT:    -3.470     11.418     12.949
REMARK INTER + INTRA:          -6.089
REMARK INTER:                  -4.769
REMARK INTRA:                  -1.320
REMARK UNBOUND:                -0.793
REMARK SMILES CCCCCCCCCC=CC(=O)[O-]
REMARK SMILES IDX 7 1 8 2 9 3 10 4 11 5 12 6 13 7 14 8 6 9 5 10 4 11 3 12 2 13
REMARK SMILES IDX 1 14
REMARK H PARENT
REMARK Flexibility Score: inf
ROOT
ATOM      1  C   UNL     1      63.435  35.066  61.303  1.00  0.00     0.000 C 
ENDROOT
BRANCH   1   2
ATOM      2  C   UNL     1      64.567  34.082  60.954  1.00  0.00     0.004 C 
BRANCH   2   3
ATOM      3  C   UNL     1      64.368  33.345  59.616  1.00  0.00     0.027 C 
BRANCH   3   4
ATOM      4  C   UNL     1      64.357  31.851  59.764  1.00  0.00    -0.025 C 
ATOM      5  C   UNL     1      64.483  31.262  60.958  1.00  0.00     0.020 C 
BRANCH   5   6
ATOM      6  C   UNL     1      64.479  29.800  61.113  1.00  0.00     0.064 C 
ATOM      7  O   UNL     1      65.546  29.155  60.947  1.00  0.00    -0.545 OA
ATOM      8  O   UNL     1      63.313  29.119  61.442  1.00  0.00    -0.545 OA
ENDBRANCH   5   6
ENDBRANCH   3   4
ENDBRANCH   2   3
ENDBRANCH   1   2
BRANCH   1   9
ATOM      9  C   UNL     1      62.460  35.301  60.136  1.00  0.00     0.000 C 
BRANCH   9  10
ATOM     10  C   UNL     1      61.054  35.697  60.616  1.00  0.00     0.000 C 
BRANCH  10  11
ATOM     11  C   UNL     1      60.034  34.556  60.450  1.00  0.00    -0.000 C 
BRANCH  11  12
ATOM     12  C   UNL     1      60.605  33.364  59.666  1.00  0.00    -0.000 C 
BRANCH  12  13
ATOM     13  C   UNL     1      60.825  32.125  60.548  1.00  0.00    -0.003 C 
ATOM     14  C   UNL     1      60.806  30.847  59.714  1.00  0.00     0.004 C 
ENDBRANCH  12  13
ENDBRANCH  11  12
ENDBRANCH  10  11
ENDBRANCH   9  10
ENDBRANCH   1   9
TORSDOF 9
ENDMDL
MODEL 9
REMARK VINA RESULT:    -3.405      2.647      5.732
REMARK INTER + INTRA:          -5.991
REMARK INTER:                  -5.260
REMARK INTRA:                  -0.731
REMARK UNBOUND:                -0.793
REMARK SMILES CCCCCCCCCC=CC(=O)[O-]
REMARK SMILES IDX 7 1 8 2 9 3 10 4 11 5 12 6 13 7 14 8 6 9 5 10 4 11 3 12 2 13
REMARK SMILES IDX 1 14
REMARK H PARENT
REMARK Flexibility Score: inf
ROOT
ATOM      1  C   UNL     1      58.021  28.481  50.486  1.00  0.00     0.000 C 
ENDROOT
BRANCH   1   2
ATOM      2  C   UNL     1      56.814  27.753  51.107  1.00  0.00     0.004 C 
BRANCH   2   3
ATOM      3  C   UNL     1      55.453  28.382  50.753  1.00  0.00     0.027 C 
BRANCH   3   4
ATOM      4  C   UNL     1      54.402  27.360  50.427  1.00  0.00    -0.025 C 
ATOM      5  C   UNL     1      54.722  26.129  50.016  1.00  0.00     0.020 C 
BRANCH   5   6
ATOM      6  C   UNL     1      53.700  25.124  49.689  1.00  0.00     0.064 C 
ATOM      7  O   UNL     1      52.875  25.353  48.768  1.00  0.00    -0.545 OA
ATOM      8  O   UNL     1      53.633  23.920  50.381  1.00  0.00    -0.545 OA
ENDBRANCH   5   6
ENDBRANCH   3   4
ENDBRANCH   2   3
ENDBRANCH   1   2
BRANCH   1   9
ATOM      9  C   UNL     1      58.942  27.544  49.684  1.00  0.00     0.000 C 
BRANCH   9  10
ATOM     10  C   UNL     1      58.745  26.065  50.058  1.00  0.00     0.000 C 
BRANCH  10  11
ATOM     11  C   UNL     1      60.075  25.356  50.369  1.00  0.00    -0.000 C 
BRANCH  11  12
ATOM     12  C   UNL     1      61.019  26.221  51.222  1.00  0.00    -0.000 C 
BRANCH  12  13
ATOM     13  C   UNL     1      62.438  26.300  50.638  1.00  0.00    -0.003 C 
ATOM     14  C   UNL     1      63.000  24.907  50.372  1.00  0.00     0.004 C 
ENDBRANCH  12  13
ENDBRANCH  11  12
ENDBRANCH  10  11
ENDBRANCH   9  10
ENDBRANCH   1   9
TORSDOF 9
ENDMDL
