MODEL 1
REMARK VINA RESULT:    -4.528      0.000      0.000
REMARK INTER + INTRA:          -7.495
REMARK INTER:                  -6.911
REMARK INTRA:                  -0.584
REMARK UNBOUND:                -0.584
REMARK SMILES O=C([O-])CCCCCCCCC(=O)[O-]
REMARK SMILES IDX 7 1 6 2 5 3 4 4 2 5 1 6 3 7 8 8 9 9 10 10 11 11 12 12 13 13
REMARK SMILES IDX 14 14
REMARK H PARENT
REMARK Flexibility Score: inf
ROOT
ATOM      1  C   UNL     1       2.523   1.824  -4.210  1.00  0.00     0.000 C 
ENDROOT
BRANCH   1   2
ATOM      2  C   UNL     1       3.716   2.784  -4.078  1.00  0.00     0.000 C 
BRANCH   2   3
ATOM      3  C   UNL     1       5.040   2.055  -4.353  1.00  0.00     0.006 C 
BRANCH   3   4
ATOM      4  C   UNL     1       5.524   1.250  -3.141  1.00  0.00     0.053 C 
BRANCH   4   5
ATOM      5  C   UNL     1       5.423  -0.226  -3.379  1.00  0.00     0.041 C 
ATOM      6  O   UNL     1       4.580  -0.915  -2.744  1.00  0.00    -0.550 OA
ATOM      7  O   UNL     1       6.282  -0.846  -4.275  1.00  0.00    -0.550 OA
ENDBRANCH   4   5
ENDBRANCH   3   4
ENDBRANCH   2   3
ENDBRANCH   1   2
BRANCH   1   8
ATOM      8  C   UNL     1       1.706   2.067  -5.489  1.00  0.00     0.000 C 
BRANCH   8   9
ATOM      9  C   UNL     1       0.287   1.484  -5.403  1.00  0.00     0.000 C 
BRANCH   9  10
ATOM     10  C   UNL     1       0.104   0.673  -4.112  1.00  0.00     0.006 C 
BRANCH  10  11
ATOM     11  C   UNL     1      -0.222  -0.801  -4.394  1.00  0.00     0.053 C 
BRANCH  11  12
ATOM     12  C   UNL     1       0.939  -1.520  -5.009  1.00  0.00     0.041 C 
ATOM     13  O   UNL     1       1.903  -1.897  -4.292  1.00  0.00    -0.550 OA
ATOM     14  O   UNL     1       0.941  -1.804  -6.369  1.00  0.00    -0.550 OA
ENDBRANCH  11  12
ENDBRANCH  10  11
ENDBRANCH   9  10
ENDBRANCH   8   9
ENDBRANCH   1   8
TORSDOF 9
ENDMDL
MODEL 2
REMARK VINA RESULT:    -4.510      0.950      4.546
REMARK INTER + INTRA:          -7.467
REMARK INTER:                  -6.695
REMARK INTRA:                  -0.772
REMARK UNBOUND:                -0.584
REMARK SMILES O=C([O-])CCCCCCCCC(=O)[O-]
REMARK SMILES IDX 7 1 6 2 5 3 4 4 2 5 1 6 3 7 8 8 9 9 10 10 11 11 12 12 13 13
REMARK SMILES IDX 14 14
REMARK H PARENT
REMARK Flexibility Score: inf
ROOT
ATOM      1  C   UNL     1       2.946   2.786  -4.676  1.00  0.00     0.000 C 
ENDROOT
BRANCH   1   2
ATOM      2  C   UNL     1       1.983   1.712  -4.148  1.00  0.00     0.000 C 
BRANCH   2   3
ATOM      3  C   UNL     1       1.059   1.206  -5.266  1.00  0.00     0.006 C 
BRANCH   3   4
ATOM      4  C   UNL     1       0.158   0.055  -4.799  1.00  0.00     0.053 C 
BRANCH   4   5
ATOM      5  C   UNL     1       0.826  -1.276  -4.968  1.00  0.00     0.041 C 
ATOM      6  O   UNL     1       1.158  -1.952  -3.958  1.00  0.00    -0.550 OA
ATOM      7  O   UNL     1       1.112  -1.754  -6.239  1.00  0.00    -0.550 OA
ENDBRANCH   4   5
ENDBRANCH   3   4
ENDBRANCH   2   3
ENDBRANCH   1   2
BRANCH   1   8
ATOM      8  C   UNL     1       4.106   3.069  -3.708  1.00  0.00     0.000 C 
BRANCH   8   9
ATOM      9  C   UNL     1       5.420   2.406  -4.149  1.00  0.00     0.000 C 
BRANCH   9  10
ATOM     10  C   UNL     1       5.943   1.451  -3.066  1.00  0.00     0.006 C 
BRANCH  10  11
ATOM     11  C   UNL     1       5.194   0.111  -3.063  1.00  0.00     0.053 C 
BRANCH  11  12
ATOM     12  C   UNL     1       5.389  -0.640  -4.344  1.00  0.00     0.041 C 
ATOM     13  O   UNL     1       6.498  -1.175  -4.603  1.00  0.00    -0.550 OA
ATOM     14  O   UNL     1       4.334  -0.777  -5.238  1.00  0.00    -0.550 OA
ENDBRANCH  11  12
ENDBRANCH  10  11
ENDBRANCH   9  10
ENDBRANCH   8   9
ENDBRANCH   1   8
TORSDOF 9
ENDMDL
MODEL 3
REMARK VINA RESULT:    -4.433      0.918      1.375
REMARK INTER + INTRA:          -7.349
REMARK INTER:                  -6.638
REMARK INTRA:                  -0.712
REMARK UNBOUND:                -0.584
REMARK SMILES O=C([O-])CCCCCCCCC(=O)[O-]
REMARK SMILES IDX 7 1 6 2 5 3 4 4 2 5 1 6 3 7 8 8 9 9 10 10 11 11 12 12 13 13
REMARK SMILES IDX 14 14
REMARK H PARENT
REMARK Flexibility Score: inf
ROOT
ATOM      1  C   UNL     1       4.172   2.922  -3.749  1.00  0.00     0.000 C 
ENDROOT
BRANCH   1   2
ATOM      2  C   UNL     1       5.174   2.110  -4.583  1.00  0.00     0.000 C 
BRANCH   2   3
ATOM      3  C   UNL     1       6.120   1.307  -3.677  1.00  0.00     0.006 C 
BRANCH   3   4
ATOM      4  C   UNL     1       5.378   0.235  -2.868  1.00  0.00     0.053 C 
BRANCH   4   5
ATOM      5  C   UNL     1       4.948  -0.913  -3.729  1.00  0.00     0.041 C 
ATOM      6  O   UNL     1       3.846  -1.486  -3.520  1.00  0.00    -0.550 OA
ATOM      7  O   UNL     1       5.781  -1.373  -4.741  1.00  0.00    -0.550 OA
ENDBRANCH   4   5
ENDBRANCH   3   4
ENDBRANCH   2   3
ENDBRANCH   1   2
BRANCH   1   8
ATOM      8  C   UNL     1       2.747   2.872  -4.321  1.00  0.00     0.000 C 
BRANCH   8   9
ATOM      9  C   UNL     1       2.302   1.446  -4.678  1.00  0.00     0.000 C 
BRANCH   9  10
ATOM     10  C   UNL     1       0.825   1.226  -4.318  1.00  0.00     0.006 C 
BRANCH  10  11
ATOM     11  C   UNL     1       0.147   0.206  -5.245  1.00  0.00     0.053 C 
BRANCH  11  12
ATOM     12  C   UNL     1       0.583  -1.195  -4.945  1.00  0.00     0.041 C 
ATOM     13  O   UNL     1       0.508  -1.644  -3.771  1.00  0.00    -0.550 OA
ATOM     14  O   UNL     1       1.038  -2.017  -5.968  1.00  0.00    -0.550 OA
ENDBRANCH  11  12
ENDBRANCH  10  11
ENDBRANCH   9  10
ENDBRANCH   8   9
ENDBRANCH   1   8
TORSDOF 9
ENDMDL
MODEL 4
REMARK VINA RESULT:    -4.174      1.277      4.635
REMARK INTER + INTRA:          -6.955
REMARK INTER:                  -6.222
REMARK INTRA:                  -0.733
REMARK UNBOUND:                -0.584
REMARK SMILES O=C([O-])CCCCCCCCC(=O)[O-]
REMARK SMILES IDX 7 1 6 2 5 3 4 4 2 5 1 6 3 7 8 8 9 9 10 10 11 11 12 12 13 13
REMARK SMILES IDX 14 14
REMARK H PARENT
REMARK Flexibility Score: inf
ROOT
ATOM      1  C   UNL     1       2.360   2.450  -4.848  1.00  0.00     0.000 C 
ENDROOT
BRANCH   1   2
ATOM      2  C   UNL     1       1.305   1.375  -4.549  1.00  0.00     0.000 C 
BRANCH   2   3
ATOM      3  C   UNL     1       1.766  -0.002  -5.050  1.00  0.00     0.006 C 
BRANCH   3   4
ATOM      4  C   UNL     1       0.614  -1.013  -5.115  1.00  0.00     0.053 C 
BRANCH   4   5
ATOM      5  C   UNL     1       0.347  -1.636  -3.779  1.00  0.00     0.041 C 
ATOM      6  O   UNL     1       1.014  -2.637  -3.401  1.00  0.00    -0.550 OA
ATOM      7  O   UNL     1      -0.660  -1.135  -2.966  1.00  0.00    -0.550 OA
ENDBRANCH   4   5
ENDBRANCH   3   4
ENDBRANCH   2   3
ENDBRANCH   1   2
BRANCH   1   8
ATOM      8  C   UNL     1       3.434   2.547  -3.753  1.00  0.00     0.000 C 
BRANCH   8   9
ATOM      9  C   UNL     1       4.850   2.710  -4.326  1.00  0.00     0.000 C 
BRANCH   9  10
ATOM     10  C   UNL     1       5.518   1.343  -4.535  1.00  0.00     0.006 C 
BRANCH  10  11
ATOM     11  C   UNL     1       5.453   0.467  -3.276  1.00  0.00     0.053 C 
BRANCH  11  12
ATOM     12  C   UNL     1       4.983  -0.921  -3.587  1.00  0.00     0.041 C 
ATOM     13  O   UNL     1       5.400  -1.515  -4.615  1.00  0.00    -0.550 OA
ATOM     14  O   UNL     1       4.111  -1.571  -2.723  1.00  0.00    -0.550 OA
ENDBRANCH  11  12
ENDBRANCH  10  11
ENDBRANCH   9  10
ENDBRANCH   8   9
ENDBRANCH   1   8
TORSDOF 9
ENDMDL
MODEL 5
REMARK VINA RESULT:    -4.125      2.857      5.725
REMARK INTER + INTRA:          -6.880
REMARK INTER:                  -6.366
REMARK INTRA:                  -0.514
REMARK UNBOUND:                -0.584
REMARK SMILES O=C([O-])CCCCCCCCC(=O)[O-]
REMARK SMILES IDX 7 1 6 2 5 3 4 4 2 5 1 6 3 7 8 8 9 9 10 10 11 11 12 12 13 13
REMARK SMILES IDX 14 14
REMARK H PARENT
REMARK Flexibility Score: inf
ROOT
ATOM      1  C   UNL     1       1.749   1.715  -5.617  1.00  0.00     0.000 C 
ENDROOT
BRANCH   1   2
ATOM      2  C   UNL     1       0.263   1.448  -5.333  1.00  0.00     0.000 C 
BRANCH   2   3
ATOM      3  C   UNL     1       0.092   0.566  -4.086  1.00  0.00     0.006 C 
BRANCH   3   4
ATOM      4  C   UNL     1      -0.223  -0.892  -4.445  1.00  0.00     0.053 C 
BRANCH   4   5
ATOM      5  C   UNL     1       0.978  -1.601  -4.991  1.00  0.00     0.041 C 
ATOM      6  O   UNL     1       0.977  -2.032  -6.175  1.00  0.00    -0.550 OA
ATOM      7  O   UNL     1       2.086  -1.816  -4.182  1.00  0.00    -0.550 OA
ENDBRANCH   4   5
ENDBRANCH   3   4
ENDBRANCH   2   3
ENDBRANCH   1   2
BRANCH   1   8
ATOM      8  C   UNL     1       2.584   1.846  -4.333  1.00  0.00     0.000 C 
BRANCH   8   9
ATOM      9  C   UNL     1       4.094   1.897  -4.611  1.00  0.00     0.000 C 
BRANCH   9  10
ATOM     10  C   UNL     1       4.738   3.108  -3.920  1.00  0.00     0.006 C 
BRANCH  10  11
ATOM     11  C   UNL     1       3.705   4.181  -3.546  1.00  0.00     0.053 C 
BRANCH  11  12
ATOM     12  C   UNL     1       4.248   5.565  -3.729  1.00  0.00     0.041 C 
ATOM     13  O   UNL     1       3.577   6.562  -3.355  1.00  0.00    -0.550 OA
ATOM     14  O   UNL     1       5.509   5.751  -4.281  1.00  0.00    -0.550 OA
ENDBRANCH  11  12
ENDBRANCH  10  11
ENDBRANCH   9  10
ENDBRANCH   8   9
ENDBRANCH   1   8
TORSDOF 9
ENDMDL
MODEL 6
REMARK VINA RESULT:    -4.071      2.965      3.631
REMARK INTER + INTRA:          -6.797
REMARK INTER:                  -6.061
REMARK INTRA:                  -0.736
REMARK UNBOUND:                -0.584
REMARK SMILES O=C([O-])CCCCCCCCC(=O)[O-]
REMARK SMILES IDX 7 1 6 2 5 3 4 4 2 5 1 6 3 7 8 8 9 9 10 10 11 11 12 12 13 13
REMARK SMILES IDX 14 14
REMARK H PARENT
REMARK Flexibility Score: inf
ROOT
ATOM      1  C   UNL     1       4.431   0.646  -3.827  1.00  0.00     0.000 C 
ENDROOT
BRANCH   1   2
ATOM      2  C   UNL     1       5.372   1.806  -3.466  1.00  0.00     0.000 C 
BRANCH   2   3
ATOM      3  C   UNL     1       4.957   3.095  -4.191  1.00  0.00     0.006 C 
BRANCH   3   4
ATOM      4  C   UNL     1       3.806   3.817  -3.479  1.00  0.00     0.053 C 
BRANCH   4   5
ATOM      5  C   UNL     1       3.860   5.299  -3.698  1.00  0.00     0.041 C 
ATOM      6  O   UNL     1       4.970   5.885  -3.803  1.00  0.00    -0.550 OA
ATOM      7  O   UNL     1       2.685   6.037  -3.751  1.00  0.00    -0.550 OA
ENDBRANCH   4   5
ENDBRANCH   3   4
ENDBRANCH   2   3
ENDBRANCH   1   2
BRANCH   1   8
ATOM      8  C   UNL     1       4.327   0.418  -5.343  1.00  0.00     0.000 C 
BRANCH   8   9
ATOM      9  C   UNL     1       2.889   0.563  -5.866  1.00  0.00     0.000 C 
BRANCH   9  10
ATOM     10  C   UNL     1       1.918   0.878  -4.718  1.00  0.00     0.006 C 
BRANCH  10  11
ATOM     11  C   UNL     1       0.724  -0.087  -4.686  1.00  0.00     0.053 C 
BRANCH  11  12
ATOM     12  C   UNL     1       1.160  -1.516  -4.807  1.00  0.00     0.041 C 
ATOM     13  O   UNL     1       1.651  -2.114  -3.815  1.00  0.00    -0.550 OA
ATOM     14  O   UNL     1       0.990  -2.196  -6.006  1.00  0.00    -0.550 OA
ENDBRANCH  11  12
ENDBRANCH  10  11
ENDBRANCH   9  10
ENDBRANCH   8   9
ENDBRANCH   1   8
TORSDOF 9
ENDMDL
MODEL 7
REMARK VINA RESULT:    -3.960      3.189      3.892
REMARK INTER + INTRA:          -6.628
REMARK INTER:                  -6.213
REMARK INTRA:                  -0.415
REMARK UNBOUND:                -0.584
REMARK SMILES O=C([O-])CCCCCCCCC(=O)[O-]
REMARK SMILES IDX 7 1 6 2 5 3 4 4 2 5 1 6 3 7 8 8 9 9 10 10 11 11 12 12 13 13
REMARK SMILES IDX 14 14
REMARK H PARENT
REMARK Flexibility Score: inf
ROOT
ATOM      1  C   UNL     1       1.844   1.769  -4.567  1.00  0.00     0.000 C 
ENDROOT
BRANCH   1   2
ATOM      2  C   UNL     1       2.890   2.807  -4.999  1.00  0.00     0.000 C 
BRANCH   2   3
ATOM      3  C   UNL     1       3.544   3.469  -3.776  1.00  0.00     0.006 C 
BRANCH   3   4
ATOM      4  C   UNL     1       4.265   4.774  -4.138  1.00  0.00     0.053 C 
BRANCH   4   5
ATOM      5  C   UNL     1       3.641   5.959  -3.466  1.00  0.00     0.041 C 
ATOM      6  O   UNL     1       4.299   6.635  -2.632  1.00  0.00    -0.550 OA
ATOM      7  O   UNL     1       2.321   6.295  -3.735  1.00  0.00    -0.550 OA
ENDBRANCH   4   5
ENDBRANCH   3   4
ENDBRANCH   2   3
ENDBRANCH   1   2
BRANCH   1   8
ATOM      8  C   UNL     1       0.552   1.851  -5.396  1.00  0.00     0.000 C 
BRANCH   8   9
ATOM      9  C   UNL     1       0.506   0.809  -6.524  1.00  0.00     0.000 C 
BRANCH   9  10
ATOM     10  C   UNL     1       1.399  -0.396  -6.195  1.00  0.00     0.006 C 
BRANCH  10  11
ATOM     11  C   UNL     1       0.638  -1.492  -5.436  1.00  0.00     0.053 C 
BRANCH  11  12
ATOM     12  C   UNL     1       1.396  -1.964  -4.233  1.00  0.00     0.041 C 
ATOM     13  O   UNL     1       2.629  -1.733  -4.130  1.00  0.00    -0.550 OA
ATOM     14  O   UNL     1       0.732  -2.628  -3.209  1.00  0.00    -0.550 OA
ENDBRANCH  11  12
ENDBRANCH  10  11
ENDBRANCH   9  10
ENDBRANCH   8   9
ENDBRANCH   1   8
TORSDOF 9
ENDMDL
MODEL 8
REMARK VINA RESULT:    -3.943      3.565      4.320
REMARK INTER + INTRA:          -6.602
REMARK INTER:                  -6.101
REMARK INTRA:                  -0.500
REMARK UNBOUND:                -0.584
REMARK SMILES O=C([O-])CCCCCCCCC(=O)[O-]
REMARK SMILES IDX 7 1 6 2 5 3 4 4 2 5 1 6 3 7 8 8 9 9 10 10 11 11 12 12 13 13
REMARK SMILES IDX 14 14
REMARK H PARENT
REMARK Flexibility Score: inf
ROOT
ATOM      1  C   UNL     1       4.221   3.116  -3.715  1.00  0.00     0.000 C 
ENDROOT
BRANCH   1   2
ATOM      2  C   UNL     1       5.308   3.859  -4.507  1.00  0.00     0.000 C 
BRANCH   2   3
ATOM      3  C   UNL     1       5.032   5.370  -4.532  1.00  0.00     0.006 C 
BRANCH   3   4
ATOM      4  C   UNL     1       3.945   5.779  -3.531  1.00  0.00     0.053 C 
BRANCH   4   5
ATOM      5  C   UNL     1       2.811   6.492  -4.204  1.00  0.00     0.041 C 
ATOM      6  O   UNL     1       2.448   7.629  -3.800  1.00  0.00    -0.550 OA
ATOM      7  O   UNL     1       2.135   5.888  -5.255  1.00  0.00    -0.550 OA
ENDBRANCH   4   5
ENDBRANCH   3   4
ENDBRANCH   2   3
ENDBRANCH   1   2
BRANCH   1   8
ATOM      8  C   UNL     1       3.509   2.040  -4.550  1.00  0.00     0.000 C 
BRANCH   8   9
ATOM      9  C   UNL     1       2.014   1.923  -4.215  1.00  0.00     0.000 C 
BRANCH   9  10
ATOM     10  C   UNL     1       1.268   1.136  -5.302  1.00  0.00     0.006 C 
BRANCH  10  11
ATOM     11  C   UNL     1       0.555  -0.101  -4.738  1.00  0.00     0.053 C 
BRANCH  11  12
ATOM     12  C   UNL     1       1.343  -1.353  -4.973  1.00  0.00     0.041 C 
ATOM     13  O   UNL     1       1.005  -2.153  -5.884  1.00  0.00    -0.550 OA
ATOM     14  O   UNL     1       2.471  -1.620  -4.207  1.00  0.00    -0.550 OA
ENDBRANCH  11  12
ENDBRANCH  10  11
ENDBRANCH   9  10
ENDBRANCH   8   9
ENDBRANCH   1   8
TORSDOF 9
ENDMDL
MODEL 9
REMARK VINA RESULT:    -3.848      1.400      5.062
REMARK INTER + INTRA:          -6.456
REMARK INTER:                  -5.871
REMARK INTRA:                  -0.586
REMARK UNBOUND:                -0.584
REMARK SMILES O=C([O-])CCCCCCCCC(=O)[O-]
REMARK SMILES IDX 7 1 6 2 5 3 4 4 2 5 1 6 3 7 8 8 9 9 10 10 11 11 12 12 13 13
REMARK SMILES IDX 14 14
REMARK H PARENT
REMARK Flexibility Score: inf
ROOT
ATOM      1  C   UNL     1       1.822   1.698  -4.290  1.00  0.00     0.000 C 
ENDROOT
BRANCH   1   2
ATOM      2  C   UNL     1       0.461   1.337  -4.903  1.00  0.00     0.000 C 
BRANCH   2   3
ATOM      3  C   UNL     1      -0.090   0.040  -4.292  1.00  0.00     0.006 C 
BRANCH   3   4
ATOM      4  C   UNL     1       0.493  -1.211  -4.962  1.00  0.00     0.053 C 
BRANCH   4   5
ATOM      5  C   UNL     1       1.333  -2.009  -4.012  1.00  0.00     0.041 C 
ATOM      6  O   UNL     1       2.584  -2.049  -4.151  1.00  0.00    -0.550 OA
ATOM      7  O   UNL     1       0.731  -2.736  -2.993  1.00  0.00    -0.550 OA
ENDBRANCH   4   5
ENDBRANCH   3   4
ENDBRANCH   2   3
ENDBRANCH   1   2
BRANCH   1   8
ATOM      8  C   UNL     1       2.977   1.576  -5.296  1.00  0.00     0.000 C 
BRANCH   8   9
ATOM      9  C   UNL     1       4.012   2.703  -5.149  1.00  0.00     0.000 C 
BRANCH   9  10
ATOM     10  C   UNL     1       4.549   2.770  -3.712  1.00  0.00     0.006 C 
BRANCH  10  11
ATOM     11  C   UNL     1       5.368   1.526  -3.340  1.00  0.00     0.053 C 
BRANCH  11  12
ATOM     12  C   UNL     1       6.595   1.391  -4.188  1.00  0.00     0.041 C 
ATOM     13  O   UNL     1       6.706   0.430  -4.993  1.00  0.00    -0.550 OA
ATOM     14  O   UNL     1       7.600   2.347  -4.115  1.00  0.00    -0.550 OA
ENDBRANCH  11  12
ENDBRANCH  10  11
ENDBRANCH   9  10
ENDBRANCH   8   9
ENDBRANCH   1   8
TORSDOF 9
ENDMDL
