MODEL 1
REMARK VINA RESULT:     7.520      0.000      0.000
REMARK INTER + INTRA:           7.951
REMARK INTER:                   8.179
REMARK INTRA:                  -0.228
REMARK UNBOUND:                -0.228
REMARK SMILES C[C@H]1[C@@H](C)CC[C@@]2(C(=O)[O-])CC[C@@]3(C)C(=CC[C@@H]4[C@]5(C)CC[C@H](O)C(C)(C)[C@@H]5CC[C@@]43C)[C@@H]12
REMARK SMILES IDX 7 1 6 2 11 3 33 4 5 5 12 6 15 7 2 8 3 9 13 10 16 11 1 12
REMARK SMILES IDX 4 13 14 14 31 15 17 16 18 17 30 18 32 19 19 20 29 21 28 22
REMARK SMILES IDX 21 23 20 24 25 25 22 26 23 27 26 28 27 29 8 30 9 31 10 32
REMARK SMILES IDX 24 33
REMARK H PARENT 24 34
REMARK Flexibility Score: inf
ROOT
ATOM      1  C   UNL     1      22.594  11.038  -7.951  1.00  0.00     0.017 C 
ATOM      2  C   UNL     1      23.238  12.303  -8.617  1.00  0.00     0.014 C 
ATOM      3  C   UNL     1      22.604   9.908  -9.018  1.00  0.00     0.014 C 
ATOM      4  C   UNL     1      23.312  10.544  -6.612  1.00  0.00     0.030 C 
ATOM      5  C   UNL     1      23.757  13.335  -7.626  1.00  0.00     0.004 C 
ATOM      6  C   UNL     1      23.977   9.211  -9.125  1.00  0.00     0.013 C 
ATOM      7  C   UNL     1      23.790   9.061  -6.618  1.00  0.00    -0.063 C 
ATOM      8  C   UNL     1      24.248  11.593  -5.874  1.00  0.00    -0.003 C 
ATOM      9  C   UNL     1      24.843  12.739  -6.729  1.00  0.00    -0.011 C 
ATOM     10  C   UNL     1      24.332   8.336  -7.866  1.00  0.00    -0.006 C 
ATOM     11  C   UNL     1      23.709   8.366  -5.465  1.00  0.00    -0.027 C 
ATOM     12  C   UNL     1      25.289  10.994  -4.905  1.00  0.00     0.008 C 
ATOM     13  C   UNL     1      26.124  12.388  -7.504  1.00  0.00     0.008 C 
ATOM     14  C   UNL     1      25.891   8.447  -7.716  1.00  0.00     0.017 C 
ATOM     15  C   UNL     1      23.825   6.749  -7.964  1.00  0.00    -0.020 C 
ATOM     16  C   UNL     1      23.959   6.895  -5.409  1.00  0.00     0.032 C 
ATOM     17  C   UNL     1      23.229   6.200  -6.587  1.00  0.00     0.006 C 
ATOM     18  C   UNL     1      25.021   5.827  -8.361  1.00  0.00     0.008 C 
ATOM     19  C   UNL     1      22.726   6.572  -9.060  1.00  0.00     0.012 C 
ATOM     20  C   UNL     1      23.007   4.592  -6.455  1.00  0.00    -0.025 C 
ATOM     21  C   UNL     1      24.721   4.335  -8.435  1.00  0.00     0.005 C 
ATOM     22  C   UNL     1      24.153   3.715  -7.128  1.00  0.00     0.003 C 
ATOM     23  C   UNL     1      22.820   4.139  -4.957  1.00  0.00     0.010 C 
ATOM     24  C   UNL     1      21.640   4.222  -7.158  1.00  0.00     0.012 C 
ATOM     25  C   UNL     1      25.186   3.002  -6.148  1.00  0.00    -0.006 C 
ATOM     26  C   UNL     1      22.963   2.626  -4.765  1.00  0.00     0.033 C 
ATOM     27  C   UNL     1      24.383   2.113  -5.122  1.00  0.00     0.120 C 
ATOM     28  C   UNL     1      26.125   3.995  -5.411  1.00  0.00     0.014 C 
ATOM     29  C   UNL     1      26.121   2.044  -6.935  1.00  0.00     0.014 C 
ENDROOT
BRANCH   1  30
ATOM     30  C   UNL     1      21.122  11.354  -7.630  1.00  0.00     0.048 C 
ATOM     31  O   UNL     1      20.417  11.986  -8.470  1.00  0.00    -0.550 OA
ATOM     32  O   UNL     1      20.512  10.889  -6.467  1.00  0.00    -0.550 OA
ENDBRANCH   1  30
BRANCH  27  33
ATOM     33  O   UNL     1      25.134   1.900  -3.948  1.00  0.00    -0.393 OA
ATOM     34  H   UNL     1      25.760   1.146  -4.146  1.00  0.00     0.210 HD
ENDBRANCH  27  33
TORSDOF 2
ENDMDL
