MODEL 1
REMARK VINA RESULT:     0.050      0.000      0.000
REMARK INTER + INTRA:           0.050
REMARK INTER:                   0.050
REMARK INTRA:                   0.000
REMARK UNBOUND:                 0.000
REMARK SMILES C=C1CCC[C@]2(C)CC(=O)C(=C(C)C)C[C@@H]12
REMARK SMILES IDX 13 1 12 2 11 3 15 4 16 5 2 6 1 7 3 8 4 9 5 10 6 11 8 12 9 13
REMARK SMILES IDX 10 14 7 15 14 16
REMARK H PARENT
REMARK Flexibility Score: inf
ROOT
ATOM      1  C   UNL     1      21.535  25.301  28.044  1.00  0.00     0.039 C 
ATOM      2  C   UNL     1      22.948  25.825  27.929  1.00  0.00    -0.070 C 
ATOM      3  C   UNL     1      23.959  25.064  27.415  1.00  0.00    -0.006 C 
ATOM      4  C   UNL     1      25.364  25.627  27.250  1.00  0.00     0.047 C 
ATOM      5  C   UNL     1      26.128  24.995  26.060  1.00  0.00     0.025 C 
ATOM      6  C   UNL     1      27.561  25.493  25.869  1.00  0.00    -0.073 C 
ATOM      7  C   UNL     1      28.155  26.405  26.664  1.00  0.00     0.008 C 
ATOM      8  C   UNL     1      28.308  24.938  24.680  1.00  0.00     0.031 C 
ATOM      9  C   UNL     1      28.271  23.407  24.694  1.00  0.00     0.005 C 
ATOM     10  C   UNL     1      26.834  22.876  24.841  1.00  0.00     0.008 C 
ATOM     11  C   UNL     1      26.102  23.435  26.097  1.00  0.00    -0.018 C 
ATOM     12  C   UNL     1      24.627  22.964  26.043  1.00  0.00     0.088 C 
ATOM     13  C   UNL     1      23.786  23.615  27.103  1.00  0.00     0.159 C 
ATOM     14  O   UNL     1      22.948  22.908  27.725  1.00  0.00    -0.295 OA
ATOM     15  C   UNL     1      26.771  22.876  27.382  1.00  0.00     0.012 C 
ATOM     16  C   UNL     1      23.189  27.250  28.375  1.00  0.00     0.039 C 
ENDROOT
TORSDOF 0
ENDMDL
MODEL 2
REMARK VINA RESULT:     1.587      2.962      5.073
REMARK INTER + INTRA:           1.587
REMARK INTER:                   1.587
REMARK INTRA:                   0.000
REMARK UNBOUND:                 0.000
REMARK SMILES C=C1CCC[C@]2(C)CC(=O)C(=C(C)C)C[C@@H]12
REMARK SMILES IDX 13 1 12 2 11 3 15 4 16 5 2 6 1 7 3 8 4 9 5 10 6 11 8 12 9 13
REMARK SMILES IDX 10 14 7 15 14 16
REMARK H PARENT
REMARK Flexibility Score: inf
ROOT
ATOM      1  C   UNL     1      26.485  22.876  24.963  1.00  0.00     0.039 C 
ATOM      2  C   UNL     1      26.255  24.262  24.405  1.00  0.00    -0.070 C 
ATOM      3  C   UNL     1      26.720  25.380  25.038  1.00  0.00    -0.006 C 
ATOM      4  C   UNL     1      26.533  26.764  24.432  1.00  0.00     0.047 C 
ATOM      5  C   UNL     1      27.671  27.745  24.811  1.00  0.00     0.025 C 
ATOM      6  C   UNL     1      27.516  29.164  24.263  1.00  0.00    -0.073 C 
ATOM      7  C   UNL     1      26.475  29.572  23.512  1.00  0.00     0.008 C 
ATOM      8  C   UNL     1      28.642  30.123  24.568  1.00  0.00     0.031 C 
ATOM      9  C   UNL     1      28.920  30.158  26.073  1.00  0.00     0.005 C 
ATOM     10  C   UNL     1      29.125  28.744  26.645  1.00  0.00     0.008 C 
ATOM     11  C   UNL     1      27.931  27.787  26.349  1.00  0.00    -0.018 C 
ATOM     12  C   UNL     1      28.325  26.366  26.823  1.00  0.00     0.088 C 
ATOM     13  C   UNL     1      27.323  25.330  26.402  1.00  0.00     0.159 C 
ATOM     14  O   UNL     1      26.997  24.436  27.228  1.00  0.00    -0.295 OA
ATOM     15  C   UNL     1      26.678  28.260  27.135  1.00  0.00     0.012 C 
ATOM     16  C   UNL     1      25.516  24.357  23.089  1.00  0.00     0.039 C 
ENDROOT
TORSDOF 0
ENDMDL
MODEL 3
REMARK VINA RESULT:     2.149      5.228      7.419
REMARK INTER + INTRA:           2.149
REMARK INTER:                   2.149
REMARK INTRA:                   0.000
REMARK UNBOUND:                 0.000
REMARK SMILES C=C1CCC[C@]2(C)CC(=O)C(=C(C)C)C[C@@H]12
REMARK SMILES IDX 13 1 12 2 11 3 15 4 16 5 2 6 1 7 3 8 4 9 5 10 6 11 8 12 9 13
REMARK SMILES IDX 10 14 7 15 14 16
REMARK H PARENT
REMARK Flexibility Score: inf
ROOT
ATOM      1  C   UNL     1      29.125  33.053  22.381  1.00  0.00     0.039 C 
ATOM      2  C   UNL     1      28.758  32.623  23.783  1.00  0.00    -0.070 C 
ATOM      3  C   UNL     1      28.596  31.308  24.114  1.00  0.00    -0.006 C 
ATOM      4  C   UNL     1      28.286  30.887  25.544  1.00  0.00     0.047 C 
ATOM      5  C   UNL     1      28.850  29.488  25.895  1.00  0.00     0.025 C 
ATOM      6  C   UNL     1      28.535  28.994  27.307  1.00  0.00    -0.073 C 
ATOM      7  C   UNL     1      27.814  29.692  28.206  1.00  0.00     0.008 C 
ATOM      8  C   UNL     1      29.125  27.659  27.695  1.00  0.00     0.031 C 
ATOM      9  C   UNL     1      28.755  26.593  26.660  1.00  0.00     0.005 C 
ATOM     10  C   UNL     1      29.102  27.044  25.231  1.00  0.00     0.008 C 
ATOM     11  C   UNL     1      28.449  28.405  24.845  1.00  0.00    -0.018 C 
ATOM     12  C   UNL     1      29.002  28.829  23.461  1.00  0.00     0.088 C 
ATOM     13  C   UNL     1      28.588  30.224  23.089  1.00  0.00     0.159 C 
ATOM     14  O   UNL     1      28.225  30.448  21.904  1.00  0.00    -0.295 OA
ATOM     15  C   UNL     1      26.908  28.234  24.750  1.00  0.00     0.012 C 
ATOM     16  C   UNL     1      28.614  33.715  24.819  1.00  0.00     0.039 C 
ENDROOT
TORSDOF 0
ENDMDL
