MODEL 1
REMARK VINA RESULT:    -7.884      0.000      0.000
REMARK INTER + INTRA:          -9.529
REMARK INTER:                  -9.266
REMARK INTRA:                  -0.263
REMARK UNBOUND:                -0.263
REMARK SMILES O=c1cc(-c2ccc(O)c(O)c2)oc2cc(O)cc(O)c12
REMARK SMILES IDX 4 1 3 2 2 3 1 4 21 5 19 6 18 7 16 8 15 9 14 10 13 11 5 12
REMARK SMILES IDX 6 13 7 14 8 15 12 16 10 17 9 18 11 20 20 22 17 24
REMARK H PARENT 9 19 11 21 20 23 17 25
REMARK Flexibility Score: inf
ROOT
ATOM      1  C   UNL     1      47.747  43.528  46.908  1.00  0.00     0.138 A 
ATOM      2  C   UNL     1      47.393  43.296  48.248  1.00  0.00     0.100 A 
ATOM      3  C   UNL     1      46.357  44.033  48.823  1.00  0.00     0.197 A 
ATOM      4  O   UNL     1      46.048  43.819  50.026  1.00  0.00    -0.289 OA
ATOM      5  C   UNL     1      45.683  45.002  48.053  1.00  0.00     0.107 A 
ATOM      6  C   UNL     1      44.622  45.791  48.556  1.00  0.00     0.134 A 
ATOM      7  C   UNL     1      44.005  46.739  47.725  1.00  0.00     0.093 A 
ATOM      8  C   UNL     1      44.429  46.911  46.405  1.00  0.00     0.123 A 
ATOM      9  C   UNL     1      45.477  46.134  45.902  1.00  0.00     0.094 A 
ATOM     10  C   UNL     1      46.104  45.184  46.713  1.00  0.00     0.146 A 
ATOM     11  O   UNL     1      47.097  44.456  46.212  1.00  0.00    -0.456 OA
ENDROOT
BRANCH   1  12
ATOM     12  C   UNL     1      48.842  42.775  46.247  1.00  0.00     0.021 A 
ATOM     13  C   UNL     1      50.151  43.289  46.166  1.00  0.00     0.016 A 
ATOM     14  C   UNL     1      51.164  42.553  45.547  1.00  0.00     0.051 A 
ATOM     15  C   UNL     1      50.891  41.290  45.006  1.00  0.00     0.157 A 
ATOM     16  C   UNL     1      48.581  41.500  45.713  1.00  0.00     0.062 A 
ATOM     17  C   UNL     1      49.598  40.762  45.091  1.00  0.00     0.158 A 
BRANCH  15  18
ATOM     18  O   UNL     1      51.900  40.554  44.387  1.00  0.00    -0.504 OA
ATOM     19  H   UNL     1      51.689  39.824  43.715  1.00  0.00     0.293 HD
ENDBRANCH  15  18
BRANCH  17  20
ATOM     20  O   UNL     1      49.330  39.503  44.555  1.00  0.00    -0.504 OA
ATOM     21  H   UNL     1      50.012  38.755  44.591  1.00  0.00     0.293 HD
ENDBRANCH  17  20
ENDBRANCH   1  12
BRANCH   6  22
ATOM     22  O   UNL     1      44.177  45.641  49.870  1.00  0.00    -0.507 OA
ATOM     23  H   UNL     1      44.785  45.816  50.662  1.00  0.00     0.293 HD
ENDBRANCH   6  22
BRANCH   8  24
ATOM     24  O   UNL     1      43.800  47.861  45.602  1.00  0.00    -0.508 OA
ATOM     25  H   UNL     1      43.444  47.624  44.682  1.00  0.00     0.293 HD
ENDBRANCH   8  24
TORSDOF 5
ENDMDL
MODEL 2
REMARK VINA RESULT:    -7.880      3.592      6.426
REMARK INTER + INTRA:          -9.525
REMARK INTER:                  -9.252
REMARK INTRA:                  -0.273
REMARK UNBOUND:                -0.263
REMARK SMILES O=c1cc(-c2ccc(O)c(O)c2)oc2cc(O)cc(O)c12
REMARK SMILES IDX 4 1 3 2 2 3 1 4 21 5 19 6 18 7 16 8 15 9 14 10 13 11 5 12
REMARK SMILES IDX 6 13 7 14 8 15 12 16 10 17 9 18 11 20 20 22 17 24
REMARK H PARENT 9 19 11 21 20 23 17 25
REMARK Flexibility Score: inf
ROOT
ATOM      1  C   UNL     1      44.387  45.508  44.346  1.00  0.00     0.138 A 
ATOM      2  C   UNL     1      43.827  46.457  45.218  1.00  0.00     0.100 A 
ATOM      3  C   UNL     1      44.269  46.521  46.540  1.00  0.00     0.197 A 
ATOM      4  O   UNL     1      43.760  47.375  47.315  1.00  0.00    -0.289 OA
ATOM      5  C   UNL     1      45.267  45.631  46.983  1.00  0.00     0.107 A 
ATOM      6  C   UNL     1      45.773  45.629  48.305  1.00  0.00     0.134 A 
ATOM      7  C   UNL     1      46.764  44.705  48.669  1.00  0.00     0.093 A 
ATOM      8  C   UNL     1      47.257  43.786  47.739  1.00  0.00     0.123 A 
ATOM      9  C   UNL     1      46.762  43.784  46.431  1.00  0.00     0.094 A 
ATOM     10  C   UNL     1      45.775  44.696  46.048  1.00  0.00     0.146 A 
ATOM     11  O   UNL     1      45.321  44.675  44.799  1.00  0.00    -0.456 OA
ENDROOT
BRANCH   1  12
ATOM     12  C   UNL     1      43.954  45.394  42.931  1.00  0.00     0.021 A 
ATOM     13  C   UNL     1      44.884  45.314  41.876  1.00  0.00     0.016 A 
ATOM     14  C   UNL     1      44.448  45.197  40.554  1.00  0.00     0.051 A 
ATOM     15  C   UNL     1      43.078  45.148  40.264  1.00  0.00     0.157 A 
ATOM     16  C   UNL     1      42.582  45.330  42.630  1.00  0.00     0.062 A 
ATOM     17  C   UNL     1      42.144  45.213  41.303  1.00  0.00     0.158 A 
BRANCH  15  18
ATOM     18  O   UNL     1      42.640  45.032  38.946  1.00  0.00    -0.504 OA
ATOM     19  H   UNL     1      42.794  44.186  38.408  1.00  0.00     0.293 HD
ENDBRANCH  15  18
BRANCH  17  20
ATOM     20  O   UNL     1      40.782  45.160  41.011  1.00  0.00    -0.504 OA
ATOM     21  H   UNL     1      40.238  46.002  40.862  1.00  0.00     0.293 HD
ENDBRANCH  17  20
ENDBRANCH   1  12
BRANCH   6  22
ATOM     22  O   UNL     1      45.299  46.534  49.256  1.00  0.00    -0.507 OA
ATOM     23  H   UNL     1      45.630  47.491  49.292  1.00  0.00     0.293 HD
ENDBRANCH   6  22
BRANCH   8  24
ATOM     24  O   UNL     1      48.241  42.879  48.127  1.00  0.00    -0.508 OA
ATOM     25  H   UNL     1      48.301  42.537  49.080  1.00  0.00     0.293 HD
ENDBRANCH   8  24
TORSDOF 5
ENDMDL
MODEL 3
REMARK VINA RESULT:    -7.652      1.707      2.035
REMARK INTER + INTRA:          -9.257
REMARK INTER:                  -8.965
REMARK INTRA:                  -0.293
REMARK UNBOUND:                -0.263
REMARK SMILES O=c1cc(-c2ccc(O)c(O)c2)oc2cc(O)cc(O)c12
REMARK SMILES IDX 4 1 3 2 2 3 1 4 21 5 19 6 18 7 16 8 15 9 14 10 13 11 5 12
REMARK SMILES IDX 6 13 7 14 8 15 12 16 10 17 9 18 11 20 20 22 17 24
REMARK H PARENT 9 19 11 21 20 23 17 25
REMARK Flexibility Score: inf
ROOT
ATOM      1  C   UNL     1      46.863  43.063  46.864  1.00  0.00     0.138 A 
ATOM      2  C   UNL     1      47.165  43.325  48.211  1.00  0.00     0.100 A 
ATOM      3  C   UNL     1      46.705  44.502  48.803  1.00  0.00     0.197 A 
ATOM      4  O   UNL     1      46.984  44.729  50.012  1.00  0.00    -0.289 OA
ATOM      5  C   UNL     1      45.947  45.413  48.041  1.00  0.00     0.107 A 
ATOM      6  C   UNL     1      45.441  46.627  48.562  1.00  0.00     0.134 A 
ATOM      7  C   UNL     1      44.699  47.483  47.736  1.00  0.00     0.093 A 
ATOM      8  C   UNL     1      44.453  47.149  46.401  1.00  0.00     0.123 A 
ATOM      9  C   UNL     1      44.950  45.950  45.880  1.00  0.00     0.094 A 
ATOM     10  C   UNL     1      45.691  45.083  46.688  1.00  0.00     0.146 A 
ATOM     11  O   UNL     1      46.152  43.949  46.170  1.00  0.00    -0.456 OA
ENDROOT
BRANCH   1  12
ATOM     12  C   UNL     1      47.327  41.829  46.184  1.00  0.00     0.021 A 
ATOM     13  C   UNL     1      46.817  41.438  44.930  1.00  0.00     0.016 A 
ATOM     14  C   UNL     1      47.281  40.276  44.308  1.00  0.00     0.051 A 
ATOM     15  C   UNL     1      48.266  39.491  44.920  1.00  0.00     0.157 A 
ATOM     16  C   UNL     1      48.326  41.041  46.784  1.00  0.00     0.062 A 
ATOM     17  C   UNL     1      48.791  39.875  46.159  1.00  0.00     0.158 A 
BRANCH  15  18
ATOM     18  O   UNL     1      48.730  38.331  44.302  1.00  0.00    -0.504 OA
ATOM     19  H   UNL     1      49.489  37.787  44.696  1.00  0.00     0.293 HD
ENDBRANCH  15  18
BRANCH  17  20
ATOM     20  O   UNL     1      49.774  39.094  46.765  1.00  0.00    -0.504 OA
ATOM     21  H   UNL     1      49.562  38.181  47.151  1.00  0.00     0.293 HD
ENDBRANCH  17  20
ENDBRANCH   1  12
BRANCH   6  22
ATOM     22  O   UNL     1      45.671  46.988  49.891  1.00  0.00    -0.507 OA
ATOM     23  H   UNL     1      46.096  47.875  50.136  1.00  0.00     0.293 HD
ENDBRANCH   6  22
BRANCH   8  24
ATOM     24  O   UNL     1      43.713  48.018  45.602  1.00  0.00    -0.508 OA
ATOM     25  H   UNL     1      43.042  47.673  44.925  1.00  0.00     0.293 HD
ENDBRANCH   8  24
TORSDOF 5
ENDMDL
MODEL 4
REMARK VINA RESULT:    -7.499     10.387     12.013
REMARK INTER + INTRA:          -9.078
REMARK INTER:                  -8.814
REMARK INTRA:                  -0.263
REMARK UNBOUND:                -0.263
REMARK SMILES O=c1cc(-c2ccc(O)c(O)c2)oc2cc(O)cc(O)c12
REMARK SMILES IDX 4 1 3 2 2 3 1 4 21 5 19 6 18 7 16 8 15 9 14 10 13 11 5 12
REMARK SMILES IDX 6 13 7 14 8 15 12 16 10 17 9 18 11 20 20 22 17 24
REMARK H PARENT 9 19 11 21 20 23 17 25
REMARK Flexibility Score: inf
ROOT
ATOM      1  C   UNL     1      49.407  45.053  35.569  1.00  0.00     0.138 A 
ATOM      2  C   UNL     1      50.594  44.366  35.875  1.00  0.00     0.100 A 
ATOM      3  C   UNL     1      51.384  44.799  36.941  1.00  0.00     0.197 A 
ATOM      4  O   UNL     1      52.447  44.176  37.207  1.00  0.00    -0.289 OA
ATOM      5  C   UNL     1      50.983  45.922  37.692  1.00  0.00     0.107 A 
ATOM      6  C   UNL     1      51.723  46.426  38.788  1.00  0.00     0.134 A 
ATOM      7  C   UNL     1      51.258  47.553  39.481  1.00  0.00     0.093 A 
ATOM      8  C   UNL     1      50.070  48.183  39.101  1.00  0.00     0.123 A 
ATOM      9  C   UNL     1      49.334  47.689  38.020  1.00  0.00     0.094 A 
ATOM     10  C   UNL     1      49.780  46.567  37.316  1.00  0.00     0.146 A 
ATOM     11  O   UNL     1      49.062  46.116  36.292  1.00  0.00    -0.456 OA
ENDROOT
BRANCH   1  12
ATOM     12  C   UNL     1      48.530  44.638  34.446  1.00  0.00     0.021 A 
ATOM     13  C   UNL     1      48.320  45.465  33.325  1.00  0.00     0.016 A 
ATOM     14  C   UNL     1      47.497  45.043  32.278  1.00  0.00     0.051 A 
ATOM     15  C   UNL     1      46.878  43.788  32.327  1.00  0.00     0.157 A 
ATOM     16  C   UNL     1      47.914  43.374  34.480  1.00  0.00     0.062 A 
ATOM     17  C   UNL     1      47.088  42.951  33.428  1.00  0.00     0.158 A 
BRANCH  15  18
ATOM     18  O   UNL     1      46.055  43.365  31.284  1.00  0.00    -0.504 OA
ATOM     19  H   UNL     1      45.077  43.146  31.434  1.00  0.00     0.293 HD
ENDBRANCH  15  18
BRANCH  17  20
ATOM     20  O   UNL     1      46.473  41.701  33.473  1.00  0.00    -0.504 OA
ATOM     21  H   UNL     1      47.004  40.845  33.367  1.00  0.00     0.293 HD
ENDBRANCH  17  20
ENDBRANCH   1  12
BRANCH   6  22
ATOM     22  O   UNL     1      52.913  45.817  39.190  1.00  0.00    -0.507 OA
ATOM     23  H   UNL     1      53.654  46.342  39.640  1.00  0.00     0.293 HD
ENDBRANCH   6  22
BRANCH   8  24
ATOM     24  O   UNL     1      49.631  49.302  39.807  1.00  0.00    -0.508 OA
ATOM     25  H   UNL     1      49.519  50.202  39.356  1.00  0.00     0.293 HD
ENDBRANCH   8  24
TORSDOF 5
ENDMDL
MODEL 5
REMARK VINA RESULT:    -7.402      2.154      6.821
REMARK INTER + INTRA:          -8.963
REMARK INTER:                  -8.655
REMARK INTRA:                  -0.309
REMARK UNBOUND:                -0.263
REMARK SMILES O=c1cc(-c2ccc(O)c(O)c2)oc2cc(O)cc(O)c12
REMARK SMILES IDX 4 1 3 2 2 3 1 4 21 5 19 6 18 7 16 8 15 9 14 10 13 11 5 12
REMARK SMILES IDX 6 13 7 14 8 15 12 16 10 17 9 18 11 20 20 22 17 24
REMARK H PARENT 9 19 11 21 20 23 17 25
REMARK Flexibility Score: inf
ROOT
ATOM      1  C   UNL     1      47.361  43.738  46.454  1.00  0.00     0.138 A 
ATOM      2  C   UNL     1      48.467  43.903  47.305  1.00  0.00     0.100 A 
ATOM      3  C   UNL     1      49.383  42.861  47.452  1.00  0.00     0.197 A 
ATOM      4  O   UNL     1      50.372  43.018  48.219  1.00  0.00    -0.289 OA
ATOM      5  C   UNL     1      49.184  41.656  46.749  1.00  0.00     0.107 A 
ATOM      6  C   UNL     1      50.064  40.551  46.839  1.00  0.00     0.134 A 
ATOM      7  C   UNL     1      49.792  39.384  46.110  1.00  0.00     0.093 A 
ATOM      8  C   UNL     1      48.660  39.301  45.295  1.00  0.00     0.123 A 
ATOM      9  C   UNL     1      47.788  40.390  45.200  1.00  0.00     0.094 A 
ATOM     10  C   UNL     1      48.041  41.562  45.918  1.00  0.00     0.146 A 
ATOM     11  O   UNL     1      47.198  42.584  45.812  1.00  0.00    -0.456 OA
ENDROOT
BRANCH   1  12
ATOM     12  C   UNL     1      46.355  44.812  46.261  1.00  0.00     0.021 A 
ATOM     13  C   UNL     1      46.119  45.791  47.245  1.00  0.00     0.016 A 
ATOM     14  C   UNL     1      45.173  46.797  47.031  1.00  0.00     0.051 A 
ATOM     15  C   UNL     1      44.454  46.847  45.830  1.00  0.00     0.157 A 
ATOM     16  C   UNL     1      45.638  44.879  45.052  1.00  0.00     0.062 A 
ATOM     17  C   UNL     1      44.688  45.889  44.839  1.00  0.00     0.158 A 
BRANCH  15  18
ATOM     18  O   UNL     1      43.509  47.849  45.615  1.00  0.00    -0.504 OA
ATOM     19  H   UNL     1      42.697  47.695  45.029  1.00  0.00     0.293 HD
ENDBRANCH  15  18
BRANCH  17  20
ATOM     20  O   UNL     1      43.974  45.943  43.643  1.00  0.00    -0.504 OA
ATOM     21  H   UNL     1      44.066  46.726  43.005  1.00  0.00     0.293 HD
ENDBRANCH  17  20
ENDBRANCH   1  12
BRANCH   6  22
ATOM     22  O   UNL     1      51.201  40.604  47.646  1.00  0.00    -0.507 OA
ATOM     23  H   UNL     1      51.143  40.812  48.636  1.00  0.00     0.293 HD
ENDBRANCH   6  22
BRANCH   8  24
ATOM     24  O   UNL     1      48.413  38.129  44.582  1.00  0.00    -0.508 OA
ATOM     25  H   UNL     1      47.469  37.812  44.396  1.00  0.00     0.293 HD
ENDBRANCH   8  24
TORSDOF 5
ENDMDL
MODEL 6
REMARK VINA RESULT:    -7.326     11.838     12.957
REMARK INTER + INTRA:          -8.874
REMARK INTER:                  -8.600
REMARK INTRA:                  -0.274
REMARK UNBOUND:                -0.263
REMARK SMILES O=c1cc(-c2ccc(O)c(O)c2)oc2cc(O)cc(O)c12
REMARK SMILES IDX 4 1 3 2 2 3 1 4 21 5 19 6 18 7 16 8 15 9 14 10 13 11 5 12
REMARK SMILES IDX 6 13 7 14 8 15 12 16 10 17 9 18 11 20 20 22 17 24
REMARK H PARENT 9 19 11 21 20 23 17 25
REMARK Flexibility Score: inf
ROOT
ATOM      1  C   UNL     1      50.054  45.967  35.103  1.00  0.00     0.138 A 
ATOM      2  C   UNL     1      51.215  45.690  35.845  1.00  0.00     0.100 A 
ATOM      3  C   UNL     1      52.013  46.744  36.291  1.00  0.00     0.197 A 
ATOM      4  O   UNL     1      53.053  46.486  36.954  1.00  0.00    -0.289 OA
ATOM      5  C   UNL     1      51.647  48.071  35.987  1.00  0.00     0.107 A 
ATOM      6  C   UNL     1      52.398  49.196  36.401  1.00  0.00     0.134 A 
ATOM      7  C   UNL     1      51.968  50.485  36.053  1.00  0.00     0.093 A 
ATOM      8  C   UNL     1      50.804  50.669  35.301  1.00  0.00     0.123 A 
ATOM      9  C   UNL     1      50.057  49.561  34.890  1.00  0.00     0.094 A 
ATOM     10  C   UNL     1      50.468  48.268  35.227  1.00  0.00     0.146 A 
ATOM     11  O   UNL     1      49.741  47.230  34.826  1.00  0.00    -0.456 OA
ENDROOT
BRANCH   1  12
ATOM     12  C   UNL     1      49.169  44.885  34.602  1.00  0.00     0.021 A 
ATOM     13  C   UNL     1      48.731  44.847  33.264  1.00  0.00     0.016 A 
ATOM     14  C   UNL     1      47.907  43.810  32.818  1.00  0.00     0.051 A 
ATOM     15  C   UNL     1      47.513  42.793  33.696  1.00  0.00     0.157 A 
ATOM     16  C   UNL     1      48.779  43.852  35.473  1.00  0.00     0.062 A 
ATOM     17  C   UNL     1      47.951  42.812  35.025  1.00  0.00     0.158 A 
BRANCH  15  18
ATOM     18  O   UNL     1      46.690  41.758  33.254  1.00  0.00    -0.504 OA
ATOM     19  H   UNL     1      45.956  41.376  33.840  1.00  0.00     0.293 HD
ENDBRANCH  15  18
BRANCH  17  20
ATOM     20  O   UNL     1      47.560  41.796  35.896  1.00  0.00    -0.504 OA
ATOM     21  H   UNL     1      47.544  40.826  35.605  1.00  0.00     0.293 HD
ENDBRANCH  17  20
ENDBRANCH   1  12
BRANCH   6  22
ATOM     22  O   UNL     1      53.564  49.043  37.152  1.00  0.00    -0.507 OA
ATOM     23  H   UNL     1      53.572  48.532  38.026  1.00  0.00     0.293 HD
ENDBRANCH   6  22
BRANCH   8  24
ATOM     24  O   UNL     1      50.400  51.961  34.969  1.00  0.00    -0.508 OA
ATOM     25  H   UNL     1      49.461  52.289  35.166  1.00  0.00     0.293 HD
ENDBRANCH   8  24
TORSDOF 5
ENDMDL
MODEL 7
REMARK VINA RESULT:    -7.267     10.509     12.449
REMARK INTER + INTRA:          -8.805
REMARK INTER:                  -8.521
REMARK INTRA:                  -0.284
REMARK UNBOUND:                -0.263
REMARK SMILES O=c1cc(-c2ccc(O)c(O)c2)oc2cc(O)cc(O)c12
REMARK SMILES IDX 4 1 3 2 2 3 1 4 21 5 19 6 18 7 16 8 15 9 14 10 13 11 5 12
REMARK SMILES IDX 6 13 7 14 8 15 12 16 10 17 9 18 11 20 20 22 17 24
REMARK H PARENT 9 19 11 21 20 23 17 25
REMARK Flexibility Score: inf
ROOT
ATOM      1  C   UNL     1      49.088  45.350  35.483  1.00  0.00     0.138 A 
ATOM      2  C   UNL     1      48.708  46.489  36.213  1.00  0.00     0.100 A 
ATOM      3  C   UNL     1      49.509  46.928  37.268  1.00  0.00     0.197 A 
ATOM      4  O   UNL     1      49.158  47.949  37.919  1.00  0.00    -0.289 OA
ATOM      5  C   UNL     1      50.684  46.220  37.589  1.00  0.00     0.107 A 
ATOM      6  C   UNL     1      51.552  46.598  38.641  1.00  0.00     0.134 A 
ATOM      7  C   UNL     1      52.702  45.836  38.900  1.00  0.00     0.093 A 
ATOM      8  C   UNL     1      52.999  44.709  38.130  1.00  0.00     0.123 A 
ATOM      9  C   UNL     1      52.145  44.332  37.089  1.00  0.00     0.094 A 
ATOM     10  C   UNL     1      50.995  45.077  36.814  1.00  0.00     0.146 A 
ATOM     11  O   UNL     1      50.199  44.700  35.818  1.00  0.00    -0.456 OA
ENDROOT
BRANCH   1  12
ATOM     12  C   UNL     1      48.273  44.838  34.352  1.00  0.00     0.021 A 
ATOM     13  C   UNL     1      47.941  45.651  33.251  1.00  0.00     0.016 A 
ATOM     14  C   UNL     1      47.182  45.138  32.196  1.00  0.00     0.051 A 
ATOM     15  C   UNL     1      46.751  43.806  32.218  1.00  0.00     0.157 A 
ATOM     16  C   UNL     1      47.848  43.497  34.358  1.00  0.00     0.062 A 
ATOM     17  C   UNL     1      47.086  42.983  33.299  1.00  0.00     0.158 A 
BRANCH  15  18
ATOM     18  O   UNL     1      45.993  43.292  31.167  1.00  0.00    -0.504 OA
ATOM     19  H   UNL     1      45.107  43.706  30.899  1.00  0.00     0.293 HD
ENDBRANCH  15  18
BRANCH  17  20
ATOM     20  O   UNL     1      46.658  41.656  33.316  1.00  0.00    -0.504 OA
ATOM     21  H   UNL     1      45.880  41.357  33.891  1.00  0.00     0.293 HD
ENDBRANCH  17  20
ENDBRANCH   1  12
BRANCH   6  22
ATOM     22  O   UNL     1      51.282  47.718  39.428  1.00  0.00    -0.507 OA
ATOM     23  H   UNL     1      51.219  47.657  40.438  1.00  0.00     0.293 HD
ENDBRANCH   6  22
BRANCH   8  24
ATOM     24  O   UNL     1      54.147  43.971  38.409  1.00  0.00    -0.508 OA
ATOM     25  H   UNL     1      54.099  43.074  38.879  1.00  0.00     0.293 HD
ENDBRANCH   8  24
TORSDOF 5
ENDMDL
MODEL 8
REMARK VINA RESULT:    -7.195      1.861      7.224
REMARK INTER + INTRA:          -8.720
REMARK INTER:                  -8.457
REMARK INTRA:                  -0.264
REMARK UNBOUND:                -0.263
REMARK SMILES O=c1cc(-c2ccc(O)c(O)c2)oc2cc(O)cc(O)c12
REMARK SMILES IDX 4 1 3 2 2 3 1 4 21 5 19 6 18 7 16 8 15 9 14 10 13 11 5 12
REMARK SMILES IDX 6 13 7 14 8 15 12 16 10 17 9 18 11 20 20 22 17 24
REMARK H PARENT 9 19 11 21 20 23 17 25
REMARK Flexibility Score: inf
ROOT
ATOM      1  C   UNL     1      47.710  43.176  47.223  1.00  0.00     0.138 A 
ATOM      2  C   UNL     1      47.242  41.970  46.675  1.00  0.00     0.100 A 
ATOM      3  C   UNL     1      48.131  40.910  46.486  1.00  0.00     0.197 A 
ATOM      4  O   UNL     1      47.702  39.832  45.992  1.00  0.00    -0.289 OA
ATOM      5  C   UNL     1      49.485  41.066  46.844  1.00  0.00     0.107 A 
ATOM      6  C   UNL     1      50.450  40.043  46.688  1.00  0.00     0.134 A 
ATOM      7  C   UNL     1      51.781  40.280  47.065  1.00  0.00     0.093 A 
ATOM      8  C   UNL     1      52.162  41.516  47.593  1.00  0.00     0.123 A 
ATOM      9  C   UNL     1      51.213  42.530  47.750  1.00  0.00     0.094 A 
ATOM     10  C   UNL     1      49.882  42.315  47.382  1.00  0.00     0.146 A 
ATOM     11  O   UNL     1      48.997  43.293  47.541  1.00  0.00    -0.456 OA
ENDROOT
BRANCH   1  12
ATOM     12  C   UNL     1      46.811  44.336  47.444  1.00  0.00     0.021 A 
ATOM     13  C   UNL     1      46.658  45.349  46.477  1.00  0.00     0.016 A 
ATOM     14  C   UNL     1      45.796  46.424  46.708  1.00  0.00     0.051 A 
ATOM     15  C   UNL     1      45.066  46.502  47.901  1.00  0.00     0.157 A 
ATOM     16  C   UNL     1      46.064  44.416  48.632  1.00  0.00     0.062 A 
ATOM     17  C   UNL     1      45.199  45.495  48.864  1.00  0.00     0.158 A 
BRANCH  15  18
ATOM     18  O   UNL     1      44.206  47.574  48.134  1.00  0.00    -0.504 OA
ATOM     19  H   UNL     1      44.558  48.495  48.367  1.00  0.00     0.293 HD
ENDBRANCH  15  18
BRANCH  17  20
ATOM     20  O   UNL     1      44.469  45.574  50.049  1.00  0.00    -0.504 OA
ATOM     21  H   UNL     1      44.388  46.441  50.566  1.00  0.00     0.293 HD
ENDBRANCH  17  20
ENDBRANCH   1  12
BRANCH   6  22
ATOM     22  O   UNL     1      50.099  38.799  46.163  1.00  0.00    -0.507 OA
ATOM     23  H   UNL     1      49.270  38.676  45.594  1.00  0.00     0.293 HD
ENDBRANCH   6  22
BRANCH   8  24
ATOM     24  O   UNL     1      53.491  41.725  47.958  1.00  0.00    -0.508 OA
ATOM     25  H   UNL     1      53.844  42.652  48.167  1.00  0.00     0.293 HD
ENDBRANCH   8  24
TORSDOF 5
ENDMDL
MODEL 9
REMARK VINA RESULT:    -7.150     12.292     13.381
REMARK INTER + INTRA:          -8.668
REMARK INTER:                  -8.400
REMARK INTRA:                  -0.267
REMARK UNBOUND:                -0.263
REMARK SMILES O=c1cc(-c2ccc(O)c(O)c2)oc2cc(O)cc(O)c12
REMARK SMILES IDX 4 1 3 2 2 3 1 4 21 5 19 6 18 7 16 8 15 9 14 10 13 11 5 12
REMARK SMILES IDX 6 13 7 14 8 15 12 16 10 17 9 18 11 20 20 22 17 24
REMARK H PARENT 9 19 11 21 20 23 17 25
REMARK Flexibility Score: inf
ROOT
ATOM      1  C   UNL     1      49.827  45.763  34.826  1.00  0.00     0.138 A 
ATOM      2  C   UNL     1      49.347  47.083  34.798  1.00  0.00     0.100 A 
ATOM      3  C   UNL     1      50.117  48.107  35.352  1.00  0.00     0.197 A 
ATOM      4  O   UNL     1      49.677  49.288  35.323  1.00  0.00    -0.289 OA
ATOM      5  C   UNL     1      51.364  47.802  35.934  1.00  0.00     0.107 A 
ATOM      6  C   UNL     1      52.207  48.778  36.515  1.00  0.00     0.134 A 
ATOM      7  C   UNL     1      53.432  48.392  37.080  1.00  0.00     0.093 A 
ATOM      8  C   UNL     1      53.827  47.051  37.075  1.00  0.00     0.123 A 
ATOM      9  C   UNL     1      52.999  46.082  36.501  1.00  0.00     0.094 A 
ATOM     10  C   UNL     1      51.775  46.447  35.932  1.00  0.00     0.146 A 
ATOM     11  O   UNL     1      51.004  45.508  35.392  1.00  0.00    -0.456 OA
ENDROOT
BRANCH   1  12
ATOM     12  C   UNL     1      49.050  44.635  34.254  1.00  0.00     0.021 A 
ATOM     13  C   UNL     1      48.662  43.531  35.038  1.00  0.00     0.016 A 
ATOM     14  C   UNL     1      47.921  42.489  34.475  1.00  0.00     0.051 A 
ATOM     15  C   UNL     1      47.549  42.534  33.126  1.00  0.00     0.157 A 
ATOM     16  C   UNL     1      48.659  44.678  32.904  1.00  0.00     0.062 A 
ATOM     17  C   UNL     1      47.916  43.631  32.339  1.00  0.00     0.158 A 
BRANCH  15  18
ATOM     18  O   UNL     1      46.810  41.495  32.562  1.00  0.00    -0.504 OA
ATOM     19  H   UNL     1      47.073  40.525  32.693  1.00  0.00     0.293 HD
ENDBRANCH  15  18
BRANCH  17  20
ATOM     20  O   UNL     1      47.541  43.676  30.997  1.00  0.00    -0.504 OA
ATOM     21  H   UNL     1      46.575  43.571  30.713  1.00  0.00     0.293 HD
ENDBRANCH  17  20
ENDBRANCH   1  12
BRANCH   6  22
ATOM     22  O   UNL     1      51.838  50.124  36.536  1.00  0.00    -0.507 OA
ATOM     23  H   UNL     1      50.875  50.415  36.417  1.00  0.00     0.293 HD
ENDBRANCH   6  22
BRANCH   8  24
ATOM     24  O   UNL     1      55.049  46.695  37.643  1.00  0.00    -0.508 OA
ATOM     25  H   UNL     1      55.915  46.758  37.121  1.00  0.00     0.293 HD
ENDBRANCH   8  24
TORSDOF 5
ENDMDL
