MODEL 1
REMARK VINA RESULT:     4.415      0.000      0.000
REMARK INTER + INTRA:           6.467
REMARK INTER:                   7.254
REMARK INTRA:                  -0.786
REMARK UNBOUND:                -0.786
REMARK SMILES C[C@@H]1O[C@H](OC[C@H]2O[C@@H](Oc3c(-c4ccc(O)c(O)c4)oc4cc(O)cc(O)c4c3=O)[C@@H](O)[C@@H](O)[C@@H]2O)[C@H](O)[C@H](O)[C@H]1O
REMARK SMILES IDX 7 1 36 2 34 3 32 4 9 5 8 6 6 7 5 8 4 9 1 10 2 11 42 12 3 13
REMARK SMILES IDX 40 14 38 15 43 16 41 18 39 20 37 22 35 24 10 26 11 27 12 28
REMARK SMILES IDX 30 29 21 30 29 31 31 32 22 33 27 34 23 35 26 36 24 37 13 38
REMARK SMILES IDX 20 39 14 40 18 41 15 42 16 43 19 44 17 46 28 48 25 50 33 52
REMARK H PARENT 43 17 41 19 39 21 37 23 35 25 19 45 17 47 28 49 25 51 33 53
REMARK Flexibility Score: inf
ROOT
ATOM      1  C   UNL     1      95.462 103.761 102.083  1.00  0.00     0.180 C 
ATOM      2  C   UNL     1      96.653 103.728 103.084  1.00  0.00     0.177 C 
ATOM      3  C   UNL     1      97.639 102.553 102.851  1.00  0.00     0.180 C 
ATOM      4  C   UNL     1      96.896 101.261 102.469  1.00  0.00     0.214 C 
ATOM      5  C   UNL     1      95.807 101.503 101.406  1.00  0.00     0.339 C 
ATOM      6  O   UNL     1      94.881 102.489 101.832  1.00  0.00    -0.332 OA
ENDROOT
BRANCH   1   7
ATOM      7  C   UNL     1      95.731 104.552 100.776  1.00  0.00     0.198 C 
BRANCH   7   8
ATOM      8  O   UNL     1      96.846 105.410 100.959  1.00  0.00    -0.347 OA
BRANCH   8   9
ATOM      9  C   UNL     1      96.607 106.737 100.494  1.00  0.00     0.281 C 
ATOM     10  C   UNL     1      97.573 109.474 102.187  1.00  0.00     0.041 C 
ATOM     11  C   UNL     1      96.372 108.988 101.353  1.00  0.00     0.150 C 
ATOM     12  C   UNL     1      96.444 109.433  99.875  1.00  0.00     0.174 C 
ATOM     13  O   UNL     1      96.155 107.595 101.550  1.00  0.00    -0.344 OA
ATOM     14  C   UNL     1      97.503 108.640  99.066  1.00  0.00     0.179 C 
ATOM     15  C   UNL     1      97.823 107.260  99.695  1.00  0.00     0.202 C 
BRANCH  12  16
ATOM     16  O   UNL     1      95.182 109.261  99.278  1.00  0.00    -0.388 OA
ATOM     17  H   UNL     1      94.521 109.743  99.846  1.00  0.00     0.211 HD
ENDBRANCH  12  16
BRANCH  14  18
ATOM     18  O   UNL     1      98.676 109.410  98.926  1.00  0.00    -0.387 OA
ATOM     19  H   UNL     1      99.355 109.050  99.548  1.00  0.00     0.211 HD
ENDBRANCH  14  18
BRANCH  15  20
ATOM     20  O   UNL     1      98.967 107.305 100.514  1.00  0.00    -0.385 OA
ATOM     21  H   UNL     1      99.710 107.667  99.961  1.00  0.00     0.211 HD
ENDBRANCH  15  20
ENDBRANCH   8   9
ENDBRANCH   7   8
ENDBRANCH   1   7
BRANCH   2  22
ATOM     22  O   UNL     1      96.131 103.642 104.382  1.00  0.00    -0.387 OA
ATOM     23  H   UNL     1      96.357 104.489 104.851  1.00  0.00     0.211 HD
ENDBRANCH   2  22
BRANCH   3  24
ATOM     24  O   UNL     1      98.652 102.886 101.940  1.00  0.00    -0.387 OA
ATOM     25  H   UNL     1      99.132 102.063 101.700  1.00  0.00     0.211 HD
ENDBRANCH   3  24
BRANCH   5  26
ATOM     26  O   UNL     1      96.374 101.814 100.131  1.00  0.00    -0.454 OA
BRANCH  26  27
ATOM     27  C   UNL     1      96.604 100.895  99.094  1.00  0.00     0.214 A 
ATOM     28  C   UNL     1      97.473 101.263  98.050  1.00  0.00     0.180 A 
ATOM     29  C   UNL     1      96.007  99.621  99.051  1.00  0.00     0.239 A 
ATOM     30  O   UNL     1      97.778 100.392  97.087  1.00  0.00    -0.452 OA
ATOM     31  C   UNL     1      96.347  98.727  98.013  1.00  0.00     0.111 A 
ATOM     32  O   UNL     1      95.163  99.295  99.921  1.00  0.00    -0.285 OA
ATOM     33  C   UNL     1      97.271  99.163  97.035  1.00  0.00     0.146 A 
ATOM     34  C   UNL     1      95.811  97.421  97.911  1.00  0.00     0.134 A 
ATOM     35  C   UNL     1      97.654  98.315  95.987  1.00  0.00     0.094 A 
ATOM     36  C   UNL     1      96.211  96.584  96.858  1.00  0.00     0.093 A 
ATOM     37  C   UNL     1      97.131  97.025  95.901  1.00  0.00     0.123 A 
BRANCH  28  38
ATOM     38  C   UNL     1      98.083 102.610  98.013  1.00  0.00     0.025 A 
ATOM     39  C   UNL     1      98.666 103.157  99.167  1.00  0.00     0.062 A 
ATOM     40  C   UNL     1      98.131 103.321  96.806  1.00  0.00     0.016 A 
ATOM     41  C   UNL     1      99.365 104.369  99.102  1.00  0.00     0.158 A 
ATOM     42  C   UNL     1      98.811 104.538  96.741  1.00  0.00     0.051 A 
ATOM     43  C   UNL     1      99.448 105.054  97.881  1.00  0.00     0.157 A 
BRANCH  41  44
ATOM     44  O   UNL     1      99.976 104.883 100.239  1.00  0.00    -0.504 OA
ATOM     45  H   UNL     1      99.480 105.500 100.868  1.00  0.00     0.293 HD
ENDBRANCH  41  44
BRANCH  43  46
ATOM     46  O   UNL     1     100.167 106.241  97.777  1.00  0.00    -0.504 OA
ATOM     47  H   UNL     1      99.800 107.056  97.299  1.00  0.00     0.293 HD
ENDBRANCH  43  46
ENDBRANCH  28  38
BRANCH  34  48
ATOM     48  O   UNL     1      94.882  96.950  98.842  1.00  0.00    -0.507 OA
ATOM     49  H   UNL     1      95.064  96.986  99.838  1.00  0.00     0.293 HD
ENDBRANCH  34  48
BRANCH  37  50
ATOM     50  O   UNL     1      97.518  96.174  94.875  1.00  0.00    -0.508 OA
ATOM     51  H   UNL     1      98.344  96.349  94.313  1.00  0.00     0.293 HD
ENDBRANCH  37  50
ENDBRANCH  26  27
ENDBRANCH   5  26
BRANCH   4  52
ATOM     52  O   UNL     1      97.805 100.253 102.077  1.00  0.00    -0.384 OA
ATOM     53  H   UNL     1      97.590  99.967 101.162  1.00  0.00     0.211 HD
ENDBRANCH   4  52
TORSDOF 16
ENDMDL
MODEL 2
REMARK VINA RESULT:     4.947      1.674      8.853
REMARK INTER + INTRA:           7.342
REMARK INTER:                   4.806
REMARK INTRA:                   2.536
REMARK UNBOUND:                -0.786
REMARK SMILES C[C@@H]1O[C@H](OC[C@H]2O[C@@H](Oc3c(-c4ccc(O)c(O)c4)oc4cc(O)cc(O)c4c3=O)[C@@H](O)[C@@H](O)[C@@H]2O)[C@H](O)[C@H](O)[C@H]1O
REMARK SMILES IDX 7 1 36 2 34 3 32 4 9 5 8 6 6 7 5 8 4 9 1 10 2 11 42 12 3 13
REMARK SMILES IDX 40 14 38 15 43 16 41 18 39 20 37 22 35 24 10 26 11 27 12 28
REMARK SMILES IDX 30 29 21 30 29 31 31 32 22 33 27 34 23 35 26 36 24 37 13 38
REMARK SMILES IDX 20 39 14 40 18 41 15 42 16 43 19 44 17 46 28 48 25 50 33 52
REMARK H PARENT 43 17 41 19 39 21 37 23 35 25 19 45 17 47 28 49 25 51 33 53
REMARK Flexibility Score: inf
ROOT
ATOM      1  C   UNL     1      98.898 101.526  99.765  1.00  0.00     0.180 C 
ATOM      2  C   UNL     1      99.573 101.559 101.168  1.00  0.00     0.177 C 
ATOM      3  C   UNL     1      99.741 102.986 101.752  1.00  0.00     0.180 C 
ATOM      4  C   UNL     1     100.139 103.998 100.663  1.00  0.00     0.214 C 
ATOM      5  C   UNL     1      99.296 103.843  99.383  1.00  0.00     0.339 C 
ATOM      6  O   UNL     1      99.372 102.523  98.871  1.00  0.00    -0.332 OA
ENDROOT
BRANCH   1   7
ATOM      7  C   UNL     1      97.349 101.447  99.790  1.00  0.00     0.198 C 
BRANCH   7   8
ATOM      8  O   UNL     1      96.869 101.111  98.498  1.00  0.00    -0.347 OA
BRANCH   8   9
ATOM      9  C   UNL     1      96.760  99.703  98.294  1.00  0.00     0.281 C 
ATOM     10  C   UNL     1      94.953  98.344  95.809  1.00  0.00     0.041 C 
ATOM     11  C   UNL     1      95.262  98.085  97.296  1.00  0.00     0.150 C 
ATOM     12  C   UNL     1      96.409  97.071  97.505  1.00  0.00     0.174 C 
ATOM     13  O   UNL     1      95.413  99.314  97.999  1.00  0.00    -0.344 OA
ATOM     14  C   UNL     1      97.802  97.670  97.178  1.00  0.00     0.179 C 
ATOM     15  C   UNL     1      97.823  99.217  97.283  1.00  0.00     0.202 C 
BRANCH  12  16
ATOM     16  O   UNL     1      96.398  96.629  98.841  1.00  0.00    -0.388 OA
ATOM     17  H   UNL     1      96.063  95.692  98.837  1.00  0.00     0.211 HD
ENDBRANCH  12  16
BRANCH  14  18
ATOM     18  O   UNL     1      98.216  97.250  95.897  1.00  0.00    -0.387 OA
ATOM     19  H   UNL     1      98.894  96.540  96.012  1.00  0.00     0.211 HD
ENDBRANCH  14  18
BRANCH  15  20
ATOM     20  O   UNL     1      97.632  99.834  96.032  1.00  0.00    -0.385 OA
ATOM     21  H   UNL     1      96.832  99.413  95.616  1.00  0.00     0.211 HD
ENDBRANCH  15  20
ENDBRANCH   8   9
ENDBRANCH   7   8
ENDBRANCH   1   7
BRANCH   2  22
ATOM     22  O   UNL     1     100.832 100.952 101.062  1.00  0.00    -0.387 OA
ATOM     23  H   UNL     1     101.516 101.649 101.251  1.00  0.00     0.211 HD
ENDBRANCH   2  22
BRANCH   3  24
ATOM     24  O   UNL     1      98.617 103.393 102.485  1.00  0.00    -0.387 OA
ATOM     25  H   UNL     1      97.817 103.023 102.051  1.00  0.00     0.211 HD
ENDBRANCH   3  24
BRANCH   5  26
ATOM     26  O   UNL     1      97.944 104.263  99.588  1.00  0.00    -0.454 OA
BRANCH  26  27
ATOM     27  C   UNL     1      97.543 105.526 100.052  1.00  0.00     0.214 A 
ATOM     28  C   UNL     1      96.640 105.591 101.129  1.00  0.00     0.180 A 
ATOM     29  C   UNL     1      98.004 106.732  99.492  1.00  0.00     0.239 A 
ATOM     30  O   UNL     1      96.293 106.768 101.651  1.00  0.00    -0.452 OA
ATOM     31  C   UNL     1      97.612 107.961 100.064  1.00  0.00     0.111 A 
ATOM     32  O   UNL     1      98.743 106.710  98.478  1.00  0.00    -0.285 OA
ATOM     33  C   UNL     1      96.742 107.929 101.180  1.00  0.00     0.146 A 
ATOM     34  C   UNL     1      98.050 109.216  99.576  1.00  0.00     0.134 A 
ATOM     35  C   UNL     1      96.328 109.117 101.795  1.00  0.00     0.094 A 
ATOM     36  C   UNL     1      97.629 110.395 100.210  1.00  0.00     0.093 A 
ATOM     37  C   UNL     1      96.774 110.349 101.317  1.00  0.00     0.123 A 
BRANCH  28  38
ATOM     38  C   UNL     1      96.077 104.357 101.719  1.00  0.00     0.025 A 
ATOM     39  C   UNL     1      95.654 103.304 100.893  1.00  0.00     0.062 A 
ATOM     40  C   UNL     1      96.019 104.213 103.112  1.00  0.00     0.016 A 
ATOM     41  C   UNL     1      95.251 102.083 101.449  1.00  0.00     0.158 A 
ATOM     42  C   UNL     1      95.600 103.004 103.671  1.00  0.00     0.051 A 
ATOM     43  C   UNL     1      95.238 101.930 102.842  1.00  0.00     0.157 A 
BRANCH  41  44
ATOM     44  O   UNL     1      94.875 101.031 100.622  1.00  0.00    -0.504 OA
ATOM     45  H   UNL     1      93.908 100.747 100.542  1.00  0.00     0.293 HD
ENDBRANCH  41  44
BRANCH  43  46
ATOM     46  O   UNL     1      94.879 100.717 103.423  1.00  0.00    -0.504 OA
ATOM     47  H   UNL     1      94.221 100.082 102.985  1.00  0.00     0.293 HD
ENDBRANCH  43  46
ENDBRANCH  28  38
BRANCH  34  48
ATOM     48  O   UNL     1      98.895 109.302  98.468  1.00  0.00    -0.507 OA
ATOM     49  H   UNL     1      99.004 110.165  97.949  1.00  0.00     0.293 HD
ENDBRANCH  34  48
BRANCH  37  50
ATOM     50  O   UNL     1      96.380 111.530 101.931  1.00  0.00    -0.508 OA
ATOM     51  H   UNL     1      95.565 112.050 101.624  1.00  0.00     0.293 HD
ENDBRANCH  37  50
ENDBRANCH  26  27
ENDBRANCH   5  26
BRANCH   4  52
ATOM     52  O   UNL     1     100.105 105.318 101.164  1.00  0.00    -0.384 OA
ATOM     53  H   UNL     1     100.905 105.471 101.716  1.00  0.00     0.211 HD
ENDBRANCH   4  52
TORSDOF 16
ENDMDL
MODEL 3
REMARK VINA RESULT:     6.139      1.598      8.240
REMARK INTER + INTRA:           9.300
REMARK INTER:                   9.056
REMARK INTRA:                   0.244
REMARK UNBOUND:                -0.786
REMARK SMILES C[C@@H]1O[C@H](OC[C@H]2O[C@@H](Oc3c(-c4ccc(O)c(O)c4)oc4cc(O)cc(O)c4c3=O)[C@@H](O)[C@@H](O)[C@@H]2O)[C@H](O)[C@H](O)[C@H]1O
REMARK SMILES IDX 7 1 36 2 34 3 32 4 9 5 8 6 6 7 5 8 4 9 1 10 2 11 42 12 3 13
REMARK SMILES IDX 40 14 38 15 43 16 41 18 39 20 37 22 35 24 10 26 11 27 12 28
REMARK SMILES IDX 30 29 21 30 29 31 31 32 22 33 27 34 23 35 26 36 24 37 13 38
REMARK SMILES IDX 20 39 14 40 18 41 15 42 16 43 19 44 17 46 28 48 25 50 33 52
REMARK H PARENT 43 17 41 19 39 21 37 23 35 25 19 45 17 47 28 49 25 51 33 53
REMARK Flexibility Score: inf
ROOT
ATOM      1  C   UNL     1      97.595 101.579 100.509  1.00  0.00     0.180 C 
ATOM      2  C   UNL     1      96.728 100.901 101.610  1.00  0.00     0.177 C 
ATOM      3  C   UNL     1      96.211 101.882 102.696  1.00  0.00     0.180 C 
ATOM      4  C   UNL     1      97.276 102.928 103.066  1.00  0.00     0.214 C 
ATOM      5  C   UNL     1      97.962 103.531 101.825  1.00  0.00     0.339 C 
ATOM      6  O   UNL     1      98.534 102.521 101.010  1.00  0.00    -0.332 OA
ENDROOT
BRANCH   1   7
ATOM      7  C   UNL     1      96.797 102.130  99.299  1.00  0.00     0.198 C 
BRANCH   7   8
ATOM      8  O   UNL     1      95.536 101.486  99.227  1.00  0.00    -0.347 OA
BRANCH   8   9
ATOM      9  C   UNL     1      95.487 100.472  98.225  1.00  0.00     0.281 C 
ATOM     10  C   UNL     1      98.090  98.469  97.516  1.00  0.00     0.041 C 
ATOM     11  C   UNL     1      96.972  99.226  96.774  1.00  0.00     0.150 C 
ATOM     12  C   UNL     1      95.742  98.342  96.471  1.00  0.00     0.174 C 
ATOM     13  O   UNL     1      96.679 100.456  97.429  1.00  0.00    -0.344 OA
ATOM     14  C   UNL     1      94.894  98.048  97.736  1.00  0.00     0.179 C 
ATOM     15  C   UNL     1      95.091  99.113  98.845  1.00  0.00     0.202 C 
BRANCH  12  16
ATOM     16  O   UNL     1      94.937  98.982  95.512  1.00  0.00    -0.388 OA
ATOM     17  H   UNL     1      95.300  98.742  94.617  1.00  0.00     0.211 HD
ENDBRANCH  12  16
BRANCH  14  18
ATOM     18  O   UNL     1      95.188  96.758  98.222  1.00  0.00    -0.387 OA
ATOM     19  H   UNL     1      95.673  96.266  97.515  1.00  0.00     0.211 HD
ENDBRANCH  14  18
BRANCH  15  20
ATOM     20  O   UNL     1      96.047  98.711  99.799  1.00  0.00    -0.385 OA
ATOM     21  H   UNL     1      96.936  99.011  99.469  1.00  0.00     0.211 HD
ENDBRANCH  15  20
ENDBRANCH   8   9
ENDBRANCH   7   8
ENDBRANCH   1   7
BRANCH   2  22
ATOM     22  O   UNL     1      97.499  99.902 102.221  1.00  0.00    -0.387 OA
ATOM     23  H   UNL     1      96.872  99.227 102.593  1.00  0.00     0.211 HD
ENDBRANCH   2  22
BRANCH   3  24
ATOM     24  O   UNL     1      94.983 102.460 102.343  1.00  0.00    -0.387 OA
ATOM     25  H   UNL     1      94.269 101.985 102.823  1.00  0.00     0.211 HD
ENDBRANCH   3  24
BRANCH   5  26
ATOM     26  O   UNL     1      97.073 104.376 101.090  1.00  0.00    -0.454 OA
BRANCH  26  27
ATOM     27  C   UNL     1      97.263 105.746 100.848  1.00  0.00     0.214 A 
ATOM     28  C   UNL     1      97.734 106.147  99.584  1.00  0.00     0.180 A 
ATOM     29  C   UNL     1      97.004 106.740 101.811  1.00  0.00     0.239 A 
ATOM     30  O   UNL     1      97.856 107.441  99.287  1.00  0.00    -0.452 OA
ATOM     31  C   UNL     1      97.150 108.100 101.466  1.00  0.00     0.111 A 
ATOM     32  O   UNL     1      96.666 106.411 102.975  1.00  0.00    -0.285 OA
ATOM     33  C   UNL     1      97.577 108.412 100.154  1.00  0.00     0.146 A 
ATOM     34  C   UNL     1      96.887 109.159 102.368  1.00  0.00     0.134 A 
ATOM     35  C   UNL     1      97.730 109.745  99.752  1.00  0.00     0.094 A 
ATOM     36  C   UNL     1      97.040 110.488 101.945  1.00  0.00     0.093 A 
ATOM     37  C   UNL     1      97.456 110.783 100.642  1.00  0.00     0.123 A 
BRANCH  28  38
ATOM     38  C   UNL     1      98.078 105.144  98.553  1.00  0.00     0.025 A 
ATOM     39  C   UNL     1      97.079 104.339  97.984  1.00  0.00     0.062 A 
ATOM     40  C   UNL     1      99.400 105.035  98.100  1.00  0.00     0.016 A 
ATOM     41  C   UNL     1      97.378 103.488  96.912  1.00  0.00     0.158 A 
ATOM     42  C   UNL     1      99.706 104.175  97.044  1.00  0.00     0.051 A 
ATOM     43  C   UNL     1      98.694 103.418  96.433  1.00  0.00     0.157 A 
BRANCH  41  44
ATOM     44  O   UNL     1      96.375 102.727  96.325  1.00  0.00    -0.504 OA
ATOM     45  H   UNL     1      95.638 102.313  96.880  1.00  0.00     0.293 HD
ENDBRANCH  41  44
BRANCH  43  46
ATOM     46  O   UNL     1      99.014 102.610  95.345  1.00  0.00    -0.504 OA
ATOM     47  H   UNL     1      99.908 102.140  95.265  1.00  0.00     0.293 HD
ENDBRANCH  43  46
ENDBRANCH  28  38
BRANCH  34  48
ATOM     48  O   UNL     1      96.479 108.903 103.679  1.00  0.00    -0.507 OA
ATOM     49  H   UNL     1      96.463 109.633 104.382  1.00  0.00     0.293 HD
ENDBRANCH  34  48
BRANCH  37  50
ATOM     50  O   UNL     1      97.590 112.107 100.246  1.00  0.00    -0.508 OA
ATOM     51  H   UNL     1      98.450 112.463  99.843  1.00  0.00     0.293 HD
ENDBRANCH  37  50
ENDBRANCH  26  27
ENDBRANCH   5  26
BRANCH   4  52
ATOM     52  O   UNL     1      96.735 103.922 103.910  1.00  0.00    -0.384 OA
ATOM     53  H   UNL     1      96.174 104.526 103.374  1.00  0.00     0.211 HD
ENDBRANCH   4  52
TORSDOF 16
ENDMDL
MODEL 4
REMARK VINA RESULT:     6.539      1.387      1.984
REMARK INTER + INTRA:           9.958
REMARK INTER:                   7.849
REMARK INTRA:                   2.108
REMARK UNBOUND:                -0.786
REMARK SMILES C[C@@H]1O[C@H](OC[C@H]2O[C@@H](Oc3c(-c4ccc(O)c(O)c4)oc4cc(O)cc(O)c4c3=O)[C@@H](O)[C@@H](O)[C@@H]2O)[C@H](O)[C@H](O)[C@H]1O
REMARK SMILES IDX 7 1 36 2 34 3 32 4 9 5 8 6 6 7 5 8 4 9 1 10 2 11 42 12 3 13
REMARK SMILES IDX 40 14 38 15 43 16 41 18 39 20 37 22 35 24 10 26 11 27 12 28
REMARK SMILES IDX 30 29 21 30 29 31 31 32 22 33 27 34 23 35 26 36 24 37 13 38
REMARK SMILES IDX 20 39 14 40 18 41 15 42 16 43 19 44 17 46 28 48 25 50 33 52
REMARK H PARENT 43 17 41 19 39 21 37 23 35 25 19 45 17 47 28 49 25 51 33 53
REMARK Flexibility Score: inf
ROOT
ATOM      1  C   UNL     1      95.873 103.619 101.909  1.00  0.00     0.180 C 
ATOM      2  C   UNL     1      96.203 102.387 102.801  1.00  0.00     0.177 C 
ATOM      3  C   UNL     1      96.321 101.054 102.015  1.00  0.00     0.180 C 
ATOM      4  C   UNL     1      95.263 100.960 100.902  1.00  0.00     0.214 C 
ATOM      5  C   UNL     1      95.149 102.264 100.089  1.00  0.00     0.339 C 
ATOM      6  O   UNL     1      94.875 103.373 100.928  1.00  0.00    -0.332 OA
ENDROOT
BRANCH   1   7
ATOM      7  C   UNL     1      97.109 104.347 101.321  1.00  0.00     0.198 C 
BRANCH   7   8
ATOM      8  O   UNL     1      97.191 105.658 101.857  1.00  0.00    -0.347 OA
BRANCH   8   9
ATOM      9  C   UNL     1      96.871 106.669 100.902  1.00  0.00     0.281 C 
ATOM     10  C   UNL     1      97.837 109.870 101.229  1.00  0.00     0.041 C 
ATOM     11  C   UNL     1      96.605 109.071 100.764  1.00  0.00     0.150 C 
ATOM     12  C   UNL     1      96.564 108.860  99.235  1.00  0.00     0.174 C 
ATOM     13  O   UNL     1      96.456 107.885 101.537  1.00  0.00    -0.344 OA
ATOM     14  C   UNL     1      97.599 107.811  98.750  1.00  0.00     0.179 C 
ATOM     15  C   UNL     1      98.011 106.821  99.870  1.00  0.00     0.202 C 
BRANCH  12  16
ATOM     16  O   UNL     1      95.274 108.444  98.859  1.00  0.00    -0.388 OA
ATOM     17  H   UNL     1      95.023 107.689  99.457  1.00  0.00     0.211 HD
ENDBRANCH  12  16
BRANCH  14  18
ATOM     18  O   UNL     1      98.730 108.463  98.216  1.00  0.00    -0.387 OA
ATOM     19  H   UNL     1      99.469 107.807  98.172  1.00  0.00     0.211 HD
ENDBRANCH  14  18
BRANCH  15  20
ATOM     20  O   UNL     1      99.204 107.213 100.508  1.00  0.00    -0.385 OA
ATOM     21  H   UNL     1      99.391 108.150 100.232  1.00  0.00     0.211 HD
ENDBRANCH  15  20
ENDBRANCH   8   9
ENDBRANCH   7   8
ENDBRANCH   1   7
BRANCH   2  22
ATOM     22  O   UNL     1      95.195 102.264 103.768  1.00  0.00    -0.387 OA
ATOM     23  H   UNL     1      94.360 102.003 103.297  1.00  0.00     0.211 HD
ENDBRANCH   2  22
BRANCH   3  24
ATOM     24  O   UNL     1      97.624 100.833 101.544  1.00  0.00    -0.387 OA
ATOM     25  H   UNL     1      97.712  99.880 101.320  1.00  0.00     0.211 HD
ENDBRANCH   3  24
BRANCH   5  26
ATOM     26  O   UNL     1      96.305 102.479  99.274  1.00  0.00    -0.454 OA
BRANCH  26  27
ATOM     27  C   UNL     1      96.928 101.512  98.469  1.00  0.00     0.214 A 
ATOM     28  C   UNL     1      98.332 101.429  98.483  1.00  0.00     0.180 A 
ATOM     29  C   UNL     1      96.213 100.617  97.650  1.00  0.00     0.239 A 
ATOM     30  O   UNL     1      98.960 100.475  97.793  1.00  0.00    -0.452 OA
ATOM     31  C   UNL     1      96.909  99.625  96.928  1.00  0.00     0.111 A 
ATOM     32  O   UNL     1      94.965 100.720  97.551  1.00  0.00    -0.285 OA
ATOM     33  C   UNL     1      98.318  99.582  97.043  1.00  0.00     0.146 A 
ATOM     34  C   UNL     1      96.263  98.673  96.102  1.00  0.00     0.134 A 
ATOM     35  C   UNL     1      99.061  98.612  96.358  1.00  0.00     0.094 A 
ATOM     36  C   UNL     1      97.023  97.706  95.428  1.00  0.00     0.093 A 
ATOM     37  C   UNL     1      98.416  97.671  95.556  1.00  0.00     0.123 A 
BRANCH  28  38
ATOM     38  C   UNL     1      99.138 102.380  99.279  1.00  0.00     0.025 A 
ATOM     39  C   UNL     1      99.621 103.562  98.696  1.00  0.00     0.062 A 
ATOM     40  C   UNL     1      99.372 102.130 100.637  1.00  0.00     0.016 A 
ATOM     41  C   UNL     1     100.264 104.528  99.480  1.00  0.00     0.158 A 
ATOM     42  C   UNL     1     100.029 103.082 101.419  1.00  0.00     0.051 A 
ATOM     43  C   UNL     1     100.455 104.292 100.848  1.00  0.00     0.157 A 
BRANCH  41  44
ATOM     44  O   UNL     1     100.701 105.715  98.903  1.00  0.00    -0.504 OA
ATOM     45  H   UNL     1     100.046 106.393  98.538  1.00  0.00     0.293 HD
ENDBRANCH  41  44
BRANCH  43  46
ATOM     46  O   UNL     1     101.057 105.249 101.660  1.00  0.00    -0.504 OA
ATOM     47  H   UNL     1     101.797 105.018 102.313  1.00  0.00     0.293 HD
ENDBRANCH  43  46
ENDBRANCH  28  38
BRANCH  34  48
ATOM     48  O   UNL     1      94.875  98.683  95.942  1.00  0.00    -0.507 OA
ATOM     49  H   UNL     1      94.253  98.390  96.686  1.00  0.00     0.293 HD
ENDBRANCH  34  48
BRANCH  37  50
ATOM     50  O   UNL     1      99.144  96.697  94.887  1.00  0.00    -0.508 OA
ATOM     51  H   UNL     1      99.968  96.923  94.339  1.00  0.00     0.293 HD
ENDBRANCH  37  50
ENDBRANCH  26  27
ENDBRANCH   5  26
BRANCH   4  52
ATOM     52  O   UNL     1      95.497  99.838 100.077  1.00  0.00    -0.384 OA
ATOM     53  H   UNL     1      95.749 100.149  99.179  1.00  0.00     0.211 HD
ENDBRANCH   4  52
TORSDOF 16
ENDMDL
