MODEL 1
REMARK VINA RESULT:    -5.298      0.000      0.000
REMARK INTER + INTRA:         -18.355
REMARK INTER:                 -13.971
REMARK INTRA:                  -4.385
REMARK UNBOUND:                -4.385
REMARK SMILES CCCCCCCCCCCCCCCCCCCCCCCCCCCCCC(=O)[O-]
REMARK SMILES IDX 16 1 17 2 18 3 19 4 20 5 21 6 22 7 23 8 24 9 25 10 26 11
REMARK SMILES IDX 27 12 28 13 29 14 30 15 31 16 32 17 15 18 14 19 13 20 12 21
REMARK SMILES IDX 11 22 10 23 9 24 8 25 7 26 6 27 5 28 4 29 3 30 2 31 1 32
REMARK H PARENT
REMARK Flexibility Score: inf
ROOT
ATOM      1  C   UNL     1      18.745  31.677  55.862  1.00  0.00     0.000 C 
ENDROOT
BRANCH   1   2
ATOM      2  C   UNL     1      17.782  32.824  56.231  1.00  0.00     0.000 C 
BRANCH   2   3
ATOM      3  C   UNL     1      17.053  32.675  57.582  1.00  0.00     0.000 C 
BRANCH   3   4
ATOM      4  C   UNL     1      15.614  33.234  57.588  1.00  0.00     0.000 C 
BRANCH   4   5
ATOM      5  C   UNL     1      14.580  32.223  58.112  1.00  0.00     0.000 C 
BRANCH   5   6
ATOM      6  C   UNL     1      15.193  30.820  58.220  1.00  0.00     0.000 C 
BRANCH   6   7
ATOM      7  C   UNL     1      15.053  30.218  59.630  1.00  0.00     0.000 C 
BRANCH   7   8
ATOM      8  C   UNL     1      16.359  30.190  60.452  1.00  0.00     0.000 C 
BRANCH   8   9
ATOM      9  C   UNL     1      16.144  29.732  61.903  1.00  0.00     0.000 C 
BRANCH   9  10
ATOM     10  C   UNL     1      14.656  29.754  62.281  1.00  0.00     0.000 C 
BRANCH  10  11
ATOM     11  C   UNL     1      14.145  28.331  62.557  1.00  0.00     0.000 C 
BRANCH  11  12
ATOM     12  C   UNL     1      12.805  28.028  61.866  1.00  0.00     0.000 C 
BRANCH  12  13
ATOM     13  C   UNL     1      12.072  29.259  61.295  1.00  0.00     0.006 C 
BRANCH  13  14
ATOM     14  C   UNL     1      11.583  29.099  59.847  1.00  0.00     0.053 C 
BRANCH  14  15
ATOM     15  C   UNL     1      10.093  28.963  59.764  1.00  0.00     0.041 C 
ATOM     16  O   UNL     1       9.409  28.834  60.812  1.00  0.00    -0.550 OA
ATOM     17  O   UNL     1       9.458  28.995  58.528  1.00  0.00    -0.550 OA
ENDBRANCH  14  15
ENDBRANCH  13  14
ENDBRANCH  12  13
ENDBRANCH  11  12
ENDBRANCH  10  11
ENDBRANCH   9  10
ENDBRANCH   8   9
ENDBRANCH   7   8
ENDBRANCH   6   7
ENDBRANCH   5   6
ENDBRANCH   4   5
ENDBRANCH   3   4
ENDBRANCH   2   3
ENDBRANCH   1   2
BRANCH   1  18
ATOM     18  C   UNL     1      18.805  31.333  54.362  1.00  0.00     0.000 C 
BRANCH  18  19
ATOM     19  C   UNL     1      18.342  29.899  54.061  1.00  0.00     0.000 C 
BRANCH  19  20
ATOM     20  C   UNL     1      16.957  29.857  53.391  1.00  0.00     0.000 C 
BRANCH  20  21
ATOM     21  C   UNL     1      15.821  30.140  54.390  1.00  0.00     0.000 C 
BRANCH  21  22
ATOM     22  C   UNL     1      15.116  31.481  54.129  1.00  0.00     0.000 C 
BRANCH  22  23
ATOM     23  C   UNL     1      13.666  31.492  54.643  1.00  0.00     0.000 C 
BRANCH  23  24
ATOM     24  C   UNL     1      12.984  32.861  54.472  1.00  0.00    -0.000 C 
BRANCH  24  25
ATOM     25  C   UNL     1      13.898  33.996  53.966  1.00  0.00    -0.000 C 
BRANCH  25  26
ATOM     26  C   UNL     1      13.503  35.396  54.486  1.00  0.00    -0.000 C 
BRANCH  26  27
ATOM     27  C   UNL     1      14.628  36.057  55.297  1.00  0.00    -0.000 C 
BRANCH  27  28
ATOM     28  C   UNL     1      16.007  35.654  54.758  1.00  0.00    -0.000 C 
BRANCH  28  29
ATOM     29  C   UNL     1      17.117  36.508  55.389  1.00  0.00    -0.000 C 
BRANCH  29  30
ATOM     30  C   UNL     1      16.795  36.910  56.836  1.00  0.00    -0.000 C 
BRANCH  30  31
ATOM     31  C   UNL     1      17.343  38.302  57.194  1.00  0.00    -0.003 C 
ATOM     32  C   UNL     1      18.433  38.730  56.214  1.00  0.00     0.004 C 
ENDBRANCH  30  31
ENDBRANCH  29  30
ENDBRANCH  28  29
ENDBRANCH  27  28
ENDBRANCH  26  27
ENDBRANCH  25  26
ENDBRANCH  24  25
ENDBRANCH  23  24
ENDBRANCH  22  23
ENDBRANCH  21  22
ENDBRANCH  20  21
ENDBRANCH  19  20
ENDBRANCH  18  19
ENDBRANCH   1  18
TORSDOF 28
ENDMDL
MODEL 2
REMARK VINA RESULT:    -5.034      2.202      3.429
REMARK INTER + INTRA:         -17.659
REMARK INTER:                 -12.968
REMARK INTRA:                  -4.691
REMARK UNBOUND:                -4.385
REMARK SMILES CCCCCCCCCCCCCCCCCCCCCCCCCCCCCC(=O)[O-]
REMARK SMILES IDX 16 1 17 2 18 3 19 4 20 5 21 6 22 7 23 8 24 9 25 10 26 11
REMARK SMILES IDX 27 12 28 13 29 14 30 15 31 16 32 17 15 18 14 19 13 20 12 21
REMARK SMILES IDX 11 22 10 23 9 24 8 25 7 26 6 27 5 28 4 29 3 30 2 31 1 32
REMARK H PARENT
REMARK Flexibility Score: inf
ROOT
ATOM      1  C   UNL     1      17.374  32.957  57.275  1.00  0.00     0.000 C 
ENDROOT
BRANCH   1   2
ATOM      2  C   UNL     1      16.048  33.666  57.618  1.00  0.00     0.000 C 
BRANCH   2   3
ATOM      3  C   UNL     1      14.824  32.744  57.796  1.00  0.00     0.000 C 
BRANCH   3   4
ATOM      4  C   UNL     1      15.155  31.368  58.414  1.00  0.00     0.000 C 
BRANCH   4   5
ATOM      5  C   UNL     1      14.173  30.266  57.983  1.00  0.00     0.000 C 
BRANCH   5   6
ATOM      6  C   UNL     1      12.774  30.845  57.734  1.00  0.00     0.000 C 
BRANCH   6   7
ATOM      7  C   UNL     1      11.775  30.485  58.849  1.00  0.00     0.000 C 
BRANCH   7   8
ATOM      8  C   UNL     1      12.184  29.278  59.718  1.00  0.00     0.000 C 
BRANCH   8   9
ATOM      9  C   UNL     1      11.689  29.387  61.168  1.00  0.00     0.000 C 
BRANCH   9  10
ATOM     10  C   UNL     1      12.845  29.232  62.166  1.00  0.00     0.000 C 
BRANCH  10  11
ATOM     11  C   UNL     1      14.199  29.278  61.441  1.00  0.00     0.000 C 
BRANCH  11  12
ATOM     12  C   UNL     1      15.178  30.290  62.058  1.00  0.00     0.000 C 
BRANCH  12  13
ATOM     13  C   UNL     1      16.114  29.715  63.141  1.00  0.00     0.006 C 
BRANCH  13  14
ATOM     14  C   UNL     1      16.625  28.294  62.857  1.00  0.00     0.053 C 
BRANCH  14  15
ATOM     15  C   UNL     1      16.192  27.316  63.906  1.00  0.00     0.041 C 
ATOM     16  O   UNL     1      17.048  26.651  64.546  1.00  0.00    -0.550 OA
ATOM     17  O   UNL     1      14.841  27.149  64.188  1.00  0.00    -0.550 OA
ENDBRANCH  14  15
ENDBRANCH  13  14
ENDBRANCH  12  13
ENDBRANCH  11  12
ENDBRANCH  10  11
ENDBRANCH   9  10
ENDBRANCH   8   9
ENDBRANCH   7   8
ENDBRANCH   6   7
ENDBRANCH   5   6
ENDBRANCH   4   5
ENDBRANCH   3   4
ENDBRANCH   2   3
ENDBRANCH   1   2
BRANCH   1  18
ATOM     18  C   UNL     1      17.638  32.761  55.770  1.00  0.00     0.000 C 
BRANCH  18  19
ATOM     19  C   UNL     1      18.364  31.443  55.460  1.00  0.00     0.000 C 
BRANCH  19  20
ATOM     20  C   UNL     1      17.599  30.577  54.444  1.00  0.00     0.000 C 
BRANCH  20  21
ATOM     21  C   UNL     1      16.132  30.358  54.856  1.00  0.00     0.000 C 
BRANCH  21  22
ATOM     22  C   UNL     1      15.135  31.014  53.887  1.00  0.00     0.000 C 
BRANCH  22  23
ATOM     23  C   UNL     1      13.763  31.263  54.536  1.00  0.00     0.000 C 
BRANCH  23  24
ATOM     24  C   UNL     1      13.284  32.717  54.377  1.00  0.00    -0.000 C 
BRANCH  24  25
ATOM     25  C   UNL     1      14.403  33.770  54.236  1.00  0.00    -0.000 C 
BRANCH  25  26
ATOM     26  C   UNL     1      13.927  35.222  54.461  1.00  0.00    -0.000 C 
BRANCH  26  27
ATOM     27  C   UNL     1      15.029  36.113  55.053  1.00  0.00    -0.000 C 
BRANCH  27  28
ATOM     28  C   UNL     1      16.299  36.066  54.193  1.00  0.00    -0.000 C 
BRANCH  28  29
ATOM     29  C   UNL     1      17.551  36.335  55.043  1.00  0.00    -0.000 C 
BRANCH  29  30
ATOM     30  C   UNL     1      17.753  37.830  55.330  1.00  0.00    -0.000 C 
BRANCH  30  31
ATOM     31  C   UNL     1      17.960  38.118  56.827  1.00  0.00    -0.003 C 
ATOM     32  C   UNL     1      16.697  37.804  57.625  1.00  0.00     0.004 C 
ENDBRANCH  30  31
ENDBRANCH  29  30
ENDBRANCH  28  29
ENDBRANCH  27  28
ENDBRANCH  26  27
ENDBRANCH  25  26
ENDBRANCH  24  25
ENDBRANCH  23  24
ENDBRANCH  22  23
ENDBRANCH  21  22
ENDBRANCH  20  21
ENDBRANCH  19  20
ENDBRANCH  18  19
ENDBRANCH   1  18
TORSDOF 28
ENDMDL
MODEL 3
REMARK VINA RESULT:    -5.013      3.632      5.152
REMARK INTER + INTRA:         -17.603
REMARK INTER:                 -13.794
REMARK INTRA:                  -3.809
REMARK UNBOUND:                -4.385
REMARK SMILES CCCCCCCCCCCCCCCCCCCCCCCCCCCCCC(=O)[O-]
REMARK SMILES IDX 16 1 17 2 18 3 19 4 20 5 21 6 22 7 23 8 24 9 25 10 26 11
REMARK SMILES IDX 27 12 28 13 29 14 30 15 31 16 32 17 15 18 14 19 13 20 12 21
REMARK SMILES IDX 11 22 10 23 9 24 8 25 7 26 6 27 5 28 4 29 3 30 2 31 1 32
REMARK H PARENT
REMARK Flexibility Score: inf
ROOT
ATOM      1  C   UNL     1      16.193  31.246  58.858  1.00  0.00     0.000 C 
ENDROOT
BRANCH   1   2
ATOM      2  C   UNL     1      14.859  30.483  58.986  1.00  0.00     0.000 C 
BRANCH   2   3
ATOM      3  C   UNL     1      13.584  31.346  58.891  1.00  0.00     0.000 C 
BRANCH   3   4
ATOM      4  C   UNL     1      12.278  30.531  58.771  1.00  0.00     0.000 C 
BRANCH   4   5
ATOM      5  C   UNL     1      12.315  29.218  59.570  1.00  0.00     0.000 C 
BRANCH   5   6
ATOM      6  C   UNL     1      11.718  29.412  60.970  1.00  0.00     0.000 C 
BRANCH   6   7
ATOM      7  C   UNL     1      12.789  29.697  62.039  1.00  0.00     0.000 C 
BRANCH   7   8
ATOM      8  C   UNL     1      13.798  28.552  62.263  1.00  0.00     0.000 C 
BRANCH   8   9
ATOM      9  C   UNL     1      14.993  28.968  63.136  1.00  0.00     0.000 C 
BRANCH   9  10
ATOM     10  C   UNL     1      16.162  29.472  62.278  1.00  0.00     0.000 C 
BRANCH  10  11
ATOM     11  C   UNL     1      17.289  28.429  62.228  1.00  0.00     0.000 C 
BRANCH  11  12
ATOM     12  C   UNL     1      17.196  27.387  63.355  1.00  0.00     0.000 C 
BRANCH  12  13
ATOM     13  C   UNL     1      18.288  26.299  63.331  1.00  0.00     0.006 C 
BRANCH  13  14
ATOM     14  C   UNL     1      19.551  26.676  62.540  1.00  0.00     0.053 C 
BRANCH  14  15
ATOM     15  C   UNL     1      20.595  25.603  62.594  1.00  0.00     0.041 C 
ATOM     16  O   UNL     1      21.426  25.478  61.657  1.00  0.00    -0.550 OA
ATOM     17  O   UNL     1      20.660  24.748  63.688  1.00  0.00    -0.550 OA
ENDBRANCH  14  15
ENDBRANCH  13  14
ENDBRANCH  12  13
ENDBRANCH  11  12
ENDBRANCH  10  11
ENDBRANCH   9  10
ENDBRANCH   8   9
ENDBRANCH   7   8
ENDBRANCH   6   7
ENDBRANCH   5   6
ENDBRANCH   4   5
ENDBRANCH   3   4
ENDBRANCH   2   3
ENDBRANCH   1   2
BRANCH   1  18
ATOM     18  C   UNL     1      16.095  32.617  58.160  1.00  0.00     0.000 C 
BRANCH  18  19
ATOM     19  C   UNL     1      17.245  32.865  57.172  1.00  0.00     0.000 C 
BRANCH  19  20
ATOM     20  C   UNL     1      17.629  31.599  56.387  1.00  0.00     0.000 C 
BRANCH  20  21
ATOM     21  C   UNL     1      17.347  31.741  54.880  1.00  0.00     0.000 C 
BRANCH  21  22
ATOM     22  C   UNL     1      16.374  30.675  54.352  1.00  0.00     0.000 C 
BRANCH  22  23
ATOM     23  C   UNL     1      15.280  30.321  55.374  1.00  0.00     0.000 C 
BRANCH  23  24
ATOM     24  C   UNL     1      13.944  31.030  55.086  1.00  0.00    -0.000 C 
BRANCH  24  25
ATOM     25  C   UNL     1      13.884  32.516  55.497  1.00  0.00    -0.000 C 
BRANCH  25  26
ATOM     26  C   UNL     1      14.087  33.498  54.322  1.00  0.00    -0.000 C 
BRANCH  26  27
ATOM     27  C   UNL     1      13.431  34.864  54.583  1.00  0.00    -0.000 C 
BRANCH  27  28
ATOM     28  C   UNL     1      14.485  35.976  54.659  1.00  0.00    -0.000 C 
BRANCH  28  29
ATOM     29  C   UNL     1      15.449  35.742  55.833  1.00  0.00    -0.000 C 
BRANCH  29  30
ATOM     30  C   UNL     1      16.635  36.717  55.818  1.00  0.00    -0.000 C 
BRANCH  30  31
ATOM     31  C   UNL     1      16.780  37.486  57.142  1.00  0.00    -0.003 C 
ATOM     32  C   UNL     1      17.975  38.436  57.096  1.00  0.00     0.004 C 
ENDBRANCH  30  31
ENDBRANCH  29  30
ENDBRANCH  28  29
ENDBRANCH  27  28
ENDBRANCH  26  27
ENDBRANCH  25  26
ENDBRANCH  24  25
ENDBRANCH  23  24
ENDBRANCH  22  23
ENDBRANCH  21  22
ENDBRANCH  20  21
ENDBRANCH  19  20
ENDBRANCH  18  19
ENDBRANCH   1  18
TORSDOF 28
ENDMDL
MODEL 4
REMARK VINA RESULT:    -4.960      3.368      9.034
REMARK INTER + INTRA:         -17.462
REMARK INTER:                 -12.701
REMARK INTRA:                  -4.761
REMARK UNBOUND:                -4.385
REMARK SMILES CCCCCCCCCCCCCCCCCCCCCCCCCCCCCC(=O)[O-]
REMARK SMILES IDX 16 1 17 2 18 3 19 4 20 5 21 6 22 7 23 8 24 9 25 10 26 11
REMARK SMILES IDX 27 12 28 13 29 14 30 15 31 16 32 17 15 18 14 19 13 20 12 21
REMARK SMILES IDX 11 22 10 23 9 24 8 25 7 26 6 27 5 28 4 29 3 30 2 31 1 32
REMARK H PARENT
REMARK Flexibility Score: inf
ROOT
ATOM      1  C   UNL     1      15.290  33.270  57.214  1.00  0.00     0.000 C 
ENDROOT
BRANCH   1   2
ATOM      2  C   UNL     1      16.781  33.106  57.575  1.00  0.00     0.000 C 
BRANCH   2   3
ATOM      3  C   UNL     1      17.705  32.682  56.415  1.00  0.00     0.000 C 
BRANCH   3   4
ATOM      4  C   UNL     1      16.957  32.178  55.163  1.00  0.00     0.000 C 
BRANCH   4   5
ATOM      5  C   UNL     1      16.667  30.668  55.206  1.00  0.00     0.000 C 
BRANCH   5   6
ATOM      6  C   UNL     1      15.321  30.350  54.540  1.00  0.00     0.000 C 
BRANCH   6   7
ATOM      7  C   UNL     1      14.876  31.440  53.548  1.00  0.00     0.000 C 
BRANCH   7   8
ATOM      8  C   UNL     1      13.590  32.191  53.948  1.00  0.00     0.000 C 
BRANCH   8   9
ATOM      9  C   UNL     1      13.527  33.618  53.382  1.00  0.00     0.000 C 
BRANCH   9  10
ATOM     10  C   UNL     1      13.135  34.632  54.466  1.00  0.00     0.000 C 
BRANCH  10  11
ATOM     11  C   UNL     1      14.268  35.645  54.699  1.00  0.00     0.000 C 
BRANCH  11  12
ATOM     12  C   UNL     1      15.536  35.326  53.890  1.00  0.00     0.000 C 
BRANCH  12  13
ATOM     13  C   UNL     1      16.841  35.914  54.464  1.00  0.00     0.006 C 
BRANCH  13  14
ATOM     14  C   UNL     1      16.712  36.498  55.880  1.00  0.00     0.053 C 
BRANCH  14  15
ATOM     15  C   UNL     1      17.641  37.653  56.104  1.00  0.00     0.041 C 
ATOM     16  O   UNL     1      18.617  37.841  55.331  1.00  0.00    -0.550 OA
ATOM     17  O   UNL     1      17.421  38.530  57.159  1.00  0.00    -0.550 OA
ENDBRANCH  14  15
ENDBRANCH  13  14
ENDBRANCH  12  13
ENDBRANCH  11  12
ENDBRANCH  10  11
ENDBRANCH   9  10
ENDBRANCH   8   9
ENDBRANCH   7   8
ENDBRANCH   6   7
ENDBRANCH   5   6
ENDBRANCH   4   5
ENDBRANCH   3   4
ENDBRANCH   2   3
ENDBRANCH   1   2
BRANCH   1  18
ATOM     18  C   UNL     1      14.308  32.548  58.156  1.00  0.00     0.000 C 
BRANCH  18  19
ATOM     19  C   UNL     1      13.685  31.295  57.520  1.00  0.00     0.000 C 
BRANCH  19  20
ATOM     20  C   UNL     1      14.162  29.996  58.193  1.00  0.00     0.000 C 
BRANCH  20  21
ATOM     21  C   UNL     1      15.604  30.111  58.719  1.00  0.00     0.000 C 
BRANCH  21  22
ATOM     22  C   UNL     1      15.677  30.153  60.254  1.00  0.00     0.000 C 
BRANCH  22  23
ATOM     23  C   UNL     1      17.095  30.463  60.765  1.00  0.00     0.000 C 
BRANCH  23  24
ATOM     24  C   UNL     1      17.362  29.886  62.167  1.00  0.00    -0.000 C 
BRANCH  24  25
ATOM     25  C   UNL     1      16.152  29.890  63.125  1.00  0.00    -0.000 C 
BRANCH  25  26
ATOM     26  C   UNL     1      15.814  28.501  63.710  1.00  0.00    -0.000 C 
BRANCH  26  27
ATOM     27  C   UNL     1      14.541  27.901  63.092  1.00  0.00    -0.000 C 
BRANCH  27  28
ATOM     28  C   UNL     1      13.609  29.002  62.570  1.00  0.00    -0.000 C 
BRANCH  28  29
ATOM     29  C   UNL     1      12.698  28.469  61.453  1.00  0.00    -0.000 C 
BRANCH  29  30
ATOM     30  C   UNL     1      11.528  29.417  61.150  1.00  0.00    -0.000 C 
BRANCH  30  31
ATOM     31  C   UNL     1      10.860  29.113  59.798  1.00  0.00    -0.003 C 
ATOM     32  C   UNL     1       9.356  28.907  59.965  1.00  0.00     0.004 C 
ENDBRANCH  30  31
ENDBRANCH  29  30
ENDBRANCH  28  29
ENDBRANCH  27  28
ENDBRANCH  26  27
ENDBRANCH  25  26
ENDBRANCH  24  25
ENDBRANCH  23  24
ENDBRANCH  22  23
ENDBRANCH  21  22
ENDBRANCH  20  21
ENDBRANCH  19  20
ENDBRANCH  18  19
ENDBRANCH   1  18
TORSDOF 28
ENDMDL
MODEL 5
REMARK VINA RESULT:    -4.886      2.234      3.922
REMARK INTER + INTRA:         -17.267
REMARK INTER:                 -12.395
REMARK INTRA:                  -4.873
REMARK UNBOUND:                -4.385
REMARK SMILES CCCCCCCCCCCCCCCCCCCCCCCCCCCCCC(=O)[O-]
REMARK SMILES IDX 16 1 17 2 18 3 19 4 20 5 21 6 22 7 23 8 24 9 25 10 26 11
REMARK SMILES IDX 27 12 28 13 29 14 30 15 31 16 32 17 15 18 14 19 13 20 12 21
REMARK SMILES IDX 11 22 10 23 9 24 8 25 7 26 6 27 5 28 4 29 3 30 2 31 1 32
REMARK H PARENT
REMARK Flexibility Score: inf
ROOT
ATOM      1  C   UNL     1      17.461  32.371  57.967  1.00  0.00     0.000 C 
ENDROOT
BRANCH   1   2
ATOM      2  C   UNL     1      16.453  31.244  58.270  1.00  0.00     0.000 C 
BRANCH   2   3
ATOM      3  C   UNL     1      14.964  31.639  58.182  1.00  0.00     0.000 C 
BRANCH   3   4
ATOM      4  C   UNL     1      13.996  30.439  58.102  1.00  0.00     0.000 C 
BRANCH   4   5
ATOM      5  C   UNL     1      12.620  30.816  57.530  1.00  0.00     0.000 C 
BRANCH   5   6
ATOM      6  C   UNL     1      11.553  30.828  58.634  1.00  0.00     0.000 C 
BRANCH   6   7
ATOM      7  C   UNL     1      10.292  30.032  58.250  1.00  0.00     0.000 C 
BRANCH   7   8
ATOM      8  C   UNL     1       9.543  29.395  59.439  1.00  0.00     0.000 C 
BRANCH   8   9
ATOM      9  C   UNL     1      10.392  29.331  60.718  1.00  0.00     0.000 C 
BRANCH   9  10
ATOM     10  C   UNL     1      11.271  28.073  60.742  1.00  0.00     0.000 C 
BRANCH  10  11
ATOM     11  C   UNL     1      12.744  28.442  60.976  1.00  0.00     0.000 C 
BRANCH  11  12
ATOM     12  C   UNL     1      12.929  29.532  62.044  1.00  0.00     0.000 C 
BRANCH  12  13
ATOM     13  C   UNL     1      14.200  30.391  61.886  1.00  0.00     0.006 C 
BRANCH  13  14
ATOM     14  C   UNL     1      15.440  29.619  61.407  1.00  0.00     0.053 C 
BRANCH  14  15
ATOM     15  C   UNL     1      16.149  28.931  62.534  1.00  0.00     0.041 C 
ATOM     16  O   UNL     1      17.177  28.240  62.308  1.00  0.00    -0.550 OA
ATOM     17  O   UNL     1      15.684  29.065  63.836  1.00  0.00    -0.550 OA
ENDBRANCH  14  15
ENDBRANCH  13  14
ENDBRANCH  12  13
ENDBRANCH  11  12
ENDBRANCH  10  11
ENDBRANCH   9  10
ENDBRANCH   8   9
ENDBRANCH   7   8
ENDBRANCH   6   7
ENDBRANCH   5   6
ENDBRANCH   4   5
ENDBRANCH   3   4
ENDBRANCH   2   3
ENDBRANCH   1   2
BRANCH   1  18
ATOM     18  C   UNL     1      18.569  32.001  56.962  1.00  0.00     0.000 C 
BRANCH  18  19
ATOM     19  C   UNL     1      18.500  32.828  55.668  1.00  0.00     0.000 C 
BRANCH  19  20
ATOM     20  C   UNL     1      18.671  31.961  54.409  1.00  0.00     0.000 C 
BRANCH  20  21
ATOM     21  C   UNL     1      18.223  30.506  54.639  1.00  0.00     0.000 C 
BRANCH  21  22
ATOM     22  C   UNL     1      17.663  29.846  53.369  1.00  0.00     0.000 C 
BRANCH  22  23
ATOM     23  C   UNL     1      16.129  29.734  53.393  1.00  0.00     0.000 C 
BRANCH  23  24
ATOM     24  C   UNL     1      15.511  30.284  54.691  1.00  0.00    -0.000 C 
BRANCH  24  25
ATOM     25  C   UNL     1      14.603  31.519  54.520  1.00  0.00    -0.000 C 
BRANCH  25  26
ATOM     26  C   UNL     1      15.108  32.525  53.462  1.00  0.00    -0.000 C 
BRANCH  26  27
ATOM     27  C   UNL     1      15.314  33.932  54.046  1.00  0.00    -0.000 C 
BRANCH  27  28
ATOM     28  C   UNL     1      14.558  34.096  55.370  1.00  0.00    -0.000 C 
BRANCH  28  29
ATOM     29  C   UNL     1      15.426  34.813  56.416  1.00  0.00    -0.000 C 
BRANCH  29  30
ATOM     30  C   UNL     1      15.559  36.317  56.134  1.00  0.00    -0.000 C 
BRANCH  30  31
ATOM     31  C   UNL     1      17.017  36.803  56.215  1.00  0.00    -0.003 C 
ATOM     32  C   UNL     1      17.164  37.921  57.245  1.00  0.00     0.004 C 
ENDBRANCH  30  31
ENDBRANCH  29  30
ENDBRANCH  28  29
ENDBRANCH  27  28
ENDBRANCH  26  27
ENDBRANCH  25  26
ENDBRANCH  24  25
ENDBRANCH  23  24
ENDBRANCH  22  23
ENDBRANCH  21  22
ENDBRANCH  20  21
ENDBRANCH  19  20
ENDBRANCH  18  19
ENDBRANCH   1  18
TORSDOF 28
ENDMDL
MODEL 6
REMARK VINA RESULT:    -4.882      1.571      4.264
REMARK INTER + INTRA:         -17.257
REMARK INTER:                 -12.858
REMARK INTRA:                  -4.398
REMARK UNBOUND:                -4.385
REMARK SMILES CCCCCCCCCCCCCCCCCCCCCCCCCCCCCC(=O)[O-]
REMARK SMILES IDX 16 1 17 2 18 3 19 4 20 5 21 6 22 7 23 8 24 9 25 10 26 11
REMARK SMILES IDX 27 12 28 13 29 14 30 15 31 16 32 17 15 18 14 19 13 20 12 21
REMARK SMILES IDX 11 22 10 23 9 24 8 25 7 26 6 27 5 28 4 29 3 30 2 31 1 32
REMARK H PARENT
REMARK Flexibility Score: inf
ROOT
ATOM      1  C   UNL     1      14.999  34.405  56.472  1.00  0.00     0.000 C 
ENDROOT
BRANCH   1   2
ATOM      2  C   UNL     1      15.312  33.364  57.566  1.00  0.00     0.000 C 
BRANCH   2   3
ATOM      3  C   UNL     1      16.803  33.009  57.742  1.00  0.00     0.000 C 
BRANCH   3   4
ATOM      4  C   UNL     1      17.051  31.627  58.385  1.00  0.00     0.000 C 
BRANCH   4   5
ATOM      5  C   UNL     1      15.774  30.998  58.966  1.00  0.00     0.000 C 
BRANCH   5   6
ATOM      6  C   UNL     1      16.116  29.970  60.052  1.00  0.00     0.000 C 
BRANCH   6   7
ATOM      7  C   UNL     1      17.114  30.513  61.092  1.00  0.00     0.000 C 
BRANCH   7   8
ATOM      8  C   UNL     1      16.838  30.071  62.544  1.00  0.00     0.000 C 
BRANCH   8   9
ATOM      9  C   UNL     1      16.352  28.616  62.647  1.00  0.00     0.000 C 
BRANCH   9  10
ATOM     10  C   UNL     1      15.027  28.524  63.415  1.00  0.00     0.000 C 
BRANCH  10  11
ATOM     11  C   UNL     1      13.856  28.276  62.450  1.00  0.00     0.000 C 
BRANCH  11  12
ATOM     12  C   UNL     1      13.041  29.546  62.154  1.00  0.00     0.000 C 
BRANCH  12  13
ATOM     13  C   UNL     1      12.627  29.726  60.679  1.00  0.00     0.006 C 
BRANCH  13  14
ATOM     14  C   UNL     1      11.487  28.804  60.218  1.00  0.00     0.053 C 
BRANCH  14  15
ATOM     15  C   UNL     1      10.233  29.565  59.906  1.00  0.00     0.041 C 
ATOM     16  O   UNL     1      10.184  30.323  58.902  1.00  0.00    -0.550 OA
ATOM     17  O   UNL     1       9.114  29.426  60.718  1.00  0.00    -0.550 OA
ENDBRANCH  14  15
ENDBRANCH  13  14
ENDBRANCH  12  13
ENDBRANCH  11  12
ENDBRANCH  10  11
ENDBRANCH   9  10
ENDBRANCH   8   9
ENDBRANCH   7   8
ENDBRANCH   6   7
ENDBRANCH   5   6
ENDBRANCH   4   5
ENDBRANCH   3   4
ENDBRANCH   2   3
ENDBRANCH   1   2
BRANCH   1  18
ATOM     18  C   UNL     1      15.971  34.408  55.277  1.00  0.00     0.000 C 
BRANCH  18  19
ATOM     19  C   UNL     1      15.922  35.716  54.472  1.00  0.00     0.000 C 
BRANCH  19  20
ATOM     20  C   UNL     1      14.824  35.701  53.394  1.00  0.00     0.000 C 
BRANCH  20  21
ATOM     21  C   UNL     1      13.553  36.441  53.849  1.00  0.00     0.000 C 
BRANCH  21  22
ATOM     22  C   UNL     1      12.340  35.508  53.997  1.00  0.00     0.000 C 
BRANCH  22  23
ATOM     23  C   UNL     1      12.479  34.227  53.157  1.00  0.00     0.000 C 
BRANCH  23  24
ATOM     24  C   UNL     1      12.303  32.946  53.991  1.00  0.00    -0.000 C 
BRANCH  24  25
ATOM     25  C   UNL     1      13.511  31.987  53.993  1.00  0.00    -0.000 C 
BRANCH  25  26
ATOM     26  C   UNL     1      13.663  31.174  55.297  1.00  0.00    -0.000 C 
BRANCH  26  27
ATOM     27  C   UNL     1      14.891  30.252  55.272  1.00  0.00    -0.000 C 
BRANCH  27  28
ATOM     28  C   UNL     1      15.447  30.112  53.849  1.00  0.00    -0.000 C 
BRANCH  28  29
ATOM     29  C   UNL     1      16.975  29.952  53.867  1.00  0.00    -0.000 C 
BRANCH  29  30
ATOM     30  C   UNL     1      17.654  30.923  54.843  1.00  0.00    -0.000 C 
BRANCH  30  31
ATOM     31  C   UNL     1      19.142  30.597  55.057  1.00  0.00    -0.003 C 
ATOM     32  C   UNL     1      19.698  29.789  53.887  1.00  0.00     0.004 C 
ENDBRANCH  30  31
ENDBRANCH  29  30
ENDBRANCH  28  29
ENDBRANCH  27  28
ENDBRANCH  26  27
ENDBRANCH  25  26
ENDBRANCH  24  25
ENDBRANCH  23  24
ENDBRANCH  22  23
ENDBRANCH  21  22
ENDBRANCH  20  21
ENDBRANCH  19  20
ENDBRANCH  18  19
ENDBRANCH   1  18
TORSDOF 28
ENDMDL
MODEL 7
REMARK VINA RESULT:    -4.865      2.126      3.991
REMARK INTER + INTRA:         -17.212
REMARK INTER:                 -12.544
REMARK INTRA:                  -4.667
REMARK UNBOUND:                -4.385
REMARK SMILES CCCCCCCCCCCCCCCCCCCCCCCCCCCCCC(=O)[O-]
REMARK SMILES IDX 16 1 17 2 18 3 19 4 20 5 21 6 22 7 23 8 24 9 25 10 26 11
REMARK SMILES IDX 27 12 28 13 29 14 30 15 31 16 32 17 15 18 14 19 13 20 12 21
REMARK SMILES IDX 11 22 10 23 9 24 8 25 7 26 6 27 5 28 4 29 3 30 2 31 1 32
REMARK H PARENT
REMARK Flexibility Score: inf
ROOT
ATOM      1  C   UNL     1      20.851  31.270  56.312  1.00  0.00     0.000 C 
ENDROOT
BRANCH   1   2
ATOM      2  C   UNL     1      20.669  31.955  57.681  1.00  0.00     0.000 C 
BRANCH   2   3
ATOM      3  C   UNL     1      21.970  32.284  58.442  1.00  0.00     0.000 C 
BRANCH   3   4
ATOM      4  C   UNL     1      21.995  31.777  59.900  1.00  0.00     0.000 C 
BRANCH   4   5
ATOM      5  C   UNL     1      20.779  32.243  60.717  1.00  0.00     0.000 C 
BRANCH   5   6
ATOM      6  C   UNL     1      19.977  31.043  61.237  1.00  0.00     0.000 C 
BRANCH   6   7
ATOM      7  C   UNL     1      18.479  31.134  60.891  1.00  0.00     0.000 C 
BRANCH   7   8
ATOM      8  C   UNL     1      17.536  30.489  61.928  1.00  0.00     0.000 C 
BRANCH   8   9
ATOM      9  C   UNL     1      17.120  29.058  61.552  1.00  0.00     0.000 C 
BRANCH   9  10
ATOM     10  C   UNL     1      17.031  28.159  62.792  1.00  0.00     0.000 C 
BRANCH  10  11
ATOM     11  C   UNL     1      15.843  28.569  63.677  1.00  0.00     0.000 C 
BRANCH  11  12
ATOM     12  C   UNL     1      14.480  28.301  63.017  1.00  0.00     0.000 C 
BRANCH  12  13
ATOM     13  C   UNL     1      13.778  29.548  62.442  1.00  0.00     0.006 C 
BRANCH  13  14
ATOM     14  C   UNL     1      13.137  29.341  61.060  1.00  0.00     0.053 C 
BRANCH  14  15
ATOM     15  C   UNL     1      11.640  29.331  61.125  1.00  0.00     0.041 C 
ATOM     16  O   UNL     1      11.048  29.724  62.165  1.00  0.00    -0.550 OA
ATOM     17  O   UNL     1      10.897  28.902  60.032  1.00  0.00    -0.550 OA
ENDBRANCH  14  15
ENDBRANCH  13  14
ENDBRANCH  12  13
ENDBRANCH  11  12
ENDBRANCH  10  11
ENDBRANCH   9  10
ENDBRANCH   8   9
ENDBRANCH   7   8
ENDBRANCH   6   7
ENDBRANCH   5   6
ENDBRANCH   4   5
ENDBRANCH   3   4
ENDBRANCH   2   3
ENDBRANCH   1   2
BRANCH   1  18
ATOM     18  C   UNL     1      19.796  31.640  55.252  1.00  0.00     0.000 C 
BRANCH  18  19
ATOM     19  C   UNL     1      18.690  30.581  55.117  1.00  0.00     0.000 C 
BRANCH  19  20
ATOM     20  C   UNL     1      17.643  30.959  54.055  1.00  0.00     0.000 C 
BRANCH  20  21
ATOM     21  C   UNL     1      16.582  29.859  53.869  1.00  0.00     0.000 C 
BRANCH  21  22
ATOM     22  C   UNL     1      15.145  30.395  53.960  1.00  0.00     0.000 C 
BRANCH  22  23
ATOM     23  C   UNL     1      15.076  31.923  53.798  1.00  0.00     0.000 C 
BRANCH  23  24
ATOM     24  C   UNL     1      14.017  32.573  54.706  1.00  0.00    -0.000 C 
BRANCH  24  25
ATOM     25  C   UNL     1      14.557  33.608  55.715  1.00  0.00    -0.000 C 
BRANCH  25  26
ATOM     26  C   UNL     1      15.963  34.144  55.369  1.00  0.00    -0.000 C 
BRANCH  26  27
ATOM     27  C   UNL     1      17.001  33.803  56.449  1.00  0.00    -0.000 C 
BRANCH  27  28
ATOM     28  C   UNL     1      16.329  33.208  57.692  1.00  0.00    -0.000 C 
BRANCH  28  29
ATOM     29  C   UNL     1      16.688  31.722  57.856  1.00  0.00    -0.000 C 
BRANCH  29  30
ATOM     30  C   UNL     1      15.598  30.935  58.597  1.00  0.00    -0.000 C 
BRANCH  30  31
ATOM     31  C   UNL     1      14.619  30.240  57.636  1.00  0.00    -0.003 C 
ATOM     32  C   UNL     1      13.217  30.832  57.760  1.00  0.00     0.004 C 
ENDBRANCH  30  31
ENDBRANCH  29  30
ENDBRANCH  28  29
ENDBRANCH  27  28
ENDBRANCH  26  27
ENDBRANCH  25  26
ENDBRANCH  24  25
ENDBRANCH  23  24
ENDBRANCH  22  23
ENDBRANCH  21  22
ENDBRANCH  20  21
ENDBRANCH  19  20
ENDBRANCH  18  19
ENDBRANCH   1  18
TORSDOF 28
ENDMDL
MODEL 8
REMARK VINA RESULT:    -4.864      4.338      7.373
REMARK INTER + INTRA:         -17.210
REMARK INTER:                 -13.698
REMARK INTRA:                  -3.512
REMARK UNBOUND:                -4.385
REMARK SMILES CCCCCCCCCCCCCCCCCCCCCCCCCCCCCC(=O)[O-]
REMARK SMILES IDX 16 1 17 2 18 3 19 4 20 5 21 6 22 7 23 8 24 9 25 10 26 11
REMARK SMILES IDX 27 12 28 13 29 14 30 15 31 16 32 17 15 18 14 19 13 20 12 21
REMARK SMILES IDX 11 22 10 23 9 24 8 25 7 26 6 27 5 28 4 29 3 30 2 31 1 32
REMARK H PARENT
REMARK Flexibility Score: inf
ROOT
ATOM      1  C   UNL     1      13.453  28.803  61.993  1.00  0.00     0.000 C 
ENDROOT
BRANCH   1   2
ATOM      2  C   UNL     1      11.986  29.035  61.573  1.00  0.00     0.000 C 
BRANCH   2   3
ATOM      3  C   UNL     1      11.626  28.598  60.138  1.00  0.00     0.000 C 
BRANCH   3   4
ATOM      4  C   UNL     1      10.347  29.259  59.580  1.00  0.00     0.000 C 
BRANCH   4   5
ATOM      5  C   UNL     1       9.099  28.958  60.425  1.00  0.00     0.000 C 
BRANCH   5   6
ATOM      6  C   UNL     1       8.137  30.153  60.426  1.00  0.00     0.000 C 
BRANCH   6   7
ATOM      7  C   UNL     1       8.267  31.022  59.162  1.00  0.00     0.000 C 
BRANCH   7   8
ATOM      8  C   UNL     1       7.120  32.031  58.951  1.00  0.00     0.000 C 
BRANCH   8   9
ATOM      9  C   UNL     1       6.218  32.183  60.186  1.00  0.00     0.000 C 
BRANCH   9  10
ATOM     10  C   UNL     1       4.982  33.037  59.873  1.00  0.00     0.000 C 
BRANCH  10  11
ATOM     11  C   UNL     1       4.974  33.462  58.396  1.00  0.00     0.000 C 
BRANCH  11  12
ATOM     12  C   UNL     1       4.866  34.984  58.208  1.00  0.00     0.000 C 
BRANCH  12  13
ATOM     13  C   UNL     1       5.486  35.827  59.341  1.00  0.00     0.006 C 
BRANCH  13  14
ATOM     14  C   UNL     1       7.004  36.036  59.227  1.00  0.00     0.053 C 
BRANCH  14  15
ATOM     15  C   UNL     1       7.354  37.434  58.814  1.00  0.00     0.041 C 
ATOM     16  O   UNL     1       6.450  38.238  58.468  1.00  0.00    -0.550 OA
ATOM     17  O   UNL     1       8.679  37.853  58.825  1.00  0.00    -0.550 OA
ENDBRANCH  14  15
ENDBRANCH  13  14
ENDBRANCH  12  13
ENDBRANCH  11  12
ENDBRANCH  10  11
ENDBRANCH   9  10
ENDBRANCH   8   9
ENDBRANCH   7   8
ENDBRANCH   6   7
ENDBRANCH   5   6
ENDBRANCH   4   5
ENDBRANCH   3   4
ENDBRANCH   2   3
ENDBRANCH   1   2
BRANCH   1  18
ATOM     18  C   UNL     1      14.357  30.048  61.915  1.00  0.00     0.000 C 
BRANCH  18  19
ATOM     19  C   UNL     1      15.621  29.814  61.073  1.00  0.00     0.000 C 
BRANCH  19  20
ATOM     20  C   UNL     1      15.364  29.993  59.567  1.00  0.00     0.000 C 
BRANCH  20  21
ATOM     21  C   UNL     1      14.232  30.998  59.286  1.00  0.00     0.000 C 
BRANCH  21  22
ATOM     22  C   UNL     1      13.741  30.953  57.831  1.00  0.00     0.000 C 
BRANCH  22  23
ATOM     23  C   UNL     1      14.681  30.146  56.919  1.00  0.00     0.000 C 
BRANCH  23  24
ATOM     24  C   UNL     1      14.354  30.318  55.424  1.00  0.00    -0.000 C 
BRANCH  24  25
ATOM     25  C   UNL     1      13.327  31.421  55.095  1.00  0.00    -0.000 C 
BRANCH  25  26
ATOM     26  C   UNL     1      13.689  32.262  53.851  1.00  0.00    -0.000 C 
BRANCH  26  27
ATOM     27  C   UNL     1      14.398  33.574  54.219  1.00  0.00    -0.000 C 
BRANCH  27  28
ATOM     28  C   UNL     1      14.321  33.838  55.728  1.00  0.00    -0.000 C 
BRANCH  28  29
ATOM     29  C   UNL     1      15.499  34.707  56.196  1.00  0.00    -0.000 C 
BRANCH  29  30
ATOM     30  C   UNL     1      16.303  34.045  57.325  1.00  0.00    -0.000 C 
BRANCH  30  31
ATOM     31  C   UNL     1      17.484  33.213  56.795  1.00  0.00    -0.003 C 
ATOM     32  C   UNL     1      17.751  32.007  57.693  1.00  0.00     0.004 C 
ENDBRANCH  30  31
ENDBRANCH  29  30
ENDBRANCH  28  29
ENDBRANCH  27  28
ENDBRANCH  26  27
ENDBRANCH  25  26
ENDBRANCH  24  25
ENDBRANCH  23  24
ENDBRANCH  22  23
ENDBRANCH  21  22
ENDBRANCH  20  21
ENDBRANCH  19  20
ENDBRANCH  18  19
ENDBRANCH   1  18
TORSDOF 28
ENDMDL
MODEL 9
REMARK VINA RESULT:    -4.834      2.236      3.555
REMARK INTER + INTRA:         -17.131
REMARK INTER:                 -13.064
REMARK INTRA:                  -4.066
REMARK UNBOUND:                -4.385
REMARK SMILES CCCCCCCCCCCCCCCCCCCCCCCCCCCCCC(=O)[O-]
REMARK SMILES IDX 16 1 17 2 18 3 19 4 20 5 21 6 22 7 23 8 24 9 25 10 26 11
REMARK SMILES IDX 27 12 28 13 29 14 30 15 31 16 32 17 15 18 14 19 13 20 12 21
REMARK SMILES IDX 11 22 10 23 9 24 8 25 7 26 6 27 5 28 4 29 3 30 2 31 1 32
REMARK H PARENT
REMARK Flexibility Score: inf
ROOT
ATOM      1  C   UNL     1      16.903  31.502  53.993  1.00  0.00     0.000 C 
ENDROOT
BRANCH   1   2
ATOM      2  C   UNL     1      18.123  32.148  54.681  1.00  0.00     0.000 C 
BRANCH   2   3
ATOM      3  C   UNL     1      18.260  31.873  56.193  1.00  0.00     0.000 C 
BRANCH   3   4
ATOM      4  C   UNL     1      17.562  32.918  57.090  1.00  0.00     0.000 C 
BRANCH   4   5
ATOM      5  C   UNL     1      16.483  32.303  57.998  1.00  0.00     0.000 C 
BRANCH   5   6
ATOM      6  C   UNL     1      15.151  33.049  57.846  1.00  0.00     0.000 C 
BRANCH   6   7
ATOM      7  C   UNL     1      13.931  32.139  58.081  1.00  0.00     0.000 C 
BRANCH   7   8
ATOM      8  C   UNL     1      14.180  30.960  59.044  1.00  0.00     0.000 C 
BRANCH   8   9
ATOM      9  C   UNL     1      12.958  30.040  59.195  1.00  0.00     0.000 C 
BRANCH   9  10
ATOM     10  C   UNL     1      12.986  29.292  60.535  1.00  0.00     0.000 C 
BRANCH  10  11
ATOM     11  C   UNL     1      13.046  30.282  61.709  1.00  0.00     0.000 C 
BRANCH  11  12
ATOM     12  C   UNL     1      14.366  30.206  62.493  1.00  0.00     0.000 C 
BRANCH  12  13
ATOM     13  C   UNL     1      15.291  29.035  62.102  1.00  0.00     0.006 C 
BRANCH  13  14
ATOM     14  C   UNL     1      16.357  28.684  63.152  1.00  0.00     0.053 C 
BRANCH  14  15
ATOM     15  C   UNL     1      15.994  27.463  63.942  1.00  0.00     0.041 C 
ATOM     16  O   UNL     1      14.786  27.155  64.114  1.00  0.00    -0.550 OA
ATOM     17  O   UNL     1      16.992  26.656  64.476  1.00  0.00    -0.550 OA
ENDBRANCH  14  15
ENDBRANCH  13  14
ENDBRANCH  12  13
ENDBRANCH  11  12
ENDBRANCH  10  11
ENDBRANCH   9  10
ENDBRANCH   8   9
ENDBRANCH   7   8
ENDBRANCH   6   7
ENDBRANCH   5   6
ENDBRANCH   4   5
ENDBRANCH   3   4
ENDBRANCH   2   3
ENDBRANCH   1   2
BRANCH   1  18
ATOM     18  C   UNL     1      16.379  30.219  54.666  1.00  0.00     0.000 C 
BRANCH  18  19
ATOM     19  C   UNL     1      14.854  30.225  54.854  1.00  0.00     0.000 C 
BRANCH  19  20
ATOM     20  C   UNL     1      14.209  31.538  54.377  1.00  0.00     0.000 C 
BRANCH  20  21
ATOM     21  C   UNL     1      12.735  31.650  54.803  1.00  0.00     0.000 C 
BRANCH  21  22
ATOM     22  C   UNL     1      11.871  32.397  53.775  1.00  0.00     0.000 C 
BRANCH  22  23
ATOM     23  C   UNL     1      12.626  33.560  53.109  1.00  0.00     0.000 C 
BRANCH  23  24
ATOM     24  C   UNL     1      12.085  34.939  53.527  1.00  0.00    -0.000 C 
BRANCH  24  25
ATOM     25  C   UNL     1      13.061  35.814  54.341  1.00  0.00    -0.000 C 
BRANCH  25  26
ATOM     26  C   UNL     1      14.286  35.045  54.882  1.00  0.00    -0.000 C 
BRANCH  26  27
ATOM     27  C   UNL     1      15.465  35.977  55.204  1.00  0.00    -0.000 C 
BRANCH  27  28
ATOM     28  C   UNL     1      16.729  35.549  54.447  1.00  0.00    -0.000 C 
BRANCH  28  29
ATOM     29  C   UNL     1      17.983  36.187  55.065  1.00  0.00    -0.000 C 
BRANCH  29  30
ATOM     30  C   UNL     1      17.947  37.721  55.011  1.00  0.00    -0.000 C 
BRANCH  30  31
ATOM     31  C   UNL     1      18.262  38.365  56.372  1.00  0.00    -0.003 C 
ATOM     32  C   UNL     1      17.172  38.046  57.393  1.00  0.00     0.004 C 
ENDBRANCH  30  31
ENDBRANCH  29  30
ENDBRANCH  28  29
ENDBRANCH  27  28
ENDBRANCH  26  27
ENDBRANCH  25  26
ENDBRANCH  24  25
ENDBRANCH  23  24
ENDBRANCH  22  23
ENDBRANCH  21  22
ENDBRANCH  20  21
ENDBRANCH  19  20
ENDBRANCH  18  19
ENDBRANCH   1  18
TORSDOF 28
ENDMDL
