MODEL 1
REMARK VINA RESULT:    -5.580      0.000      0.000
REMARK INTER + INTRA:          -6.376
REMARK INTER:                  -6.232
REMARK INTRA:                  -0.143
REMARK UNBOUND:                -0.143
REMARK SMILES O=C([O-])C=Cc1ccccc1
REMARK SMILES IDX 4 1 5 2 2 3 1 4 3 5 6 6 7 7 11 8 8 9 10 10 9 11
REMARK H PARENT
REMARK Flexibility Score: inf
ROOT
ATOM      1  C   UNL     1     -11.212  -9.106  38.088  1.00  0.00     0.025 C 
ATOM      2  C   UNL     1     -11.678  -8.059  38.784  1.00  0.00     0.010 C 
ENDROOT
BRANCH   1   3
ATOM      3  C   UNL     1     -10.058  -9.895  38.553  1.00  0.00     0.064 C 
ATOM      4  O   UNL     1      -9.115 -10.143  37.757  1.00  0.00    -0.545 OA
ATOM      5  O   UNL     1      -9.993 -10.372  39.857  1.00  0.00    -0.545 OA
ENDBRANCH   1   3
BRANCH   2   6
ATOM      6  C   UNL     1     -12.837  -7.218  38.379  1.00  0.00    -0.026 A 
ATOM      7  C   UNL     1     -13.564  -6.410  39.280  1.00  0.00     0.008 A 
ATOM      8  C   UNL     1     -13.226  -7.233  37.026  1.00  0.00     0.008 A 
ATOM      9  C   UNL     1     -14.645  -5.643  38.833  1.00  0.00     0.001 A 
ATOM     10  C   UNL     1     -14.307  -6.464  36.585  1.00  0.00     0.001 A 
ATOM     11  C   UNL     1     -15.015  -5.670  37.487  1.00  0.00     0.000 A 
ENDBRANCH   2   6
TORSDOF 2
ENDMDL
MODEL 2
REMARK VINA RESULT:    -5.558      0.118      1.463
REMARK INTER + INTRA:          -6.352
REMARK INTER:                  -6.220
REMARK INTRA:                  -0.131
REMARK UNBOUND:                -0.143
REMARK SMILES O=C([O-])C=Cc1ccccc1
REMARK SMILES IDX 4 1 5 2 2 3 1 4 3 5 6 6 7 7 11 8 8 9 10 10 9 11
REMARK H PARENT
REMARK Flexibility Score: inf
ROOT
ATOM      1  C   UNL     1     -11.099  -9.126  38.126  1.00  0.00     0.025 C 
ATOM      2  C   UNL     1     -11.640  -8.109  38.814  1.00  0.00     0.010 C 
ENDROOT
BRANCH   1   3
ATOM      3  C   UNL     1      -9.968  -9.906  38.654  1.00  0.00     0.064 C 
ATOM      4  O   UNL     1      -9.006 -10.196  37.895  1.00  0.00    -0.545 OA
ATOM      5  O   UNL     1      -9.944 -10.330  39.978  1.00  0.00    -0.545 OA
ENDBRANCH   1   3
BRANCH   2   6
ATOM      6  C   UNL     1     -12.782  -7.278  38.346  1.00  0.00    -0.026 A 
ATOM      7  C   UNL     1     -13.229  -7.255  37.007  1.00  0.00     0.008 A 
ATOM      8  C   UNL     1     -13.447  -6.474  39.291  1.00  0.00     0.008 A 
ATOM      9  C   UNL     1     -14.309  -6.449  36.634  1.00  0.00     0.001 A 
ATOM     10  C   UNL     1     -14.527  -5.671  38.912  1.00  0.00     0.001 A 
ATOM     11  C   UNL     1     -14.958  -5.659  37.584  1.00  0.00     0.000 A 
ENDBRANCH   2   6
TORSDOF 2
ENDMDL
MODEL 3
REMARK VINA RESULT:    -5.405      3.626      5.473
REMARK INTER + INTRA:          -6.181
REMARK INTER:                  -6.049
REMARK INTRA:                  -0.132
REMARK UNBOUND:                -0.143
REMARK SMILES O=C([O-])C=Cc1ccccc1
REMARK SMILES IDX 4 1 5 2 2 3 1 4 3 5 6 6 7 7 11 8 8 9 10 10 9 11
REMARK H PARENT
REMARK Flexibility Score: inf
ROOT
ATOM      1  C   UNL     1     -14.221  -6.194  38.654  1.00  0.00     0.025 C 
ATOM      2  C   UNL     1     -13.112  -6.524  39.332  1.00  0.00     0.010 C 
ENDROOT
BRANCH   1   3
ATOM      3  C   UNL     1     -15.085  -5.078  39.074  1.00  0.00     0.064 C 
ATOM      4  O   UNL     1     -14.567  -3.967  39.362  1.00  0.00    -0.545 OA
ATOM      5  O   UNL     1     -16.464  -5.229  39.157  1.00  0.00    -0.545 OA
ENDBRANCH   1   3
BRANCH   2   6
ATOM      6  C   UNL     1     -12.193  -7.636  38.968  1.00  0.00    -0.026 A 
ATOM      7  C   UNL     1     -12.074  -8.149  37.657  1.00  0.00     0.008 A 
ATOM      8  C   UNL     1     -11.404  -8.204  39.986  1.00  0.00     0.008 A 
ATOM      9  C   UNL     1     -11.190  -9.197  37.384  1.00  0.00     0.001 A 
ATOM     10  C   UNL     1     -10.522  -9.251  39.705  1.00  0.00     0.001 A 
ATOM     11  C   UNL     1     -10.415  -9.748  38.405  1.00  0.00     0.000 A 
ENDBRANCH   2   6
TORSDOF 2
ENDMDL
MODEL 4
REMARK VINA RESULT:    -5.383      3.626      5.296
REMARK INTER + INTRA:          -6.156
REMARK INTER:                  -6.011
REMARK INTRA:                  -0.145
REMARK UNBOUND:                -0.143
REMARK SMILES O=C([O-])C=Cc1ccccc1
REMARK SMILES IDX 4 1 5 2 2 3 1 4 3 5 6 6 7 7 11 8 8 9 10 10 9 11
REMARK H PARENT
REMARK Flexibility Score: inf
ROOT
ATOM      1  C   UNL     1     -14.125  -6.132  38.797  1.00  0.00     0.025 C 
ATOM      2  C   UNL     1     -13.027  -6.500  39.472  1.00  0.00     0.010 C 
ENDROOT
BRANCH   1   3
ATOM      3  C   UNL     1     -14.957  -4.995  39.228  1.00  0.00     0.064 C 
ATOM      4  O   UNL     1     -14.405  -3.925  39.595  1.00  0.00    -0.545 OA
ATOM      5  O   UNL     1     -16.345  -5.084  39.238  1.00  0.00    -0.545 OA
ENDBRANCH   1   3
BRANCH   2   6
ATOM      6  C   UNL     1     -12.139  -7.634  39.097  1.00  0.00    -0.026 A 
ATOM      7  C   UNL     1     -11.298  -8.300  40.015  1.00  0.00     0.008 A 
ATOM      8  C   UNL     1     -12.140  -8.060  37.755  1.00  0.00     0.008 A 
ATOM      9  C   UNL     1     -10.487  -9.359  39.595  1.00  0.00     0.001 A 
ATOM     10  C   UNL     1     -11.328  -9.119  37.342  1.00  0.00     0.001 A 
ATOM     11  C   UNL     1     -10.502  -9.768  38.261  1.00  0.00     0.000 A 
ENDBRANCH   2   6
TORSDOF 2
ENDMDL
MODEL 5
REMARK VINA RESULT:    -5.050      5.749      6.913
REMARK INTER + INTRA:          -5.784
REMARK INTER:                  -5.655
REMARK INTRA:                  -0.129
REMARK UNBOUND:                -0.143
REMARK SMILES O=C([O-])C=Cc1ccccc1
REMARK SMILES IDX 4 1 5 2 2 3 1 4 3 5 6 6 7 7 11 8 8 9 10 10 9 11
REMARK H PARENT
REMARK Flexibility Score: inf
ROOT
ATOM      1  C   UNL     1     -17.055  -7.787  43.314  1.00  0.00     0.025 C 
ATOM      2  C   UNL     1     -17.281  -6.697  42.566  1.00  0.00     0.010 C 
ENDROOT
BRANCH   1   3
ATOM      3  C   UNL     1     -17.389  -7.829  44.747  1.00  0.00     0.064 C 
ATOM      4  O   UNL     1     -17.207  -6.806  45.458  1.00  0.00    -0.545 OA
ATOM      5  O   UNL     1     -17.905  -8.981  45.331  1.00  0.00    -0.545 OA
ENDBRANCH   1   3
BRANCH   2   6
ATOM      6  C   UNL     1     -16.971  -6.582  41.115  1.00  0.00    -0.026 A 
ATOM      7  C   UNL     1     -17.808  -7.091  40.099  1.00  0.00     0.008 A 
ATOM      8  C   UNL     1     -15.779  -5.932  40.742  1.00  0.00     0.008 A 
ATOM      9  C   UNL     1     -17.456  -6.950  38.753  1.00  0.00     0.001 A 
ATOM     10  C   UNL     1     -15.433  -5.794  39.395  1.00  0.00     0.001 A 
ATOM     11  C   UNL     1     -16.271  -6.302  38.401  1.00  0.00     0.000 A 
ENDBRANCH   2   6
TORSDOF 2
ENDMDL
MODEL 6
REMARK VINA RESULT:    -4.976      2.746      3.921
REMARK INTER + INTRA:          -5.701
REMARK INTER:                  -5.553
REMARK INTRA:                  -0.149
REMARK UNBOUND:                -0.143
REMARK SMILES O=C([O-])C=Cc1ccccc1
REMARK SMILES IDX 4 1 5 2 2 3 1 4 3 5 6 6 7 7 11 8 8 9 10 10 9 11
REMARK H PARENT
REMARK Flexibility Score: inf
ROOT
ATOM      1  C   UNL     1      -9.290 -10.535  41.225  1.00  0.00     0.025 C 
ATOM      2  C   UNL     1     -10.131  -9.494  41.142  1.00  0.00     0.010 C 
ENDROOT
BRANCH   1   3
ATOM      3  C   UNL     1      -8.675 -10.937  42.501  1.00  0.00     0.064 C 
ATOM      4  O   UNL     1      -8.798 -10.196  43.510  1.00  0.00    -0.545 OA
ATOM      5  O   UNL     1      -7.959 -12.124  42.610  1.00  0.00    -0.545 OA
ENDBRANCH   1   3
BRANCH   2   6
ATOM      6  C   UNL     1     -10.790  -9.030  39.891  1.00  0.00    -0.026 A 
ATOM      7  C   UNL     1     -11.645  -7.908  39.832  1.00  0.00     0.008 A 
ATOM      8  C   UNL     1     -10.547  -9.753  38.707  1.00  0.00     0.008 A 
ATOM      9  C   UNL     1     -12.233  -7.527  38.622  1.00  0.00     0.001 A 
ATOM     10  C   UNL     1     -11.137  -9.366  37.501  1.00  0.00     0.001 A 
ATOM     11  C   UNL     1     -11.980  -8.255  37.458  1.00  0.00     0.000 A 
ENDBRANCH   2   6
TORSDOF 2
ENDMDL
MODEL 7
REMARK VINA RESULT:    -4.897      8.236      9.652
REMARK INTER + INTRA:          -5.613
REMARK INTER:                  -5.482
REMARK INTRA:                  -0.131
REMARK UNBOUND:                -0.143
REMARK SMILES O=C([O-])C=Cc1ccccc1
REMARK SMILES IDX 4 1 5 2 2 3 1 4 3 5 6 6 7 7 11 8 8 9 10 10 9 11
REMARK H PARENT
REMARK Flexibility Score: inf
ROOT
ATOM      1  C   UNL     1     -17.133  -7.999  43.747  1.00  0.00     0.025 C 
ATOM      2  C   UNL     1     -17.420  -9.200  44.269  1.00  0.00     0.010 C 
ENDROOT
BRANCH   1   3
ATOM      3  C   UNL     1     -17.804  -7.498  42.535  1.00  0.00     0.064 C 
ATOM      4  O   UNL     1     -18.097  -8.301  41.611  1.00  0.00    -0.545 OA
ATOM      5  O   UNL     1     -18.122  -6.152  42.395  1.00  0.00    -0.545 OA
ENDBRANCH   1   3
BRANCH   2   6
ATOM      6  C   UNL     1     -16.785  -9.771  45.488  1.00  0.00    -0.026 A 
ATOM      7  C   UNL     1     -15.720 -10.696  45.448  1.00  0.00     0.008 A 
ATOM      8  C   UNL     1     -17.277  -9.364  46.743  1.00  0.00     0.008 A 
ATOM      9  C   UNL     1     -15.169 -11.194  46.633  1.00  0.00     0.001 A 
ATOM     10  C   UNL     1     -16.721  -9.866  47.923  1.00  0.00     0.001 A 
ATOM     11  C   UNL     1     -15.668 -10.780  47.869  1.00  0.00     0.000 A 
ENDBRANCH   2   6
TORSDOF 2
ENDMDL
MODEL 8
REMARK VINA RESULT:    -4.889      1.347      1.977
REMARK INTER + INTRA:          -5.605
REMARK INTER:                  -5.477
REMARK INTRA:                  -0.128
REMARK UNBOUND:                -0.143
REMARK SMILES O=C([O-])C=Cc1ccccc1
REMARK SMILES IDX 4 1 5 2 2 3 1 4 3 5 6 6 7 7 11 8 8 9 10 10 9 11
REMARK H PARENT
REMARK Flexibility Score: inf
ROOT
ATOM      1  C   UNL     1      -9.193  -9.255  37.746  1.00  0.00     0.025 C 
ATOM      2  C   UNL     1     -10.467  -9.513  38.077  1.00  0.00     0.010 C 
ENDROOT
BRANCH   1   3
ATOM      3  C   UNL     1      -8.181 -10.322  37.665  1.00  0.00     0.064 C 
ATOM      4  O   UNL     1      -7.455 -10.411  36.640  1.00  0.00    -0.545 OA
ATOM      5  O   UNL     1      -8.012 -11.233  38.701  1.00  0.00    -0.545 OA
ENDBRANCH   1   3
BRANCH   2   6
ATOM      6  C   UNL     1     -11.542  -8.490  38.178  1.00  0.00    -0.026 A 
ATOM      7  C   UNL     1     -11.848  -7.800  39.371  1.00  0.00     0.008 A 
ATOM      8  C   UNL     1     -12.292  -8.200  37.022  1.00  0.00     0.008 A 
ATOM      9  C   UNL     1     -12.874  -6.849  39.398  1.00  0.00     0.001 A 
ATOM     10  C   UNL     1     -13.315  -7.248  37.055  1.00  0.00     0.001 A 
ATOM     11  C   UNL     1     -13.606  -6.573  38.242  1.00  0.00     0.000 A 
ENDBRANCH   2   6
TORSDOF 2
ENDMDL
