MODEL 1
REMARK VINA RESULT:    -4.876      0.000      0.000
REMARK INTER + INTRA:          -6.259
REMARK INTER:                  -6.016
REMARK INTRA:                  -0.243
REMARK UNBOUND:                -0.243
REMARK SMILES C=CCc1ccc(OC)c(OC)c1
REMARK SMILES IDX 7 1 10 2 13 3 4 4 5 5 6 6 8 7 9 8 11 9 12 10 3 11 2 12 1 13
REMARK H PARENT
REMARK Flexibility Score: inf
ROOT
ATOM      1  C   UNL     1       6.444  -3.973  50.153  1.00  0.00     0.160 A 
ATOM      2  C   UNL     1       7.520  -4.084  49.259  1.00  0.00     0.160 A 
ATOM      3  C   UNL     1       7.835  -3.007  48.408  1.00  0.00     0.054 A 
ATOM      4  C   UNL     1       7.085  -1.821  48.453  1.00  0.00    -0.040 A 
ATOM      5  C   UNL     1       6.006  -1.722  49.341  1.00  0.00     0.008 A 
ATOM      6  C   UNL     1       5.689  -2.785  50.186  1.00  0.00     0.051 A 
ENDROOT
BRANCH   1   7
ATOM      7  O   UNL     1       6.155  -5.063  50.989  1.00  0.00    -0.493 OA
ATOM      8  C   UNL     1       5.180  -6.061  50.706  1.00  0.00     0.278 C 
ENDBRANCH   1   7
BRANCH   2   9
ATOM      9  O   UNL     1       8.252  -5.283  49.244  1.00  0.00    -0.493 OA
ATOM     10  C   UNL     1       8.529  -6.045  48.074  1.00  0.00     0.278 C 
ENDBRANCH   2   9
BRANCH   4  11
ATOM     11  C   UNL     1       7.410  -0.685  47.518  1.00  0.00     0.062 C 
BRANCH  11  12
ATOM     12  C   UNL     1       6.262  -0.416  46.587  1.00  0.00    -0.030 C 
ATOM     13  C   UNL     1       5.657  -1.401  45.916  1.00  0.00     0.004 C 
ENDBRANCH  11  12
ENDBRANCH   4  11
TORSDOF 4
ENDMDL
MODEL 2
REMARK VINA RESULT:    -4.798     14.600     15.353
REMARK INTER + INTRA:          -6.163
REMARK INTER:                  -5.847
REMARK INTRA:                  -0.316
REMARK UNBOUND:                -0.243
REMARK SMILES C=CCc1ccc(OC)c(OC)c1
REMARK SMILES IDX 7 1 10 2 13 3 4 4 5 5 6 6 8 7 9 8 11 9 12 10 3 11 2 12 1 13
REMARK H PARENT
REMARK Flexibility Score: inf
ROOT
ATOM      1  C   UNL     1      -2.134   5.806  41.837  1.00  0.00     0.160 A 
ATOM      2  C   UNL     1      -1.423   6.203  40.694  1.00  0.00     0.160 A 
ATOM      3  C   UNL     1      -1.551   5.465  39.502  1.00  0.00     0.054 A 
ATOM      4  C   UNL     1      -2.388   4.340  39.446  1.00  0.00    -0.040 A 
ATOM      5  C   UNL     1      -3.086   3.944  40.594  1.00  0.00     0.008 A 
ATOM      6  C   UNL     1      -2.964   4.671  41.779  1.00  0.00     0.051 A 
ENDROOT
BRANCH   1   7
ATOM      7  O   UNL     1      -1.988   6.562  43.011  1.00  0.00    -0.493 OA
ATOM      8  C   UNL     1      -3.010   7.370  43.583  1.00  0.00     0.278 C 
ENDBRANCH   1   7
BRANCH   2   9
ATOM      9  O   UNL     1      -0.598   7.337  40.784  1.00  0.00    -0.493 OA
ATOM     10  C   UNL     1      -0.962   8.637  40.332  1.00  0.00     0.278 C 
ENDBRANCH   2   9
BRANCH   4  11
ATOM     11  C   UNL     1      -2.495   3.539  38.175  1.00  0.00     0.062 C 
BRANCH  11  12
ATOM     12  C   UNL     1      -2.126   2.103  38.417  1.00  0.00    -0.030 C 
ATOM     13  C   UNL     1      -2.933   1.100  38.059  1.00  0.00     0.004 C 
ENDBRANCH  11  12
ENDBRANCH   4  11
TORSDOF 4
ENDMDL
MODEL 3
REMARK VINA RESULT:    -4.796     14.492     15.529
REMARK INTER + INTRA:          -6.161
REMARK INTER:                  -5.895
REMARK INTRA:                  -0.266
REMARK UNBOUND:                -0.243
REMARK SMILES C=CCc1ccc(OC)c(OC)c1
REMARK SMILES IDX 7 1 10 2 13 3 4 4 5 5 6 6 8 7 9 8 11 9 12 10 3 11 2 12 1 13
REMARK H PARENT
REMARK Flexibility Score: inf
ROOT
ATOM      1  C   UNL     1      -0.993   7.431  42.295  1.00  0.00     0.160 A 
ATOM      2  C   UNL     1      -0.834   7.561  40.906  1.00  0.00     0.160 A 
ATOM      3  C   UNL     1      -1.357   6.574  40.049  1.00  0.00     0.054 A 
ATOM      4  C   UNL     1      -2.041   5.466  40.571  1.00  0.00    -0.040 A 
ATOM      5  C   UNL     1      -2.186   5.338  41.959  1.00  0.00     0.008 A 
ATOM      6  C   UNL     1      -1.671   6.312  42.814  1.00  0.00     0.051 A 
ENDROOT
BRANCH   1   7
ATOM      7  O   UNL     1      -0.462   8.431  43.125  1.00  0.00    -0.493 OA
ATOM      8  C   UNL     1      -0.826   8.627  44.487  1.00  0.00     0.278 C 
ENDBRANCH   1   7
BRANCH   2   9
ATOM      9  O   UNL     1      -0.149   8.686  40.418  1.00  0.00    -0.493 OA
ATOM     10  C   UNL     1      -0.778   9.837  39.865  1.00  0.00     0.278 C 
ENDBRANCH   2   9
BRANCH   4  11
ATOM     11  C   UNL     1      -2.570   4.400  39.648  1.00  0.00     0.062 C 
BRANCH  11  12
ATOM     12  C   UNL     1      -1.832   4.413  38.339  1.00  0.00    -0.030 C 
ATOM     13  C   UNL     1      -1.149   3.349  37.907  1.00  0.00     0.004 C 
ENDBRANCH  11  12
ENDBRANCH   4  11
TORSDOF 4
ENDMDL
MODEL 4
REMARK VINA RESULT:    -4.782      2.731      4.489
REMARK INTER + INTRA:          -6.144
REMARK INTER:                  -5.873
REMARK INTRA:                  -0.271
REMARK UNBOUND:                -0.243
REMARK SMILES C=CCc1ccc(OC)c(OC)c1
REMARK SMILES IDX 7 1 10 2 13 3 4 4 5 5 6 6 8 7 9 8 11 9 12 10 3 11 2 12 1 13
REMARK H PARENT
REMARK Flexibility Score: inf
ROOT
ATOM      1  C   UNL     1       5.536  -2.291  46.022  1.00  0.00     0.160 A 
ATOM      2  C   UNL     1       5.653  -3.467  46.780  1.00  0.00     0.160 A 
ATOM      3  C   UNL     1       6.444  -3.469  47.944  1.00  0.00     0.054 A 
ATOM      4  C   UNL     1       7.112  -2.305  48.356  1.00  0.00    -0.040 A 
ATOM      5  C   UNL     1       6.998  -1.139  47.588  1.00  0.00     0.008 A 
ATOM      6  C   UNL     1       6.216  -1.129  46.433  1.00  0.00     0.051 A 
ENDROOT
BRANCH   1   7
ATOM      7  O   UNL     1       4.739  -2.318  44.866  1.00  0.00    -0.493 OA
ATOM      8  C   UNL     1       4.360  -1.167  44.120  1.00  0.00     0.278 C 
ENDBRANCH   1   7
BRANCH   2   9
ATOM      9  O   UNL     1       4.967  -4.612  46.342  1.00  0.00    -0.493 OA
ATOM     10  C   UNL     1       5.328  -5.947  46.682  1.00  0.00     0.278 C 
ENDBRANCH   2   9
BRANCH   4  11
ATOM     11  C   UNL     1       7.980  -2.326  49.586  1.00  0.00     0.062 C 
BRANCH  11  12
ATOM     12  C   UNL     1       9.431  -2.447  49.213  1.00  0.00    -0.030 C 
ATOM     13  C   UNL     1       9.963  -3.612  48.831  1.00  0.00     0.004 C 
ENDBRANCH  11  12
ENDBRANCH   4  11
TORSDOF 4
ENDMDL
MODEL 5
REMARK VINA RESULT:    -4.582      1.633      1.731
REMARK INTER + INTRA:          -5.897
REMARK INTER:                  -5.588
REMARK INTRA:                  -0.310
REMARK UNBOUND:                -0.243
REMARK SMILES C=CCc1ccc(OC)c(OC)c1
REMARK SMILES IDX 7 1 10 2 13 3 4 4 5 5 6 6 8 7 9 8 11 9 12 10 3 11 2 12 1 13
REMARK H PARENT
REMARK Flexibility Score: inf
ROOT
ATOM      1  C   UNL     1       5.392  -4.350  49.855  1.00  0.00     0.160 A 
ATOM      2  C   UNL     1       6.125  -4.637  48.692  1.00  0.00     0.160 A 
ATOM      3  C   UNL     1       6.989  -3.663  48.156  1.00  0.00     0.054 A 
ATOM      4  C   UNL     1       7.129  -2.413  48.778  1.00  0.00    -0.040 A 
ATOM      5  C   UNL     1       6.386  -2.131  49.932  1.00  0.00     0.008 A 
ATOM      6  C   UNL     1       5.527  -3.091  50.469  1.00  0.00     0.051 A 
ENDROOT
BRANCH   1   7
ATOM      7  O   UNL     1       4.538  -5.341  50.367  1.00  0.00    -0.493 OA
ATOM      8  C   UNL     1       3.196  -5.549  49.942  1.00  0.00     0.278 C 
ENDBRANCH   1   7
BRANCH   2   9
ATOM      9  O   UNL     1       5.965  -5.900  48.099  1.00  0.00    -0.493 OA
ATOM     10  C   UNL     1       5.354  -6.125  46.833  1.00  0.00     0.278 C 
ENDBRANCH   2   9
BRANCH   4  11
ATOM     11  C   UNL     1       8.033  -1.367  48.180  1.00  0.00     0.062 C 
BRANCH  11  12
ATOM     12  C   UNL     1       7.479  -0.866  46.876  1.00  0.00    -0.030 C 
ATOM     13  C   UNL     1       6.384  -0.100  46.826  1.00  0.00     0.004 C 
ENDBRANCH  11  12
ENDBRANCH   4  11
TORSDOF 4
ENDMDL
MODEL 6
REMARK VINA RESULT:    -4.576      2.868      5.117
REMARK INTER + INTRA:          -5.889
REMARK INTER:                  -5.573
REMARK INTRA:                  -0.316
REMARK UNBOUND:                -0.243
REMARK SMILES C=CCc1ccc(OC)c(OC)c1
REMARK SMILES IDX 7 1 10 2 13 3 4 4 5 5 6 6 8 7 9 8 11 9 12 10 3 11 2 12 1 13
REMARK H PARENT
REMARK Flexibility Score: inf
ROOT
ATOM      1  C   UNL     1       5.282  -2.970  46.438  1.00  0.00     0.160 A 
ATOM      2  C   UNL     1       5.729  -2.161  47.494  1.00  0.00     0.160 A 
ATOM      3  C   UNL     1       6.084  -2.751  48.723  1.00  0.00     0.054 A 
ATOM      4  C   UNL     1       6.001  -4.141  48.896  1.00  0.00    -0.040 A 
ATOM      5  C   UNL     1       5.544  -4.940  47.840  1.00  0.00     0.008 A 
ATOM      6  C   UNL     1       5.191  -4.362  46.621  1.00  0.00     0.051 A 
ENDROOT
BRANCH   1   7
ATOM      7  O   UNL     1       4.936  -2.353  45.225  1.00  0.00    -0.493 OA
ATOM      8  C   UNL     1       4.470  -3.046  44.072  1.00  0.00     0.278 C 
ENDBRANCH   1   7
BRANCH   2   9
ATOM      9  O   UNL     1       5.804  -0.774  47.285  1.00  0.00    -0.493 OA
ATOM     10  C   UNL     1       6.998  -0.071  46.957  1.00  0.00     0.278 C 
ENDBRANCH   2   9
BRANCH   4  11
ATOM     11  C   UNL     1       6.354  -4.760  50.223  1.00  0.00     0.062 C 
BRANCH  11  12
ATOM     12  C   UNL     1       7.260  -5.944  50.035  1.00  0.00    -0.030 C 
ATOM     13  C   UNL     1       8.555  -5.798  49.737  1.00  0.00     0.004 C 
ENDBRANCH  11  12
ENDBRANCH   4  11
TORSDOF 4
ENDMDL
MODEL 7
REMARK VINA RESULT:    -4.444     14.395     15.631
REMARK INTER + INTRA:          -5.726
REMARK INTER:                  -5.485
REMARK INTRA:                  -0.242
REMARK UNBOUND:                -0.243
REMARK SMILES C=CCc1ccc(OC)c(OC)c1
REMARK SMILES IDX 7 1 10 2 13 3 4 4 5 5 6 6 8 7 9 8 11 9 12 10 3 11 2 12 1 13
REMARK H PARENT
REMARK Flexibility Score: inf
ROOT
ATOM      1  C   UNL     1      -1.316   6.740  40.932  1.00  0.00     0.160 A 
ATOM      2  C   UNL     1      -0.931   8.079  41.097  1.00  0.00     0.160 A 
ATOM      3  C   UNL     1      -0.771   8.604  42.394  1.00  0.00     0.054 A 
ATOM      4  C   UNL     1      -0.985   7.797  43.522  1.00  0.00    -0.040 A 
ATOM      5  C   UNL     1      -1.379   6.464  43.349  1.00  0.00     0.008 A 
ATOM      6  C   UNL     1      -1.540   5.937  42.067  1.00  0.00     0.051 A 
ENDROOT
BRANCH   1   7
ATOM      7  O   UNL     1      -1.468   6.244  39.627  1.00  0.00    -0.493 OA
ATOM      8  C   UNL     1      -2.167   5.049  39.294  1.00  0.00     0.278 C 
ENDBRANCH   1   7
BRANCH   2   9
ATOM      9  O   UNL     1      -0.720   8.858  39.947  1.00  0.00    -0.493 OA
ATOM     10  C   UNL     1      -0.185  10.177  39.952  1.00  0.00     0.278 C 
ENDBRANCH   2   9
BRANCH   4  11
ATOM     11  C   UNL     1      -0.840   8.375  44.905  1.00  0.00     0.062 C 
BRANCH  11  12
ATOM     12  C   UNL     1      -2.051   8.071  45.740  1.00  0.00    -0.030 C 
ATOM     13  C   UNL     1      -2.116   8.407  47.032  1.00  0.00     0.004 C 
ENDBRANCH  11  12
ENDBRANCH   4  11
TORSDOF 4
ENDMDL
MODEL 8
REMARK VINA RESULT:    -4.438      2.450      3.043
REMARK INTER + INTRA:          -5.720
REMARK INTER:                  -5.406
REMARK INTRA:                  -0.314
REMARK UNBOUND:                -0.243
REMARK SMILES C=CCc1ccc(OC)c(OC)c1
REMARK SMILES IDX 7 1 10 2 13 3 4 4 5 5 6 6 8 7 9 8 11 9 12 10 3 11 2 12 1 13
REMARK H PARENT
REMARK Flexibility Score: inf
ROOT
ATOM      1  C   UNL     1       4.748  -3.732  48.709  1.00  0.00     0.160 A 
ATOM      2  C   UNL     1       5.388  -3.897  47.471  1.00  0.00     0.160 A 
ATOM      3  C   UNL     1       6.609  -3.241  47.224  1.00  0.00     0.054 A 
ATOM      4  C   UNL     1       7.193  -2.428  48.208  1.00  0.00    -0.040 A 
ATOM      5  C   UNL     1       6.542  -2.260  49.437  1.00  0.00     0.008 A 
ATOM      6  C   UNL     1       5.333  -2.908  49.689  1.00  0.00     0.051 A 
ENDROOT
BRANCH   1   7
ATOM      7  O   UNL     1       3.532  -4.400  48.927  1.00  0.00    -0.493 OA
ATOM      8  C   UNL     1       3.377  -5.540  49.765  1.00  0.00     0.278 C 
ENDBRANCH   1   7
BRANCH   2   9
ATOM      9  O   UNL     1       4.778  -4.722  46.511  1.00  0.00    -0.493 OA
ATOM     10  C   UNL     1       4.993  -6.125  46.399  1.00  0.00     0.278 C 
ENDBRANCH   2   9
BRANCH   4  11
ATOM     11  C   UNL     1       8.484  -1.705  47.924  1.00  0.00     0.062 C 
BRANCH  11  12
ATOM     12  C   UNL     1       9.615  -2.304  48.712  1.00  0.00    -0.030 C 
ATOM     13  C   UNL     1       9.949  -3.593  48.592  1.00  0.00     0.004 C 
ENDBRANCH  11  12
ENDBRANCH   4  11
TORSDOF 4
ENDMDL
MODEL 9
REMARK VINA RESULT:    -4.433     13.570     14.483
REMARK INTER + INTRA:          -5.713
REMARK INTER:                  -5.391
REMARK INTRA:                  -0.322
REMARK UNBOUND:                -0.243
REMARK SMILES C=CCc1ccc(OC)c(OC)c1
REMARK SMILES IDX 7 1 10 2 13 3 4 4 5 5 6 6 8 7 9 8 11 9 12 10 3 11 2 12 1 13
REMARK H PARENT
REMARK Flexibility Score: inf
ROOT
ATOM      1  C   UNL     1       5.913  11.018  48.506  1.00  0.00     0.160 A 
ATOM      2  C   UNL     1       5.623  10.724  47.165  1.00  0.00     0.160 A 
ATOM      3  C   UNL     1       4.286  10.734  46.723  1.00  0.00     0.054 A 
ATOM      4  C   UNL     1       3.243  11.042  47.611  1.00  0.00    -0.040 A 
ATOM      5  C   UNL     1       3.541  11.324  48.951  1.00  0.00     0.008 A 
ATOM      6  C   UNL     1       4.864  11.316  49.395  1.00  0.00     0.051 A 
ENDROOT
BRANCH   1   7
ATOM      7  O   UNL     1       7.256  11.002  48.917  1.00  0.00    -0.493 OA
ATOM      8  C   UNL     1       7.869   9.932  49.628  1.00  0.00     0.278 C 
ENDBRANCH   1   7
BRANCH   2   9
ATOM      9  O   UNL     1       6.690  10.425  46.302  1.00  0.00    -0.493 OA
ATOM     10  C   UNL     1       6.829  10.940  44.982  1.00  0.00     0.278 C 
ENDBRANCH   2   9
BRANCH   4  11
ATOM     11  C   UNL     1       1.814  11.020  47.137  1.00  0.00     0.062 C 
BRANCH  11  12
ATOM     12  C   UNL     1       1.377   9.617  46.824  1.00  0.00    -0.030 C 
ATOM     13  C   UNL     1       0.882   8.809  47.767  1.00  0.00     0.004 C 
ENDBRANCH  11  12
ENDBRANCH   4  11
TORSDOF 4
ENDMDL
