MODEL 1
REMARK VINA RESULT:    -5.225      0.000      0.000
REMARK INTER + INTRA:          -5.225
REMARK INTER:                  -5.225
REMARK INTRA:                   0.000
REMARK UNBOUND:                 0.000
REMARK SMILES C=C1CC[C@@H]2C[C@H]1C2(C)C
REMARK SMILES IDX 9 1 8 2 5 3 4 4 3 5 2 6 1 7 7 8 6 9 10 10
REMARK H PARENT
REMARK Flexibility Score: inf
ROOT
ATOM      1  C   UNL     1       5.116   6.744  13.619  1.00  0.00     0.012 C 
ATOM      2  C   UNL     1       5.986   6.441  12.368  1.00  0.00    -0.026 C 
ATOM      3  C   UNL     1       7.139   5.415  12.495  1.00  0.00    -0.004 C 
ATOM      4  C   UNL     1       7.831   5.516  13.893  1.00  0.00     0.008 C 
ATOM      5  C   UNL     1       8.254   6.991  14.252  1.00  0.00     0.031 C 
ATOM      6  C   UNL     1       7.741   8.012  13.226  1.00  0.00    -0.074 C 
ATOM      7  C   UNL     1       7.875   9.327  13.425  1.00  0.00     0.008 C 
ATOM      8  C   UNL     1       7.078   7.460  11.968  1.00  0.00     0.021 C 
ATOM      9  C   UNL     1       7.967   6.283  11.534  1.00  0.00     0.012 C 
ATOM     10  C   UNL     1       5.041   6.107  11.187  1.00  0.00     0.012 C 
ENDROOT
TORSDOF 0
ENDMDL
MODEL 2
REMARK VINA RESULT:    -5.165     15.157     16.869
REMARK INTER + INTRA:          -5.165
REMARK INTER:                  -5.165
REMARK INTRA:                   0.000
REMARK UNBOUND:                 0.000
REMARK SMILES C=C1CC[C@@H]2C[C@H]1C2(C)C
REMARK SMILES IDX 9 1 8 2 5 3 4 4 3 5 2 6 1 7 7 8 6 9 10 10
REMARK H PARENT
REMARK Flexibility Score: inf
ROOT
ATOM      1  C   UNL     1      11.967   5.596  28.142  1.00  0.00     0.012 C 
ATOM      2  C   UNL     1      11.189   4.988  29.342  1.00  0.00    -0.026 C 
ATOM      3  C   UNL     1      10.109   3.914  29.060  1.00  0.00    -0.004 C 
ATOM      4  C   UNL     1       9.340   4.224  27.736  1.00  0.00     0.008 C 
ATOM      5  C   UNL     1       8.790   5.701  27.688  1.00  0.00     0.031 C 
ATOM      6  C   UNL     1       9.281   6.545  28.874  1.00  0.00    -0.074 C 
ATOM      7  C   UNL     1       9.040   7.859  28.940  1.00  0.00     0.008 C 
ATOM      8  C   UNL     1      10.048   5.819  29.974  1.00  0.00     0.021 C 
ATOM      9  C   UNL     1       9.272   4.511  30.203  1.00  0.00     0.012 C 
ATOM     10  C   UNL     1      12.217   4.513  30.399  1.00  0.00     0.012 C 
ENDROOT
TORSDOF 0
ENDMDL
MODEL 3
REMARK VINA RESULT:    -4.942     14.789     16.099
REMARK INTER + INTRA:          -4.942
REMARK INTER:                  -4.942
REMARK INTRA:                   0.000
REMARK UNBOUND:                 0.000
REMARK SMILES C=C1CC[C@@H]2C[C@H]1C2(C)C
REMARK SMILES IDX 9 1 8 2 5 3 4 4 3 5 2 6 1 7 7 8 6 9 10 10
REMARK H PARENT
REMARK Flexibility Score: inf
ROOT
ATOM      1  C   UNL     1      12.209   5.623  28.113  1.00  0.00     0.012 C 
ATOM      2  C   UNL     1      10.874   6.358  27.812  1.00  0.00    -0.026 C 
ATOM      3  C   UNL     1       9.942   6.721  28.995  1.00  0.00    -0.004 C 
ATOM      4  C   UNL     1       9.965   5.607  30.091  1.00  0.00     0.008 C 
ATOM      5  C   UNL     1       9.703   4.170  29.498  1.00  0.00     0.031 C 
ATOM      6  C   UNL     1       9.655   4.173  27.963  1.00  0.00    -0.074 C 
ATOM      7  C   UNL     1       9.582   3.033  27.267  1.00  0.00     0.008 C 
ATOM      8  C   UNL     1       9.686   5.531  27.268  1.00  0.00     0.021 C 
ATOM      9  C   UNL     1       8.737   6.419  28.090  1.00  0.00     0.012 C 
ATOM     10  C   UNL     1      11.183   7.586  26.921  1.00  0.00     0.012 C 
ENDROOT
TORSDOF 0
ENDMDL
MODEL 4
REMARK VINA RESULT:    -4.818      0.961      3.186
REMARK INTER + INTRA:          -4.818
REMARK INTER:                  -4.818
REMARK INTRA:                   0.000
REMARK UNBOUND:                 0.000
REMARK SMILES C=C1CC[C@@H]2C[C@H]1C2(C)C
REMARK SMILES IDX 9 1 8 2 5 3 4 4 3 5 2 6 1 7 7 8 6 9 10 10
REMARK H PARENT
REMARK Flexibility Score: inf
ROOT
ATOM      1  C   UNL     1       8.180   8.249  12.536  1.00  0.00     0.012 C 
ATOM      2  C   UNL     1       7.195   7.874  13.678  1.00  0.00    -0.026 C 
ATOM      3  C   UNL     1       7.469   6.593  14.505  1.00  0.00    -0.004 C 
ATOM      4  C   UNL     1       8.055   5.458  13.605  1.00  0.00     0.008 C 
ATOM      5  C   UNL     1       7.190   5.203  12.313  1.00  0.00     0.031 C 
ATOM      6  C   UNL     1       6.068   6.239  12.148  1.00  0.00    -0.074 C 
ATOM      7  C   UNL     1       5.314   6.279  11.044  1.00  0.00     0.008 C 
ATOM      8  C   UNL     1       5.848   7.215  13.299  1.00  0.00     0.021 C 
ATOM      9  C   UNL     1       5.951   6.359  14.572  1.00  0.00     0.012 C 
ATOM     10  C   UNL     1       7.001   9.117  14.582  1.00  0.00     0.012 C 
ENDROOT
TORSDOF 0
ENDMDL
MODEL 5
REMARK VINA RESULT:    -4.794      1.264      2.622
REMARK INTER + INTRA:          -4.794
REMARK INTER:                  -4.794
REMARK INTRA:                   0.000
REMARK UNBOUND:                 0.000
REMARK SMILES C=C1CC[C@@H]2C[C@H]1C2(C)C
REMARK SMILES IDX 9 1 8 2 5 3 4 4 3 5 2 6 1 7 7 8 6 9 10 10
REMARK H PARENT
REMARK Flexibility Score: inf
ROOT
ATOM      1  C   UNL     1       6.267   6.852  11.839  1.00  0.00     0.012 C 
ATOM      2  C   UNL     1       7.424   7.481  12.664  1.00  0.00    -0.026 C 
ATOM      3  C   UNL     1       8.337   6.546  13.495  1.00  0.00    -0.004 C 
ATOM      4  C   UNL     1       7.521   5.364  14.111  1.00  0.00     0.008 C 
ATOM      5  C   UNL     1       6.242   5.854  14.890  1.00  0.00     0.031 C 
ATOM      6  C   UNL     1       5.999   7.362  14.723  1.00  0.00    -0.074 C 
ATOM      7  C   UNL     1       4.890   7.944  15.190  1.00  0.00     0.008 C 
ATOM      8  C   UNL     1       7.080   8.165  14.007  1.00  0.00     0.021 C 
ATOM      9  C   UNL     1       8.408   7.638  14.574  1.00  0.00     0.012 C 
ATOM     10  C   UNL     1       8.240   8.408  11.730  1.00  0.00     0.012 C 
ENDROOT
TORSDOF 0
ENDMDL
MODEL 6
REMARK VINA RESULT:    -4.733      1.184      2.866
REMARK INTER + INTRA:          -4.733
REMARK INTER:                  -4.733
REMARK INTRA:                   0.000
REMARK UNBOUND:                 0.000
REMARK SMILES C=C1CC[C@@H]2C[C@H]1C2(C)C
REMARK SMILES IDX 9 1 8 2 5 3 4 4 3 5 2 6 1 7 7 8 6 9 10 10
REMARK H PARENT
REMARK Flexibility Score: inf
ROOT
ATOM      1  C   UNL     1       5.809   8.081  14.377  1.00  0.00     0.012 C 
ATOM      2  C   UNL     1       6.756   6.853  14.286  1.00  0.00    -0.026 C 
ATOM      3  C   UNL     1       8.251   7.090  13.953  1.00  0.00    -0.004 C 
ATOM      4  C   UNL     1       8.420   8.257  12.927  1.00  0.00     0.008 C 
ATOM      5  C   UNL     1       7.510   8.079  11.653  1.00  0.00     0.031 C 
ATOM      6  C   UNL     1       6.543   6.893  11.788  1.00  0.00    -0.074 C 
ATOM      7  C   UNL     1       5.594   6.661  10.875  1.00  0.00     0.008 C 
ATOM      8  C   UNL     1       6.717   5.988  13.004  1.00  0.00     0.021 C 
ATOM      9  C   UNL     1       8.236   5.788  13.136  1.00  0.00     0.012 C 
ATOM     10  C   UNL     1       6.576   6.002  15.567  1.00  0.00     0.012 C 
ENDROOT
TORSDOF 0
ENDMDL
MODEL 7
REMARK VINA RESULT:    -4.720      1.167      3.125
REMARK INTER + INTRA:          -4.720
REMARK INTER:                  -4.720
REMARK INTRA:                   0.000
REMARK UNBOUND:                 0.000
REMARK SMILES C=C1CC[C@@H]2C[C@H]1C2(C)C
REMARK SMILES IDX 9 1 8 2 5 3 4 4 3 5 2 6 1 7 7 8 6 9 10 10
REMARK H PARENT
REMARK Flexibility Score: inf
ROOT
ATOM      1  C   UNL     1       5.000   6.806  13.875  1.00  0.00     0.012 C 
ATOM      2  C   UNL     1       6.331   7.552  14.167  1.00  0.00    -0.026 C 
ATOM      3  C   UNL     1       7.249   7.929  12.977  1.00  0.00    -0.004 C 
ATOM      4  C   UNL     1       7.226   6.820  11.876  1.00  0.00     0.008 C 
ATOM      5  C   UNL     1       7.507   5.384  12.460  1.00  0.00     0.031 C 
ATOM      6  C   UNL     1       7.570   5.379  13.995  1.00  0.00    -0.074 C 
ATOM      7  C   UNL     1       7.659   4.237  14.684  1.00  0.00     0.008 C 
ATOM      8  C   UNL     1       7.532   6.733  14.696  1.00  0.00     0.021 C 
ATOM      9  C   UNL     1       8.464   7.635  13.871  1.00  0.00     0.012 C 
ATOM     10  C   UNL     1       6.018   8.773  15.067  1.00  0.00     0.012 C 
ENDROOT
TORSDOF 0
ENDMDL
MODEL 8
REMARK VINA RESULT:    -4.708     14.877     16.202
REMARK INTER + INTRA:          -4.708
REMARK INTER:                  -4.708
REMARK INTRA:                   0.000
REMARK UNBOUND:                 0.000
REMARK SMILES C=C1CC[C@@H]2C[C@H]1C2(C)C
REMARK SMILES IDX 9 1 8 2 5 3 4 4 3 5 2 6 1 7 7 8 6 9 10 10
REMARK H PARENT
REMARK Flexibility Score: inf
ROOT
ATOM      1  C   UNL     1      10.187   5.122  30.394  1.00  0.00     0.012 C 
ATOM      2  C   UNL     1       9.606   6.182  29.418  1.00  0.00    -0.026 C 
ATOM      3  C   UNL     1       8.694   5.705  28.259  1.00  0.00    -0.004 C 
ATOM      4  C   UNL     1       9.181   4.333  27.689  1.00  0.00     0.008 C 
ATOM      5  C   UNL     1      10.714   4.341  27.324  1.00  0.00     0.031 C 
ATOM      6  C   UNL     1      11.414   5.634  27.770  1.00  0.00    -0.074 C 
ATOM      7  C   UNL     1      12.741   5.774  27.678  1.00  0.00     0.008 C 
ATOM      8  C   UNL     1      10.530   6.750  28.316  1.00  0.00     0.021 C 
ATOM      9  C   UNL     1       9.317   6.794  27.372  1.00  0.00     0.012 C 
ATOM     10  C   UNL     1       8.941   7.302  30.255  1.00  0.00     0.012 C 
ENDROOT
TORSDOF 0
ENDMDL
MODEL 9
REMARK VINA RESULT:    -4.701     14.933     16.418
REMARK INTER + INTRA:          -4.701
REMARK INTER:                  -4.701
REMARK INTRA:                   0.000
REMARK UNBOUND:                 0.000
REMARK SMILES C=C1CC[C@@H]2C[C@H]1C2(C)C
REMARK SMILES IDX 9 1 8 2 5 3 4 4 3 5 2 6 1 7 7 8 6 9 10 10
REMARK H PARENT
REMARK Flexibility Score: inf
ROOT
ATOM      1  C   UNL     1       9.121   6.875  29.411  1.00  0.00     0.012 C 
ATOM      2  C   UNL     1      10.157   6.574  28.293  1.00  0.00    -0.026 C 
ATOM      3  C   UNL     1       9.845   5.450  27.273  1.00  0.00    -0.004 C 
ATOM      4  C   UNL     1       9.101   4.259  27.959  1.00  0.00     0.008 C 
ATOM      5  C   UNL     1       9.841   3.750  29.255  1.00  0.00     0.031 C 
ATOM      6  C   UNL     1      11.027   4.647  29.640  1.00  0.00    -0.074 C 
ATOM      7  C   UNL     1      11.695   4.464  30.784  1.00  0.00     0.008 C 
ATOM      8  C   UNL     1      11.413   5.749  28.658  1.00  0.00     0.021 C 
ATOM      9  C   UNL     1      11.339   5.090  27.271  1.00  0.00     0.012 C 
ATOM     10  C   UNL     1      10.520   7.907  27.593  1.00  0.00     0.012 C 
ENDROOT
TORSDOF 0
ENDMDL
