MODEL 1
REMARK VINA RESULT:    -5.626      0.000      0.000
REMARK INTER + INTRA:         -12.037
REMARK INTER:                 -10.559
REMARK INTRA:                  -1.478
REMARK UNBOUND:                -1.478
REMARK SMILES O=C([O-])CCCCCCCCCCCCCCC(=O)[O-]
REMARK SMILES IDX 10 1 9 2 8 3 7 4 6 5 5 6 4 7 2 8 1 9 3 10 11 11 12 12 13 13
REMARK SMILES IDX 14 14 15 15 16 16 17 17 18 18 19 19 20 20
REMARK H PARENT
REMARK Flexibility Score: inf
ROOT
ATOM      1  C   UNL     1      19.450  -1.311 -17.690  1.00  0.00     0.000 C 
ENDROOT
BRANCH   1   2
ATOM      2  C   UNL     1      20.116  -2.061 -16.525  1.00  0.00     0.000 C 
BRANCH   2   3
ATOM      3  C   UNL     1      20.223  -1.202 -15.253  1.00  0.00     0.000 C 
BRANCH   3   4
ATOM      4  C   UNL     1      21.510  -0.350 -15.231  1.00  0.00     0.000 C 
BRANCH   4   5
ATOM      5  C   UNL     1      21.259   1.154 -15.450  1.00  0.00     0.000 C 
BRANCH   5   6
ATOM      6  C   UNL     1      20.061   1.731 -14.671  1.00  0.00     0.006 C 
BRANCH   6   7
ATOM      7  C   UNL     1      19.045   2.483 -15.545  1.00  0.00     0.053 C 
BRANCH   7   8
ATOM      8  C   UNL     1      17.820   1.664 -15.811  1.00  0.00     0.041 C 
ATOM      9  O   UNL     1      17.454   0.786 -14.988  1.00  0.00    -0.550 OA
ATOM     10  O   UNL     1      17.099   1.849 -16.985  1.00  0.00    -0.550 OA
ENDBRANCH   7   8
ENDBRANCH   6   7
ENDBRANCH   5   6
ENDBRANCH   4   5
ENDBRANCH   3   4
ENDBRANCH   2   3
ENDBRANCH   1   2
BRANCH   1  11
ATOM     11  C   UNL     1      20.356  -1.220 -18.930  1.00  0.00     0.000 C 
BRANCH  11  12
ATOM     12  C   UNL     1      21.189   0.075 -18.968  1.00  0.00     0.000 C 
BRANCH  12  13
ATOM     13  C   UNL     1      20.663   1.162 -19.924  1.00  0.00     0.000 C 
BRANCH  13  14
ATOM     14  C   UNL     1      19.657   0.620 -20.953  1.00  0.00     0.000 C 
BRANCH  14  15
ATOM     15  C   UNL     1      20.236   0.553 -22.378  1.00  0.00     0.000 C 
BRANCH  15  16
ATOM     16  C   UNL     1      19.192   0.531 -23.510  1.00  0.00     0.006 C 
BRANCH  16  17
ATOM     17  C   UNL     1      18.909  -0.881 -24.039  1.00  0.00     0.053 C 
BRANCH  17  18
ATOM     18  C   UNL     1      17.476  -1.245 -23.815  1.00  0.00     0.041 C 
ATOM     19  O   UNL     1      17.029  -2.346 -24.233  1.00  0.00    -0.550 OA
ATOM     20  O   UNL     1      16.646  -0.394 -23.099  1.00  0.00    -0.550 OA
ENDBRANCH  17  18
ENDBRANCH  16  17
ENDBRANCH  15  16
ENDBRANCH  14  15
ENDBRANCH  13  14
ENDBRANCH  12  13
ENDBRANCH  11  12
ENDBRANCH   1  11
TORSDOF 15
ENDMDL
MODEL 2
REMARK VINA RESULT:    -5.500      1.831      7.896
REMARK INTER + INTRA:         -11.802
REMARK INTER:                 -10.572
REMARK INTRA:                  -1.230
REMARK UNBOUND:                -1.478
REMARK SMILES O=C([O-])CCCCCCCCCCCCCCC(=O)[O-]
REMARK SMILES IDX 10 1 9 2 8 3 7 4 6 5 5 6 4 7 2 8 1 9 3 10 11 11 12 12 13 13
REMARK SMILES IDX 14 14 15 15 16 16 17 17 18 18 19 19 20 20
REMARK H PARENT
REMARK Flexibility Score: inf
ROOT
ATOM      1  C   UNL     1      20.276   1.097 -20.502  1.00  0.00     0.000 C 
ENDROOT
BRANCH   1   2
ATOM      2  C   UNL     1      20.586   0.529 -21.896  1.00  0.00     0.000 C 
BRANCH   2   3
ATOM      3  C   UNL     1      19.329   0.394 -22.774  1.00  0.00     0.000 C 
BRANCH   3   4
ATOM      4  C   UNL     1      18.082   1.012 -22.105  1.00  0.00     0.000 C 
BRANCH   4   5
ATOM      5  C   UNL     1      16.752   0.562 -22.740  1.00  0.00     0.000 C 
BRANCH   5   6
ATOM      6  C   UNL     1      16.898  -0.246 -24.044  1.00  0.00     0.006 C 
BRANCH   6   7
ATOM      7  C   UNL     1      15.931   0.180 -25.161  1.00  0.00     0.053 C 
BRANCH   7   8
ATOM      8  C   UNL     1      16.141   1.605 -25.570  1.00  0.00     0.041 C 
ATOM      9  O   UNL     1      15.154   2.367 -25.740  1.00  0.00    -0.550 OA
ATOM     10  O   UNL     1      17.426   2.084 -25.794  1.00  0.00    -0.550 OA
ENDBRANCH   7   8
ENDBRANCH   6   7
ENDBRANCH   5   6
ENDBRANCH   4   5
ENDBRANCH   3   4
ENDBRANCH   2   3
ENDBRANCH   1   2
BRANCH   1  11
ATOM     11  C   UNL     1      20.960   0.305 -19.375  1.00  0.00     0.000 C 
BRANCH  11  12
ATOM     12  C   UNL     1      20.251  -1.027 -19.064  1.00  0.00     0.000 C 
BRANCH  12  13
ATOM     13  C   UNL     1      19.461  -1.053 -17.742  1.00  0.00     0.000 C 
BRANCH  13  14
ATOM     14  C   UNL     1      20.174  -1.845 -16.634  1.00  0.00     0.000 C 
BRANCH  14  15
ATOM     15  C   UNL     1      20.521  -0.981 -15.408  1.00  0.00     0.000 C 
BRANCH  15  16
ATOM     16  C   UNL     1      20.562   0.537 -15.664  1.00  0.00     0.006 C 
BRANCH  16  17
ATOM     17  C   UNL     1      19.744   1.340 -14.645  1.00  0.00     0.053 C 
BRANCH  17  18
ATOM     18  C   UNL     1      18.363   1.589 -15.164  1.00  0.00     0.041 C 
ATOM     19  O   UNL     1      17.462   0.724 -15.009  1.00  0.00    -0.550 OA
ATOM     20  O   UNL     1      18.058   2.799 -15.772  1.00  0.00    -0.550 OA
ENDBRANCH  17  18
ENDBRANCH  16  17
ENDBRANCH  15  16
ENDBRANCH  14  15
ENDBRANCH  13  14
ENDBRANCH  12  13
ENDBRANCH  11  12
ENDBRANCH   1  11
TORSDOF 15
ENDMDL
MODEL 3
REMARK VINA RESULT:    -5.499      4.050      8.024
REMARK INTER + INTRA:         -11.799
REMARK INTER:                 -10.205
REMARK INTRA:                  -1.594
REMARK UNBOUND:                -1.478
REMARK SMILES O=C([O-])CCCCCCCCCCCCCCC(=O)[O-]
REMARK SMILES IDX 10 1 9 2 8 3 7 4 6 5 5 6 4 7 2 8 1 9 3 10 11 11 12 12 13 13
REMARK SMILES IDX 14 14 15 15 16 16 17 17 18 18 19 19 20 20
REMARK H PARENT
REMARK Flexibility Score: inf
ROOT
ATOM      1  C   UNL     1      20.108  -2.457 -16.383  1.00  0.00     0.000 C 
ENDROOT
BRANCH   1   2
ATOM      2  C   UNL     1      19.751  -2.077 -17.828  1.00  0.00     0.000 C 
BRANCH   2   3
ATOM      3  C   UNL     1      20.892  -1.335 -18.546  1.00  0.00     0.000 C 
BRANCH   3   4
ATOM      4  C   UNL     1      20.456   0.057 -19.051  1.00  0.00     0.000 C 
BRANCH   4   5
ATOM      5  C   UNL     1      20.968   1.220 -18.180  1.00  0.00     0.000 C 
BRANCH   5   6
ATOM      6  C   UNL     1      19.865   2.059 -17.505  1.00  0.00     0.006 C 
BRANCH   6   7
ATOM      7  C   UNL     1      18.576   1.278 -17.202  1.00  0.00     0.053 C 
BRANCH   7   8
ATOM      8  C   UNL     1      17.947   1.713 -15.915  1.00  0.00     0.041 C 
ATOM      9  O   UNL     1      17.539   0.857 -15.088  1.00  0.00    -0.550 OA
ATOM     10  O   UNL     1      17.783   3.066 -15.642  1.00  0.00    -0.550 OA
ENDBRANCH   7   8
ENDBRANCH   6   7
ENDBRANCH   5   6
ENDBRANCH   4   5
ENDBRANCH   3   4
ENDBRANCH   2   3
ENDBRANCH   1   2
BRANCH   1  11
ATOM     11  C   UNL     1      20.570  -1.249 -15.550  1.00  0.00     0.000 C 
BRANCH  11  12
ATOM     12  C   UNL     1      21.925  -1.483 -14.857  1.00  0.00     0.000 C 
BRANCH  12  13
ATOM     13  C   UNL     1      23.135  -0.829 -15.550  1.00  0.00     0.000 C 
BRANCH  13  14
ATOM     14  C   UNL     1      23.347   0.635 -15.131  1.00  0.00     0.000 C 
BRANCH  14  15
ATOM     15  C   UNL     1      24.596   0.833 -14.253  1.00  0.00     0.000 C 
BRANCH  15  16
ATOM     16  C   UNL     1      25.184  -0.455 -13.647  1.00  0.00     0.006 C 
BRANCH  16  17
ATOM     17  C   UNL     1      25.872  -0.223 -12.296  1.00  0.00     0.053 C 
BRANCH  17  18
ATOM     18  C   UNL     1      26.359  -1.519 -11.729  1.00  0.00     0.041 C 
ATOM     19  O   UNL     1      26.813  -2.413 -12.490  1.00  0.00    -0.550 OA
ATOM     20  O   UNL     1      26.362  -1.719 -10.355  1.00  0.00    -0.550 OA
ENDBRANCH  17  18
ENDBRANCH  16  17
ENDBRANCH  15  16
ENDBRANCH  14  15
ENDBRANCH  13  14
ENDBRANCH  12  13
ENDBRANCH  11  12
ENDBRANCH   1  11
TORSDOF 15
ENDMDL
MODEL 4
REMARK VINA RESULT:    -5.345      2.726      5.346
REMARK INTER + INTRA:         -11.511
REMARK INTER:                  -9.709
REMARK INTRA:                  -1.802
REMARK UNBOUND:                -1.478
REMARK SMILES O=C([O-])CCCCCCCCCCCCCCC(=O)[O-]
REMARK SMILES IDX 10 1 9 2 8 3 7 4 6 5 5 6 4 7 2 8 1 9 3 10 11 11 12 12 13 13
REMARK SMILES IDX 14 14 15 15 16 16 17 17 18 18 19 19 20 20
REMARK H PARENT
REMARK Flexibility Score: inf
ROOT
ATOM      1  C   UNL     1      17.235   1.519 -22.764  1.00  0.00     0.000 C 
ENDROOT
BRANCH   1   2
ATOM      2  C   UNL     1      18.771   1.529 -22.719  1.00  0.00     0.000 C 
BRANCH   2   3
ATOM      3  C   UNL     1      19.354   0.238 -22.118  1.00  0.00     0.000 C 
BRANCH   3   4
ATOM      4  C   UNL     1      20.575   0.516 -21.215  1.00  0.00     0.000 C 
BRANCH   4   5
ATOM      5  C   UNL     1      20.206   1.110 -19.841  1.00  0.00     0.000 C 
BRANCH   5   6
ATOM      6  C   UNL     1      19.607   0.103 -18.840  1.00  0.00     0.006 C 
BRANCH   6   7
ATOM      7  C   UNL     1      20.468  -1.151 -18.616  1.00  0.00     0.053 C 
BRANCH   7   8
ATOM      8  C   UNL     1      19.864  -2.071 -17.600  1.00  0.00     0.041 C 
ATOM      9  O   UNL     1      19.925  -1.789 -16.375  1.00  0.00    -0.550 OA
ATOM     10  O   UNL     1      19.262  -3.256 -18.004  1.00  0.00    -0.550 OA
ENDBRANCH   7   8
ENDBRANCH   6   7
ENDBRANCH   5   6
ENDBRANCH   4   5
ENDBRANCH   3   4
ENDBRANCH   2   3
ENDBRANCH   1   2
BRANCH   1  11
ATOM     11  C   UNL     1      16.663   0.147 -23.160  1.00  0.00     0.000 C 
BRANCH  11  12
ATOM     12  C   UNL     1      16.064   0.136 -24.579  1.00  0.00     0.000 C 
BRANCH  12  13
ATOM     13  C   UNL     1      15.986   1.511 -25.266  1.00  0.00     0.000 C 
BRANCH  13  14
ATOM     14  C   UNL     1      16.941   1.638 -26.464  1.00  0.00     0.000 C 
BRANCH  14  15
ATOM     15  C   UNL     1      17.550   0.289 -26.891  1.00  0.00     0.000 C 
BRANCH  15  16
ATOM     16  C   UNL     1      19.088   0.224 -26.858  1.00  0.00     0.006 C 
BRANCH  16  17
ATOM     17  C   UNL     1      19.630  -0.574 -25.664  1.00  0.00     0.053 C 
BRANCH  17  18
ATOM     18  C   UNL     1      19.152  -1.990 -25.723  1.00  0.00     0.041 C 
ATOM     19  O   UNL     1      18.506  -2.481 -24.761  1.00  0.00    -0.550 OA
ATOM     20  O   UNL     1      19.374  -2.752 -26.863  1.00  0.00    -0.550 OA
ENDBRANCH  17  18
ENDBRANCH  16  17
ENDBRANCH  15  16
ENDBRANCH  14  15
ENDBRANCH  13  14
ENDBRANCH  12  13
ENDBRANCH  11  12
ENDBRANCH   1  11
TORSDOF 15
ENDMDL
MODEL 5
REMARK VINA RESULT:    -5.320      0.630      6.923
REMARK INTER + INTRA:         -11.464
REMARK INTER:                  -9.959
REMARK INTRA:                  -1.504
REMARK UNBOUND:                -1.478
REMARK SMILES O=C([O-])CCCCCCCCCCCCCCC(=O)[O-]
REMARK SMILES IDX 10 1 9 2 8 3 7 4 6 5 5 6 4 7 2 8 1 9 3 10 11 11 12 12 13 13
REMARK SMILES IDX 14 14 15 15 16 16 17 17 18 18 19 19 20 20
REMARK H PARENT
REMARK Flexibility Score: inf
ROOT
ATOM      1  C   UNL     1      19.950  -1.501 -18.614  1.00  0.00     0.000 C 
ENDROOT
BRANCH   1   2
ATOM      2  C   UNL     1      20.956  -0.406 -19.001  1.00  0.00     0.000 C 
BRANCH   2   3
ATOM      3  C   UNL     1      20.271   0.892 -19.462  1.00  0.00     0.000 C 
BRANCH   3   4
ATOM      4  C   UNL     1      19.407   0.679 -20.724  1.00  0.00     0.000 C 
BRANCH   4   5
ATOM      5  C   UNL     1      20.230   0.527 -22.018  1.00  0.00     0.000 C 
BRANCH   5   6
ATOM      6  C   UNL     1      19.409   0.594 -23.320  1.00  0.00     0.006 C 
BRANCH   6   7
ATOM      7  C   UNL     1      18.984  -0.778 -23.868  1.00  0.00     0.053 C 
BRANCH   7   8
ATOM      8  C   UNL     1      17.511  -1.007 -23.726  1.00  0.00     0.041 C 
ATOM      9  O   UNL     1      16.839  -0.323 -22.911  1.00  0.00    -0.550 OA
ATOM     10  O   UNL     1      16.885  -1.997 -24.473  1.00  0.00    -0.550 OA
ENDBRANCH   7   8
ENDBRANCH   6   7
ENDBRANCH   5   6
ENDBRANCH   4   5
ENDBRANCH   3   4
ENDBRANCH   2   3
ENDBRANCH   1   2
BRANCH   1  11
ATOM     11  C   UNL     1      19.761  -1.619 -17.091  1.00  0.00     0.000 C 
BRANCH  11  12
ATOM     12  C   UNL     1      21.071  -1.413 -16.308  1.00  0.00     0.000 C 
BRANCH  12  13
ATOM     13  C   UNL     1      21.012  -0.337 -15.208  1.00  0.00     0.000 C 
BRANCH  13  14
ATOM     14  C   UNL     1      22.024   0.800 -15.426  1.00  0.00     0.000 C 
BRANCH  14  15
ATOM     15  C   UNL     1      21.378   2.196 -15.377  1.00  0.00     0.000 C 
BRANCH  15  16
ATOM     16  C   UNL     1      20.157   2.387 -16.296  1.00  0.00     0.006 C 
BRANCH  16  17
ATOM     17  C   UNL     1      18.885   2.776 -15.531  1.00  0.00     0.053 C 
BRANCH  17  18
ATOM     18  C   UNL     1      17.791   1.793 -15.805  1.00  0.00     0.041 C 
ATOM     19  O   UNL     1      17.108   1.883 -16.860  1.00  0.00    -0.550 OA
ATOM     20  O   UNL     1      17.559   0.746 -14.923  1.00  0.00    -0.550 OA
ENDBRANCH  17  18
ENDBRANCH  16  17
ENDBRANCH  15  16
ENDBRANCH  14  15
ENDBRANCH  13  14
ENDBRANCH  12  13
ENDBRANCH  11  12
ENDBRANCH   1  11
TORSDOF 15
ENDMDL
MODEL 6
REMARK VINA RESULT:    -5.290      2.139      4.390
REMARK INTER + INTRA:         -11.407
REMARK INTER:                 -10.058
REMARK INTRA:                  -1.350
REMARK UNBOUND:                -1.478
REMARK SMILES O=C([O-])CCCCCCCCCCCCCCC(=O)[O-]
REMARK SMILES IDX 10 1 9 2 8 3 7 4 6 5 5 6 4 7 2 8 1 9 3 10 11 11 12 12 13 13
REMARK SMILES IDX 14 14 15 15 16 16 17 17 18 18 19 19 20 20
REMARK H PARENT
REMARK Flexibility Score: inf
ROOT
ATOM      1  C   UNL     1      18.614   1.320 -22.592  1.00  0.00     0.000 C 
ENDROOT
BRANCH   1   2
ATOM      2  C   UNL     1      18.991   1.199 -21.108  1.00  0.00     0.000 C 
BRANCH   2   3
ATOM      3  C   UNL     1      19.946   0.023 -20.834  1.00  0.00     0.000 C 
BRANCH   3   4
ATOM      4  C   UNL     1      20.511   0.055 -19.397  1.00  0.00     0.000 C 
BRANCH   4   5
ATOM      5  C   UNL     1      20.057  -1.134 -18.528  1.00  0.00     0.000 C 
BRANCH   5   6
ATOM      6  C   UNL     1      19.351  -0.745 -17.215  1.00  0.00     0.006 C 
BRANCH   6   7
ATOM      7  C   UNL     1      19.247   0.771 -16.981  1.00  0.00     0.053 C 
BRANCH   7   8
ATOM      8  C   UNL     1      17.956   1.149 -16.323  1.00  0.00     0.041 C 
ATOM      9  O   UNL     1      17.707   0.768 -15.150  1.00  0.00    -0.550 OA
ATOM     10  O   UNL     1      17.013   1.897 -17.017  1.00  0.00    -0.550 OA
ENDBRANCH   7   8
ENDBRANCH   6   7
ENDBRANCH   5   6
ENDBRANCH   4   5
ENDBRANCH   3   4
ENDBRANCH   2   3
ENDBRANCH   1   2
BRANCH   1  11
ATOM     11  C   UNL     1      17.092   1.321 -22.818  1.00  0.00     0.000 C 
BRANCH  11  12
ATOM     12  C   UNL     1      16.577   0.006 -23.433  1.00  0.00     0.000 C 
BRANCH  12  13
ATOM     13  C   UNL     1      15.909   0.147 -24.813  1.00  0.00     0.000 C 
BRANCH  13  14
ATOM     14  C   UNL     1      15.929   1.590 -25.343  1.00  0.00     0.000 C 
BRANCH  14  15
ATOM     15  C   UNL     1      17.049   1.836 -26.371  1.00  0.00     0.000 C 
BRANCH  15  16
ATOM     16  C   UNL     1      17.771   0.570 -26.871  1.00  0.00     0.006 C 
BRANCH  16  17
ATOM     17  C   UNL     1      19.211   0.459 -26.356  1.00  0.00     0.053 C 
BRANCH  17  18
ATOM     18  C   UNL     1      19.421  -0.857 -25.674  1.00  0.00     0.041 C 
ATOM     19  O   UNL     1      18.664  -1.829 -25.928  1.00  0.00    -0.550 OA
ATOM     20  O   UNL     1      20.486  -1.024 -24.799  1.00  0.00    -0.550 OA
ENDBRANCH  17  18
ENDBRANCH  16  17
ENDBRANCH  15  16
ENDBRANCH  14  15
ENDBRANCH  13  14
ENDBRANCH  12  13
ENDBRANCH  11  12
ENDBRANCH   1  11
TORSDOF 15
ENDMDL
MODEL 7
REMARK VINA RESULT:    -5.278      1.470      2.253
REMARK INTER + INTRA:         -11.385
REMARK INTER:                 -10.218
REMARK INTRA:                  -1.167
REMARK UNBOUND:                -1.478
REMARK SMILES O=C([O-])CCCCCCCCCCCCCCC(=O)[O-]
REMARK SMILES IDX 10 1 9 2 8 3 7 4 6 5 5 6 4 7 2 8 1 9 3 10 11 11 12 12 13 13
REMARK SMILES IDX 14 14 15 15 16 16 17 17 18 18 19 19 20 20
REMARK H PARENT
REMARK Flexibility Score: inf
ROOT
ATOM      1  C   UNL     1      19.919   0.302 -19.272  1.00  0.00     0.000 C 
ENDROOT
BRANCH   1   2
ATOM      2  C   UNL     1      20.150  -1.124 -18.749  1.00  0.00     0.000 C 
BRANCH   2   3
ATOM      3  C   UNL     1      21.566  -1.323 -18.179  1.00  0.00     0.000 C 
BRANCH   3   4
ATOM      4  C   UNL     1      21.732  -0.670 -16.790  1.00  0.00     0.000 C 
BRANCH   4   5
ATOM      5  C   UNL     1      20.649  -1.089 -15.776  1.00  0.00     0.000 C 
BRANCH   5   6
ATOM      6  C   UNL     1      20.069   0.064 -14.934  1.00  0.00     0.006 C 
BRANCH   6   7
ATOM      7  C   UNL     1      19.519   1.235 -15.763  1.00  0.00     0.053 C 
BRANCH   7   8
ATOM      8  C   UNL     1      18.022   1.260 -15.774  1.00  0.00     0.041 C 
ATOM      9  O   UNL     1      17.374   0.809 -14.794  1.00  0.00    -0.550 OA
ATOM     10  O   UNL     1      17.341   1.753 -16.880  1.00  0.00    -0.550 OA
ENDBRANCH   7   8
ENDBRANCH   6   7
ENDBRANCH   5   6
ENDBRANCH   4   5
ENDBRANCH   3   4
ENDBRANCH   2   3
ENDBRANCH   1   2
BRANCH   1  11
ATOM     11  C   UNL     1      20.945   0.714 -20.341  1.00  0.00     0.000 C 
BRANCH  11  12
ATOM     12  C   UNL     1      20.354   1.655 -21.407  1.00  0.00     0.000 C 
BRANCH  12  13
ATOM     13  C   UNL     1      19.421   0.980 -22.430  1.00  0.00     0.000 C 
BRANCH  13  14
ATOM     14  C   UNL     1      17.947   0.990 -21.994  1.00  0.00     0.000 C 
BRANCH  14  15
ATOM     15  C   UNL     1      17.055   1.841 -22.916  1.00  0.00     0.000 C 
BRANCH  15  16
ATOM     16  C   UNL     1      17.160   1.514 -24.417  1.00  0.00     0.006 C 
BRANCH  16  17
ATOM     17  C   UNL     1      16.263   0.343 -24.840  1.00  0.00     0.053 C 
BRANCH  17  18
ATOM     18  C   UNL     1      17.072  -0.906 -24.994  1.00  0.00     0.041 C 
ATOM     19  O   UNL     1      16.855  -1.897 -24.248  1.00  0.00    -0.550 OA
ATOM     20  O   UNL     1      18.030  -0.994 -25.995  1.00  0.00    -0.550 OA
ENDBRANCH  17  18
ENDBRANCH  16  17
ENDBRANCH  15  16
ENDBRANCH  14  15
ENDBRANCH  13  14
ENDBRANCH  12  13
ENDBRANCH  11  12
ENDBRANCH   1  11
TORSDOF 15
ENDMDL
MODEL 8
REMARK VINA RESULT:    -5.221      2.891      8.310
REMARK INTER + INTRA:         -11.277
REMARK INTER:                  -9.525
REMARK INTRA:                  -1.752
REMARK UNBOUND:                -1.478
REMARK SMILES O=C([O-])CCCCCCCCCCCCCCC(=O)[O-]
REMARK SMILES IDX 10 1 9 2 8 3 7 4 6 5 5 6 4 7 2 8 1 9 3 10 11 11 12 12 13 13
REMARK SMILES IDX 14 14 15 15 16 16 17 17 18 18 19 19 20 20
REMARK H PARENT
REMARK Flexibility Score: inf
ROOT
ATOM      1  C   UNL     1      16.865   1.189 -22.791  1.00  0.00     0.000 C 
ENDROOT
BRANCH   1   2
ATOM      2  C   UNL     1      16.872  -0.147 -23.549  1.00  0.00     0.000 C 
BRANCH   2   3
ATOM      3  C   UNL     1      16.026  -0.104 -24.834  1.00  0.00     0.000 C 
BRANCH   3   4
ATOM      4  C   UNL     1      15.994   1.306 -25.463  1.00  0.00     0.000 C 
BRANCH   4   5
ATOM      5  C   UNL     1      17.121   1.553 -26.484  1.00  0.00     0.000 C 
BRANCH   5   6
ATOM      6  C   UNL     1      17.784   0.278 -27.040  1.00  0.00     0.006 C 
BRANCH   6   7
ATOM      7  C   UNL     1      19.275   0.141 -26.694  1.00  0.00     0.053 C 
BRANCH   7   8
ATOM      8  C   UNL     1      19.591  -1.194 -26.094  1.00  0.00     0.041 C 
ATOM      9  O   UNL     1      18.688  -2.061 -25.966  1.00  0.00    -0.550 OA
ATOM     10  O   UNL     1      20.877  -1.469 -25.646  1.00  0.00    -0.550 OA
ENDBRANCH   7   8
ENDBRANCH   6   7
ENDBRANCH   5   6
ENDBRANCH   4   5
ENDBRANCH   3   4
ENDBRANCH   2   3
ENDBRANCH   1   2
BRANCH   1  11
ATOM     11  C   UNL     1      18.275   1.638 -22.370  1.00  0.00     0.000 C 
BRANCH  11  12
ATOM     12  C   UNL     1      19.391   0.872 -23.105  1.00  0.00     0.000 C 
BRANCH  12  13
ATOM     13  C   UNL     1      20.656   0.601 -22.270  1.00  0.00     0.000 C 
BRANCH  13  14
ATOM     14  C   UNL     1      20.821   1.579 -21.096  1.00  0.00     0.000 C 
BRANCH  14  15
ATOM     15  C   UNL     1      20.984   0.867 -19.740  1.00  0.00     0.000 C 
BRANCH  15  16
ATOM     16  C   UNL     1      20.205  -0.454 -19.595  1.00  0.00     0.006 C 
BRANCH  16  17
ATOM     17  C   UNL     1      20.890  -1.453 -18.653  1.00  0.00     0.053 C 
BRANCH  17  18
ATOM     18  C   UNL     1      19.892  -2.054 -17.715  1.00  0.00     0.041 C 
ATOM     19  O   UNL     1      19.390  -3.181 -17.960  1.00  0.00    -0.550 OA
ATOM     20  O   UNL     1      19.556  -1.392 -16.541  1.00  0.00    -0.550 OA
ENDBRANCH  17  18
ENDBRANCH  16  17
ENDBRANCH  15  16
ENDBRANCH  14  15
ENDBRANCH  13  14
ENDBRANCH  12  13
ENDBRANCH  11  12
ENDBRANCH   1  11
TORSDOF 15
ENDMDL
MODEL 9
REMARK VINA RESULT:    -5.211      3.347      6.520
REMARK INTER + INTRA:         -11.260
REMARK INTER:                  -9.197
REMARK INTRA:                  -2.063
REMARK UNBOUND:                -1.478
REMARK SMILES O=C([O-])CCCCCCCCCCCCCCC(=O)[O-]
REMARK SMILES IDX 10 1 9 2 8 3 7 4 6 5 5 6 4 7 2 8 1 9 3 10 11 11 12 12 13 13
REMARK SMILES IDX 14 14 15 15 16 16 17 17 18 18 19 19 20 20
REMARK H PARENT
REMARK Flexibility Score: inf
ROOT
ATOM      1  C   UNL     1      16.039   1.403 -25.242  1.00  0.00     0.000 C 
ENDROOT
BRANCH   1   2
ATOM      2  C   UNL     1      16.130  -0.030 -24.695  1.00  0.00     0.000 C 
BRANCH   2   3
ATOM      3  C   UNL     1      16.756  -0.089 -23.290  1.00  0.00     0.000 C 
BRANCH   3   4
ATOM      4  C   UNL     1      17.097   1.314 -22.745  1.00  0.00     0.000 C 
BRANCH   4   5
ATOM      5  C   UNL     1      18.558   1.457 -22.275  1.00  0.00     0.000 C 
BRANCH   5   6
ATOM      6  C   UNL     1      19.218   0.146 -21.804  1.00  0.00     0.006 C 
BRANCH   6   7
ATOM      7  C   UNL     1      20.335   0.341 -20.767  1.00  0.00     0.053 C 
BRANCH   7   8
ATOM      8  C   UNL     1      19.790   0.512 -19.382  1.00  0.00     0.041 C 
ATOM      9  O   UNL     1      19.356   1.632 -19.007  1.00  0.00    -0.550 OA
ATOM     10  O   UNL     1      19.791  -0.558 -18.496  1.00  0.00    -0.550 OA
ENDBRANCH   7   8
ENDBRANCH   6   7
ENDBRANCH   5   6
ENDBRANCH   4   5
ENDBRANCH   3   4
ENDBRANCH   2   3
ENDBRANCH   1   2
BRANCH   1  11
ATOM     11  C   UNL     1      16.969   1.637 -26.445  1.00  0.00     0.000 C 
BRANCH  11  12
ATOM     12  C   UNL     1      17.469   0.325 -27.079  1.00  0.00     0.000 C 
BRANCH  12  13
ATOM     13  C   UNL     1      18.997   0.137 -27.072  1.00  0.00     0.000 C 
BRANCH  13  14
ATOM     14  C   UNL     1      19.646   0.556 -25.743  1.00  0.00     0.000 C 
BRANCH  14  15
ATOM     15  C   UNL     1      20.312  -0.618 -25.003  1.00  0.00     0.000 C 
BRANCH  15  16
ATOM     16  C   UNL     1      19.553  -1.956 -25.078  1.00  0.00     0.006 C 
BRANCH  16  17
ATOM     17  C   UNL     1      20.471  -3.151 -25.368  1.00  0.00     0.053 C 
BRANCH  17  18
ATOM     18  C   UNL     1      19.677  -4.301 -25.901  1.00  0.00     0.041 C 
ATOM     19  O   UNL     1      18.674  -4.725 -25.270  1.00  0.00    -0.550 OA
ATOM     20  O   UNL     1      20.013  -4.871 -27.122  1.00  0.00    -0.550 OA
ENDBRANCH  17  18
ENDBRANCH  16  17
ENDBRANCH  15  16
ENDBRANCH  14  15
ENDBRANCH  13  14
ENDBRANCH  12  13
ENDBRANCH  11  12
ENDBRANCH   1  11
TORSDOF 15
ENDMDL
