MODEL 1
REMARK VINA RESULT:    -5.752      0.000      0.000
REMARK INTER + INTRA:          -9.536
REMARK INTER:                  -7.937
REMARK INTRA:                  -1.598
REMARK UNBOUND:                -1.598
REMARK SMILES C=C(CC[C@@H](C(=O)[O-])[C@H]1CC[C@@]2(C)C3=C(CC[C@]12C)[C@@]1(C)CC[C@H](O)C(C)(C)[C@H]1CC3)C(C)C
REMARK SMILES IDX 4 1 5 2 6 3 7 4 8 5 9 6 10 7 18 8 11 9 12 10 17 11 19 12
REMARK SMILES IDX 13 13 14 14 16 15 15 16 31 17 20 18 30 19 29 20 22 21 21 22
REMARK SMILES IDX 26 23 23 24 24 25 27 26 28 27 25 28 3 30 2 31 1 32 32 33
REMARK SMILES IDX 33 34 34 35
REMARK H PARENT 25 29
REMARK Flexibility Score: inf
ROOT
ATOM      1  C   UNL     1      23.694 -14.853  45.604  1.00  0.00     0.014 C 
ENDROOT
BRANCH   1   2
ATOM      2  C   UNL     1      23.257 -15.091  44.129  1.00  0.00     0.039 C 
BRANCH   2   3
ATOM      3  C   UNL     1      23.487 -16.538  43.785  1.00  0.00     0.045 C 
ATOM      4  O   UNL     1      22.684 -17.143  43.026  1.00  0.00    -0.550 OA
ATOM      5  O   UNL     1      24.604 -17.209  44.268  1.00  0.00    -0.550 OA
ENDBRANCH   2   3
BRANCH   2   6
ATOM      6  C   UNL     1      21.757 -14.682  43.933  1.00  0.00     0.004 C 
ATOM      7  C   UNL     1      21.052 -14.406  45.291  1.00  0.00     0.006 C 
ATOM      8  C   UNL     1      21.431 -13.406  43.094  1.00  0.00    -0.020 C 
ATOM      9  C   UNL     1      20.117 -13.200  45.094  1.00  0.00     0.012 C 
ATOM     10  C   UNL     1      19.990 -13.054  43.571  1.00  0.00    -0.006 C 
ATOM     11  C   UNL     1      21.373 -13.593  41.567  1.00  0.00     0.012 C 
ATOM     12  C   UNL     1      22.470 -12.276  43.424  1.00  0.00     0.012 C 
ATOM     13  C   UNL     1      18.869 -14.040  43.103  1.00  0.00     0.017 C 
ATOM     14  C   UNL     1      19.601 -11.691  43.019  1.00  0.00    -0.064 C 
ATOM     15  C   UNL     1      20.739 -12.366  40.854  1.00  0.00     0.032 C 
ATOM     16  C   UNL     1      19.847 -11.415  41.701  1.00  0.00    -0.064 C 
ATOM     17  C   UNL     1      18.774 -10.747  43.845  1.00  0.00     0.032 C 
ATOM     18  C   UNL     1      19.354 -10.079  41.061  1.00  0.00    -0.008 C 
ATOM     19  C   UNL     1      17.594 -10.285  43.008  1.00  0.00     0.009 C 
ATOM     20  C   UNL     1      18.100  -9.429  41.824  1.00  0.00     0.007 C 
ATOM     21  C   UNL     1      19.032 -10.333  39.558  1.00  0.00     0.014 C 
ATOM     22  C   UNL     1      20.559  -9.103  41.141  1.00  0.00     0.016 C 
ATOM     23  C   UNL     1      16.908  -8.915  40.916  1.00  0.00    -0.006 C 
ATOM     24  C   UNL     1      18.376  -9.169  38.795  1.00  0.00     0.033 C 
ATOM     25  C   UNL     1      17.474  -8.240  39.635  1.00  0.00     0.120 C 
ATOM     26  C   UNL     1      15.907 -10.041  40.523  1.00  0.00     0.014 C 
ATOM     27  C   UNL     1      16.079  -7.844  41.680  1.00  0.00     0.014 C 
BRANCH  25  28
ATOM     28  O   UNL     1      18.184  -7.074  39.983  1.00  0.00    -0.393 OA
ATOM     29  H   UNL     1      18.063  -6.426  39.241  1.00  0.00     0.210 HD
ENDBRANCH  25  28
ENDBRANCH   2   6
ENDBRANCH   1   2
BRANCH   1  30
ATOM     30  C   UNL     1      24.869 -13.871  45.764  1.00  0.00     0.031 C 
BRANCH  30  31
ATOM     31  C   UNL     1      24.604 -12.735  46.733  1.00  0.00    -0.075 C 
ATOM     32  C   UNL     1      25.125 -12.799  47.975  1.00  0.00     0.008 C 
BRANCH  31  33
ATOM     33  C   UNL     1      23.880 -11.486  46.237  1.00  0.00     0.008 C 
ATOM     34  C   UNL     1      22.516 -11.264  46.912  1.00  0.00     0.012 C 
ATOM     35  C   UNL     1      24.776 -10.253  46.390  1.00  0.00     0.012 C 
ENDBRANCH  31  33
ENDBRANCH  30  31
ENDBRANCH   1  30
TORSDOF 7
ENDMDL
MODEL 2
REMARK VINA RESULT:    -5.644      2.015      4.401
REMARK INTER + INTRA:          -9.386
REMARK INTER:                  -7.318
REMARK INTRA:                  -2.068
REMARK UNBOUND:                -1.598
REMARK SMILES C=C(CC[C@@H](C(=O)[O-])[C@H]1CC[C@@]2(C)C3=C(CC[C@]12C)[C@@]1(C)CC[C@H](O)C(C)(C)[C@H]1CC3)C(C)C
REMARK SMILES IDX 4 1 5 2 6 3 7 4 8 5 9 6 10 7 18 8 11 9 12 10 17 11 19 12
REMARK SMILES IDX 13 13 14 14 16 15 15 16 31 17 20 18 30 19 29 20 22 21 21 22
REMARK SMILES IDX 26 23 23 24 24 25 27 26 28 27 25 28 3 30 2 31 1 32 32 33
REMARK SMILES IDX 33 34 34 35
REMARK H PARENT 25 29
REMARK Flexibility Score: inf
ROOT
ATOM      1  C   UNL     1      22.641 -15.895  44.395  1.00  0.00     0.014 C 
ENDROOT
BRANCH   1   2
ATOM      2  C   UNL     1      21.988 -14.712  45.169  1.00  0.00     0.039 C 
BRANCH   2   3
ATOM      3  C   UNL     1      22.671 -14.572  46.503  1.00  0.00     0.045 C 
ATOM      4  O   UNL     1      23.433 -15.483  46.921  1.00  0.00    -0.550 OA
ATOM      5  O   UNL     1      22.500 -13.422  47.265  1.00  0.00    -0.550 OA
ENDBRANCH   2   3
BRANCH   2   6
ATOM      6  C   UNL     1      22.082 -13.393  44.329  1.00  0.00     0.004 C 
ATOM      7  C   UNL     1      22.895 -13.600  43.020  1.00  0.00     0.006 C 
ATOM      8  C   UNL     1      20.762 -12.724  43.829  1.00  0.00    -0.020 C 
ATOM      9  C   UNL     1      22.203 -12.791  41.909  1.00  0.00     0.012 C 
ATOM     10  C   UNL     1      21.265 -11.832  42.655  1.00  0.00    -0.006 C 
ATOM     11  C   UNL     1      20.047 -11.801  44.832  1.00  0.00     0.012 C 
ATOM     12  C   UNL     1      19.754 -13.832  43.358  1.00  0.00     0.012 C 
ATOM     13  C   UNL     1      22.115 -10.587  43.076  1.00  0.00     0.017 C 
ATOM     14  C   UNL     1      20.066 -11.279  41.900  1.00  0.00    -0.064 C 
ATOM     15  C   UNL     1      18.941 -10.948  44.149  1.00  0.00     0.032 C 
ATOM     16  C   UNL     1      19.022 -10.751  42.609  1.00  0.00    -0.064 C 
ATOM     17  C   UNL     1      20.118 -11.125  40.406  1.00  0.00     0.032 C 
ATOM     18  C   UNL     1      17.828 -10.063  41.876  1.00  0.00    -0.008 C 
ATOM     19  C   UNL     1      19.697  -9.708  40.057  1.00  0.00     0.009 C 
ATOM     20  C   UNL     1      18.209  -9.503  40.420  1.00  0.00     0.007 C 
ATOM     21  C   UNL     1      17.267  -8.931  42.787  1.00  0.00     0.014 C 
ATOM     22  C   UNL     1      16.734 -11.155  41.730  1.00  0.00     0.016 C 
ATOM     23  C   UNL     1      17.713  -8.040  40.073  1.00  0.00    -0.006 C 
ATOM     24  C   UNL     1      16.186  -8.028  42.168  1.00  0.00     0.033 C 
ATOM     25  C   UNL     1      16.283  -7.818  40.642  1.00  0.00     0.120 C 
ATOM     26  C   UNL     1      18.669  -6.928  40.596  1.00  0.00     0.014 C 
ATOM     27  C   UNL     1      17.635  -7.855  38.530  1.00  0.00     0.014 C 
BRANCH  25  28
ATOM     28  O   UNL     1      15.371  -8.667  39.985  1.00  0.00    -0.393 OA
ATOM     29  H   UNL     1      14.461  -8.312  40.162  1.00  0.00     0.210 HD
ENDBRANCH  25  28
ENDBRANCH   2   6
ENDBRANCH   1   2
BRANCH   1  30
ATOM     30  C   UNL     1      21.731 -17.126  44.236  1.00  0.00     0.031 C 
BRANCH  30  31
ATOM     31  C   UNL     1      21.058 -17.233  42.881  1.00  0.00    -0.075 C 
ATOM     32  C   UNL     1      19.748 -17.544  42.823  1.00  0.00     0.008 C 
BRANCH  31  33
ATOM     33  C   UNL     1      21.841 -16.848  41.629  1.00  0.00     0.008 C 
ATOM     34  C   UNL     1      22.502 -18.048  40.930  1.00  0.00     0.012 C 
ATOM     35  C   UNL     1      20.946 -16.073  40.657  1.00  0.00     0.012 C 
ENDBRANCH  31  33
ENDBRANCH  30  31
ENDBRANCH   1  30
TORSDOF 7
ENDMDL
MODEL 3
REMARK VINA RESULT:    -5.616      2.084      3.088
REMARK INTER + INTRA:          -9.348
REMARK INTER:                  -7.459
REMARK INTRA:                  -1.889
REMARK UNBOUND:                -1.598
REMARK SMILES C=C(CC[C@@H](C(=O)[O-])[C@H]1CC[C@@]2(C)C3=C(CC[C@]12C)[C@@]1(C)CC[C@H](O)C(C)(C)[C@H]1CC3)C(C)C
REMARK SMILES IDX 4 1 5 2 6 3 7 4 8 5 9 6 10 7 18 8 11 9 12 10 17 11 19 12
REMARK SMILES IDX 13 13 14 14 16 15 15 16 31 17 20 18 30 19 29 20 22 21 21 22
REMARK SMILES IDX 26 23 23 24 24 25 27 26 28 27 25 28 3 30 2 31 1 32 32 33
REMARK SMILES IDX 33 34 34 35
REMARK H PARENT 25 29
REMARK Flexibility Score: inf
ROOT
ATOM      1  C   UNL     1      23.801 -14.301  44.235  1.00  0.00     0.014 C 
ENDROOT
BRANCH   1   2
ATOM      2  C   UNL     1      23.316 -12.896  43.772  1.00  0.00     0.039 C 
BRANCH   2   3
ATOM      3  C   UNL     1      24.518 -12.064  43.414  1.00  0.00     0.045 C 
ATOM      4  O   UNL     1      25.125 -11.414  44.307  1.00  0.00    -0.550 OA
ATOM      5  O   UNL     1      24.992 -12.033  42.108  1.00  0.00    -0.550 OA
ENDBRANCH   2   3
BRANCH   2   6
ATOM      6  C   UNL     1      22.327 -13.032  42.564  1.00  0.00     0.004 C 
ATOM      7  C   UNL     1      21.654 -14.433  42.525  1.00  0.00     0.006 C 
ATOM      8  C   UNL     1      21.116 -12.050  42.471  1.00  0.00    -0.020 C 
ATOM      9  C   UNL     1      20.189 -14.234  42.101  1.00  0.00     0.012 C 
ATOM     10  C   UNL     1      20.142 -12.812  41.524  1.00  0.00    -0.006 C 
ATOM     11  C   UNL     1      21.400 -10.680  41.829  1.00  0.00     0.012 C 
ATOM     12  C   UNL     1      20.512 -11.819  43.902  1.00  0.00     0.012 C 
ATOM     13  C   UNL     1      20.595 -12.904  40.029  1.00  0.00     0.017 C 
ATOM     14  C   UNL     1      18.800 -12.096  41.507  1.00  0.00    -0.064 C 
ATOM     15  C   UNL     1      20.091  -9.912  41.495  1.00  0.00     0.032 C 
ATOM     16  C   UNL     1      18.777 -10.734  41.371  1.00  0.00    -0.064 C 
ATOM     17  C   UNL     1      17.522 -12.883  41.430  1.00  0.00     0.032 C 
ATOM     18  C   UNL     1      17.423  -9.971  41.225  1.00  0.00    -0.008 C 
ATOM     19  C   UNL     1      16.681 -12.320  40.298  1.00  0.00     0.009 C 
ATOM     20  C   UNL     1      16.234 -10.882  40.647  1.00  0.00     0.007 C 
ATOM     21  C   UNL     1      17.652  -8.712  40.337  1.00  0.00     0.014 C 
ATOM     22  C   UNL     1      17.050  -9.495  42.656  1.00  0.00     0.016 C 
ATOM     23  C   UNL     1      15.348 -10.245  39.501  1.00  0.00    -0.006 C 
ATOM     24  C   UNL     1      16.396  -7.916  39.945  1.00  0.00     0.033 C 
ATOM     25  C   UNL     1      15.098  -8.740  39.801  1.00  0.00     0.120 C 
ATOM     26  C   UNL     1      15.971 -10.405  38.083  1.00  0.00     0.014 C 
ATOM     27  C   UNL     1      13.960 -10.946  39.448  1.00  0.00     0.014 C 
BRANCH  25  28
ATOM     28  O   UNL     1      14.319  -8.608  40.967  1.00  0.00    -0.393 OA
ATOM     29  H   UNL     1      14.352  -9.480  41.441  1.00  0.00     0.210 HD
ENDBRANCH  25  28
ENDBRANCH   2   6
ENDBRANCH   1   2
BRANCH   1  30
ATOM     30  C   UNL     1      23.891 -14.467  45.762  1.00  0.00     0.031 C 
BRANCH  30  31
ATOM     31  C   UNL     1      22.795 -13.757  46.532  1.00  0.00    -0.075 C 
ATOM     32  C   UNL     1      21.546 -14.264  46.511  1.00  0.00     0.008 C 
BRANCH  31  33
ATOM     33  C   UNL     1      23.158 -12.573  47.424  1.00  0.00     0.008 C 
ATOM     34  C   UNL     1      24.674 -12.396  47.615  1.00  0.00     0.012 C 
ATOM     35  C   UNL     1      22.518 -11.287  46.893  1.00  0.00     0.012 C 
ENDBRANCH  31  33
ENDBRANCH  30  31
ENDBRANCH   1  30
TORSDOF 7
ENDMDL
MODEL 4
REMARK VINA RESULT:    -5.537      1.993      2.782
REMARK INTER + INTRA:          -9.240
REMARK INTER:                  -7.300
REMARK INTRA:                  -1.939
REMARK UNBOUND:                -1.598
REMARK SMILES C=C(CC[C@@H](C(=O)[O-])[C@H]1CC[C@@]2(C)C3=C(CC[C@]12C)[C@@]1(C)CC[C@H](O)C(C)(C)[C@H]1CC3)C(C)C
REMARK SMILES IDX 4 1 5 2 6 3 7 4 8 5 9 6 10 7 18 8 11 9 12 10 17 11 19 12
REMARK SMILES IDX 13 13 14 14 16 15 15 16 31 17 20 18 30 19 29 20 22 21 21 22
REMARK SMILES IDX 26 23 23 24 24 25 27 26 28 27 25 28 3 30 2 31 1 32 32 33
REMARK SMILES IDX 33 34 34 35
REMARK H PARENT 25 29
REMARK Flexibility Score: inf
ROOT
ATOM      1  C   UNL     1      24.401 -12.990  45.696  1.00  0.00     0.014 C 
ENDROOT
BRANCH   1   2
ATOM      2  C   UNL     1      23.402 -14.040  45.128  1.00  0.00     0.039 C 
BRANCH   2   3
ATOM      3  C   UNL     1      23.596 -15.339  45.864  1.00  0.00     0.045 C 
ATOM      4  O   UNL     1      24.046 -15.338  47.040  1.00  0.00    -0.550 OA
ATOM      5  O   UNL     1      23.246 -16.546  45.269  1.00  0.00    -0.550 OA
ENDBRANCH   2   3
BRANCH   2   6
ATOM      6  C   UNL     1      21.930 -13.517  45.256  1.00  0.00     0.004 C 
ATOM      7  C   UNL     1      21.868 -12.144  45.982  1.00  0.00     0.006 C 
ATOM      8  C   UNL     1      21.104 -13.272  43.954  1.00  0.00    -0.020 C 
ATOM      9  C   UNL     1      20.794 -11.295  45.281  1.00  0.00     0.012 C 
ATOM     10  C   UNL     1      19.990 -12.301  44.445  1.00  0.00    -0.006 C 
ATOM     11  C   UNL     1      20.404 -14.504  43.352  1.00  0.00     0.012 C 
ATOM     12  C   UNL     1      22.026 -12.630  42.856  1.00  0.00     0.012 C 
ATOM     13  C   UNL     1      18.916 -12.935  45.390  1.00  0.00     0.017 C 
ATOM     14  C   UNL     1      19.223 -11.773  43.243  1.00  0.00    -0.064 C 
ATOM     15  C   UNL     1      19.367 -14.109  42.264  1.00  0.00     0.032 C 
ATOM     16  C   UNL     1      18.825 -12.652  42.272  1.00  0.00    -0.064 C 
ATOM     17  C   UNL     1      18.731 -10.353  43.222  1.00  0.00     0.032 C 
ATOM     18  C   UNL     1      17.931 -12.175  41.084  1.00  0.00    -0.008 C 
ATOM     19  C   UNL     1      17.254 -10.363  42.869  1.00  0.00     0.009 C 
ATOM     20  C   UNL     1      17.069 -10.863  41.418  1.00  0.00     0.007 C 
ATOM     21  C   UNL     1      17.014 -13.355  40.643  1.00  0.00     0.014 C 
ATOM     22  C   UNL     1      18.909 -11.859  39.920  1.00  0.00     0.016 C 
ATOM     23  C   UNL     1      15.544 -10.891  40.994  1.00  0.00    -0.006 C 
ATOM     24  C   UNL     1      15.944 -13.031  39.587  1.00  0.00     0.033 C 
ATOM     25  C   UNL     1      15.393 -11.589  39.613  1.00  0.00     0.120 C 
ATOM     26  C   UNL     1      14.628 -11.588  42.042  1.00  0.00     0.014 C 
ATOM     27  C   UNL     1      15.005  -9.439  40.843  1.00  0.00     0.014 C 
BRANCH  25  28
ATOM     28  O   UNL     1      16.025 -10.819  38.616  1.00  0.00    -0.393 OA
ATOM     29  H   UNL     1      16.756 -11.373  38.238  1.00  0.00     0.210 HD
ENDBRANCH  25  28
ENDBRANCH   2   6
ENDBRANCH   1   2
BRANCH   1  30
ATOM     30  C   UNL     1      25.124 -12.159  44.621  1.00  0.00     0.031 C 
BRANCH  30  31
ATOM     31  C   UNL     1      24.848 -10.670  44.694  1.00  0.00    -0.075 C 
ATOM     32  C   UNL     1      24.863 -10.059  45.896  1.00  0.00     0.008 C 
BRANCH  31  33
ATOM     33  C   UNL     1      24.703  -9.874  43.400  1.00  0.00     0.008 C 
ATOM     34  C   UNL     1      25.052 -10.687  42.142  1.00  0.00     0.012 C 
ATOM     35  C   UNL     1      23.296  -9.277  43.295  1.00  0.00     0.012 C 
ENDBRANCH  31  33
ENDBRANCH  30  31
ENDBRANCH   1  30
TORSDOF 7
ENDMDL
MODEL 5
REMARK VINA RESULT:    -5.516      1.814      2.824
REMARK INTER + INTRA:          -9.210
REMARK INTER:                  -7.767
REMARK INTRA:                  -1.442
REMARK UNBOUND:                -1.598
REMARK SMILES C=C(CC[C@@H](C(=O)[O-])[C@H]1CC[C@@]2(C)C3=C(CC[C@]12C)[C@@]1(C)CC[C@H](O)C(C)(C)[C@H]1CC3)C(C)C
REMARK SMILES IDX 4 1 5 2 6 3 7 4 8 5 9 6 10 7 18 8 11 9 12 10 17 11 19 12
REMARK SMILES IDX 13 13 14 14 16 15 15 16 31 17 20 18 30 19 29 20 22 21 21 22
REMARK SMILES IDX 26 23 23 24 24 25 27 26 28 27 25 28 3 30 2 31 1 32 32 33
REMARK SMILES IDX 33 34 34 35
REMARK H PARENT 25 29
REMARK Flexibility Score: inf
ROOT
ATOM      1  C   UNL     1      21.772 -14.551  44.944  1.00  0.00     0.014 C 
ENDROOT
BRANCH   1   2
ATOM      2  C   UNL     1      22.116 -13.403  43.951  1.00  0.00     0.039 C 
BRANCH   2   3
ATOM      3  C   UNL     1      23.545 -13.563  43.503  1.00  0.00     0.045 C 
ATOM      4  O   UNL     1      24.265 -12.547  43.314  1.00  0.00    -0.550 OA
ATOM      5  O   UNL     1      24.092 -14.829  43.331  1.00  0.00    -0.550 OA
ENDBRANCH   2   3
BRANCH   2   6
ATOM      6  C   UNL     1      21.125 -13.417  42.737  1.00  0.00     0.004 C 
ATOM      7  C   UNL     1      20.147 -14.623  42.807  1.00  0.00     0.006 C 
ATOM      8  C   UNL     1      20.174 -12.195  42.531  1.00  0.00    -0.020 C 
ATOM      9  C   UNL     1      18.768 -14.131  42.334  1.00  0.00     0.012 C 
ATOM     10  C   UNL     1      19.052 -12.796  41.632  1.00  0.00    -0.006 C 
ATOM     11  C   UNL     1      20.769 -10.992  41.776  1.00  0.00     0.012 C 
ATOM     12  C   UNL     1      19.637 -11.702  43.921  1.00  0.00     0.012 C 
ATOM     13  C   UNL     1      19.474 -13.125  40.162  1.00  0.00     0.017 C 
ATOM     14  C   UNL     1      17.913 -11.795  41.521  1.00  0.00    -0.064 C 
ATOM     15  C   UNL     1      19.673  -9.977  41.346  1.00  0.00     0.032 C 
ATOM     16  C   UNL     1      18.205 -10.483  41.265  1.00  0.00    -0.064 C 
ATOM     17  C   UNL     1      16.487 -12.270  41.485  1.00  0.00     0.032 C 
ATOM     18  C   UNL     1      17.065  -9.445  41.022  1.00  0.00    -0.008 C 
ATOM     19  C   UNL     1      15.801 -11.634  40.289  1.00  0.00     0.009 C 
ATOM     20  C   UNL     1      15.699 -10.106  40.499  1.00  0.00     0.007 C 
ATOM     21  C   UNL     1      17.580  -8.358  40.031  1.00  0.00     0.014 C 
ATOM     22  C   UNL     1      16.809  -8.768  42.395  1.00  0.00     0.016 C 
ATOM     23  C   UNL     1      14.986  -9.389  39.281  1.00  0.00    -0.006 C 
ATOM     24  C   UNL     1      16.543  -7.334  39.541  1.00  0.00     0.033 C 
ATOM     25  C   UNL     1      15.090  -7.846  39.441  1.00  0.00     0.120 C 
ATOM     26  C   UNL     1      15.557  -9.817  37.897  1.00  0.00     0.014 C 
ATOM     27  C   UNL     1      13.474  -9.754  39.258  1.00  0.00     0.014 C 
BRANCH  25  28
ATOM     28  O   UNL     1      14.360  -7.433  40.573  1.00  0.00    -0.393 OA
ATOM     29  H   UNL     1      13.677  -8.131  40.750  1.00  0.00     0.210 HD
ENDBRANCH  25  28
ENDBRANCH   2   6
ENDBRANCH   1   2
BRANCH   1  30
ATOM     30  C   UNL     1      21.777 -14.130  46.424  1.00  0.00     0.031 C 
BRANCH  30  31
ATOM     31  C   UNL     1      23.132 -13.685  46.941  1.00  0.00    -0.075 C 
ATOM     32  C   UNL     1      24.156 -14.561  46.932  1.00  0.00     0.008 C 
BRANCH  31  33
ATOM     33  C   UNL     1      23.340 -12.222  47.322  1.00  0.00     0.008 C 
ATOM     34  C   UNL     1      24.647 -11.628  46.769  1.00  0.00     0.012 C 
ATOM     35  C   UNL     1      22.132 -11.382  46.897  1.00  0.00     0.012 C 
ENDBRANCH  31  33
ENDBRANCH  30  31
ENDBRANCH   1  30
TORSDOF 7
ENDMDL
MODEL 6
REMARK VINA RESULT:    -5.490      1.741      3.104
REMARK INTER + INTRA:          -9.175
REMARK INTER:                  -8.166
REMARK INTRA:                  -1.009
REMARK UNBOUND:                -1.598
REMARK SMILES C=C(CC[C@@H](C(=O)[O-])[C@H]1CC[C@@]2(C)C3=C(CC[C@]12C)[C@@]1(C)CC[C@H](O)C(C)(C)[C@H]1CC3)C(C)C
REMARK SMILES IDX 4 1 5 2 6 3 7 4 8 5 9 6 10 7 18 8 11 9 12 10 17 11 19 12
REMARK SMILES IDX 13 13 14 14 16 15 15 16 31 17 20 18 30 19 29 20 22 21 21 22
REMARK SMILES IDX 26 23 23 24 24 25 27 26 28 27 25 28 3 30 2 31 1 32 32 33
REMARK SMILES IDX 33 34 34 35
REMARK H PARENT 25 29
REMARK Flexibility Score: inf
ROOT
ATOM      1  C   UNL     1      22.479 -15.384  45.731  1.00  0.00     0.014 C 
ENDROOT
BRANCH   1   2
ATOM      2  C   UNL     1      21.385 -14.965  44.706  1.00  0.00     0.039 C 
BRANCH   2   3
ATOM      3  C   UNL     1      20.034 -15.120  45.350  1.00  0.00     0.045 C 
ATOM      4  O   UNL     1      19.194 -15.928  44.871  1.00  0.00    -0.550 OA
ATOM      5  O   UNL     1      19.714 -14.406  46.499  1.00  0.00    -0.550 OA
ENDBRANCH   2   3
BRANCH   2   6
ATOM      6  C   UNL     1      21.628 -13.495  44.220  1.00  0.00     0.004 C 
ATOM      7  C   UNL     1      22.832 -13.404  43.241  1.00  0.00     0.006 C 
ATOM      8  C   UNL     1      20.485 -12.760  43.452  1.00  0.00    -0.020 C 
ATOM      9  C   UNL     1      22.465 -12.389  42.144  1.00  0.00     0.012 C 
ATOM     10  C   UNL     1      21.257 -11.628  42.710  1.00  0.00    -0.006 C 
ATOM     11  C   UNL     1      19.408 -12.084  44.320  1.00  0.00     0.012 C 
ATOM     12  C   UNL     1      19.782 -13.759  42.466  1.00  0.00     0.012 C 
ATOM     13  C   UNL     1      21.815 -10.487  43.623  1.00  0.00     0.017 C 
ATOM     14  C   UNL     1      20.320 -10.949  41.723  1.00  0.00    -0.064 C 
ATOM     15  C   UNL     1      18.509 -11.126  43.490  1.00  0.00     0.032 C 
ATOM     16  C   UNL     1      19.061 -10.603  42.134  1.00  0.00    -0.064 C 
ATOM     17  C   UNL     1      20.834 -10.477  40.392  1.00  0.00     0.032 C 
ATOM     18  C   UNL     1      18.110  -9.795  41.196  1.00  0.00    -0.008 C 
ATOM     19  C   UNL     1      20.425  -9.027  40.207  1.00  0.00     0.009 C 
ATOM     20  C   UNL     1      18.887  -8.931  40.089  1.00  0.00     0.007 C 
ATOM     21  C   UNL     1      17.190  -8.894  42.072  1.00  0.00     0.014 C 
ATOM     22  C   UNL     1      17.221 -10.852  40.485  1.00  0.00     0.016 C 
ATOM     23  C   UNL     1      18.403  -7.437  39.890  1.00  0.00    -0.006 C 
ATOM     24  C   UNL     1      16.290  -7.900  41.319  1.00  0.00     0.033 C 
ATOM     25  C   UNL     1      16.852  -7.367  39.984  1.00  0.00     0.120 C 
ATOM     26  C   UNL     1      19.039  -6.445  40.908  1.00  0.00     0.014 C 
ATOM     27  C   UNL     1      18.808  -6.928  38.477  1.00  0.00     0.014 C 
BRANCH  25  28
ATOM     28  O   UNL     1      16.277  -8.073  38.909  1.00  0.00    -0.393 OA
ATOM     29  H   UNL     1      15.604  -8.693  39.293  1.00  0.00     0.210 HD
ENDBRANCH  25  28
ENDBRANCH   2   6
ENDBRANCH   1   2
BRANCH   1  30
ATOM     30  C   UNL     1      22.703 -14.369  46.867  1.00  0.00     0.031 C 
BRANCH  30  31
ATOM     31  C   UNL     1      23.996 -13.585  46.756  1.00  0.00    -0.075 C 
ATOM     32  C   UNL     1      25.119 -14.224  46.371  1.00  0.00     0.008 C 
BRANCH  31  33
ATOM     33  C   UNL     1      23.967 -12.070  46.941  1.00  0.00     0.008 C 
ATOM     34  C   UNL     1      24.717 -11.306  45.837  1.00  0.00     0.012 C 
ATOM     35  C   UNL     1      22.523 -11.575  47.067  1.00  0.00     0.012 C 
ENDBRANCH  31  33
ENDBRANCH  30  31
ENDBRANCH   1  30
TORSDOF 7
ENDMDL
MODEL 7
REMARK VINA RESULT:    -5.468      2.029      3.938
REMARK INTER + INTRA:          -9.144
REMARK INTER:                  -7.847
REMARK INTRA:                  -1.297
REMARK UNBOUND:                -1.598
REMARK SMILES C=C(CC[C@@H](C(=O)[O-])[C@H]1CC[C@@]2(C)C3=C(CC[C@]12C)[C@@]1(C)CC[C@H](O)C(C)(C)[C@H]1CC3)C(C)C
REMARK SMILES IDX 4 1 5 2 6 3 7 4 8 5 9 6 10 7 18 8 11 9 12 10 17 11 19 12
REMARK SMILES IDX 13 13 14 14 16 15 15 16 31 17 20 18 30 19 29 20 22 21 21 22
REMARK SMILES IDX 26 23 23 24 24 25 27 26 28 27 25 28 3 30 2 31 1 32 32 33
REMARK SMILES IDX 33 34 34 35
REMARK H PARENT 25 29
REMARK Flexibility Score: inf
ROOT
ATOM      1  C   UNL     1      24.776 -14.200  45.264  1.00  0.00     0.014 C 
ENDROOT
BRANCH   1   2
ATOM      2  C   UNL     1      23.262 -13.849  45.163  1.00  0.00     0.039 C 
BRANCH   2   3
ATOM      3  C   UNL     1      22.702 -13.724  46.555  1.00  0.00     0.045 C 
ATOM      4  O   UNL     1      21.728 -14.439  46.910  1.00  0.00    -0.550 OA
ATOM      5  O   UNL     1      23.276 -12.849  47.470  1.00  0.00    -0.550 OA
ENDBRANCH   2   3
BRANCH   2   6
ATOM      6  C   UNL     1      23.062 -12.532  44.338  1.00  0.00     0.004 C 
ATOM      7  C   UNL     1      23.947 -12.512  43.061  1.00  0.00     0.006 C 
ATOM      8  C   UNL     1      21.637 -12.197  43.793  1.00  0.00    -0.020 C 
ATOM      9  C   UNL     1      23.119 -11.877  41.930  1.00  0.00     0.012 C 
ATOM     10  C   UNL     1      21.949 -11.189  42.647  1.00  0.00    -0.006 C 
ATOM     11  C   UNL     1      20.683 -11.493  44.774  1.00  0.00     0.012 C 
ATOM     12  C   UNL     1      20.948 -13.509  43.274  1.00  0.00     0.012 C 
ATOM     13  C   UNL     1      22.453  -9.782  43.111  1.00  0.00     0.017 C 
ATOM     14  C   UNL     1      20.680 -10.932  41.850  1.00  0.00    -0.064 C 
ATOM     15  C   UNL     1      19.427 -10.924  44.056  1.00  0.00     0.032 C 
ATOM     16  C   UNL     1      19.513 -10.687  42.522  1.00  0.00    -0.064 C 
ATOM     17  C   UNL     1      20.746 -10.743  40.360  1.00  0.00     0.032 C 
ATOM     18  C   UNL     1      18.214 -10.297  41.748  1.00  0.00    -0.008 C 
ATOM     19  C   UNL     1      20.004  -9.466  40.006  1.00  0.00     0.009 C 
ATOM     20  C   UNL     1      18.499  -9.636  40.313  1.00  0.00     0.007 C 
ATOM     21  C   UNL     1      17.361  -9.352  42.646  1.00  0.00     0.014 C 
ATOM     22  C   UNL     1      17.427 -11.621  41.551  1.00  0.00     0.016 C 
ATOM     23  C   UNL     1      17.674  -8.332  39.958  1.00  0.00    -0.006 C 
ATOM     24  C   UNL     1      16.116  -8.730  41.992  1.00  0.00     0.033 C 
ATOM     25  C   UNL     1      16.213  -8.476  40.472  1.00  0.00     0.120 C 
ATOM     26  C   UNL     1      18.309  -7.030  40.528  1.00  0.00     0.014 C 
ATOM     27  C   UNL     1      17.609  -8.145  38.416  1.00  0.00     0.014 C 
BRANCH  25  28
ATOM     28  O   UNL     1      15.560  -9.510  39.773  1.00  0.00    -0.393 OA
ATOM     29  H   UNL     1      16.261 -10.032  39.303  1.00  0.00     0.210 HD
ENDBRANCH  25  28
ENDBRANCH   2   6
ENDBRANCH   1   2
BRANCH   1  30
ATOM     30  C   UNL     1      25.123 -15.634  44.826  1.00  0.00     0.031 C 
BRANCH  30  31
ATOM     31  C   UNL     1      24.397 -16.716  45.603  1.00  0.00    -0.075 C 
ATOM     32  C   UNL     1      24.646 -16.853  46.921  1.00  0.00     0.008 C 
BRANCH  31  33
ATOM     33  C   UNL     1      23.303 -17.523  44.910  1.00  0.00     0.008 C 
ATOM     34  C   UNL     1      23.032 -17.070  43.466  1.00  0.00     0.012 C 
ATOM     35  C   UNL     1      23.627 -19.019  44.965  1.00  0.00     0.012 C 
ENDBRANCH  31  33
ENDBRANCH  30  31
ENDBRANCH   1  30
TORSDOF 7
ENDMDL
MODEL 8
REMARK VINA RESULT:    -5.466      2.216      4.209
REMARK INTER + INTRA:          -9.141
REMARK INTER:                  -7.308
REMARK INTRA:                  -1.833
REMARK UNBOUND:                -1.598
REMARK SMILES C=C(CC[C@@H](C(=O)[O-])[C@H]1CC[C@@]2(C)C3=C(CC[C@]12C)[C@@]1(C)CC[C@H](O)C(C)(C)[C@H]1CC3)C(C)C
REMARK SMILES IDX 4 1 5 2 6 3 7 4 8 5 9 6 10 7 18 8 11 9 12 10 17 11 19 12
REMARK SMILES IDX 13 13 14 14 16 15 15 16 31 17 20 18 30 19 29 20 22 21 21 22
REMARK SMILES IDX 26 23 23 24 24 25 27 26 28 27 25 28 3 30 2 31 1 32 32 33
REMARK SMILES IDX 33 34 34 35
REMARK H PARENT 25 29
REMARK Flexibility Score: inf
ROOT
ATOM      1  C   UNL     1      23.416 -14.324  45.350  1.00  0.00     0.014 C 
ENDROOT
BRANCH   1   2
ATOM      2  C   UNL     1      22.353 -13.232  45.669  1.00  0.00     0.039 C 
BRANCH   2   3
ATOM      3  C   UNL     1      22.788 -12.478  46.896  1.00  0.00     0.045 C 
ATOM      4  O   UNL     1      23.733 -12.915  47.605  1.00  0.00    -0.550 OA
ATOM      5  O   UNL     1      22.178 -11.277  47.239  1.00  0.00    -0.550 OA
ENDBRANCH   2   3
BRANCH   2   6
ATOM      6  C   UNL     1      22.166 -12.278  44.439  1.00  0.00     0.004 C 
ATOM      7  C   UNL     1      22.941 -12.788  43.192  1.00  0.00     0.006 C 
ATOM      8  C   UNL     1      20.725 -12.034  43.891  1.00  0.00    -0.020 C 
ATOM      9  C   UNL     1      22.062 -12.522  41.958  1.00  0.00     0.012 C 
ATOM     10  C   UNL     1      21.001 -11.526  42.445  1.00  0.00    -0.006 C 
ATOM     11  C   UNL     1      19.901 -10.948  44.607  1.00  0.00     0.012 C 
ATOM     12  C   UNL     1      19.914 -13.378  43.915  1.00  0.00     0.012 C 
ATOM     13  C   UNL     1      21.629 -10.096  42.345  1.00  0.00     0.017 C 
ATOM     14  C   UNL     1      19.688 -11.456  41.681  1.00  0.00    -0.064 C 
ATOM     15  C   UNL     1      18.627 -10.561  43.805  1.00  0.00     0.032 C 
ATOM     16  C   UNL     1      18.599 -10.888  42.285  1.00  0.00    -0.064 C 
ATOM     17  C   UNL     1      19.641 -11.811  40.221  1.00  0.00     0.032 C 
ATOM     18  C   UNL     1      17.266 -10.685  41.497  1.00  0.00    -0.008 C 
ATOM     19  C   UNL     1      18.953 -10.681  39.476  1.00  0.00     0.009 C 
ATOM     20  C   UNL     1      17.471 -10.599  39.907  1.00  0.00     0.007 C 
ATOM     21  C   UNL     1      16.552  -9.413  42.043  1.00  0.00     0.014 C 
ATOM     22  C   UNL     1      16.385 -11.918  41.831  1.00  0.00     0.016 C 
ATOM     23  C   UNL     1      16.701  -9.437  39.156  1.00  0.00    -0.006 C 
ATOM     24  C   UNL     1      15.297  -8.954  41.281  1.00  0.00     0.033 C 
ATOM     25  C   UNL     1      15.283  -9.261  39.768  1.00  0.00     0.120 C 
ATOM     26  C   UNL     1      17.461  -8.079  39.185  1.00  0.00     0.014 C 
ATOM     27  C   UNL     1      16.519  -9.801  37.655  1.00  0.00     0.014 C 
BRANCH  25  28
ATOM     28  O   UNL     1      14.511 -10.414  39.524  1.00  0.00    -0.393 OA
ATOM     29  H   UNL     1      14.514 -10.951  40.358  1.00  0.00     0.210 HD
ENDBRANCH  25  28
ENDBRANCH   2   6
ENDBRANCH   1   2
BRANCH   1  30
ATOM     30  C   UNL     1      22.903 -15.768  45.493  1.00  0.00     0.031 C 
BRANCH  30  31
ATOM     31  C   UNL     1      23.248 -16.671  44.325  1.00  0.00    -0.075 C 
ATOM     32  C   UNL     1      24.485 -17.200  44.250  1.00  0.00     0.008 C 
BRANCH  31  33
ATOM     33  C   UNL     1      22.150 -17.072  43.344  1.00  0.00     0.008 C 
ATOM     34  C   UNL     1      20.735 -16.975  43.940  1.00  0.00     0.012 C 
ATOM     35  C   UNL     1      22.259 -16.253  42.055  1.00  0.00     0.012 C 
ENDBRANCH  31  33
ENDBRANCH  30  31
ENDBRANCH   1  30
TORSDOF 7
ENDMDL
MODEL 9
REMARK VINA RESULT:    -5.441      2.611      7.984
REMARK INTER + INTRA:          -9.107
REMARK INTER:                  -7.061
REMARK INTRA:                  -2.045
REMARK UNBOUND:                -1.598
REMARK SMILES C=C(CC[C@@H](C(=O)[O-])[C@H]1CC[C@@]2(C)C3=C(CC[C@]12C)[C@@]1(C)CC[C@H](O)C(C)(C)[C@H]1CC3)C(C)C
REMARK SMILES IDX 4 1 5 2 6 3 7 4 8 5 9 6 10 7 18 8 11 9 12 10 17 11 19 12
REMARK SMILES IDX 13 13 14 14 16 15 15 16 31 17 20 18 30 19 29 20 22 21 21 22
REMARK SMILES IDX 26 23 23 24 24 25 27 26 28 27 25 28 3 30 2 31 1 32 32 33
REMARK SMILES IDX 33 34 34 35
REMARK H PARENT 25 29
REMARK Flexibility Score: inf
ROOT
ATOM      1  C   UNL     1      16.614 -11.387  38.661  1.00  0.00     0.014 C 
ENDROOT
BRANCH   1   2
ATOM      2  C   UNL     1      17.250 -12.634  39.342  1.00  0.00     0.039 C 
BRANCH   2   3
ATOM      3  C   UNL     1      17.126 -13.809  38.408  1.00  0.00     0.045 C 
ATOM      4  O   UNL     1      18.158 -14.415  38.015  1.00  0.00    -0.550 OA
ATOM      5  O   UNL     1      15.875 -14.259  38.003  1.00  0.00    -0.550 OA
ENDBRANCH   2   3
BRANCH   2   6
ATOM      6  C   UNL     1      18.744 -12.348  39.716  1.00  0.00     0.004 C 
ATOM      7  C   UNL     1      19.112 -10.852  39.514  1.00  0.00     0.006 C 
ATOM      8  C   UNL     1      19.222 -12.641  41.174  1.00  0.00    -0.020 C 
ATOM      9  C   UNL     1      20.038 -10.439  40.672  1.00  0.00     0.012 C 
ATOM     10  C   UNL     1      20.506 -11.766  41.285  1.00  0.00    -0.006 C 
ATOM     11  C   UNL     1      19.631 -14.094  41.475  1.00  0.00     0.012 C 
ATOM     12  C   UNL     1      18.107 -12.211  42.193  1.00  0.00     0.012 C 
ATOM     13  C   UNL     1      21.729 -12.260  40.442  1.00  0.00     0.017 C 
ATOM     14  C   UNL     1      20.978 -11.754  42.731  1.00  0.00    -0.064 C 
ATOM     15  C   UNL     1      20.381 -14.217  42.832  1.00  0.00     0.032 C 
ATOM     16  C   UNL     1      21.032 -12.934  43.421  1.00  0.00    -0.064 C 
ATOM     17  C   UNL     1      21.570 -10.506  43.323  1.00  0.00     0.032 C 
ATOM     18  C   UNL     1      21.625 -12.987  44.864  1.00  0.00    -0.008 C 
ATOM     19  C   UNL     1      22.898 -10.865  43.966  1.00  0.00     0.009 C 
ATOM     20  C   UNL     1      22.656 -11.796  45.176  1.00  0.00     0.007 C 
ATOM     21  C   UNL     1      22.289 -14.380  45.081  1.00  0.00     0.014 C 
ATOM     22  C   UNL     1      20.410 -12.873  45.824  1.00  0.00     0.016 C 
ATOM     23  C   UNL     1      24.010 -12.201  45.889  1.00  0.00    -0.006 C 
ATOM     24  C   UNL     1      23.073 -14.565  46.392  1.00  0.00     0.033 C 
ATOM     25  C   UNL     1      23.736 -13.293  46.962  1.00  0.00     0.120 C 
ATOM     26  C   UNL     1      25.102 -12.697  44.897  1.00  0.00     0.014 C 
ATOM     27  C   UNL     1      24.616 -10.970  46.622  1.00  0.00     0.014 C 
BRANCH  25  28
ATOM     28  O   UNL     1      22.937 -12.760  47.993  1.00  0.00    -0.393 OA
ATOM     29  H   UNL     1      23.252 -13.162  48.844  1.00  0.00     0.210 HD
ENDBRANCH  25  28
ENDBRANCH   2   6
ENDBRANCH   1   2
BRANCH   1  30
ATOM     30  C   UNL     1      15.256 -10.968  39.252  1.00  0.00     0.031 C 
BRANCH  30  31
ATOM     31  C   UNL     1      15.347 -10.292  40.607  1.00  0.00    -0.075 C 
ATOM     32  C   UNL     1      14.807 -10.902  41.681  1.00  0.00     0.008 C 
BRANCH  31  33
ATOM     33  C   UNL     1      16.170  -9.014  40.747  1.00  0.00     0.008 C 
ATOM     34  C   UNL     1      15.377  -7.739  40.412  1.00  0.00     0.012 C 
ATOM     35  C   UNL     1      16.785  -8.926  42.147  1.00  0.00     0.012 C 
ENDBRANCH  31  33
ENDBRANCH  30  31
ENDBRANCH   1  30
TORSDOF 7
ENDMDL
