MODEL 1
REMARK VINA RESULT:    -4.496      0.000      0.000
REMARK INTER + INTRA:          -6.349
REMARK INTER:                  -6.072
REMARK INTRA:                  -0.277
REMARK UNBOUND:                -0.277
REMARK SMILES C=C1CCC=C(C)CC[C@@H]2[C@@H]1CC2(C)C
REMARK SMILES IDX 11 1 12 2 13 3 10 4 14 5 15 6 9 7 8 8 6 9 7 10 5 11 2 13
REMARK SMILES IDX 1 14 3 15 4 16
REMARK H PARENT
REMARK Flexibility Score: 70.00
ROOT
ATOM      1  C   UNL     1       1.839  14.366   3.494  1.00  0.00     0.018 C 
ATOM      2  C   UNL     1       2.501  14.753   2.165  1.00  0.00     0.015 C 
ATOM      3  C   UNL     1       1.197  14.410   1.419  1.00  0.00    -0.031 C 
ATOM      4  C   UNL     1       0.591  13.879   2.746  1.00  0.00     0.002 C 
ATOM      5  C   UNL     1       0.529  15.667   0.819  1.00  0.00     0.011 C 
ATOM      6  C   UNL     1       1.371  13.318   0.350  1.00  0.00     0.011 C 
ENDROOT
BRANCH   4   7
ATOM      7  C   UNL     1      -0.729  14.505   3.238  1.00  0.00     0.009 C 
BRANCH   7   8
ATOM      8  C   UNL     1      -1.420  13.632   4.305  1.00  0.00     0.030 C 
BRANCH   8   9
ATOM      9  C   UNL     1      -1.139  14.124   5.715  1.00  0.00    -0.077 C 
ATOM     10  C   UNL     1      -2.032  15.204   6.274  1.00  0.00     0.039 C 
ATOM     11  C   UNL     1      -0.127  13.681   6.499  1.00  0.00    -0.028 CG0
ATOM     12  G   UNL     1       0.912  12.642   6.143  1.00  0.00     0.000 G0
ENDBRANCH   8   9
ENDBRANCH   7   8
ENDBRANCH   4   7
BRANCH   1  13
ATOM     13  C   UNL     1       2.530  13.294   4.323  1.00  0.00    -0.074 C 
ATOM     14  C   UNL     1       3.274  12.321   3.766  1.00  0.00     0.008 C 
BRANCH  13  15
ATOM     15  C   UNL     1       2.273  13.266   5.813  1.00  0.00     0.035 C 
BRANCH  15  16
ATOM     16  C   UNL     1       0.909  12.637   6.136  1.00  0.00     0.032 CG0
ATOM     17  G   UNL     1      -0.118  13.687   6.494  1.00  0.00     0.000 G0
ENDBRANCH  15  16
ENDBRANCH  13  15
ENDBRANCH   1  13
TORSDOF 0
ENDMDL
MODEL 2
REMARK VINA RESULT:    -4.333      2.495      4.451
REMARK INTER + INTRA:          -6.129
REMARK INTER:                  -6.602
REMARK INTRA:                   0.473
REMARK UNBOUND:                -0.277
REMARK SMILES C=C1CCC=C(C)CC[C@@H]2[C@@H]1CC2(C)C
REMARK SMILES IDX 11 1 12 2 13 3 10 4 14 5 15 6 9 7 8 8 6 9 7 10 5 11 2 13
REMARK SMILES IDX 1 14 3 15 4 16
REMARK H PARENT
REMARK Flexibility Score: 70.00
ROOT
ATOM      1  C   UNL     1       1.648  13.346   3.334  1.00  0.00     0.018 C 
ATOM      2  C   UNL     1       1.841  12.253   4.393  1.00  0.00     0.015 C 
ATOM      3  C   UNL     1       0.751  12.909   5.264  1.00  0.00    -0.031 C 
ATOM      4  C   UNL     1       0.675  14.089   4.259  1.00  0.00     0.002 C 
ATOM      5  C   UNL     1      -0.509  12.024   5.373  1.00  0.00     0.011 C 
ATOM      6  C   UNL     1       1.251  13.327   6.658  1.00  0.00     0.011 C 
ENDROOT
BRANCH   4   7
ATOM      7  C   UNL     1      -0.691  14.407   3.620  1.00  0.00     0.009 C 
BRANCH   7   8
ATOM      8  C   UNL     1      -0.738  14.016   2.130  1.00  0.00     0.030 C 
BRANCH   8   9
ATOM      9  C   UNL     1      -0.572  15.220   1.217  1.00  0.00    -0.077 C 
ATOM     10  C   UNL     1      -1.792  16.060   0.933  1.00  0.00     0.039 C 
ATOM     11  C   UNL     1       0.589  15.579   0.619  1.00  0.00    -0.028 CG0
ATOM     12  G   UNL     1       1.923  14.873   0.723  1.00  0.00     0.000 G0
ENDBRANCH   8   9
ENDBRANCH   7   8
ENDBRANCH   4   7
BRANCH   1  13
ATOM     13  C   UNL     1       2.878  14.152   2.943  1.00  0.00    -0.074 C 
ATOM     14  C   UNL     1       4.086  13.938   3.496  1.00  0.00     0.008 C 
BRANCH  13  15
ATOM     15  C   UNL     1       2.702  15.304   1.980  1.00  0.00     0.035 C 
BRANCH  15  16
ATOM     16  C   UNL     1       1.927  14.873   0.724  1.00  0.00     0.032 CG0
ATOM     17  G   UNL     1       0.591  15.574   0.626  1.00  0.00     0.000 G0
ENDBRANCH  15  16
ENDBRANCH  13  15
ENDBRANCH   1  13
TORSDOF 0
ENDMDL
MODEL 3
REMARK VINA RESULT:    -4.205      1.439      3.409
REMARK INTER + INTRA:          -5.956
REMARK INTER:                  -5.657
REMARK INTRA:                  -0.299
REMARK UNBOUND:                -0.277
REMARK SMILES C=C1CCC=C(C)CC[C@@H]2[C@@H]1CC2(C)C
REMARK SMILES IDX 11 1 12 2 13 3 10 4 14 5 15 6 9 7 8 8 6 9 7 10 5 11 2 13
REMARK SMILES IDX 1 14 3 15 4 16
REMARK H PARENT
REMARK Flexibility Score: 70.00
ROOT
ATOM      1  C   UNL     1       1.244  13.385   2.895  1.00  0.00     0.018 C 
ATOM      2  C   UNL     1       2.565  13.130   2.159  1.00  0.00     0.015 C 
ATOM      3  C   UNL     1       3.335  13.323   3.481  1.00  0.00    -0.031 C 
ATOM      4  C   UNL     1       2.010  13.728   4.179  1.00  0.00     0.002 C 
ATOM      5  C   UNL     1       3.987  12.009   3.964  1.00  0.00     0.011 C 
ATOM      6  C   UNL     1       4.368  14.461   3.428  1.00  0.00     0.011 C 
ENDROOT
BRANCH   4   7
ATOM      7  C   UNL     1       1.569  12.921   5.417  1.00  0.00     0.009 C 
BRANCH   7   8
ATOM      8  C   UNL     1       0.507  13.669   6.247  1.00  0.00     0.030 C 
BRANCH   8   9
ATOM      9  C   UNL     1      -0.901  13.186   5.942  1.00  0.00    -0.077 C 
ATOM     10  C   UNL     1      -1.416  11.991   6.706  1.00  0.00     0.039 C 
ATOM     11  C   UNL     1      -1.720  13.735   5.013  1.00  0.00    -0.028 CG0
ATOM     12  G   UNL     1      -1.411  14.904   4.104  1.00  0.00     0.000 G0
ENDBRANCH   8   9
ENDBRANCH   7   8
ENDBRANCH   4   7
BRANCH   1  13
ATOM     13  C   UNL     1       0.367  14.511   2.369  1.00  0.00    -0.074 C 
ATOM     14  C   UNL     1       0.877  15.589   1.745  1.00  0.00     0.008 C 
BRANCH  13  15
ATOM     15  C   UNL     1      -1.115  14.461   2.662  1.00  0.00     0.035 C 
BRANCH  15  16
ATOM     16  C   UNL     1      -1.420  14.912   4.100  1.00  0.00     0.032 CG0
ATOM     17  G   UNL     1      -1.720  13.735   5.001  1.00  0.00     0.000 G0
ENDBRANCH  15  16
ENDBRANCH  13  15
ENDBRANCH   1  13
TORSDOF 0
ENDMDL
MODEL 4
REMARK VINA RESULT:    -4.132      2.828      5.522
REMARK INTER + INTRA:          -5.858
REMARK INTER:                  -5.922
REMARK INTRA:                   0.064
REMARK UNBOUND:                -0.277
REMARK SMILES C=C1CCC=C(C)CC[C@@H]2[C@@H]1CC2(C)C
REMARK SMILES IDX 11 1 12 2 13 3 10 4 14 5 15 6 9 7 8 8 6 9 7 10 5 11 2 13
REMARK SMILES IDX 1 14 3 15 4 16
REMARK H PARENT
REMARK Flexibility Score: 70.00
ROOT
ATOM      1  C   UNL     1       1.200  14.550   3.125  1.00  0.00     0.018 C 
ATOM      2  C   UNL     1       1.698  13.473   4.098  1.00  0.00     0.015 C 
ATOM      3  C   UNL     1       2.997  13.338   3.279  1.00  0.00    -0.031 C 
ATOM      4  C   UNL     1       2.417  14.314   2.221  1.00  0.00     0.002 C 
ATOM      5  C   UNL     1       4.228  13.837   4.066  1.00  0.00     0.011 C 
ATOM      6  C   UNL     1       3.233  11.919   2.734  1.00  0.00     0.011 C 
ENDROOT
BRANCH   4   7
ATOM      7  C   UNL     1       3.223  15.588   1.895  1.00  0.00     0.009 C 
BRANCH   7   8
ATOM      8  C   UNL     1       2.451  16.535   0.955  1.00  0.00     0.030 C 
BRANCH   8   9
ATOM      9  C   UNL     1       2.186  15.903  -0.401  1.00  0.00    -0.077 C 
ATOM     10  C   UNL     1       3.284  15.965  -1.433  1.00  0.00     0.039 C 
ATOM     11  C   UNL     1       1.022  15.310  -0.760  1.00  0.00    -0.028 CG0
ATOM     12  G   UNL     1      -0.224  15.164   0.084  1.00  0.00     0.000 G0
ENDBRANCH   8   9
ENDBRANCH   7   8
ENDBRANCH   4   7
BRANCH   1  13
ATOM     13  C   UNL     1      -0.140  14.302   2.448  1.00  0.00    -0.074 C 
ATOM     14  C   UNL     1      -1.302  14.317   3.125  1.00  0.00     0.008 C 
BRANCH  13  15
ATOM     15  C   UNL     1      -0.142  13.917   0.986  1.00  0.00     0.035 C 
BRANCH  15  16
ATOM     16  C   UNL     1      -0.225  15.155   0.079  1.00  0.00     0.032 CG0
ATOM     17  G   UNL     1       1.023  15.316  -0.759  1.00  0.00     0.000 G0
ENDBRANCH  15  16
ENDBRANCH  13  15
ENDBRANCH   1  13
TORSDOF 0
ENDMDL
MODEL 5
REMARK VINA RESULT:    -3.963      1.622      3.067
REMARK INTER + INTRA:          -5.630
REMARK INTER:                  -5.308
REMARK INTRA:                  -0.321
REMARK UNBOUND:                -0.277
REMARK SMILES C=C1CCC=C(C)CC[C@@H]2[C@@H]1CC2(C)C
REMARK SMILES IDX 11 1 12 2 13 3 10 4 14 5 15 6 9 7 8 8 6 9 7 10 5 11 2 13
REMARK SMILES IDX 1 14 3 15 4 16
REMARK H PARENT
REMARK Flexibility Score: 70.00
ROOT
ATOM      1  C   UNL     1       0.373  14.824   2.095  1.00  0.00     0.018 C 
ATOM      2  C   UNL     1      -0.603  15.529   1.144  1.00  0.00     0.015 C 
ATOM      3  C   UNL     1      -1.783  14.811   1.828  1.00  0.00    -0.031 C 
ATOM      4  C   UNL     1      -0.776  13.992   2.679  1.00  0.00     0.002 C 
ATOM      5  C   UNL     1      -2.687  15.795   2.600  1.00  0.00     0.011 C 
ATOM      6  C   UNL     1      -2.613  13.943   0.865  1.00  0.00     0.011 C 
ENDROOT
BRANCH   4   7
ATOM      7  C   UNL     1      -0.899  14.067   4.214  1.00  0.00     0.009 C 
BRANCH   7   8
ATOM      8  C   UNL     1      -0.252  12.851   4.906  1.00  0.00     0.030 C 
BRANCH   8   9
ATOM      9  C   UNL     1       1.146  13.161   5.417  1.00  0.00    -0.077 C 
ATOM     10  C   UNL     1       1.277  13.717   6.812  1.00  0.00     0.039 C 
ATOM     11  C   UNL     1       2.282  12.998   4.698  1.00  0.00    -0.028 CG0
ATOM     12  G   UNL     1       2.396  12.497   3.276  1.00  0.00     0.000 G0
ENDBRANCH   8   9
ENDBRANCH   7   8
ENDBRANCH   4   7
BRANCH   1  13
ATOM     13  C   UNL     1       1.483  14.001   1.459  1.00  0.00    -0.074 C 
ATOM     14  C   UNL     1       1.375  13.479   0.224  1.00  0.00     0.008 C 
BRANCH  13  15
ATOM     15  C   UNL     1       2.697  13.670   2.296  1.00  0.00     0.035 C 
BRANCH  15  16
ATOM     16  C   UNL     1       2.410  12.519   3.274  1.00  0.00     0.032 CG0
ATOM     17  G   UNL     1       2.293  13.013   4.698  1.00  0.00     0.000 G0
ENDBRANCH  15  16
ENDBRANCH  13  15
ENDBRANCH   1  13
TORSDOF 0
ENDMDL
MODEL 6
REMARK VINA RESULT:    -3.946      1.262      1.898
REMARK INTER + INTRA:          -5.606
REMARK INTER:                  -5.772
REMARK INTRA:                   0.165
REMARK UNBOUND:                -0.277
REMARK SMILES C=C1CCC=C(C)CC[C@@H]2[C@@H]1CC2(C)C
REMARK SMILES IDX 11 1 12 2 13 3 10 4 14 5 15 6 9 7 8 8 6 9 7 10 5 11 2 13
REMARK SMILES IDX 1 14 3 15 4 16
REMARK H PARENT
REMARK Flexibility Score: 70.00
ROOT
ATOM      1  C   UNL     1       1.827  14.936   2.474  1.00  0.00     0.018 C 
ATOM      2  C   UNL     1       1.857  15.176   0.959  1.00  0.00     0.015 C 
ATOM      3  C   UNL     1       0.729  14.142   0.776  1.00  0.00    -0.031 C 
ATOM      4  C   UNL     1       0.814  13.799   2.287  1.00  0.00     0.002 C 
ATOM      5  C   UNL     1      -0.584  14.800   0.300  1.00  0.00     0.011 C 
ATOM      6  C   UNL     1       1.117  12.967  -0.138  1.00  0.00     0.011 C 
ENDROOT
BRANCH   4   7
ATOM      7  C   UNL     1      -0.466  13.942   3.135  1.00  0.00     0.009 C 
BRANCH   7   8
ATOM      8  C   UNL     1      -0.150  14.202   4.621  1.00  0.00     0.030 C 
BRANCH   8   9
ATOM      9  C   UNL     1       0.240  12.929   5.353  1.00  0.00    -0.077 C 
ATOM     10  C   UNL     1      -0.869  12.015   5.812  1.00  0.00     0.039 C 
ATOM     11  C   UNL     1       1.512  12.568   5.648  1.00  0.00    -0.028 CG0
ATOM     12  G   UNL     1       2.774  13.337   5.327  1.00  0.00     0.000 G0
ENDBRANCH   8   9
ENDBRANCH   7   8
ENDBRANCH   4   7
BRANCH   1  13
ATOM     13  C   UNL     1       3.132  14.511   3.132  1.00  0.00    -0.074 C 
ATOM     14  C   UNL     1       4.265  15.227   3.013  1.00  0.00     0.008 C 
BRANCH  13  15
ATOM     15  C   UNL     1       3.171  13.179   3.847  1.00  0.00     0.035 C 
BRANCH  15  16
ATOM     16  C   UNL     1       2.787  13.325   5.328  1.00  0.00     0.032 CG0
ATOM     17  G   UNL     1       1.521  12.565   5.652  1.00  0.00     0.000 G0
ENDBRANCH  15  16
ENDBRANCH  13  15
ENDBRANCH   1  13
TORSDOF 0
ENDMDL
MODEL 7
REMARK VINA RESULT:    -3.879      2.868      5.451
REMARK INTER + INTRA:          -5.516
REMARK INTER:                  -5.198
REMARK INTRA:                  -0.318
REMARK UNBOUND:                -0.277
REMARK SMILES C=C1CCC=C(C)CC[C@@H]2[C@@H]1CC2(C)C
REMARK SMILES IDX 11 1 12 2 13 3 10 4 14 5 15 6 9 7 8 8 6 9 7 10 5 11 2 13
REMARK SMILES IDX 1 14 3 15 4 16
REMARK H PARENT
REMARK Flexibility Score: 70.00
ROOT
ATOM      1  C   UNL     1      -1.908  14.918   5.440  1.00  0.00     0.018 C 
ATOM      2  C   UNL     1      -1.021  14.276   6.515  1.00  0.00     0.015 C 
ATOM      3  C   UNL     1      -0.395  13.358   5.446  1.00  0.00    -0.031 C 
ATOM      4  C   UNL     1      -1.403  13.907   4.401  1.00  0.00     0.002 C 
ATOM      5  C   UNL     1       1.092  13.692   5.200  1.00  0.00     0.011 C 
ATOM      6  C   UNL     1      -0.580  11.860   5.741  1.00  0.00     0.011 C 
ENDROOT
BRANCH   4   7
ATOM      7  C   UNL     1      -0.837  14.546   3.117  1.00  0.00     0.009 C 
BRANCH   7   8
ATOM      8  C   UNL     1      -1.833  14.467   1.944  1.00  0.00     0.030 C 
BRANCH   8   9
ATOM      9  C   UNL     1      -2.589  15.771   1.747  1.00  0.00    -0.077 C 
ATOM     10  C   UNL     1      -2.014  16.777   0.782  1.00  0.00     0.039 C 
ATOM     11  C   UNL     1      -3.730  16.105   2.397  1.00  0.00    -0.028 CG0
ATOM     12  G   UNL     1      -4.464  15.282   3.430  1.00  0.00     0.000 G0
ENDBRANCH   8   9
ENDBRANCH   7   8
ENDBRANCH   4   7
BRANCH   1  13
ATOM     13  C   UNL     1      -3.411  14.879   5.672  1.00  0.00    -0.074 C 
ATOM     14  C   UNL     1      -3.989  13.987   6.498  1.00  0.00     0.008 C 
BRANCH  13  15
ATOM     15  C   UNL     1      -4.285  15.804   4.856  1.00  0.00     0.035 C 
BRANCH  15  16
ATOM     16  C   UNL     1      -4.483  15.275   3.427  1.00  0.00     0.032 CG0
ATOM     17  G   UNL     1      -3.724  16.105   2.416  1.00  0.00     0.000 G0
ENDBRANCH  15  16
ENDBRANCH  13  15
ENDBRANCH   1  13
TORSDOF 0
ENDMDL
MODEL 8
REMARK VINA RESULT:    -3.831      1.810      4.043
REMARK INTER + INTRA:          -5.451
REMARK INTER:                  -5.251
REMARK INTRA:                  -0.201
REMARK UNBOUND:                -0.277
REMARK SMILES C=C1CCC=C(C)CC[C@@H]2[C@@H]1CC2(C)C
REMARK SMILES IDX 11 1 12 2 13 3 10 4 14 5 15 6 9 7 8 8 6 9 7 10 5 11 2 13
REMARK SMILES IDX 1 14 3 15 4 16
REMARK H PARENT
REMARK Flexibility Score: 70.00
ROOT
ATOM      1  C   UNL     1       1.338  14.018   4.553  1.00  0.00     0.018 C 
ATOM      2  C   UNL     1       2.567  13.426   5.254  1.00  0.00     0.015 C 
ATOM      3  C   UNL     1       3.134  12.993   3.887  1.00  0.00    -0.031 C 
ATOM      4  C   UNL     1       1.819  13.458   3.208  1.00  0.00     0.002 C 
ATOM      5  C   UNL     1       4.409  13.781   3.517  1.00  0.00     0.011 C 
ATOM      6  C   UNL     1       3.374  11.477   3.775  1.00  0.00     0.011 C 
ENDROOT
BRANCH   4   7
ATOM      7  C   UNL     1       1.919  14.508   2.082  1.00  0.00     0.009 C 
BRANCH   7   8
ATOM      8  C   UNL     1       0.878  14.265   0.971  1.00  0.00     0.030 C 
BRANCH   8   9
ATOM      9  C   UNL     1      -0.347  15.150   1.134  1.00  0.00    -0.077 C 
ATOM     10  C   UNL     1      -0.427  16.401   0.295  1.00  0.00     0.039 C 
ATOM     11  C   UNL     1      -1.362  14.909   1.998  1.00  0.00    -0.028 CG0
ATOM     12  G   UNL     1      -1.482  13.750   2.961  1.00  0.00     0.000 G0
ENDBRANCH   8   9
ENDBRANCH   7   8
ENDBRANCH   4   7
BRANCH   1  13
ATOM     13  C   UNL     1      -0.024  13.503   4.994  1.00  0.00    -0.074 C 
ATOM     14  C   UNL     1      -0.163  12.429   5.793  1.00  0.00     0.008 C 
BRANCH  13  15
ATOM     15  C   UNL     1      -1.258  14.160   4.419  1.00  0.00     0.035 C 
BRANCH  15  16
ATOM     16  C   UNL     1      -1.492  13.736   2.960  1.00  0.00     0.032 CG0
ATOM     17  G   UNL     1      -1.367  14.908   2.013  1.00  0.00     0.000 G0
ENDBRANCH  15  16
ENDBRANCH  13  15
ENDBRANCH   1  13
TORSDOF 0
ENDMDL
MODEL 9
REMARK VINA RESULT:    -3.805      2.300      5.064
REMARK INTER + INTRA:          -5.416
REMARK INTER:                  -5.191
REMARK INTRA:                  -0.225
REMARK UNBOUND:                -0.277
REMARK SMILES C=C1CCC=C(C)CC[C@@H]2[C@@H]1CC2(C)C
REMARK SMILES IDX 11 1 12 2 13 3 10 4 14 5 15 6 9 7 8 8 6 9 7 10 5 11 2 13
REMARK SMILES IDX 1 14 3 15 4 16
REMARK H PARENT
REMARK Flexibility Score: 70.00
ROOT
ATOM      1  C   UNL     1       0.371  14.406   3.954  1.00  0.00     0.018 C 
ATOM      2  C   UNL     1      -0.770  14.113   4.938  1.00  0.00     0.015 C 
ATOM      3  C   UNL     1      -0.002  12.881   5.455  1.00  0.00    -0.031 C 
ATOM      4  C   UNL     1       1.069  13.100   4.354  1.00  0.00     0.002 C 
ATOM      5  C   UNL     1       0.470  13.067   6.914  1.00  0.00     0.011 C 
ATOM      6  C   UNL     1      -0.779  11.562   5.294  1.00  0.00     0.011 C 
ENDROOT
BRANCH   4   7
ATOM      7  C   UNL     1       2.536  13.274   4.798  1.00  0.00     0.009 C 
BRANCH   7   8
ATOM      8  C   UNL     1       3.514  13.180   3.610  1.00  0.00     0.030 C 
BRANCH   8   9
ATOM      9  C   UNL     1       3.922  14.551   3.095  1.00  0.00    -0.077 C 
ATOM     10  C   UNL     1       5.041  15.266   3.810  1.00  0.00     0.039 C 
ATOM     11  C   UNL     1       3.334  15.190   2.056  1.00  0.00    -0.028 CG0
ATOM     12  G   UNL     1       2.177  14.693   1.218  1.00  0.00     0.000 G0
ENDBRANCH   8   9
ENDBRANCH   7   8
ENDBRANCH   4   7
BRANCH   1  13
ATOM     13  C   UNL     1       0.005  14.494   2.480  1.00  0.00    -0.074 C 
ATOM     14  C   UNL     1      -0.972  13.747   1.934  1.00  0.00     0.008 C 
BRANCH  13  15
ATOM     15  C   UNL     1       0.849  15.373   1.585  1.00  0.00     0.035 C 
BRANCH  15  16
ATOM     16  C   UNL     1       2.174  14.687   1.213  1.00  0.00     0.032 CG0
ATOM     17  G   UNL     1       3.321  15.199   2.055  1.00  0.00     0.000 G0
ENDBRANCH  15  16
ENDBRANCH  13  15
ENDBRANCH   1  13
TORSDOF 0
ENDMDL
