MODEL 1
REMARK VINA RESULT:    -4.738      0.000      0.000
REMARK INTER + INTRA:          -5.873
REMARK INTER:                  -5.569
REMARK INTRA:                  -0.304
REMARK UNBOUND:                -0.304
REMARK SMILES O=c1cc(-c2ccc(O)c(O)c2)oc2cc(O)cc(O)c12
REMARK SMILES IDX 4 1 3 2 2 3 1 4 21 5 19 6 18 7 16 8 15 9 14 10 13 11 5 12
REMARK SMILES IDX 6 13 7 14 8 15 12 16 10 17 9 18 11 20 20 22 17 24
REMARK H PARENT 9 19 11 21 20 23 17 25
REMARK Flexibility Score: inf
ROOT
ATOM      1  C   UNL     1      11.301   5.876  -2.166  1.00  0.00     0.138 A 
ATOM      2  C   UNL     1       9.902   5.783  -2.160  1.00  0.00     0.100 A 
ATOM      3  C   UNL     1       9.134   6.943  -2.049  1.00  0.00     0.197 A 
ATOM      4  O   UNL     1       7.882   6.832  -2.102  1.00  0.00    -0.289 OA
ATOM      5  C   UNL     1       9.771   8.199  -1.906  1.00  0.00     0.107 A 
ATOM      6  C   UNL     1       9.091   9.445  -1.750  1.00  0.00     0.134 A 
ATOM      7  C   UNL     1       9.828  10.635  -1.717  1.00  0.00     0.093 A 
ATOM      8  C   UNL     1      11.225  10.619  -1.775  1.00  0.00     0.123 A 
ATOM      9  C   UNL     1      11.900   9.406  -1.877  1.00  0.00     0.094 A 
ATOM     10  C   UNL     1      11.192   8.204  -1.947  1.00  0.00     0.146 A 
ATOM     11  O   UNL     1      11.874   7.070  -2.063  1.00  0.00    -0.456 OA
ENDROOT
BRANCH   1  12
ATOM     12  C   UNL     1      12.166   4.676  -2.280  1.00  0.00     0.021 A 
ATOM     13  C   UNL     1      11.709   3.562  -3.007  1.00  0.00     0.016 A 
ATOM     14  C   UNL     1      12.501   2.417  -3.125  1.00  0.00     0.051 A 
ATOM     15  C   UNL     1      13.756   2.358  -2.512  1.00  0.00     0.157 A 
ATOM     16  C   UNL     1      13.426   4.607  -1.654  1.00  0.00     0.062 A 
ATOM     17  C   UNL     1      14.221   3.456  -1.771  1.00  0.00     0.158 A 
BRANCH  15  18
ATOM     18  O   UNL     1      14.524   1.203  -2.651  1.00  0.00    -0.504 OA
ATOM     19  H   UNL     1      14.985   0.965  -3.521  1.00  0.00     0.293 HD
ENDBRANCH  15  18
BRANCH  17  20
ATOM     20  O   UNL     1      15.467   3.400  -1.149  1.00  0.00    -0.504 OA
ATOM     21  H   UNL     1      16.241   2.886  -1.553  1.00  0.00     0.293 HD
ENDBRANCH  17  20
ENDBRANCH   1  12
BRANCH   6  22
ATOM     22  O   UNL     1       7.707   9.568  -1.601  1.00  0.00    -0.507 OA
ATOM     23  H   UNL     1       7.021   8.969  -2.035  1.00  0.00     0.293 HD
ENDBRANCH   6  22
BRANCH   8  24
ATOM     24  O   UNL     1      11.951  11.807  -1.726  1.00  0.00    -0.508 OA
ATOM     25  H   UNL     1      11.493  12.705  -1.620  1.00  0.00     0.293 HD
ENDBRANCH   8  24
TORSDOF 5
ENDMDL
MODEL 2
REMARK VINA RESULT:    -4.362      1.527      2.293
REMARK INTER + INTRA:          -5.431
REMARK INTER:                  -5.136
REMARK INTRA:                  -0.296
REMARK UNBOUND:                -0.304
REMARK SMILES O=c1cc(-c2ccc(O)c(O)c2)oc2cc(O)cc(O)c12
REMARK SMILES IDX 4 1 3 2 2 3 1 4 21 5 19 6 18 7 16 8 15 9 14 10 13 11 5 12
REMARK SMILES IDX 6 13 7 14 8 15 12 16 10 17 9 18 11 20 20 22 17 24
REMARK H PARENT 9 19 11 21 20 23 17 25
REMARK Flexibility Score: inf
ROOT
ATOM      1  C   UNL     1      10.872   7.221  -2.284  1.00  0.00     0.138 A 
ATOM      2  C   UNL     1       9.515   7.486  -2.050  1.00  0.00     0.100 A 
ATOM      3  C   UNL     1       9.093   8.802  -1.853  1.00  0.00     0.197 A 
ATOM      4  O   UNL     1       7.862   9.012  -1.700  1.00  0.00    -0.289 OA
ATOM      5  C   UNL     1      10.041   9.853  -1.854  1.00  0.00     0.107 A 
ATOM      6  C   UNL     1       9.732  11.229  -1.630  1.00  0.00     0.134 A 
ATOM      7  C   UNL     1      10.740  12.192  -1.753  1.00  0.00     0.093 A 
ATOM      8  C   UNL     1      12.059  11.823  -2.035  1.00  0.00     0.123 A 
ATOM      9  C   UNL     1      12.380  10.480  -2.206  1.00  0.00     0.094 A 
ATOM     10  C   UNL     1      11.390   9.497  -2.124  1.00  0.00     0.146 A 
ATOM     11  O   UNL     1      11.737   8.229  -2.312  1.00  0.00    -0.456 OA
ENDROOT
BRANCH   1  12
ATOM     12  C   UNL     1      11.376   5.841  -2.498  1.00  0.00     0.021 A 
ATOM     13  C   UNL     1      12.763   5.610  -2.521  1.00  0.00     0.016 A 
ATOM     14  C   UNL     1      13.265   4.322  -2.728  1.00  0.00     0.051 A 
ATOM     15  C   UNL     1      12.394   3.246  -2.924  1.00  0.00     0.157 A 
ATOM     16  C   UNL     1      10.503   4.756  -2.709  1.00  0.00     0.062 A 
ATOM     17  C   UNL     1      11.007   3.463  -2.919  1.00  0.00     0.158 A 
BRANCH  15  18
ATOM     18  O   UNL     1      12.925   1.973  -3.125  1.00  0.00    -0.504 OA
ATOM     19  H   UNL     1      13.919   1.788  -3.055  1.00  0.00     0.293 HD
ENDBRANCH  15  18
BRANCH  17  20
ATOM     20  O   UNL     1      10.133   2.397  -3.125  1.00  0.00    -0.504 OA
ATOM     21  H   UNL     1       9.128   2.526  -3.128  1.00  0.00     0.293 HD
ENDBRANCH  17  20
ENDBRANCH   1  12
BRANCH   6  22
ATOM     22  O   UNL     1       8.467  11.698  -1.263  1.00  0.00    -0.507 OA
ATOM     23  H   UNL     1       8.090  12.601  -1.505  1.00  0.00     0.293 HD
ENDBRANCH   6  22
BRANCH   8  24
ATOM     24  O   UNL     1      13.059  12.788  -2.141  1.00  0.00    -0.508 OA
ATOM     25  H   UNL     1      12.838  13.773  -2.233  1.00  0.00     0.293 HD
ENDBRANCH   8  24
TORSDOF 5
ENDMDL
MODEL 3
REMARK VINA RESULT:    -4.211      1.575      6.949
REMARK INTER + INTRA:          -5.254
REMARK INTER:                  -4.958
REMARK INTRA:                  -0.296
REMARK UNBOUND:                -0.304
REMARK SMILES O=c1cc(-c2ccc(O)c(O)c2)oc2cc(O)cc(O)c12
REMARK SMILES IDX 4 1 3 2 2 3 1 4 21 5 19 6 18 7 16 8 15 9 14 10 13 11 5 12
REMARK SMILES IDX 6 13 7 14 8 15 12 16 10 17 9 18 11 20 20 22 17 24
REMARK H PARENT 9 19 11 21 20 23 17 25
REMARK Flexibility Score: inf
ROOT
ATOM      1  C   UNL     1      10.605   7.745  -2.089  1.00  0.00     0.138 A 
ATOM      2  C   UNL     1       9.443   6.981  -2.267  1.00  0.00     0.100 A 
ATOM      3  C   UNL     1       9.548   5.605  -2.477  1.00  0.00     0.197 A 
ATOM      4  O   UNL     1       8.486   4.939  -2.578  1.00  0.00    -0.289 OA
ATOM      5  C   UNL     1      10.826   4.998  -2.546  1.00  0.00     0.107 A 
ATOM      6  C   UNL     1      11.056   3.610  -2.790  1.00  0.00     0.134 A 
ATOM      7  C   UNL     1      12.361   3.108  -2.738  1.00  0.00     0.093 A 
ATOM      8  C   UNL     1      13.451   3.953  -2.508  1.00  0.00     0.123 A 
ATOM      9  C   UNL     1      13.241   5.316  -2.318  1.00  0.00     0.094 A 
ATOM     10  C   UNL     1      11.947   5.843  -2.330  1.00  0.00     0.146 A 
ATOM     11  O   UNL     1      11.790   7.147  -2.126  1.00  0.00    -0.456 OA
ENDROOT
BRANCH   1  12
ATOM     12  C   UNL     1      10.552   9.212  -1.864  1.00  0.00     0.021 A 
ATOM     13  C   UNL     1      11.724   9.895  -1.492  1.00  0.00     0.016 A 
ATOM     14  C   UNL     1      11.701  11.274  -1.267  1.00  0.00     0.051 A 
ATOM     15  C   UNL     1      10.509  11.993  -1.400  1.00  0.00     0.157 A 
ATOM     16  C   UNL     1       9.352   9.938  -1.984  1.00  0.00     0.062 A 
ATOM     17  C   UNL     1       9.328  11.323  -1.756  1.00  0.00     0.158 A 
BRANCH  15  18
ATOM     18  O   UNL     1      10.519  13.368  -1.172  1.00  0.00    -0.504 OA
ATOM     19  H   UNL     1      11.040  14.007  -1.761  1.00  0.00     0.293 HD
ENDBRANCH  15  18
BRANCH  17  20
ATOM     20  O   UNL     1       8.135  12.032  -1.880  1.00  0.00    -0.504 OA
ATOM     21  H   UNL     1       7.660  12.419  -1.072  1.00  0.00     0.293 HD
ENDBRANCH  17  20
ENDBRANCH   1  12
BRANCH   6  22
ATOM     22  O   UNL     1      10.050   2.694  -3.110  1.00  0.00    -0.507 OA
ATOM     23  H   UNL     1       9.507   2.171  -2.440  1.00  0.00     0.293 HD
ENDBRANCH   6  22
BRANCH   8  24
ATOM     24  O   UNL     1      14.748   3.446  -2.472  1.00  0.00    -0.508 OA
ATOM     25  H   UNL     1      15.287   3.308  -3.319  1.00  0.00     0.293 HD
ENDBRANCH   8  24
TORSDOF 5
ENDMDL
MODEL 4
REMARK VINA RESULT:    -4.130      1.797      6.947
REMARK INTER + INTRA:          -5.158
REMARK INTER:                  -4.855
REMARK INTRA:                  -0.303
REMARK UNBOUND:                -0.304
REMARK SMILES O=c1cc(-c2ccc(O)c(O)c2)oc2cc(O)cc(O)c12
REMARK SMILES IDX 4 1 3 2 2 3 1 4 21 5 19 6 18 7 16 8 15 9 14 10 13 11 5 12
REMARK SMILES IDX 6 13 7 14 8 15 12 16 10 17 9 18 11 20 20 22 17 24
REMARK H PARENT 9 19 11 21 20 23 17 25
REMARK Flexibility Score: inf
ROOT
ATOM      1  C   UNL     1      11.067   9.383  -1.794  1.00  0.00     0.138 A 
ATOM      2  C   UNL     1       9.728   8.973  -1.727  1.00  0.00     0.100 A 
ATOM      3  C   UNL     1       9.418   7.614  -1.797  1.00  0.00     0.197 A 
ATOM      4  O   UNL     1       8.213   7.275  -1.678  1.00  0.00    -0.289 OA
ATOM      5  C   UNL     1      10.453   6.664  -1.973  1.00  0.00     0.107 A 
ATOM      6  C   UNL     1      10.253   5.255  -2.092  1.00  0.00     0.134 A 
ATOM      7  C   UNL     1      11.362   4.404  -2.164  1.00  0.00     0.093 A 
ATOM      8  C   UNL     1      12.663   4.915  -2.179  1.00  0.00     0.123 A 
ATOM      9  C   UNL     1      12.867   6.291  -2.113  1.00  0.00     0.094 A 
ATOM     10  C   UNL     1      11.782   7.165  -2.006  1.00  0.00     0.146 A 
ATOM     11  O   UNL     1      12.022   8.469  -1.927  1.00  0.00    -0.456 OA
ENDROOT
BRANCH   1  12
ATOM     12  C   UNL     1      11.454  10.814  -1.726  1.00  0.00     0.021 A 
ATOM     13  C   UNL     1      10.685  11.700  -0.951  1.00  0.00     0.016 A 
ATOM     14  C   UNL     1      11.023  13.055  -0.875  1.00  0.00     0.051 A 
ATOM     15  C   UNL     1      12.126  13.549  -1.577  1.00  0.00     0.157 A 
ATOM     16  C   UNL     1      12.557  11.320  -2.442  1.00  0.00     0.062 A 
ATOM     17  C   UNL     1      12.895  12.680  -2.367  1.00  0.00     0.158 A 
BRANCH  15  18
ATOM     18  O   UNL     1      12.439  14.904  -1.478  1.00  0.00    -0.504 OA
ATOM     19  H   UNL     1      11.808  15.572  -1.050  1.00  0.00     0.293 HD
ENDBRANCH  15  18
BRANCH  17  20
ATOM     20  O   UNL     1      13.989  13.169  -3.078  1.00  0.00    -0.504 OA
ATOM     21  H   UNL     1      14.564  12.563  -3.652  1.00  0.00     0.293 HD
ENDBRANCH  17  20
ENDBRANCH   1  12
BRANCH   6  22
ATOM     22  O   UNL     1       8.997   4.646  -2.169  1.00  0.00    -0.507 OA
ATOM     23  H   UNL     1       8.200   5.020  -2.660  1.00  0.00     0.293 HD
ENDBRANCH   6  22
BRANCH   8  24
ATOM     24  O   UNL     1      13.761   4.062  -2.265  1.00  0.00    -0.508 OA
ATOM     25  H   UNL     1      14.271   3.768  -1.440  1.00  0.00     0.293 HD
ENDBRANCH   8  24
TORSDOF 5
ENDMDL
MODEL 5
REMARK VINA RESULT:    -4.061      2.420      8.092
REMARK INTER + INTRA:          -5.078
REMARK INTER:                  -4.760
REMARK INTRA:                  -0.318
REMARK UNBOUND:                -0.304
REMARK SMILES O=c1cc(-c2ccc(O)c(O)c2)oc2cc(O)cc(O)c12
REMARK SMILES IDX 4 1 3 2 2 3 1 4 21 5 19 6 18 7 16 8 15 9 14 10 13 11 5 12
REMARK SMILES IDX 6 13 7 14 8 15 12 16 10 17 9 18 11 20 20 22 17 24
REMARK H PARENT 9 19 11 21 20 23 17 25
REMARK Flexibility Score: inf
ROOT
ATOM      1  C   UNL     1      11.236  10.520  -1.776  1.00  0.00     0.138 A 
ATOM      2  C   UNL     1      12.563  10.229  -2.121  1.00  0.00     0.100 A 
ATOM      3  C   UNL     1      12.932   8.909  -2.387  1.00  0.00     0.197 A 
ATOM      4  O   UNL     1      14.117   8.687  -2.748  1.00  0.00    -0.289 OA
ATOM      5  C   UNL     1      11.975   7.872  -2.270  1.00  0.00     0.107 A 
ATOM      6  C   UNL     1      12.245   6.486  -2.483  1.00  0.00     0.134 A 
ATOM      7  C   UNL     1      11.194   5.563  -2.435  1.00  0.00     0.093 A 
ATOM      8  C   UNL     1       9.893   5.968  -2.124  1.00  0.00     0.123 A 
ATOM      9  C   UNL     1       9.628   7.309  -1.866  1.00  0.00     0.094 A 
ATOM     10  C   UNL     1      10.649   8.261  -1.940  1.00  0.00     0.146 A 
ATOM     11  O   UNL     1      10.349   9.534  -1.705  1.00  0.00    -0.456 OA
ENDROOT
BRANCH   1  12
ATOM     12  C   UNL     1      10.788  11.905  -1.481  1.00  0.00     0.021 A 
ATOM     13  C   UNL     1      11.693  12.970  -1.634  1.00  0.00     0.016 A 
ATOM     14  C   UNL     1      11.300  14.282  -1.357  1.00  0.00     0.051 A 
ATOM     15  C   UNL     1      10.002  14.553  -0.915  1.00  0.00     0.157 A 
ATOM     16  C   UNL     1       9.485  12.182  -1.023  1.00  0.00     0.062 A 
ATOM     17  C   UNL     1       9.091  13.500  -0.743  1.00  0.00     0.158 A 
BRANCH  15  18
ATOM     18  O   UNL     1       9.639  15.873  -0.650  1.00  0.00    -0.504 OA
ATOM     19  H   UNL     1       9.149  16.136   0.197  1.00  0.00     0.293 HD
ENDBRANCH  15  18
BRANCH  17  20
ATOM     20  O   UNL     1       7.799  13.762  -0.292  1.00  0.00    -0.504 OA
ATOM     21  H   UNL     1       7.509  14.694  -0.019  1.00  0.00     0.293 HD
ENDBRANCH  17  20
ENDBRANCH   1  12
BRANCH   6  22
ATOM     22  O   UNL     1      13.520   5.965  -2.720  1.00  0.00    -0.507 OA
ATOM     23  H   UNL     1      13.786   5.427  -3.530  1.00  0.00     0.293 HD
ENDBRANCH   6  22
BRANCH   8  24
ATOM     24  O   UNL     1       8.856   5.039  -2.064  1.00  0.00    -0.508 OA
ATOM     25  H   UNL     1       8.117   5.023  -2.757  1.00  0.00     0.293 HD
ENDBRANCH   8  24
TORSDOF 5
ENDMDL
MODEL 6
REMARK VINA RESULT:    -4.048      2.278      4.261
REMARK INTER + INTRA:          -5.063
REMARK INTER:                  -4.747
REMARK INTRA:                  -0.315
REMARK UNBOUND:                -0.304
REMARK SMILES O=c1cc(-c2ccc(O)c(O)c2)oc2cc(O)cc(O)c12
REMARK SMILES IDX 4 1 3 2 2 3 1 4 21 5 19 6 18 7 16 8 15 9 14 10 13 11 5 12
REMARK SMILES IDX 6 13 7 14 8 15 12 16 10 17 9 18 11 20 20 22 17 24
REMARK H PARENT 9 19 11 21 20 23 17 25
REMARK Flexibility Score: inf
ROOT
ATOM      1  C   UNL     1      11.827   8.334  -2.319  1.00  0.00     0.138 A 
ATOM      2  C   UNL     1      13.103   8.796  -2.669  1.00  0.00     0.100 A 
ATOM      3  C   UNL     1      13.397  10.156  -2.563  1.00  0.00     0.197 A 
ATOM      4  O   UNL     1      14.568  10.532  -2.832  1.00  0.00    -0.289 OA
ATOM      5  C   UNL     1      12.396  11.063  -2.139  1.00  0.00     0.107 A 
ATOM      6  C   UNL     1      12.571  12.476  -2.027  1.00  0.00     0.134 A 
ATOM      7  C   UNL     1      11.536  13.259  -1.502  1.00  0.00     0.093 A 
ATOM      8  C   UNL     1      10.312  12.689  -1.140  1.00  0.00     0.123 A 
ATOM      9  C   UNL     1      10.114  11.320  -1.292  1.00  0.00     0.094 A 
ATOM     10  C   UNL     1      11.139  10.505  -1.781  1.00  0.00     0.146 A 
ATOM     11  O   UNL     1      10.915   9.200  -1.893  1.00  0.00    -0.456 OA
ENDROOT
BRANCH   1  12
ATOM     12  C   UNL     1      11.459   6.899  -2.413  1.00  0.00     0.021 A 
ATOM     13  C   UNL     1      12.469   5.939  -2.604  1.00  0.00     0.016 A 
ATOM     14  C   UNL     1      12.150   4.582  -2.703  1.00  0.00     0.051 A 
ATOM     15  C   UNL     1      10.819   4.160  -2.623  1.00  0.00     0.157 A 
ATOM     16  C   UNL     1      10.119   6.470  -2.346  1.00  0.00     0.062 A 
ATOM     17  C   UNL     1       9.799   5.107  -2.448  1.00  0.00     0.158 A 
BRANCH  15  18
ATOM     18  O   UNL     1      10.534   2.800  -2.722  1.00  0.00    -0.504 OA
ATOM     19  H   UNL     1      10.903   2.123  -2.064  1.00  0.00     0.293 HD
ENDBRANCH  15  18
BRANCH  17  20
ATOM     20  O   UNL     1       8.469   4.695  -2.378  1.00  0.00    -0.504 OA
ATOM     21  H   UNL     1       8.047   4.133  -3.109  1.00  0.00     0.293 HD
ENDBRANCH  17  20
ENDBRANCH   1  12
BRANCH   6  22
ATOM     22  O   UNL     1      13.721  13.157  -2.435  1.00  0.00    -0.507 OA
ATOM     23  H   UNL     1      14.114  13.128  -3.363  1.00  0.00     0.293 HD
ENDBRANCH   6  22
BRANCH   8  24
ATOM     24  O   UNL     1       9.283  13.480  -0.632  1.00  0.00    -0.508 OA
ATOM     25  H   UNL     1       8.729  14.079  -1.233  1.00  0.00     0.293 HD
ENDBRANCH   8  24
TORSDOF 5
ENDMDL
MODEL 7
REMARK VINA RESULT:    -4.006      3.472      5.850
REMARK INTER + INTRA:          -5.013
REMARK INTER:                  -4.695
REMARK INTRA:                  -0.318
REMARK UNBOUND:                -0.304
REMARK SMILES O=c1cc(-c2ccc(O)c(O)c2)oc2cc(O)cc(O)c12
REMARK SMILES IDX 4 1 3 2 2 3 1 4 21 5 19 6 18 7 16 8 15 9 14 10 13 11 5 12
REMARK SMILES IDX 6 13 7 14 8 15 12 16 10 17 9 18 11 20 20 22 17 24
REMARK H PARENT 9 19 11 21 20 23 17 25
REMARK Flexibility Score: inf
ROOT
ATOM      1  C   UNL     1      10.963  11.654  -1.607  1.00  0.00     0.138 A 
ATOM      2  C   UNL     1       9.581  11.725  -1.385  1.00  0.00     0.100 A 
ATOM      3  C   UNL     1       8.994  12.954  -1.081  1.00  0.00     0.197 A 
ATOM      4  O   UNL     1       7.744  12.995  -0.942  1.00  0.00    -0.289 OA
ATOM      5  C   UNL     1       9.801  14.111  -0.963  1.00  0.00     0.107 A 
ATOM      6  C   UNL     1       9.317  15.411  -0.623  1.00  0.00     0.134 A 
ATOM      7  C   UNL     1      10.198  16.499  -0.633  1.00  0.00     0.093 A 
ATOM      8  C   UNL     1      11.556  16.325  -0.913  1.00  0.00     0.123 A 
ATOM      9  C   UNL     1      12.047  15.054  -1.197  1.00  0.00     0.094 A 
ATOM     10  C   UNL     1      11.188  13.952  -1.229  1.00  0.00     0.146 A 
ATOM     11  O   UNL     1      11.695  12.760  -1.522  1.00  0.00    -0.456 OA
ENDROOT
BRANCH   1  12
ATOM     12  C   UNL     1      11.641  10.374  -1.932  1.00  0.00     0.021 A 
ATOM     13  C   UNL     1      10.880   9.194  -2.024  1.00  0.00     0.016 A 
ATOM     14  C   UNL     1      11.494   7.974  -2.321  1.00  0.00     0.051 A 
ATOM     15  C   UNL     1      12.875   7.908  -2.524  1.00  0.00     0.157 A 
ATOM     16  C   UNL     1      13.034  10.299  -2.125  1.00  0.00     0.062 A 
ATOM     17  C   UNL     1      13.650   9.074  -2.423  1.00  0.00     0.158 A 
BRANCH  15  18
ATOM     18  O   UNL     1      13.457   6.677  -2.823  1.00  0.00    -0.504 OA
ATOM     19  H   UNL     1      13.504   5.926  -2.144  1.00  0.00     0.293 HD
ENDBRANCH  15  18
BRANCH  17  20
ATOM     20  O   UNL     1      15.030   9.013  -2.613  1.00  0.00    -0.504 OA
ATOM     21  H   UNL     1      15.667   9.582  -2.068  1.00  0.00     0.293 HD
ENDBRANCH  17  20
ENDBRANCH   1  12
BRANCH   6  22
ATOM     22  O   UNL     1       7.999  15.682  -0.248  1.00  0.00    -0.507 OA
ATOM     23  H   UNL     1       7.477  15.174   0.450  1.00  0.00     0.293 HD
ENDBRANCH   6  22
BRANCH   8  24
ATOM     24  O   UNL     1      12.428  17.412  -0.906  1.00  0.00    -0.508 OA
ATOM     25  H   UNL     1      13.381  17.330  -1.240  1.00  0.00     0.293 HD
ENDBRANCH   8  24
TORSDOF 5
ENDMDL
MODEL 8
REMARK VINA RESULT:    -3.966      2.171      6.577
REMARK INTER + INTRA:          -4.965
REMARK INTER:                  -4.671
REMARK INTRA:                  -0.294
REMARK UNBOUND:                -0.304
REMARK SMILES O=c1cc(-c2ccc(O)c(O)c2)oc2cc(O)cc(O)c12
REMARK SMILES IDX 4 1 3 2 2 3 1 4 21 5 19 6 18 7 16 8 15 9 14 10 13 11 5 12
REMARK SMILES IDX 6 13 7 14 8 15 12 16 10 17 9 18 11 20 20 22 17 24
REMARK H PARENT 9 19 11 21 20 23 17 25
REMARK Flexibility Score: inf
ROOT
ATOM      1  C   UNL     1      12.454   8.490  -2.450  1.00  0.00     0.138 A 
ATOM      2  C   UNL     1      11.113   8.553  -2.047  1.00  0.00     0.100 A 
ATOM      3  C   UNL     1      10.373   7.375  -1.925  1.00  0.00     0.197 A 
ATOM      4  O   UNL     1       9.189   7.460  -1.509  1.00  0.00    -0.289 OA
ATOM      5  C   UNL     1      10.970   6.132  -2.245  1.00  0.00     0.107 A 
ATOM      6  C   UNL     1      10.304   4.870  -2.191  1.00  0.00     0.134 A 
ATOM      7  C   UNL     1      11.027   3.697  -2.435  1.00  0.00     0.093 A 
ATOM      8  C   UNL     1      12.379   3.743  -2.787  1.00  0.00     0.123 A 
ATOM      9  C   UNL     1      13.025   4.971  -2.891  1.00  0.00     0.094 A 
ATOM     10  C   UNL     1      12.341   6.159  -2.620  1.00  0.00     0.146 A 
ATOM     11  O   UNL     1      13.000   7.308  -2.713  1.00  0.00    -0.456 OA
ENDROOT
BRANCH   1  12
ATOM     12  C   UNL     1      13.286   9.710  -2.598  1.00  0.00     0.021 A 
ATOM     13  C   UNL     1      14.684   9.585  -2.685  1.00  0.00     0.016 A 
ATOM     14  C   UNL     1      15.492  10.717  -2.817  1.00  0.00     0.051 A 
ATOM     15  C   UNL     1      14.922  11.993  -2.856  1.00  0.00     0.157 A 
ATOM     16  C   UNL     1      12.717  10.998  -2.625  1.00  0.00     0.062 A 
ATOM     17  C   UNL     1      13.529  12.136  -2.756  1.00  0.00     0.158 A 
BRANCH  15  18
ATOM     18  O   UNL     1      15.754  13.103  -2.992  1.00  0.00    -0.504 OA
ATOM     19  H   UNL     1      16.078  13.424  -3.897  1.00  0.00     0.293 HD
ENDBRANCH  15  18
BRANCH  17  20
ATOM     20  O   UNL     1      12.955  13.405  -2.783  1.00  0.00    -0.504 OA
ATOM     21  H   UNL     1      12.548  13.823  -1.954  1.00  0.00     0.293 HD
ENDBRANCH  17  20
ENDBRANCH   1  12
BRANCH   6  22
ATOM     22  O   UNL     1       8.939   4.716  -1.929  1.00  0.00    -0.507 OA
ATOM     23  H   UNL     1       8.369   3.951  -2.253  1.00  0.00     0.293 HD
ENDBRANCH   6  22
BRANCH   8  24
ATOM     24  O   UNL     1      13.086   2.570  -3.043  1.00  0.00    -0.508 OA
ATOM     25  H   UNL     1      13.356   1.940  -2.296  1.00  0.00     0.293 HD
ENDBRANCH   8  24
TORSDOF 5
ENDMDL
MODEL 9
REMARK VINA RESULT:    -3.940      2.409      4.751
REMARK INTER + INTRA:          -4.935
REMARK INTER:                  -4.638
REMARK INTRA:                  -0.297
REMARK UNBOUND:                -0.304
REMARK SMILES O=c1cc(-c2ccc(O)c(O)c2)oc2cc(O)cc(O)c12
REMARK SMILES IDX 4 1 3 2 2 3 1 4 21 5 19 6 18 7 16 8 15 9 14 10 13 11 5 12
REMARK SMILES IDX 6 13 7 14 8 15 12 16 10 17 9 18 11 20 20 22 17 24
REMARK H PARENT 9 19 11 21 20 23 17 25
REMARK Flexibility Score: inf
ROOT
ATOM      1  C   UNL     1      11.504   9.725  -1.963  1.00  0.00     0.138 A 
ATOM      2  C   UNL     1      12.677  10.340  -2.421  1.00  0.00     0.100 A 
ATOM      3  C   UNL     1      12.780  11.732  -2.399  1.00  0.00     0.197 A 
ATOM      4  O   UNL     1      13.866  12.251  -2.764  1.00  0.00    -0.289 OA
ATOM      5  C   UNL     1      11.687  12.512  -1.949  1.00  0.00     0.107 A 
ATOM      6  C   UNL     1      11.666  13.940  -1.914  1.00  0.00     0.134 A 
ATOM      7  C   UNL     1      10.564  14.599  -1.355  1.00  0.00     0.093 A 
ATOM      8  C   UNL     1       9.459  13.885  -0.884  1.00  0.00     0.123 A 
ATOM      9  C   UNL     1       9.449  12.495  -0.960  1.00  0.00     0.094 A 
ATOM     10  C   UNL     1      10.548  11.805  -1.480  1.00  0.00     0.146 A 
ATOM     11  O   UNL     1      10.505  10.478  -1.516  1.00  0.00    -0.456 OA
ENDROOT
BRANCH   1  12
ATOM     12  C   UNL     1      11.339   8.249  -1.966  1.00  0.00     0.021 A 
ATOM     13  C   UNL     1      10.106   7.692  -1.585  1.00  0.00     0.016 A 
ATOM     14  C   UNL     1       9.926   6.306  -1.572  1.00  0.00     0.051 A 
ATOM     15  C   UNL     1      10.974   5.453  -1.929  1.00  0.00     0.157 A 
ATOM     16  C   UNL     1      12.396   7.386  -2.313  1.00  0.00     0.062 A 
ATOM     17  C   UNL     1      12.216   5.994  -2.299  1.00  0.00     0.158 A 
BRANCH  15  18
ATOM     18  O   UNL     1      10.763   4.076  -1.910  1.00  0.00    -0.504 OA
ATOM     19  H   UNL     1      10.078   3.646  -1.299  1.00  0.00     0.293 HD
ENDBRANCH  15  18
BRANCH  17  20
ATOM     20  O   UNL     1      13.269   5.149  -2.646  1.00  0.00    -0.504 OA
ATOM     21  H   UNL     1      13.199   4.143  -2.544  1.00  0.00     0.293 HD
ENDBRANCH  17  20
ENDBRANCH   1  12
BRANCH   6  22
ATOM     22  O   UNL     1      12.679  14.751  -2.430  1.00  0.00    -0.507 OA
ATOM     23  H   UNL     1      13.642  14.474  -2.548  1.00  0.00     0.293 HD
ENDBRANCH   6  22
BRANCH   8  24
ATOM     24  O   UNL     1       8.361  14.551  -0.344  1.00  0.00    -0.508 OA
ATOM     25  H   UNL     1       8.398  15.538  -0.116  1.00  0.00     0.293 HD
ENDBRANCH   8  24
TORSDOF 5
ENDMDL
