MODEL 1
REMARK VINA RESULT:    -3.169      0.000      0.000
REMARK INTER + INTRA:          -8.177
REMARK INTER:                  -5.578
REMARK INTRA:                  -2.599
REMARK UNBOUND:                -2.599
REMARK SMILES CCCCCCC=CCCCCCCCC(=O)[O-]
REMARK SMILES IDX 10 1 11 2 12 3 13 4 14 5 15 6 16 7 17 8 18 9 9 10 8 11 7 12
REMARK SMILES IDX 6 13 5 14 4 15 3 16 2 17 1 18
REMARK H PARENT
REMARK Flexibility Score: inf
ROOT
ATOM      1  C   UNL     1      30.565   0.647  -0.685  1.00  0.00     0.004 C 
ENDROOT
BRANCH   1   2
ATOM      2  C   UNL     1      30.480   0.129   0.760  1.00  0.00     0.000 C 
BRANCH   2   3
ATOM      3  C   UNL     1      30.752  -1.382   0.862  1.00  0.00     0.000 C 
BRANCH   3   4
ATOM      4  C   UNL     1      29.757  -2.100   1.786  1.00  0.00     0.000 C 
BRANCH   4   5
ATOM      5  C   UNL     1      29.341  -3.481   1.256  1.00  0.00     0.006 C 
BRANCH   5   6
ATOM      6  C   UNL     1      30.181  -3.875   0.039  1.00  0.00     0.053 C 
BRANCH   6   7
ATOM      7  C   UNL     1      31.107  -5.000   0.379  1.00  0.00     0.041 C 
ATOM      8  O   UNL     1      31.580  -5.729  -0.533  1.00  0.00    -0.550 OA
ATOM      9  O   UNL     1      31.421  -5.267   1.706  1.00  0.00    -0.550 OA
ENDBRANCH   6   7
ENDBRANCH   5   6
ENDBRANCH   4   5
ENDBRANCH   3   4
ENDBRANCH   2   3
ENDBRANCH   1   2
BRANCH   1  10
ATOM     10  C   UNL     1      30.120  -0.401  -1.716  1.00  0.00     0.027 C 
BRANCH  10  11
ATOM     11  C   UNL     1      28.859   0.039  -2.418  1.00  0.00    -0.031 C 
ATOM     12  C   UNL     1      27.626  -0.395  -2.102  1.00  0.00    -0.031 C 
BRANCH  12  13
ATOM     13  C   UNL     1      27.342  -1.349  -0.967  1.00  0.00     0.027 C 
BRANCH  13  14
ATOM     14  C   UNL     1      26.897  -0.595   0.294  1.00  0.00     0.004 C 
BRANCH  14  15
ATOM     15  C   UNL     1      26.227   0.756  -0.019  1.00  0.00     0.000 C 
BRANCH  15  16
ATOM     16  C   UNL     1      27.009   1.996   0.454  1.00  0.00    -0.000 C 
BRANCH  16  17
ATOM     17  C   UNL     1      27.044   3.117  -0.594  1.00  0.00    -0.003 C 
ATOM     18  C   UNL     1      28.466   3.631  -0.802  1.00  0.00     0.004 C 
ENDBRANCH  16  17
ENDBRANCH  15  16
ENDBRANCH  14  15
ENDBRANCH  13  14
ENDBRANCH  12  13
ENDBRANCH  10  11
ENDBRANCH   1  10
TORSDOF 13
ENDMDL
MODEL 2
REMARK VINA RESULT:    -3.121      3.994      6.208
REMARK INTER + INTRA:          -8.091
REMARK INTER:                  -5.716
REMARK INTRA:                  -2.375
REMARK UNBOUND:                -2.599
REMARK SMILES CCCCCCC=CCCCCCCCC(=O)[O-]
REMARK SMILES IDX 10 1 11 2 12 3 13 4 14 5 15 6 16 7 17 8 18 9 9 10 8 11 7 12
REMARK SMILES IDX 6 13 5 14 4 15 3 16 2 17 1 18
REMARK H PARENT
REMARK Flexibility Score: inf
ROOT
ATOM      1  C   UNL     1      30.273   0.868  -1.046  1.00  0.00     0.004 C 
ENDROOT
BRANCH   1   2
ATOM      2  C   UNL     1      28.773   1.037  -1.337  1.00  0.00     0.000 C 
BRANCH   2   3
ATOM      3  C   UNL     1      28.013   1.679  -0.163  1.00  0.00     0.000 C 
BRANCH   3   4
ATOM      4  C   UNL     1      26.601   1.098   0.015  1.00  0.00     0.000 C 
BRANCH   4   5
ATOM      5  C   UNL     1      25.950   0.694  -1.317  1.00  0.00     0.006 C 
BRANCH   5   6
ATOM      6  C   UNL     1      25.264   1.893  -1.976  1.00  0.00     0.053 C 
BRANCH   6   7
ATOM      7  C   UNL     1      24.030   1.461  -2.703  1.00  0.00     0.041 C 
ATOM      8  O   UNL     1      24.110   0.634  -3.650  1.00  0.00    -0.550 OA
ATOM      9  O   UNL     1      22.795   1.996  -2.358  1.00  0.00    -0.550 OA
ENDBRANCH   6   7
ENDBRANCH   5   6
ENDBRANCH   4   5
ENDBRANCH   3   4
ENDBRANCH   2   3
ENDBRANCH   1   2
BRANCH   1  10
ATOM     10  C   UNL     1      30.549   0.430   0.400  1.00  0.00     0.027 C 
BRANCH  10  11
ATOM     11  C   UNL     1      31.397  -0.816   0.431  1.00  0.00    -0.031 C 
ATOM     12  C   UNL     1      31.064  -1.943   1.084  1.00  0.00    -0.031 C 
BRANCH  12  13
ATOM     13  C   UNL     1      29.767  -2.118   1.838  1.00  0.00     0.027 C 
BRANCH  13  14
ATOM     14  C   UNL     1      28.839  -3.110   1.123  1.00  0.00     0.004 C 
BRANCH  14  15
ATOM     15  C   UNL     1      27.703  -2.418   0.348  1.00  0.00     0.000 C 
BRANCH  15  16
ATOM     16  C   UNL     1      27.849  -2.443  -1.185  1.00  0.00    -0.000 C 
BRANCH  16  17
ATOM     17  C   UNL     1      28.996  -3.346  -1.662  1.00  0.00    -0.003 C 
ATOM     18  C   UNL     1      29.984  -2.569  -2.528  1.00  0.00     0.004 C 
ENDBRANCH  16  17
ENDBRANCH  15  16
ENDBRANCH  14  15
ENDBRANCH  13  14
ENDBRANCH  12  13
ENDBRANCH  10  11
ENDBRANCH   1  10
TORSDOF 13
ENDMDL
MODEL 3
REMARK VINA RESULT:    -3.104      2.957      5.104
REMARK INTER + INTRA:          -8.061
REMARK INTER:                  -5.908
REMARK INTRA:                  -2.153
REMARK UNBOUND:                -2.599
REMARK SMILES CCCCCCC=CCCCCCCCC(=O)[O-]
REMARK SMILES IDX 10 1 11 2 12 3 13 4 14 5 15 6 16 7 17 8 18 9 9 10 8 11 7 12
REMARK SMILES IDX 6 13 5 14 4 15 3 16 2 17 1 18
REMARK H PARENT
REMARK Flexibility Score: inf
ROOT
ATOM      1  C   UNL     1      32.588  -3.639   1.706  1.00  0.00     0.004 C 
ENDROOT
BRANCH   1   2
ATOM      2  C   UNL     1      34.033  -4.028   1.350  1.00  0.00     0.000 C 
BRANCH   2   3
ATOM      3  C   UNL     1      34.808  -4.586   2.557  1.00  0.00     0.000 C 
BRANCH   3   4
ATOM      4  C   UNL     1      34.022  -4.464   3.872  1.00  0.00     0.000 C 
BRANCH   4   5
ATOM      5  C   UNL     1      33.788  -5.820   4.555  1.00  0.00     0.006 C 
BRANCH   5   6
ATOM      6  C   UNL     1      32.429  -6.403   4.162  1.00  0.00     0.053 C 
BRANCH   6   7
ATOM      7  C   UNL     1      32.590  -7.457   3.112  1.00  0.00     0.041 C 
ATOM      8  O   UNL     1      31.612  -7.787   2.391  1.00  0.00    -0.550 OA
ATOM      9  O   UNL     1      33.812  -8.098   2.951  1.00  0.00    -0.550 OA
ENDBRANCH   6   7
ENDBRANCH   5   6
ENDBRANCH   4   5
ENDBRANCH   3   4
ENDBRANCH   2   3
ENDBRANCH   1   2
BRANCH   1  10
ATOM     10  C   UNL     1      31.548  -4.508   0.985  1.00  0.00     0.027 C 
BRANCH  10  11
ATOM     11  C   UNL     1      30.255  -4.551   1.761  1.00  0.00    -0.031 C 
ATOM     12  C   UNL     1      29.224  -3.711   1.560  1.00  0.00    -0.031 C 
BRANCH  12  13
ATOM     13  C   UNL     1      29.213  -2.641   0.495  1.00  0.00     0.027 C 
BRANCH  13  14
ATOM     14  C   UNL     1      29.563  -1.268   1.085  1.00  0.00     0.004 C 
BRANCH  14  15
ATOM     15  C   UNL     1      30.372  -0.386   0.117  1.00  0.00     0.000 C 
BRANCH  15  16
ATOM     16  C   UNL     1      31.781  -0.003   0.607  1.00  0.00    -0.000 C 
BRANCH  16  17
ATOM     17  C   UNL     1      32.898  -0.717  -0.166  1.00  0.00    -0.003 C 
ATOM     18  C   UNL     1      32.349  -1.408  -1.412  1.00  0.00     0.004 C 
ENDBRANCH  16  17
ENDBRANCH  15  16
ENDBRANCH  14  15
ENDBRANCH  13  14
ENDBRANCH  12  13
ENDBRANCH  10  11
ENDBRANCH   1  10
TORSDOF 13
ENDMDL
MODEL 4
REMARK VINA RESULT:    -3.103      3.928      6.210
REMARK INTER + INTRA:          -8.060
REMARK INTER:                  -5.398
REMARK INTRA:                  -2.662
REMARK UNBOUND:                -2.599
REMARK SMILES CCCCCCC=CCCCCCCCC(=O)[O-]
REMARK SMILES IDX 10 1 11 2 12 3 13 4 14 5 15 6 16 7 17 8 18 9 9 10 8 11 7 12
REMARK SMILES IDX 6 13 5 14 4 15 3 16 2 17 1 18
REMARK H PARENT
REMARK Flexibility Score: inf
ROOT
ATOM      1  C   UNL     1      28.598  -2.981   0.954  1.00  0.00     0.004 C 
ENDROOT
BRANCH   1   2
ATOM      2  C   UNL     1      27.293  -2.304   0.503  1.00  0.00     0.000 C 
BRANCH   2   3
ATOM      3  C   UNL     1      27.402  -0.770   0.481  1.00  0.00     0.000 C 
BRANCH   3   4
ATOM      4  C   UNL     1      26.153  -0.097  -0.111  1.00  0.00     0.000 C 
BRANCH   4   5
ATOM      5  C   UNL     1      26.489   0.917  -1.216  1.00  0.00     0.006 C 
BRANCH   5   6
ATOM      6  C   UNL     1      25.874   0.492  -2.552  1.00  0.00     0.053 C 
BRANCH   6   7
ATOM      7  C   UNL     1      24.656   1.307  -2.855  1.00  0.00     0.041 C 
ATOM      8  O   UNL     1      24.766   2.412  -3.448  1.00  0.00    -0.550 OA
ATOM      9  O   UNL     1      23.403   0.862  -2.453  1.00  0.00    -0.550 OA
ENDBRANCH   6   7
ENDBRANCH   5   6
ENDBRANCH   4   5
ENDBRANCH   3   4
ENDBRANCH   2   3
ENDBRANCH   1   2
BRANCH   1  10
ATOM     10  C   UNL     1      29.561  -2.006   1.647  1.00  0.00     0.027 C 
BRANCH  10  11
ATOM     11  C   UNL     1      30.908  -2.010   0.968  1.00  0.00    -0.031 C 
ATOM     12  C   UNL     1      31.538  -0.906   0.531  1.00  0.00    -0.031 C 
BRANCH  12  13
ATOM     13  C   UNL     1      30.993   0.491   0.706  1.00  0.00     0.027 C 
BRANCH  13  14
ATOM     14  C   UNL     1      30.347   1.001  -0.590  1.00  0.00     0.004 C 
BRANCH  14  15
ATOM     15  C   UNL     1      30.759   0.184  -1.828  1.00  0.00     0.000 C 
BRANCH  15  16
ATOM     16  C   UNL     1      29.591  -0.430  -2.621  1.00  0.00    -0.000 C 
BRANCH  16  17
ATOM     17  C   UNL     1      29.539  -1.961  -2.520  1.00  0.00    -0.003 C 
ATOM     18  C   UNL     1      28.212  -2.503  -3.045  1.00  0.00     0.004 C 
ENDBRANCH  16  17
ENDBRANCH  15  16
ENDBRANCH  14  15
ENDBRANCH  13  14
ENDBRANCH  12  13
ENDBRANCH  10  11
ENDBRANCH   1  10
TORSDOF 13
ENDMDL
MODEL 5
REMARK VINA RESULT:    -3.081      3.397      7.253
REMARK INTER + INTRA:          -8.021
REMARK INTER:                  -5.960
REMARK INTRA:                  -2.060
REMARK UNBOUND:                -2.599
REMARK SMILES CCCCCCC=CCCCCCCCC(=O)[O-]
REMARK SMILES IDX 10 1 11 2 12 3 13 4 14 5 15 6 16 7 17 8 18 9 9 10 8 11 7 12
REMARK SMILES IDX 6 13 5 14 4 15 3 16 2 17 1 18
REMARK H PARENT
REMARK Flexibility Score: inf
ROOT
ATOM      1  C   UNL     1      33.105  -2.511   0.146  1.00  0.00     0.004 C 
ENDROOT
BRANCH   1   2
ATOM      2  C   UNL     1      31.830  -1.882   0.732  1.00  0.00     0.000 C 
BRANCH   2   3
ATOM      3  C   UNL     1      30.908  -2.923   1.391  1.00  0.00     0.000 C 
BRANCH   3   4
ATOM      4  C   UNL     1      29.556  -2.330   1.816  1.00  0.00     0.000 C 
BRANCH   4   5
ATOM      5  C   UNL     1      28.403  -2.749   0.890  1.00  0.00     0.006 C 
BRANCH   5   6
ATOM      6  C   UNL     1      27.442  -1.582   0.652  1.00  0.00     0.053 C 
BRANCH   6   7
ATOM      7  C   UNL     1      27.972  -0.669  -0.407  1.00  0.00     0.041 C 
ATOM      8  O   UNL     1      27.829  -0.959  -1.624  1.00  0.00    -0.550 OA
ATOM      9  O   UNL     1      28.655   0.488  -0.051  1.00  0.00    -0.550 OA
ENDBRANCH   6   7
ENDBRANCH   5   6
ENDBRANCH   4   5
ENDBRANCH   3   4
ENDBRANCH   2   3
ENDBRANCH   1   2
BRANCH   1  10
ATOM     10  C   UNL     1      33.156  -4.034   0.338  1.00  0.00     0.027 C 
BRANCH  10  11
ATOM     11  C   UNL     1      34.491  -4.459   0.897  1.00  0.00    -0.031 C 
ATOM     12  C   UNL     1      34.764  -4.565   2.209  1.00  0.00    -0.031 C 
BRANCH  12  13
ATOM     13  C   UNL     1      33.747  -4.312   3.296  1.00  0.00     0.027 C 
BRANCH  13  14
ATOM     14  C   UNL     1      33.636  -5.515   4.242  1.00  0.00     0.004 C 
BRANCH  14  15
ATOM     15  C   UNL     1      32.765  -6.650   3.672  1.00  0.00     0.000 C 
BRANCH  15  16
ATOM     16  C   UNL     1      31.356  -6.226   3.218  1.00  0.00    -0.000 C 
BRANCH  16  17
ATOM     17  C   UNL     1      31.017  -6.702   1.799  1.00  0.00    -0.003 C 
ATOM     18  C   UNL     1      32.150  -7.541   1.214  1.00  0.00     0.004 C 
ENDBRANCH  16  17
ENDBRANCH  15  16
ENDBRANCH  14  15
ENDBRANCH  13  14
ENDBRANCH  12  13
ENDBRANCH  10  11
ENDBRANCH   1  10
TORSDOF 13
ENDMDL
MODEL 6
REMARK VINA RESULT:    -3.047      3.101      5.282
REMARK INTER + INTRA:          -7.962
REMARK INTER:                  -5.366
REMARK INTRA:                  -2.595
REMARK UNBOUND:                -2.599
REMARK SMILES CCCCCCC=CCCCCCCCC(=O)[O-]
REMARK SMILES IDX 10 1 11 2 12 3 13 4 14 5 15 6 16 7 17 8 18 9 9 10 8 11 7 12
REMARK SMILES IDX 6 13 5 14 4 15 3 16 2 17 1 18
REMARK H PARENT
REMARK Flexibility Score: inf
ROOT
ATOM      1  C   UNL     1      32.170  -0.870  -0.754  1.00  0.00     0.004 C 
ENDROOT
BRANCH   1   2
ATOM      2  C   UNL     1      31.911  -0.112   0.559  1.00  0.00     0.000 C 
BRANCH   2   3
ATOM      3  C   UNL     1      30.504   0.508   0.613  1.00  0.00     0.000 C 
BRANCH   3   4
ATOM      4  C   UNL     1      30.215   1.424  -0.586  1.00  0.00     0.000 C 
BRANCH   4   5
ATOM      5  C   UNL     1      28.759   1.332  -1.070  1.00  0.00     0.006 C 
BRANCH   5   6
ATOM      6  C   UNL     1      27.789   1.338   0.114  1.00  0.00     0.053 C 
BRANCH   6   7
ATOM      7  C   UNL     1      26.524   0.619  -0.236  1.00  0.00     0.041 C 
ATOM      8  O   UNL     1      26.020   0.746  -1.383  1.00  0.00    -0.550 OA
ATOM      9  O   UNL     1      25.883  -0.166   0.715  1.00  0.00    -0.550 OA
ENDBRANCH   6   7
ENDBRANCH   5   6
ENDBRANCH   4   5
ENDBRANCH   3   4
ENDBRANCH   2   3
ENDBRANCH   1   2
BRANCH   1  10
ATOM     10  C   UNL     1      32.314  -2.384  -0.544  1.00  0.00     0.027 C 
BRANCH  10  11
ATOM     11  C   UNL     1      32.450  -2.711   0.922  1.00  0.00    -0.031 C 
ATOM     12  C   UNL     1      31.576  -3.462   1.615  1.00  0.00    -0.031 C 
BRANCH  12  13
ATOM     13  C   UNL     1      30.363  -4.115   0.996  1.00  0.00     0.027 C 
BRANCH  13  14
ATOM     14  C   UNL     1      29.078  -3.362   1.369  1.00  0.00     0.004 C 
BRANCH  14  15
ATOM     15  C   UNL     1      28.551  -2.471   0.229  1.00  0.00     0.000 C 
BRANCH  15  16
ATOM     16  C   UNL     1      28.778  -3.024  -1.189  1.00  0.00    -0.000 C 
BRANCH  16  17
ATOM     17  C   UNL     1      28.333  -2.050  -2.290  1.00  0.00    -0.003 C 
ATOM     18  C   UNL     1      29.514  -1.626  -3.159  1.00  0.00     0.004 C 
ENDBRANCH  16  17
ENDBRANCH  15  16
ENDBRANCH  14  15
ENDBRANCH  13  14
ENDBRANCH  12  13
ENDBRANCH  10  11
ENDBRANCH   1  10
TORSDOF 13
ENDMDL
MODEL 7
REMARK VINA RESULT:    -3.043      3.361      5.652
REMARK INTER + INTRA:          -7.954
REMARK INTER:                  -5.319
REMARK INTRA:                  -2.635
REMARK UNBOUND:                -2.599
REMARK SMILES CCCCCCC=CCCCCCCCC(=O)[O-]
REMARK SMILES IDX 10 1 11 2 12 3 13 4 14 5 15 6 16 7 17 8 18 9 9 10 8 11 7 12
REMARK SMILES IDX 6 13 5 14 4 15 3 16 2 17 1 18
REMARK H PARENT
REMARK Flexibility Score: inf
ROOT
ATOM      1  C   UNL     1      32.313  -0.348   0.298  1.00  0.00     0.004 C 
ENDROOT
BRANCH   1   2
ATOM      2  C   UNL     1      31.267   0.669   0.783  1.00  0.00     0.000 C 
BRANCH   2   3
ATOM      3  C   UNL     1      30.491   1.316  -0.377  1.00  0.00     0.000 C 
BRANCH   3   4
ATOM      4  C   UNL     1      28.970   1.281  -0.163  1.00  0.00     0.000 C 
BRANCH   4   5
ATOM      5  C   UNL     1      28.189   1.053  -1.467  1.00  0.00     0.006 C 
BRANCH   5   6
ATOM      6  C   UNL     1      26.835   1.767  -1.425  1.00  0.00     0.053 C 
BRANCH   6   7
ATOM      7  C   UNL     1      25.716   0.774  -1.418  1.00  0.00     0.041 C 
ATOM      8  O   UNL     1      25.511   0.058  -0.403  1.00  0.00    -0.550 OA
ATOM      9  O   UNL     1      24.919   0.615  -2.546  1.00  0.00    -0.550 OA
ENDBRANCH   6   7
ENDBRANCH   5   6
ENDBRANCH   4   5
ENDBRANCH   3   4
ENDBRANCH   2   3
ENDBRANCH   1   2
BRANCH   1  10
ATOM     10  C   UNL     1      32.313  -0.513  -1.229  1.00  0.00     0.027 C 
BRANCH  10  11
ATOM     11  C   UNL     1      32.300  -1.973  -1.611  1.00  0.00    -0.031 C 
ATOM     12  C   UNL     1      31.183  -2.698  -1.791  1.00  0.00    -0.031 C 
BRANCH  12  13
ATOM     13  C   UNL     1      29.789  -2.126  -1.677  1.00  0.00     0.027 C 
BRANCH  13  14
ATOM     14  C   UNL     1      28.939  -2.933  -0.686  1.00  0.00     0.004 C 
BRANCH  14  15
ATOM     15  C   UNL     1      28.682  -2.185   0.635  1.00  0.00     0.000 C 
BRANCH  15  16
ATOM     16  C   UNL     1      29.670  -2.508   1.770  1.00  0.00    -0.000 C 
BRANCH  16  17
ATOM     17  C   UNL     1      30.321  -3.890   1.622  1.00  0.00    -0.003 C 
ATOM     18  C   UNL     1      31.843  -3.792   1.690  1.00  0.00     0.004 C 
ENDBRANCH  16  17
ENDBRANCH  15  16
ENDBRANCH  14  15
ENDBRANCH  13  14
ENDBRANCH  12  13
ENDBRANCH  10  11
ENDBRANCH   1  10
TORSDOF 13
ENDMDL
MODEL 8
REMARK VINA RESULT:    -3.033      4.165      6.507
REMARK INTER + INTRA:          -7.936
REMARK INTER:                  -5.645
REMARK INTRA:                  -2.291
REMARK UNBOUND:                -2.599
REMARK SMILES CCCCCCC=CCCCCCCCC(=O)[O-]
REMARK SMILES IDX 10 1 11 2 12 3 13 4 14 5 15 6 16 7 17 8 18 9 9 10 8 11 7 12
REMARK SMILES IDX 6 13 5 14 4 15 3 16 2 17 1 18
REMARK H PARENT
REMARK Flexibility Score: inf
ROOT
ATOM      1  C   UNL     1      29.286   2.652  -0.926  1.00  0.00     0.004 C 
ENDROOT
BRANCH   1   2
ATOM      2  C   UNL     1      27.863   3.000  -0.460  1.00  0.00     0.000 C 
BRANCH   2   3
ATOM      3  C   UNL     1      27.087   3.827  -1.500  1.00  0.00     0.000 C 
BRANCH   3   4
ATOM      4  C   UNL     1      26.305   2.950  -2.490  1.00  0.00     0.000 C 
BRANCH   4   5
ATOM      5  C   UNL     1      25.377   1.945  -1.791  1.00  0.00     0.006 C 
BRANCH   5   6
ATOM      6  C   UNL     1      24.900   0.869  -2.770  1.00  0.00     0.053 C 
BRANCH   6   7
ATOM      7  C   UNL     1      23.437   1.016  -3.045  1.00  0.00     0.041 C 
ATOM      8  O   UNL     1      22.773   1.919  -2.471  1.00  0.00    -0.550 OA
ATOM      9  O   UNL     1      22.798   0.135  -3.909  1.00  0.00    -0.550 OA
ENDBRANCH   6   7
ENDBRANCH   5   6
ENDBRANCH   4   5
ENDBRANCH   3   4
ENDBRANCH   2   3
ENDBRANCH   1   2
BRANCH   1  10
ATOM     10  C   UNL     1      29.651   1.183  -0.665  1.00  0.00     0.027 C 
BRANCH  10  11
ATOM     11  C   UNL     1      28.946   0.274  -1.642  1.00  0.00    -0.031 C 
ATOM     12  C   UNL     1      27.980  -0.597  -1.302  1.00  0.00    -0.031 C 
BRANCH  12  13
ATOM     13  C   UNL     1      27.443  -0.743   0.102  1.00  0.00     0.027 C 
BRANCH  13  14
ATOM     14  C   UNL     1      27.268  -2.221   0.477  1.00  0.00     0.004 C 
BRANCH  14  15
ATOM     15  C   UNL     1      28.607  -2.944   0.715  1.00  0.00     0.000 C 
BRANCH  15  16
ATOM     16  C   UNL     1      29.554  -2.251   1.711  1.00  0.00    -0.000 C 
BRANCH  16  17
ATOM     17  C   UNL     1      30.919  -1.908   1.099  1.00  0.00    -0.003 C 
ATOM     18  C   UNL     1      31.071  -2.527  -0.288  1.00  0.00     0.004 C 
ENDBRANCH  16  17
ENDBRANCH  15  16
ENDBRANCH  14  15
ENDBRANCH  13  14
ENDBRANCH  12  13
ENDBRANCH  10  11
ENDBRANCH   1  10
TORSDOF 13
ENDMDL
MODEL 9
REMARK VINA RESULT:    -3.016      3.309      5.987
REMARK INTER + INTRA:          -7.907
REMARK INTER:                  -5.318
REMARK INTRA:                  -2.589
REMARK UNBOUND:                -2.599
REMARK SMILES CCCCCCC=CCCCCCCCC(=O)[O-]
REMARK SMILES IDX 10 1 11 2 12 3 13 4 14 5 15 6 16 7 17 8 18 9 9 10 8 11 7 12
REMARK SMILES IDX 6 13 5 14 4 15 3 16 2 17 1 18
REMARK H PARENT
REMARK Flexibility Score: inf
ROOT
ATOM      1  C   UNL     1      30.858  -4.538   1.270  1.00  0.00     0.004 C 
ENDROOT
BRANCH   1   2
ATOM      2  C   UNL     1      29.514  -3.797   1.365  1.00  0.00     0.000 C 
BRANCH   2   3
ATOM      3  C   UNL     1      29.668  -2.364   1.902  1.00  0.00     0.000 C 
BRANCH   3   4
ATOM      4  C   UNL     1      29.110  -1.308   0.936  1.00  0.00     0.000 C 
BRANCH   4   5
ATOM      5  C   UNL     1      27.721  -1.674   0.389  1.00  0.00     0.006 C 
BRANCH   5   6
ATOM      6  C   UNL     1      27.385  -0.841  -0.850  1.00  0.00     0.053 C 
BRANCH   6   7
ATOM      7  C   UNL     1      26.290   0.133  -0.551  1.00  0.00     0.041 C 
ATOM      8  O   UNL     1      26.168   0.612   0.607  1.00  0.00    -0.550 OA
ATOM      9  O   UNL     1      25.382   0.486  -1.542  1.00  0.00    -0.550 OA
ENDBRANCH   6   7
ENDBRANCH   5   6
ENDBRANCH   4   5
ENDBRANCH   3   4
ENDBRANCH   2   3
ENDBRANCH   1   2
BRANCH   1  10
ATOM     10  C   UNL     1      32.041  -3.680   1.742  1.00  0.00     0.027 C 
BRANCH  10  11
ATOM     11  C   UNL     1      33.147  -3.681   0.715  1.00  0.00    -0.031 C 
ATOM     12  C   UNL     1      33.451  -2.632  -0.069  1.00  0.00    -0.031 C 
BRANCH  12  13
ATOM     13  C   UNL     1      32.750  -1.297   0.011  1.00  0.00     0.027 C 
BRANCH  13  14
ATOM     14  C   UNL     1      32.474  -0.730  -1.389  1.00  0.00     0.004 C 
BRANCH  14  15
ATOM     15  C   UNL     1      31.048  -1.026  -1.887  1.00  0.00     0.000 C 
BRANCH  15  16
ATOM     16  C   UNL     1      30.934  -2.193  -2.885  1.00  0.00    -0.000 C 
BRANCH  16  17
ATOM     17  C   UNL     1      30.545  -3.518  -2.215  1.00  0.00    -0.003 C 
ATOM     18  C   UNL     1      29.059  -3.813  -2.402  1.00  0.00     0.004 C 
ENDBRANCH  16  17
ENDBRANCH  15  16
ENDBRANCH  14  15
ENDBRANCH  13  14
ENDBRANCH  12  13
ENDBRANCH  10  11
ENDBRANCH   1  10
TORSDOF 13
ENDMDL
