MODEL 1
REMARK VINA RESULT:    -3.901      0.000      0.000
REMARK INTER + INTRA:          -4.052
REMARK INTER:                  -4.814
REMARK INTRA:                   0.761
REMARK UNBOUND:                 0.761
REMARK SMILES CC1=CC=CC(C)(C)CC1=O
REMARK SMILES IDX 1 1 2 2 3 3 10 4 11 5 9 6 4 8 5 9 6 10 7 11 8 12
REMARK H PARENT
REMARK Flexibility Score: 80.00
ROOT
ATOM      1  C   UNL     1     -17.927  13.716 -30.537  1.00  0.00     0.048 C 
ATOM      2  C   UNL     1     -16.450  13.801 -30.844  1.00  0.00    -0.008 C 
ATOM      3  C   UNL     1     -15.590  13.322 -29.921  1.00  0.00     0.007 C 
ENDROOT
BRANCH   2   4
ATOM      4  C   UNL     1     -16.061  14.477 -32.107  1.00  0.00     0.159 C 
ATOM      5  O   UNL     1     -16.938  15.116 -32.751  1.00  0.00    -0.295 OA
BRANCH   4   6
ATOM      6  C   UNL     1     -14.675  14.431 -32.676  1.00  0.00     0.091 CG0
ATOM      7  G   UNL     1     -13.609  15.027 -31.730  1.00  0.00     0.000 G0
ENDBRANCH   4   6
ENDBRANCH   2   4
BRANCH   3   8
ATOM      8  C   UNL     1     -14.109  13.290 -29.926  1.00  0.00    -0.003 C 
ATOM      9  C   UNL     1     -13.251  14.004 -30.666  1.00  0.00    -0.020 C 
BRANCH   9  10
ATOM     10  C   UNL     1     -13.610  15.022 -31.724  1.00  0.00    -0.010 CG0
ATOM     11  C   UNL     1     -12.344  15.322 -32.557  1.00  0.00     0.016 C 
ATOM     12  C   UNL     1     -14.066  16.339 -31.055  1.00  0.00     0.016 C 
ATOM     13  G   UNL     1     -14.680  14.433 -32.670  1.00  0.00     0.000 G0
ENDBRANCH   9  10
ENDBRANCH   3   8
TORSDOF 0
ENDMDL
MODEL 2
REMARK VINA RESULT:    -3.798     10.171     12.205
REMARK INTER + INTRA:          -3.924
REMARK INTER:                  -4.680
REMARK INTRA:                   0.755
REMARK UNBOUND:                 0.761
REMARK SMILES CC1=CC=CC(C)(C)CC1=O
REMARK SMILES IDX 1 1 2 2 3 3 10 4 11 5 9 6 4 8 5 9 6 10 7 11 8 12
REMARK H PARENT
REMARK Flexibility Score: 80.00
ROOT
ATOM      1  C   UNL     1     -23.893  14.927 -30.496  1.00  0.00     0.048 C 
ATOM      2  C   UNL     1     -24.868  13.911 -29.950  1.00  0.00    -0.008 C 
ATOM      3  C   UNL     1     -24.359  12.803 -29.372  1.00  0.00     0.007 C 
ENDROOT
BRANCH   2   4
ATOM      4  C   UNL     1     -26.313  14.179 -30.163  1.00  0.00     0.159 C 
ATOM      5  O   UNL     1     -26.651  15.116 -30.937  1.00  0.00    -0.295 OA
BRANCH   4   6
ATOM      6  C   UNL     1     -27.405  13.401 -29.493  1.00  0.00     0.091 CG0
ATOM      7  G   UNL     1     -27.361  11.890 -29.814  1.00  0.00     0.000 G0
ENDBRANCH   4   6
ENDBRANCH   2   4
BRANCH   3   8
ATOM      8  C   UNL     1     -25.051  11.635 -28.779  1.00  0.00    -0.003 C 
ATOM      9  C   UNL     1     -26.312  11.221 -28.956  1.00  0.00    -0.020 C 
BRANCH   9  10
ATOM     10  C   UNL     1     -27.364  11.889 -29.811  1.00  0.00    -0.010 CG0
ATOM     11  C   UNL     1     -28.740  11.290 -29.442  1.00  0.00     0.016 C 
ATOM     12  C   UNL     1     -27.098  11.590 -31.304  1.00  0.00     0.016 C 
ATOM     13  G   UNL     1     -27.400  13.402 -29.503  1.00  0.00     0.000 G0
ENDBRANCH   9  10
ENDBRANCH   3   8
TORSDOF 0
ENDMDL
MODEL 3
REMARK VINA RESULT:    -3.756      2.308      4.196
REMARK INTER + INTRA:          -3.873
REMARK INTER:                  -4.627
REMARK INTRA:                   0.754
REMARK UNBOUND:                 0.761
REMARK SMILES CC1=CC=CC(C)(C)CC1=O
REMARK SMILES IDX 1 1 2 2 3 3 10 4 11 5 9 6 4 8 5 9 6 10 7 11 8 12
REMARK H PARENT
REMARK Flexibility Score: 80.00
ROOT
ATOM      1  C   UNL     1     -13.145  16.077 -30.262  1.00  0.00     0.048 C 
ATOM      2  C   UNL     1     -14.301  15.143 -30.530  1.00  0.00    -0.008 C 
ATOM      3  C   UNL     1     -15.168  15.484 -31.506  1.00  0.00     0.007 C 
ENDROOT
BRANCH   2   4
ATOM      4  C   UNL     1     -14.432  13.959 -29.644  1.00  0.00     0.159 C 
ATOM      5  O   UNL     1     -13.711  13.888 -28.611  1.00  0.00    -0.295 OA
BRANCH   4   6
ATOM      6  C   UNL     1     -15.371  12.823 -29.917  1.00  0.00     0.091 CG0
ATOM      7  G   UNL     1     -16.852  13.259 -29.980  1.00  0.00     0.000 G0
ENDBRANCH   4   6
ENDBRANCH   2   4
BRANCH   3   8
ATOM      8  C   UNL     1     -16.394  14.795 -31.975  1.00  0.00    -0.003 C 
ATOM      9  C   UNL     1     -17.128  13.863 -31.354  1.00  0.00    -0.020 C 
BRANCH   9  10
ATOM     10  C   UNL     1     -16.852  13.260 -29.997  1.00  0.00    -0.010 CG0
ATOM     11  C   UNL     1     -17.725  11.994 -29.842  1.00  0.00     0.016 C 
ATOM     12  C   UNL     1     -17.255  14.256 -28.885  1.00  0.00     0.016 C 
ATOM     13  G   UNL     1     -15.369  12.835 -29.908  1.00  0.00     0.000 G0
ENDBRANCH   9  10
ENDBRANCH   3   8
TORSDOF 0
ENDMDL
MODEL 4
REMARK VINA RESULT:    -3.478      1.558      2.253
REMARK INTER + INTRA:          -3.530
REMARK INTER:                  -4.279
REMARK INTRA:                   0.749
REMARK UNBOUND:                 0.761
REMARK SMILES CC1=CC=CC(C)(C)CC1=O
REMARK SMILES IDX 1 1 2 2 3 3 10 4 11 5 9 6 4 8 5 9 6 10 7 11 8 12
REMARK H PARENT
REMARK Flexibility Score: 80.00
ROOT
ATOM      1  C   UNL     1     -17.134  13.593 -30.515  1.00  0.00     0.048 C 
ATOM      2  C   UNL     1     -15.763  14.223 -30.595  1.00  0.00    -0.008 C 
ATOM      3  C   UNL     1     -15.684  15.565 -30.478  1.00  0.00     0.007 C 
ENDROOT
BRANCH   2   4
ATOM      4  C   UNL     1     -14.620  13.318 -30.872  1.00  0.00     0.159 C 
ATOM      5  O   UNL     1     -14.854  12.132 -31.231  1.00  0.00    -0.295 OA
BRANCH   4   6
ATOM      6  C   UNL     1     -13.186  13.733 -30.735  1.00  0.00     0.091 CG0
ATOM      7  G   UNL     1     -12.801  14.908 -31.662  1.00  0.00     0.000 G0
ENDBRANCH   4   6
ENDBRANCH   2   4
BRANCH   3   8
ATOM      8  C   UNL     1     -14.503  16.458 -30.541  1.00  0.00    -0.003 C 
ATOM      9  C   UNL     1     -13.285  16.213 -31.042  1.00  0.00    -0.020 C 
BRANCH   9  10
ATOM     10  C   UNL     1     -12.811  14.916 -31.655  1.00  0.00    -0.010 CG0
ATOM     11  C   UNL     1     -11.269  14.962 -31.752  1.00  0.00     0.016 C 
ATOM     12  C   UNL     1     -13.376  14.771 -33.086  1.00  0.00     0.016 C 
ATOM     13  G   UNL     1     -13.199  13.735 -30.737  1.00  0.00     0.000 G0
ENDBRANCH   9  10
ENDBRANCH   3   8
TORSDOF 0
ENDMDL
MODEL 5
REMARK VINA RESULT:    -3.463      1.570      3.546
REMARK INTER + INTRA:          -3.512
REMARK INTER:                  -4.271
REMARK INTRA:                   0.759
REMARK UNBOUND:                 0.761
REMARK SMILES CC1=CC=CC(C)(C)CC1=O
REMARK SMILES IDX 1 1 2 2 3 3 10 4 11 5 9 6 4 8 5 9 6 10 7 11 8 12
REMARK H PARENT
REMARK Flexibility Score: 80.00
ROOT
ATOM      1  C   UNL     1     -11.267  14.365 -33.737  1.00  0.00     0.048 C 
ATOM      2  C   UNL     1     -12.218  14.642 -32.596  1.00  0.00    -0.008 C 
ATOM      3  C   UNL     1     -11.687  14.813 -31.367  1.00  0.00     0.007 C 
ENDROOT
BRANCH   2   4
ATOM      4  C   UNL     1     -13.669  14.629 -32.909  1.00  0.00     0.159 C 
ATOM      5  O   UNL     1     -14.046  14.201 -34.034  1.00  0.00    -0.295 OA
BRANCH   4   6
ATOM      6  C   UNL     1     -14.722  15.114 -31.960  1.00  0.00     0.091 CG0
ATOM      7  G   UNL     1     -14.733  14.348 -30.618  1.00  0.00     0.000 G0
ENDBRANCH   4   6
ENDBRANCH   2   4
BRANCH   3   8
ATOM      8  C   UNL     1     -12.355  15.069 -30.069  1.00  0.00    -0.003 C 
ATOM      9  C   UNL     1     -13.635  14.875 -29.726  1.00  0.00    -0.020 C 
BRANCH   9  10
ATOM     10  C   UNL     1     -14.736  14.358 -30.622  1.00  0.00    -0.010 CG0
ATOM     11  C   UNL     1     -16.091  14.637 -29.934  1.00  0.00     0.016 C 
ATOM     12  C   UNL     1     -14.597  12.829 -30.800  1.00  0.00     0.016 C 
ATOM     13  G   UNL     1     -14.714  15.120 -31.966  1.00  0.00     0.000 G0
ENDBRANCH   9  10
ENDBRANCH   3   8
TORSDOF 0
ENDMDL
MODEL 6
REMARK VINA RESULT:    -3.433      1.733      3.481
REMARK INTER + INTRA:          -3.475
REMARK INTER:                  -4.226
REMARK INTRA:                   0.752
REMARK UNBOUND:                 0.761
REMARK SMILES CC1=CC=CC(C)(C)CC1=O
REMARK SMILES IDX 1 1 2 2 3 3 10 4 11 5 9 6 4 8 5 9 6 10 7 11 8 12
REMARK H PARENT
REMARK Flexibility Score: 80.00
ROOT
ATOM      1  C   UNL     1     -11.653  15.381 -30.143  1.00  0.00     0.048 C 
ATOM      2  C   UNL     1     -13.013  14.727 -30.210  1.00  0.00    -0.008 C 
ATOM      3  C   UNL     1     -13.073  13.390 -30.039  1.00  0.00     0.007 C 
ENDROOT
BRANCH   2   4
ATOM      4  C   UNL     1     -14.168  15.602 -30.535  1.00  0.00     0.159 C 
ATOM      5  O   UNL     1     -13.948  16.783 -30.920  1.00  0.00    -0.295 OA
BRANCH   4   6
ATOM      6  C   UNL     1     -15.596  15.163 -30.416  1.00  0.00     0.091 CG0
ATOM      7  G   UNL     1     -15.929  13.932 -31.289  1.00  0.00     0.000 G0
ENDBRANCH   4   6
ENDBRANCH   2   4
BRANCH   3   8
ATOM      8  C   UNL     1     -14.240  12.477 -30.077  1.00  0.00    -0.003 C 
ATOM      9  C   UNL     1     -15.455  12.680 -30.604  1.00  0.00    -0.020 C 
BRANCH   9  10
ATOM     10  C   UNL     1     -15.940  13.941 -31.281  1.00  0.00    -0.010 CG0
ATOM     11  C   UNL     1     -17.479  13.866 -31.398  1.00  0.00     0.016 C 
ATOM     12  C   UNL     1     -15.356  14.030 -32.710  1.00  0.00     0.016 C 
ATOM     13  G   UNL     1     -15.583  15.168 -30.413  1.00  0.00     0.000 G0
ENDBRANCH   9  10
ENDBRANCH   3   8
TORSDOF 0
ENDMDL
MODEL 7
REMARK VINA RESULT:    -3.371      1.777      3.526
REMARK INTER + INTRA:          -3.398
REMARK INTER:                  -4.145
REMARK INTRA:                   0.746
REMARK UNBOUND:                 0.761
REMARK SMILES CC1=CC=CC(C)(C)CC1=O
REMARK SMILES IDX 1 1 2 2 3 3 10 4 11 5 9 6 4 8 5 9 6 10 7 11 8 12
REMARK H PARENT
REMARK Flexibility Score: 80.00
ROOT
ATOM      1  C   UNL     1     -13.368  16.468 -32.271  1.00  0.00     0.048 C 
ATOM      2  C   UNL     1     -13.790  15.601 -31.108  1.00  0.00    -0.008 C 
ATOM      3  C   UNL     1     -12.824  15.153 -30.279  1.00  0.00     0.007 C 
ENDROOT
BRANCH   2   4
ATOM      4  C   UNL     1     -15.229  15.249 -31.016  1.00  0.00     0.159 C 
ATOM      5  O   UNL     1     -15.984  15.510 -31.993  1.00  0.00    -0.295 OA
BRANCH   4   6
ATOM      6  C   UNL     1     -15.847  14.607 -29.811  1.00  0.00     0.091 CG0
ATOM      7  G   UNL     1     -15.217  13.240 -29.459  1.00  0.00     0.000 G0
ENDBRANCH   4   6
ENDBRANCH   2   4
BRANCH   3   8
ATOM      8  C   UNL     1     -12.923  14.278 -29.087  1.00  0.00    -0.003 C 
ATOM      9  C   UNL     1     -13.916  13.456 -28.723  1.00  0.00    -0.020 C 
BRANCH   9  10
ATOM     10  C   UNL     1     -15.220  13.245 -29.456  1.00  0.00    -0.010 CG0
ATOM     11  C   UNL     1     -16.199  12.520 -28.505  1.00  0.00     0.016 C 
ATOM     12  C   UNL     1     -14.993  12.340 -30.688  1.00  0.00     0.016 C 
ATOM     13  G   UNL     1     -15.836  14.613 -29.827  1.00  0.00     0.000 G0
ENDBRANCH   9  10
ENDBRANCH   3   8
TORSDOF 0
ENDMDL
MODEL 8
REMARK VINA RESULT:    -3.361      2.236      3.605
REMARK INTER + INTRA:          -3.386
REMARK INTER:                  -4.142
REMARK INTRA:                   0.756
REMARK UNBOUND:                 0.761
REMARK SMILES CC1=CC=CC(C)(C)CC1=O
REMARK SMILES IDX 1 1 2 2 3 3 10 4 11 5 9 6 4 8 5 9 6 10 7 11 8 12
REMARK H PARENT
REMARK Flexibility Score: 80.00
ROOT
ATOM      1  C   UNL     1     -12.000  14.096 -27.319  1.00  0.00     0.048 C 
ATOM      2  C   UNL     1     -12.427  14.176 -28.765  1.00  0.00    -0.008 C 
ATOM      3  C   UNL     1     -11.696  14.953 -29.591  1.00  0.00     0.007 C 
ENDROOT
BRANCH   2   4
ATOM      4  C   UNL     1     -13.665  13.450 -29.145  1.00  0.00     0.159 C 
ATOM      5  O   UNL     1     -14.407  12.992 -28.233  1.00  0.00    -0.295 OA
BRANCH   4   6
ATOM      6  C   UNL     1     -14.081  13.213 -30.565  1.00  0.00     0.091 CG0
ATOM      7  G   UNL     1     -14.324  14.519 -31.354  1.00  0.00     0.000 G0
ENDBRANCH   4   6
ENDBRANCH   2   4
BRANCH   3   8
ATOM      8  C   UNL     1     -11.880  15.247 -31.032  1.00  0.00    -0.003 C 
ATOM      9  C   UNL     1     -12.970  15.089 -31.794  1.00  0.00    -0.020 C 
BRANCH   9  10
ATOM     10  C   UNL     1     -14.301  14.529 -31.350  1.00  0.00    -0.010 CG0
ATOM     11  C   UNL     1     -15.130  14.192 -32.610  1.00  0.00     0.016 C 
ATOM     12  C   UNL     1     -15.077  15.592 -30.539  1.00  0.00     0.016 C 
ATOM     13  G   UNL     1     -14.078  13.221 -30.559  1.00  0.00     0.000 G0
ENDBRANCH   9  10
ENDBRANCH   3   8
TORSDOF 0
ENDMDL
MODEL 9
REMARK VINA RESULT:    -3.355      1.994      3.970
REMARK INTER + INTRA:          -3.378
REMARK INTER:                  -4.408
REMARK INTRA:                   1.030
REMARK UNBOUND:                 0.761
REMARK SMILES CC1=CC=CC(C)(C)CC1=O
REMARK SMILES IDX 1 1 2 2 3 3 10 4 11 5 9 6 4 8 5 9 6 10 7 11 8 12
REMARK H PARENT
REMARK Flexibility Score: 80.00
ROOT
ATOM      1  C   UNL     1     -11.217  15.470 -33.101  1.00  0.00     0.048 C 
ATOM      2  C   UNL     1     -12.392  15.336 -32.161  1.00  0.00    -0.008 C 
ATOM      3  C   UNL     1     -13.175  16.420 -31.980  1.00  0.00     0.007 C 
ENDROOT
BRANCH   2   4
ATOM      4  C   UNL     1     -12.547  14.040 -31.454  1.00  0.00     0.159 C 
ATOM      5  O   UNL     1     -11.903  13.038 -31.870  1.00  0.00    -0.295 OA
BRANCH   4   6
ATOM      6  C   UNL     1     -13.444  13.847 -30.269  1.00  0.00     0.091 CG0
ATOM      7  G   UNL     1     -14.925  14.171 -30.567  1.00  0.00     0.000 G0
ENDBRANCH   4   6
ENDBRANCH   2   4
BRANCH   3   8
ATOM      8  C   UNL     1     -14.364  16.601 -31.114  1.00  0.00    -0.003 C 
ATOM      9  C   UNL     1     -15.108  15.675 -30.496  1.00  0.00    -0.020 C 
BRANCH   9  10
ATOM     10  C   UNL     1     -14.914  14.178 -30.562  1.00  0.00    -0.010 CG0
ATOM     11  C   UNL     1     -15.258  13.707 -31.993  1.00  0.00     0.016 C 
ATOM     12  C   UNL     1     -15.883  13.477 -29.583  1.00  0.00     0.016 C 
ATOM     13  G   UNL     1     -13.434  13.833 -30.285  1.00  0.00     0.000 G0
ENDBRANCH   9  10
ENDBRANCH   3   8
TORSDOF 0
ENDMDL
