MODEL 1
REMARK VINA RESULT:    -6.763      0.000      0.000
REMARK INTER + INTRA:          -7.671
REMARK INTER:                  -7.553
REMARK INTRA:                  -0.118
REMARK UNBOUND:                -0.118
REMARK SMILES CC1(C)CC[C@@]2(CO)CC=C3[C@]4(C)CC[C@H]5C(C)(C)[C@@H](O)CC[C@@]5(C)[C@@H]4CC[C@@]3(C)[C@@H]2C1
REMARK SMILES IDX 1 1 2 2 4 3 5 4 6 5 9 6 10 7 11 8 12 9 14 10 15 11 16 12
REMARK SMILES IDX 17 13 20 14 22 15 23 16 24 17 26 18 27 19 28 20 29 21 31 22
REMARK SMILES IDX 32 23 30 24 25 25 18 26 19 27 13 28 3 29 7 30 8 31 21 33
REMARK H PARENT 8 32 21 34
REMARK Flexibility Score: inf
ROOT
ATOM      1  C   UNL     1     113.654 120.118 132.116  1.00  0.00     0.011 C 
ATOM      2  C   UNL     1     114.802 121.096 131.775  1.00  0.00    -0.035 C 
ATOM      3  C   UNL     1     114.179 122.460 131.374  1.00  0.00     0.007 C 
ATOM      4  C   UNL     1     115.196 123.430 130.751  1.00  0.00     0.010 C 
ATOM      5  C   UNL     1     115.907 122.829 129.501  1.00  0.00     0.001 C 
ATOM      6  C   UNL     1     116.988 123.830 129.032  1.00  0.00     0.037 C 
ATOM      7  C   UNL     1     118.037 123.222 128.140  1.00  0.00    -0.026 C 
ATOM      8  C   UNL     1     118.595 122.008 128.405  1.00  0.00    -0.062 C 
ATOM      9  C   UNL     1     120.060 121.724 127.921  1.00  0.00    -0.008 C 
ATOM     10  C   UNL     1     119.968 121.494 126.394  1.00  0.00     0.012 C 
ATOM     11  C   UNL     1     121.275 121.063 125.734  1.00  0.00     0.006 C 
ATOM     12  C   UNL     1     121.901 119.765 126.327  1.00  0.00     0.003 C 
ATOM     13  C   UNL     1     123.233 119.353 125.539  1.00  0.00    -0.006 C 
ATOM     14  C   UNL     1     124.455 120.245 125.950  1.00  0.00     0.120 C 
ATOM     15  C   UNL     1     124.610 120.405 127.475  1.00  0.00     0.033 C 
ATOM     16  C   UNL     1     123.301 120.840 128.167  1.00  0.00     0.010 C 
ATOM     17  C   UNL     1     122.080 119.901 127.894  1.00  0.00    -0.025 C 
ATOM     18  C   UNL     1     120.720 120.442 128.587  1.00  0.00     0.005 C 
ATOM     19  C   UNL     1     119.656 119.319 128.734  1.00  0.00     0.006 C 
ATOM     20  C   UNL     1     118.454 119.771 129.557  1.00  0.00     0.012 C 
ATOM     21  C   UNL     1     117.635 120.898 128.886  1.00  0.00    -0.008 C 
ATOM     22  C   UNL     1     116.631 121.510 129.956  1.00  0.00     0.008 C 
ATOM     23  C   UNL     1     115.633 120.496 130.601  1.00  0.00     0.011 C 
ATOM     24  C   UNL     1     116.879 120.304 127.651  1.00  0.00     0.016 C 
ATOM     25  C   UNL     1     122.418 118.529 128.571  1.00  0.00     0.012 C 
ATOM     26  C   UNL     1     123.583 117.851 125.772  1.00  0.00     0.014 C 
ATOM     27  C   UNL     1     123.029 119.469 123.997  1.00  0.00     0.014 C 
ATOM     28  C   UNL     1     120.939 122.983 128.273  1.00  0.00     0.016 C 
ATOM     29  C   UNL     1     115.677 121.250 133.046  1.00  0.00     0.011 C 
ENDROOT
BRANCH   5  30
ATOM     30  C   UNL     1     114.871 122.634 128.344  1.00  0.00     0.163 C 
BRANCH  30  31
ATOM     31  O   UNL     1     114.190 123.829 128.053  1.00  0.00    -0.396 OA
ATOM     32  H   UNL     1     113.318 123.584 127.647  1.00  0.00     0.210 HD
ENDBRANCH  30  31
ENDBRANCH   5  30
BRANCH  14  33
ATOM     33  O   UNL     1     124.371 121.522 125.366  1.00  0.00    -0.393 OA
ATOM     34  H   UNL     1     124.191 121.392 124.400  1.00  0.00     0.210 HD
ENDBRANCH  14  33
TORSDOF 3
ENDMDL
MODEL 2
REMARK VINA RESULT:    -6.546      3.035      5.061
REMARK INTER + INTRA:          -7.429
REMARK INTER:                  -7.312
REMARK INTRA:                  -0.117
REMARK UNBOUND:                -0.118
REMARK SMILES CC1(C)CC[C@@]2(CO)CC=C3[C@]4(C)CC[C@H]5C(C)(C)[C@@H](O)CC[C@@]5(C)[C@@H]4CC[C@@]3(C)[C@@H]2C1
REMARK SMILES IDX 1 1 2 2 4 3 5 4 6 5 9 6 10 7 11 8 12 9 14 10 15 11 16 12
REMARK SMILES IDX 17 13 20 14 22 15 23 16 24 17 26 18 27 19 28 20 29 21 31 22
REMARK SMILES IDX 32 23 30 24 25 25 18 26 19 27 13 28 3 29 7 30 8 31 21 33
REMARK H PARENT 8 32 21 34
REMARK Flexibility Score: inf
ROOT
ATOM      1  C   UNL     1     119.231 127.292 129.103  1.00  0.00     0.011 C 
ATOM      2  C   UNL     1     118.317 126.244 128.427  1.00  0.00    -0.035 C 
ATOM      3  C   UNL     1     116.863 126.474 128.921  1.00  0.00     0.007 C 
ATOM      4  C   UNL     1     115.907 125.332 128.539  1.00  0.00     0.010 C 
ATOM      5  C   UNL     1     116.390 123.947 129.065  1.00  0.00     0.001 C 
ATOM      6  C   UNL     1     115.430 122.863 128.524  1.00  0.00     0.037 C 
ATOM      7  C   UNL     1     115.997 121.469 128.564  1.00  0.00    -0.026 C 
ATOM      8  C   UNL     1     117.278 121.200 128.189  1.00  0.00    -0.062 C 
ATOM      9  C   UNL     1     117.617 119.785 127.603  1.00  0.00    -0.008 C 
ATOM     10  C   UNL     1     117.628 118.816 128.809  1.00  0.00     0.012 C 
ATOM     11  C   UNL     1     118.074 117.394 128.480  1.00  0.00     0.006 C 
ATOM     12  C   UNL     1     119.489 117.293 127.834  1.00  0.00     0.003 C 
ATOM     13  C   UNL     1     119.901 115.767 127.580  1.00  0.00    -0.006 C 
ATOM     14  C   UNL     1     119.179 115.169 126.322  1.00  0.00     0.120 C 
ATOM     15  C   UNL     1     119.243 116.088 125.086  1.00  0.00     0.033 C 
ATOM     16  C   UNL     1     118.796 117.533 125.393  1.00  0.00     0.010 C 
ATOM     17  C   UNL     1     119.583 118.222 126.557  1.00  0.00    -0.025 C 
ATOM     18  C   UNL     1     119.029 119.709 126.880  1.00  0.00     0.005 C 
ATOM     19  C   UNL     1     120.067 120.559 127.662  1.00  0.00     0.006 C 
ATOM     20  C   UNL     1     119.631 122.015 127.799  1.00  0.00     0.012 C 
ATOM     21  C   UNL     1     118.358 122.200 128.657  1.00  0.00    -0.008 C 
ATOM     22  C   UNL     1     117.815 123.681 128.457  1.00  0.00     0.008 C 
ATOM     23  C   UNL     1     118.820 124.822 128.817  1.00  0.00     0.011 C 
ATOM     24  C   UNL     1     118.713 121.906 130.153  1.00  0.00     0.016 C 
ATOM     25  C   UNL     1     121.058 118.388 126.054  1.00  0.00     0.012 C 
ATOM     26  C   UNL     1     121.445 115.621 127.412  1.00  0.00     0.014 C 
ATOM     27  C   UNL     1     119.560 114.881 128.817  1.00  0.00     0.014 C 
ATOM     28  C   UNL     1     116.496 119.411 126.561  1.00  0.00     0.016 C 
ATOM     29  C   UNL     1     118.411 126.461 126.895  1.00  0.00     0.011 C 
ENDROOT
BRANCH   5  30
ATOM     30  C   UNL     1     116.337 123.924 130.629  1.00  0.00     0.163 C 
BRANCH  30  31
ATOM     31  O   UNL     1     115.063 124.274 131.108  1.00  0.00    -0.396 OA
ATOM     32  H   UNL     1     114.446 124.290 130.331  1.00  0.00     0.210 HD
ENDBRANCH  30  31
ENDBRANCH   5  30
BRANCH  14  33
ATOM     33  O   UNL     1     117.833 114.875 126.601  1.00  0.00    -0.393 OA
ATOM     34  H   UNL     1     117.286 115.605 126.215  1.00  0.00     0.210 HD
ENDBRANCH  14  33
TORSDOF 3
ENDMDL
MODEL 3
REMARK VINA RESULT:    -6.525      1.462      8.197
REMARK INTER + INTRA:          -7.406
REMARK INTER:                  -7.281
REMARK INTRA:                  -0.124
REMARK UNBOUND:                -0.118
REMARK SMILES CC1(C)CC[C@@]2(CO)CC=C3[C@]4(C)CC[C@H]5C(C)(C)[C@@H](O)CC[C@@]5(C)[C@@H]4CC[C@@]3(C)[C@@H]2C1
REMARK SMILES IDX 1 1 2 2 4 3 5 4 6 5 9 6 10 7 11 8 12 9 14 10 15 11 16 12
REMARK SMILES IDX 17 13 20 14 22 15 23 16 24 17 26 18 27 19 28 20 29 21 31 22
REMARK SMILES IDX 32 23 30 24 25 25 18 26 19 27 13 28 3 29 7 30 8 31 21 33
REMARK H PARENT 8 32 21 34
REMARK Flexibility Score: inf
ROOT
ATOM      1  C   UNL     1     124.626 118.655 125.777  1.00  0.00     0.011 C 
ATOM      2  C   UNL     1     123.743 119.924 125.833  1.00  0.00    -0.035 C 
ATOM      3  C   UNL     1     124.661 121.147 126.097  1.00  0.00     0.007 C 
ATOM      4  C   UNL     1     123.882 122.424 126.447  1.00  0.00     0.010 C 
ATOM      5  C   UNL     1     122.948 122.236 127.680  1.00  0.00     0.001 C 
ATOM      6  C   UNL     1     122.126 123.532 127.867  1.00  0.00     0.037 C 
ATOM      7  C   UNL     1     120.891 123.357 128.710  1.00  0.00    -0.026 C 
ATOM      8  C   UNL     1     120.064 122.286 128.564  1.00  0.00    -0.062 C 
ATOM      9  C   UNL     1     118.543 122.449 128.909  1.00  0.00    -0.008 C 
ATOM     10  C   UNL     1     118.455 122.471 130.454  1.00  0.00     0.012 C 
ATOM     11  C   UNL     1     117.036 122.486 131.013  1.00  0.00     0.006 C 
ATOM     12  C   UNL     1     116.145 121.294 130.549  1.00  0.00     0.003 C 
ATOM     13  C   UNL     1     114.696 121.355 131.229  1.00  0.00    -0.006 C 
ATOM     14  C   UNL     1     113.778 122.430 130.549  1.00  0.00     0.120 C 
ATOM     15  C   UNL     1     113.786 122.357 129.010  1.00  0.00     0.033 C 
ATOM     16  C   UNL     1     115.211 122.340 128.420  1.00  0.00     0.010 C 
ATOM     17  C   UNL     1     116.127 121.197 128.969  1.00  0.00    -0.025 C 
ATOM     18  C   UNL     1     117.629 121.267 128.368  1.00  0.00     0.005 C 
ATOM     19  C   UNL     1     118.378 119.914 128.514  1.00  0.00     0.006 C 
ATOM     20  C   UNL     1     119.716 119.916 127.780  1.00  0.00     0.012 C 
ATOM     21  C   UNL     1     120.742 120.912 128.367  1.00  0.00    -0.008 C 
ATOM     22  C   UNL     1     121.947 121.071 127.343  1.00  0.00     0.008 C 
ATOM     23  C   UNL     1     122.699 119.752 126.977  1.00  0.00     0.011 C 
ATOM     24  C   UNL     1     121.224 120.376 129.757  1.00  0.00     0.016 C 
ATOM     25  C   UNL     1     115.502 119.850 128.467  1.00  0.00     0.012 C 
ATOM     26  C   UNL     1     113.992 119.964 131.180  1.00  0.00     0.014 C 
ATOM     27  C   UNL     1     114.805 121.683 132.749  1.00  0.00     0.014 C 
ATOM     28  C   UNL     1     118.044 123.802 128.275  1.00  0.00     0.016 C 
ATOM     29  C   UNL     1     123.036 120.062 124.459  1.00  0.00     0.011 C 
ENDROOT
BRANCH   5  30
ATOM     30  C   UNL     1     123.808 122.002 128.967  1.00  0.00     0.163 C 
BRANCH  30  31
ATOM     31  O   UNL     1     124.490 123.168 129.353  1.00  0.00    -0.396 OA
ATOM     32  H   UNL     1     123.877 123.696 129.928  1.00  0.00     0.210 HD
ENDBRANCH  30  31
ENDBRANCH   5  30
BRANCH  14  33
ATOM     33  O   UNL     1     114.141 123.730 130.944  1.00  0.00    -0.393 OA
ATOM     34  H   UNL     1     113.310 124.197 131.219  1.00  0.00     0.210 HD
ENDBRANCH  14  33
TORSDOF 3
ENDMDL
MODEL 4
REMARK VINA RESULT:    -6.512      2.063      7.938
REMARK INTER + INTRA:          -7.391
REMARK INTER:                  -7.331
REMARK INTRA:                  -0.060
REMARK UNBOUND:                -0.118
REMARK SMILES CC1(C)CC[C@@]2(CO)CC=C3[C@]4(C)CC[C@H]5C(C)(C)[C@@H](O)CC[C@@]5(C)[C@@H]4CC[C@@]3(C)[C@@H]2C1
REMARK SMILES IDX 1 1 2 2 4 3 5 4 6 5 9 6 10 7 11 8 12 9 14 10 15 11 16 12
REMARK SMILES IDX 17 13 20 14 22 15 23 16 24 17 26 18 27 19 28 20 29 21 31 22
REMARK SMILES IDX 32 23 30 24 25 25 18 26 19 27 13 28 3 29 7 30 8 31 21 33
REMARK H PARENT 8 32 21 34
REMARK Flexibility Score: inf
ROOT
ATOM      1  C   UNL     1     125.913 123.283 131.433  1.00  0.00     0.011 C 
ATOM      2  C   UNL     1     125.079 122.296 130.584  1.00  0.00    -0.035 C 
ATOM      3  C   UNL     1     125.772 122.130 129.206  1.00  0.00     0.007 C 
ATOM      4  C   UNL     1     124.902 121.393 128.175  1.00  0.00     0.010 C 
ATOM      5  C   UNL     1     123.524 122.086 127.952  1.00  0.00     0.001 C 
ATOM      6  C   UNL     1     122.687 121.202 126.999  1.00  0.00     0.037 C 
ATOM      7  C   UNL     1     121.210 121.490 127.037  1.00  0.00    -0.026 C 
ATOM      8  C   UNL     1     120.544 121.691 128.208  1.00  0.00    -0.062 C 
ATOM      9  C   UNL     1     119.024 121.316 128.291  1.00  0.00    -0.008 C 
ATOM     10  C   UNL     1     118.268 122.424 127.520  1.00  0.00     0.012 C 
ATOM     11  C   UNL     1     116.747 122.326 127.592  1.00  0.00     0.006 C 
ATOM     12  C   UNL     1     116.166 122.336 129.038  1.00  0.00     0.003 C 
ATOM     13  C   UNL     1     114.565 122.293 129.019  1.00  0.00    -0.006 C 
ATOM     14  C   UNL     1     114.024 120.854 128.708  1.00  0.00     0.120 C 
ATOM     15  C   UNL     1     114.706 119.751 129.539  1.00  0.00     0.033 C 
ATOM     16  C   UNL     1     116.246 119.827 129.483  1.00  0.00     0.010 C 
ATOM     17  C   UNL     1     116.844 121.207 129.915  1.00  0.00    -0.025 C 
ATOM     18  C   UNL     1     118.456 121.253 129.773  1.00  0.00     0.005 C 
ATOM     19  C   UNL     1     119.083 122.391 130.625  1.00  0.00     0.006 C 
ATOM     20  C   UNL     1     120.606 122.319 130.648  1.00  0.00     0.012 C 
ATOM     21  C   UNL     1     121.258 122.560 129.267  1.00  0.00    -0.008 C 
ATOM     22  C   UNL     1     122.788 122.136 129.340  1.00  0.00     0.008 C 
ATOM     23  C   UNL     1     123.642 122.874 130.420  1.00  0.00     0.011 C 
ATOM     24  C   UNL     1     121.088 124.070 128.888  1.00  0.00     0.016 C 
ATOM     25  C   UNL     1     116.519 121.370 131.440  1.00  0.00     0.012 C 
ATOM     26  C   UNL     1     113.972 122.791 130.372  1.00  0.00     0.014 C 
ATOM     27  C   UNL     1     113.991 123.281 127.956  1.00  0.00     0.014 C 
ATOM     28  C   UNL     1     118.837 119.902 127.620  1.00  0.00     0.016 C 
ATOM     29  C   UNL     1     125.045 120.943 131.341  1.00  0.00     0.011 C 
ENDROOT
BRANCH   5  30
ATOM     30  C   UNL     1     123.736 123.483 127.278  1.00  0.00     0.163 C 
BRANCH  30  31
ATOM     31  O   UNL     1     124.708 123.427 126.265  1.00  0.00    -0.396 OA
ATOM     32  H   UNL     1     124.323 122.908 125.511  1.00  0.00     0.210 HD
ENDBRANCH  30  31
ENDBRANCH   5  30
BRANCH  14  33
ATOM     33  O   UNL     1     114.159 120.545 127.343  1.00  0.00    -0.393 OA
ATOM     34  H   UNL     1     114.883 119.872 127.264  1.00  0.00     0.210 HD
ENDBRANCH  14  33
TORSDOF 3
ENDMDL
MODEL 5
REMARK VINA RESULT:    -6.490      2.338      3.913
REMARK INTER + INTRA:          -7.366
REMARK INTER:                  -7.242
REMARK INTRA:                  -0.123
REMARK UNBOUND:                -0.118
REMARK SMILES CC1(C)CC[C@@]2(CO)CC=C3[C@]4(C)CC[C@H]5C(C)(C)[C@@H](O)CC[C@@]5(C)[C@@H]4CC[C@@]3(C)[C@@H]2C1
REMARK SMILES IDX 1 1 2 2 4 3 5 4 6 5 9 6 10 7 11 8 12 9 14 10 15 11 16 12
REMARK SMILES IDX 17 13 20 14 22 15 23 16 24 17 26 18 27 19 28 20 29 21 31 22
REMARK SMILES IDX 32 23 30 24 25 25 18 26 19 27 13 28 3 29 7 30 8 31 21 33
REMARK H PARENT 8 32 21 34
REMARK Flexibility Score: inf
ROOT
ATOM      1  C   UNL     1     117.568 128.054 131.756  1.00  0.00     0.011 C 
ATOM      2  C   UNL     1     117.804 127.492 130.334  1.00  0.00    -0.035 C 
ATOM      3  C   UNL     1     116.452 127.515 129.570  1.00  0.00     0.007 C 
ATOM      4  C   UNL     1     116.492 126.732 128.248  1.00  0.00     0.010 C 
ATOM      5  C   UNL     1     116.920 125.247 128.445  1.00  0.00     0.001 C 
ATOM      6  C   UNL     1     117.046 124.591 127.050  1.00  0.00     0.037 C 
ATOM      7  C   UNL     1     117.864 123.327 127.041  1.00  0.00    -0.026 C 
ATOM      8  C   UNL     1     119.037 123.221 127.725  1.00  0.00    -0.062 C 
ATOM      9  C   UNL     1     120.142 122.247 127.189  1.00  0.00    -0.008 C 
ATOM     10  C   UNL     1     119.659 120.819 127.538  1.00  0.00     0.012 C 
ATOM     11  C   UNL     1     120.660 119.712 127.224  1.00  0.00     0.006 C 
ATOM     12  C   UNL     1     122.046 119.877 127.916  1.00  0.00     0.003 C 
ATOM     13  C   UNL     1     123.012 118.644 127.582  1.00  0.00    -0.006 C 
ATOM     14  C   UNL     1     123.614 118.749 126.138  1.00  0.00     0.120 C 
ATOM     15  C   UNL     1     124.183 120.143 125.812  1.00  0.00     0.033 C 
ATOM     16  C   UNL     1     123.189 121.282 126.122  1.00  0.00     0.010 C 
ATOM     17  C   UNL     1     122.661 121.299 127.594  1.00  0.00    -0.025 C 
ATOM     18  C   UNL     1     121.572 122.471 127.845  1.00  0.00     0.005 C 
ATOM     19  C   UNL     1     121.411 122.803 129.354  1.00  0.00     0.006 C 
ATOM     20  C   UNL     1     120.535 124.031 129.582  1.00  0.00     0.012 C 
ATOM     21  C   UNL     1     119.066 123.833 129.143  1.00  0.00    -0.008 C 
ATOM     22  C   UNL     1     118.344 125.249 129.111  1.00  0.00     0.008 C 
ATOM     23  C   UNL     1     118.351 126.039 130.459  1.00  0.00     0.011 C 
ATOM     24  C   UNL     1     118.372 122.846 130.140  1.00  0.00     0.016 C 
ATOM     25  C   UNL     1     123.896 121.629 128.502  1.00  0.00     0.012 C 
ATOM     26  C   UNL     1     124.169 118.537 128.622  1.00  0.00     0.014 C 
ATOM     27  C   UNL     1     122.251 117.288 127.707  1.00  0.00     0.014 C 
ATOM     28  C   UNL     1     120.263 122.460 125.632  1.00  0.00     0.016 C 
ATOM     29  C   UNL     1     118.838 128.412 129.634  1.00  0.00     0.011 C 
ENDROOT
BRANCH   5  30
ATOM     30  C   UNL     1     115.824 124.481 129.258  1.00  0.00     0.163 C 
BRANCH  30  31
ATOM     31  O   UNL     1     114.685 124.224 128.476  1.00  0.00    -0.396 OA
ATOM     32  H   UNL     1     114.565 123.239 128.438  1.00  0.00     0.210 HD
ENDBRANCH  30  31
ENDBRANCH   5  30
BRANCH  14  33
ATOM     33  O   UNL     1     122.658 118.409 125.164  1.00  0.00    -0.393 OA
ATOM     34  H   UNL     1     123.082 118.542 124.277  1.00  0.00     0.210 HD
ENDBRANCH  14  33
TORSDOF 3
ENDMDL
MODEL 6
REMARK VINA RESULT:    -6.456      3.596      5.308
REMARK INTER + INTRA:          -7.328
REMARK INTER:                  -7.279
REMARK INTRA:                  -0.049
REMARK UNBOUND:                -0.118
REMARK SMILES CC1(C)CC[C@@]2(CO)CC=C3[C@]4(C)CC[C@H]5C(C)(C)[C@@H](O)CC[C@@]5(C)[C@@H]4CC[C@@]3(C)[C@@H]2C1
REMARK SMILES IDX 1 1 2 2 4 3 5 4 6 5 9 6 10 7 11 8 12 9 14 10 15 11 16 12
REMARK SMILES IDX 17 13 20 14 22 15 23 16 24 17 26 18 27 19 28 20 29 21 31 22
REMARK SMILES IDX 32 23 30 24 25 25 18 26 19 27 13 28 3 29 7 30 8 31 21 33
REMARK H PARENT 8 32 21 34
REMARK Flexibility Score: inf
ROOT
ATOM      1  C   UNL     1     114.496 122.184 126.106  1.00  0.00     0.011 C 
ATOM      2  C   UNL     1     114.870 121.493 127.438  1.00  0.00    -0.035 C 
ATOM      3  C   UNL     1     113.682 121.658 128.424  1.00  0.00     0.007 C 
ATOM      4  C   UNL     1     114.033 121.258 129.866  1.00  0.00     0.010 C 
ATOM      5  C   UNL     1     115.251 122.052 130.427  1.00  0.00     0.001 C 
ATOM      6  C   UNL     1     115.592 121.487 131.826  1.00  0.00     0.037 C 
ATOM      7  C   UNL     1     116.980 121.827 132.299  1.00  0.00    -0.026 C 
ATOM      8  C   UNL     1     118.063 121.749 131.476  1.00  0.00    -0.062 C 
ATOM      9  C   UNL     1     119.469 121.439 132.099  1.00  0.00    -0.008 C 
ATOM     10  C   UNL     1     119.926 122.744 132.792  1.00  0.00     0.012 C 
ATOM     11  C   UNL     1     121.344 122.706 133.353  1.00  0.00     0.006 C 
ATOM     12  C   UNL     1     122.446 122.367 132.304  1.00  0.00     0.003 C 
ATOM     13  C   UNL     1     123.905 122.409 132.962  1.00  0.00    -0.006 C 
ATOM     14  C   UNL     1     124.194 121.128 133.821  1.00  0.00     0.120 C 
ATOM     15  C   UNL     1     123.828 119.815 133.102  1.00  0.00     0.033 C 
ATOM     16  C   UNL     1     122.397 119.828 132.525  1.00  0.00     0.010 C 
ATOM     17  C   UNL     1     122.101 121.018 131.553  1.00  0.00    -0.025 C 
ATOM     18  C   UNL     1     120.568 121.021 131.031  1.00  0.00     0.005 C 
ATOM     19  C   UNL     1     120.395 121.866 129.739  1.00  0.00     0.006 C 
ATOM     20  C   UNL     1     119.001 121.716 129.138  1.00  0.00     0.012 C 
ATOM     21  C   UNL     1     117.875 122.277 130.037  1.00  0.00    -0.008 C 
ATOM     22  C   UNL     1     116.474 121.774 129.480  1.00  0.00     0.008 C 
ATOM     23  C   UNL     1     116.159 122.164 128.000  1.00  0.00     0.011 C 
ATOM     24  C   UNL     1     117.972 123.839 130.049  1.00  0.00     0.016 C 
ATOM     25  C   UNL     1     123.006 120.794 130.294  1.00  0.00     0.012 C 
ATOM     26  C   UNL     1     125.011 122.565 131.873  1.00  0.00     0.014 C 
ATOM     27  C   UNL     1     124.074 123.665 133.871  1.00  0.00     0.014 C 
ATOM     28  C   UNL     1     119.293 120.260 133.129  1.00  0.00     0.016 C 
ATOM     29  C   UNL     1     115.117 119.994 127.132  1.00  0.00     0.011 C 
ENDROOT
BRANCH   5  30
ATOM     30  C   UNL     1     114.876 123.564 130.578  1.00  0.00     0.163 C 
BRANCH  30  31
ATOM     31  O   UNL     1     113.569 123.726 131.069  1.00  0.00    -0.396 OA
ATOM     32  H   UNL     1     113.268 122.845 131.414  1.00  0.00     0.210 HD
ENDBRANCH  30  31
ENDBRANCH   5  30
BRANCH  14  33
ATOM     33  O   UNL     1     123.515 121.178 135.051  1.00  0.00    -0.393 OA
ATOM     34  H   UNL     1     122.652 121.639 134.893  1.00  0.00     0.210 HD
ENDBRANCH  14  33
TORSDOF 3
ENDMDL
MODEL 7
REMARK VINA RESULT:    -6.444      1.871      2.242
REMARK INTER + INTRA:          -7.315
REMARK INTER:                  -7.198
REMARK INTRA:                  -0.117
REMARK UNBOUND:                -0.118
REMARK SMILES CC1(C)CC[C@@]2(CO)CC=C3[C@]4(C)CC[C@H]5C(C)(C)[C@@H](O)CC[C@@]5(C)[C@@H]4CC[C@@]3(C)[C@@H]2C1
REMARK SMILES IDX 1 1 2 2 4 3 5 4 6 5 9 6 10 7 11 8 12 9 14 10 15 11 16 12
REMARK SMILES IDX 17 13 20 14 22 15 23 16 24 17 26 18 27 19 28 20 29 21 31 22
REMARK SMILES IDX 32 23 30 24 25 25 18 26 19 27 13 28 3 29 7 30 8 31 21 33
REMARK H PARENT 8 32 21 34
REMARK Flexibility Score: inf
ROOT
ATOM      1  C   UNL     1     113.997 120.121 131.731  1.00  0.00     0.011 C 
ATOM      2  C   UNL     1     114.995 121.303 131.730  1.00  0.00    -0.035 C 
ATOM      3  C   UNL     1     114.245 122.575 131.252  1.00  0.00     0.007 C 
ATOM      4  C   UNL     1     115.184 123.752 130.945  1.00  0.00     0.010 C 
ATOM      5  C   UNL     1     116.266 123.392 129.883  1.00  0.00     0.001 C 
ATOM      6  C   UNL     1     117.225 124.597 129.742  1.00  0.00     0.037 C 
ATOM      7  C   UNL     1     118.548 124.255 129.110  1.00  0.00    -0.026 C 
ATOM      8  C   UNL     1     119.240 123.132 129.448  1.00  0.00    -0.062 C 
ATOM      9  C   UNL     1     120.804 123.140 129.329  1.00  0.00    -0.008 C 
ATOM     10  C   UNL     1     121.118 123.036 127.818  1.00  0.00     0.012 C 
ATOM     11  C   UNL     1     122.599 122.889 127.482  1.00  0.00     0.006 C 
ATOM     12  C   UNL     1     123.295 121.666 128.151  1.00  0.00     0.003 C 
ATOM     13  C   UNL     1     124.827 121.552 127.697  1.00  0.00    -0.006 C 
ATOM     14  C   UNL     1     125.733 122.596 128.439  1.00  0.00     0.120 C 
ATOM     15  C   UNL     1     125.494 122.641 129.961  1.00  0.00     0.033 C 
ATOM     16  C   UNL     1     124.003 122.789 130.327  1.00  0.00     0.010 C 
ATOM     17  C   UNL     1     123.073 121.689 129.717  1.00  0.00    -0.025 C 
ATOM     18  C   UNL     1     121.513 121.931 130.077  1.00  0.00     0.005 C 
ATOM     19  C   UNL     1     120.668 120.638 129.905  1.00  0.00     0.006 C 
ATOM     20  C   UNL     1     119.244 120.809 130.424  1.00  0.00     0.012 C 
ATOM     21  C   UNL     1     118.414 121.839 129.625  1.00  0.00    -0.008 C 
ATOM     22  C   UNL     1     117.092 122.177 130.441  1.00  0.00     0.008 C 
ATOM     23  C   UNL     1     116.174 120.957 130.772  1.00  0.00     0.011 C 
ATOM     24  C   UNL     1     118.092 121.240 128.215  1.00  0.00     0.016 C 
ATOM     25  C   UNL     1     123.488 120.337 130.393  1.00  0.00     0.012 C 
ATOM     26  C   UNL     1     125.382 120.115 127.940  1.00  0.00     0.014 C 
ATOM     27  C   UNL     1     124.973 121.771 126.160  1.00  0.00     0.014 C 
ATOM     28  C   UNL     1     121.330 124.491 129.945  1.00  0.00     0.016 C 
ATOM     29  C   UNL     1     115.503 121.487 133.184  1.00  0.00     0.011 C 
ENDROOT
BRANCH   5  30
ATOM     30  C   UNL     1     115.585 123.133 128.497  1.00  0.00     0.163 C 
BRANCH  30  31
ATOM     31  O   UNL     1     114.783 124.218 128.104  1.00  0.00    -0.396 OA
ATOM     32  H   UNL     1     115.345 124.818 127.548  1.00  0.00     0.210 HD
ENDBRANCH  30  31
ENDBRANCH   5  30
BRANCH  14  33
ATOM     33  O   UNL     1     125.557 123.887 127.912  1.00  0.00    -0.393 OA
ATOM     34  H   UNL     1     125.113 123.788 127.031  1.00  0.00     0.210 HD
ENDBRANCH  14  33
TORSDOF 3
ENDMDL
MODEL 8
REMARK VINA RESULT:    -6.415      2.182      3.227
REMARK INTER + INTRA:          -7.283
REMARK INTER:                  -7.165
REMARK INTRA:                  -0.118
REMARK UNBOUND:                -0.118
REMARK SMILES CC1(C)CC[C@@]2(CO)CC=C3[C@]4(C)CC[C@H]5C(C)(C)[C@@H](O)CC[C@@]5(C)[C@@H]4CC[C@@]3(C)[C@@H]2C1
REMARK SMILES IDX 1 1 2 2 4 3 5 4 6 5 9 6 10 7 11 8 12 9 14 10 15 11 16 12
REMARK SMILES IDX 17 13 20 14 22 15 23 16 24 17 26 18 27 19 28 20 29 21 31 22
REMARK SMILES IDX 32 23 30 24 25 25 18 26 19 27 13 28 3 29 7 30 8 31 21 33
REMARK H PARENT 8 32 21 34
REMARK Flexibility Score: inf
ROOT
ATOM      1  C   UNL     1     113.425 122.118 126.594  1.00  0.00     0.011 C 
ATOM      2  C   UNL     1     114.420 122.070 127.778  1.00  0.00    -0.035 C 
ATOM      3  C   UNL     1     113.965 123.107 128.840  1.00  0.00     0.007 C 
ATOM      4  C   UNL     1     115.016 123.353 129.934  1.00  0.00     0.010 C 
ATOM      5  C   UNL     1     116.387 123.813 129.354  1.00  0.00     0.001 C 
ATOM      6  C   UNL     1     117.397 123.910 130.520  1.00  0.00     0.037 C 
ATOM      7  C   UNL     1     118.838 123.904 130.083  1.00  0.00    -0.026 C 
ATOM      8  C   UNL     1     119.298 123.053 129.124  1.00  0.00    -0.062 C 
ATOM      9  C   UNL     1     120.796 122.593 129.172  1.00  0.00    -0.008 C 
ATOM     10  C   UNL     1     121.629 123.802 128.683  1.00  0.00     0.012 C 
ATOM     11  C   UNL     1     123.121 123.525 128.521  1.00  0.00     0.006 C 
ATOM     12  C   UNL     1     123.459 122.351 127.554  1.00  0.00     0.003 C 
ATOM     13  C   UNL     1     125.042 122.170 127.394  1.00  0.00    -0.006 C 
ATOM     14  C   UNL     1     125.676 121.455 128.638  1.00  0.00     0.120 C 
ATOM     15  C   UNL     1     124.905 120.194 129.078  1.00  0.00     0.033 C 
ATOM     16  C   UNL     1     123.393 120.448 129.249  1.00  0.00     0.010 C 
ATOM     17  C   UNL     1     122.687 121.038 127.984  1.00  0.00    -0.025 C 
ATOM     18  C   UNL     1     121.118 121.347 128.241  1.00  0.00     0.005 C 
ATOM     19  C   UNL     1     120.323 121.465 126.912  1.00  0.00     0.006 C 
ATOM     20  C   UNL     1     118.819 121.563 127.149  1.00  0.00     0.012 C 
ATOM     21  C   UNL     1     118.392 122.851 127.889  1.00  0.00    -0.008 C 
ATOM     22  C   UNL     1     116.886 122.692 128.371  1.00  0.00     0.008 C 
ATOM     23  C   UNL     1     115.844 122.407 127.243  1.00  0.00     0.011 C 
ATOM     24  C   UNL     1     118.569 124.069 126.921  1.00  0.00     0.016 C 
ATOM     25  C   UNL     1     122.753 119.926 126.882  1.00  0.00     0.012 C 
ATOM     26  C   UNL     1     125.391 121.370 126.102  1.00  0.00     0.014 C 
ATOM     27  C   UNL     1     125.747 123.548 127.201  1.00  0.00     0.014 C 
ATOM     28  C   UNL     1     121.138 122.211 130.662  1.00  0.00     0.016 C 
ATOM     29  C   UNL     1     114.377 120.636 128.366  1.00  0.00     0.011 C 
ENDROOT
BRANCH   5  30
ATOM     30  C   UNL     1     116.240 125.229 128.703  1.00  0.00     0.163 C 
BRANCH  30  31
ATOM     31  O   UNL     1     116.232 126.246 129.673  1.00  0.00    -0.396 OA
ATOM     32  H   UNL     1     115.295 126.559 129.769  1.00  0.00     0.210 HD
ENDBRANCH  30  31
ENDBRANCH   5  30
BRANCH  14  33
ATOM     33  O   UNL     1     125.774 122.332 129.733  1.00  0.00    -0.393 OA
ATOM     34  H   UNL     1     125.196 123.113 129.537  1.00  0.00     0.210 HD
ENDBRANCH  14  33
TORSDOF 3
ENDMDL
MODEL 9
REMARK VINA RESULT:    -6.377      8.422     11.008
REMARK INTER + INTRA:          -7.240
REMARK INTER:                  -7.153
REMARK INTRA:                  -0.086
REMARK UNBOUND:                -0.118
REMARK SMILES CC1(C)CC[C@@]2(CO)CC=C3[C@]4(C)CC[C@H]5C(C)(C)[C@@H](O)CC[C@@]5(C)[C@@H]4CC[C@@]3(C)[C@@H]2C1
REMARK SMILES IDX 1 1 2 2 4 3 5 4 6 5 9 6 10 7 11 8 12 9 14 10 15 11 16 12
REMARK SMILES IDX 17 13 20 14 22 15 23 16 24 17 26 18 27 19 28 20 29 21 31 22
REMARK SMILES IDX 32 23 30 24 25 25 18 26 19 27 13 28 3 29 7 30 8 31 21 33
REMARK H PARENT 8 32 21 34
REMARK Flexibility Score: inf
ROOT
ATOM      1  C   UNL     1     126.069 120.871 118.616  1.00  0.00     0.011 C 
ATOM      2  C   UNL     1     125.983 119.643 119.553  1.00  0.00    -0.035 C 
ATOM      3  C   UNL     1     124.530 119.098 119.511  1.00  0.00     0.007 C 
ATOM      4  C   UNL     1     124.245 118.053 120.601  1.00  0.00     0.010 C 
ATOM      5  C   UNL     1     124.526 118.593 122.036  1.00  0.00     0.001 C 
ATOM      6  C   UNL     1     124.326 117.432 123.037  1.00  0.00     0.037 C 
ATOM      7  C   UNL     1     124.977 117.661 124.375  1.00  0.00    -0.026 C 
ATOM      8  C   UNL     1     126.232 118.178 124.489  1.00  0.00    -0.062 C 
ATOM      9  C   UNL     1     127.104 117.787 125.731  1.00  0.00    -0.008 C 
ATOM     10  C   UNL     1     126.528 118.582 126.926  1.00  0.00     0.012 C 
ATOM     11  C   UNL     1     127.322 118.452 128.222  1.00  0.00     0.006 C 
ATOM     12  C   UNL     1     128.818 118.873 128.109  1.00  0.00     0.003 C 
ATOM     13  C   UNL     1     129.559 118.764 129.524  1.00  0.00    -0.006 C 
ATOM     14  C   UNL     1     129.905 117.279 129.889  1.00  0.00     0.120 C 
ATOM     15  C   UNL     1     130.567 116.503 128.733  1.00  0.00     0.033 C 
ATOM     16  C   UNL     1     129.782 116.618 127.410  1.00  0.00     0.010 C 
ATOM     17  C   UNL     1     129.527 118.087 126.933  1.00  0.00    -0.025 C 
ATOM     18  C   UNL     1     128.643 118.150 125.578  1.00  0.00     0.005 C 
ATOM     19  C   UNL     1     128.791 119.515 124.850  1.00  0.00     0.006 C 
ATOM     20  C   UNL     1     128.118 119.511 123.481  1.00  0.00     0.012 C 
ATOM     21  C   UNL     1     126.582 119.352 123.548  1.00  0.00    -0.008 C 
ATOM     22  C   UNL     1     126.035 119.029 122.091  1.00  0.00     0.008 C 
ATOM     23  C   UNL     1     126.371 120.089 120.994  1.00  0.00     0.011 C 
ATOM     24  C   UNL     1     125.964 120.671 124.123  1.00  0.00     0.016 C 
ATOM     25  C   UNL     1     130.933 118.687 126.584  1.00  0.00     0.012 C 
ATOM     26  C   UNL     1     130.862 119.622 129.546  1.00  0.00     0.014 C 
ATOM     27  C   UNL     1     128.680 119.364 130.664  1.00  0.00     0.014 C 
ATOM     28  C   UNL     1     126.973 116.231 125.945  1.00  0.00     0.016 C 
ATOM     29  C   UNL     1     126.978 118.579 119.019  1.00  0.00     0.011 C 
ENDROOT
BRANCH   5  30
ATOM     30  C   UNL     1     123.508 119.731 122.383  1.00  0.00     0.163 C 
BRANCH  30  31
ATOM     31  O   UNL     1     122.194 119.373 122.035  1.00  0.00    -0.396 OA
ATOM     32  H   UNL     1     122.151 119.319 121.045  1.00  0.00     0.210 HD
ENDBRANCH  30  31
ENDBRANCH   5  30
BRANCH  14  33
ATOM     33  O   UNL     1     128.760 116.579 130.310  1.00  0.00    -0.393 OA
ATOM     34  H   UNL     1     128.109 116.604 129.563  1.00  0.00     0.210 HD
ENDBRANCH  14  33
TORSDOF 3
ENDMDL
