MODEL 1
REMARK VINA RESULT:    -3.874      0.000      0.000
REMARK INTER + INTRA:          -4.626
REMARK INTER:                  -4.553
REMARK INTRA:                  -0.072
REMARK UNBOUND:                -0.072
REMARK SMILES O=c1c(O)c(-c2ccc(O)c(O)c2)oc2cc(O)ccc12
REMARK SMILES IDX 5 1 3 2 2 3 1 4 21 5 15 6 14 7 16 8 17 9 19 10 20 11 6 12
REMARK SMILES IDX 7 13 8 14 9 15 13 16 11 17 10 18 12 20 4 22 18 24
REMARK H PARENT 10 19 12 21 4 23 18 25
REMARK Flexibility Score: inf
ROOT
ATOM      1  C   UNL     1      -2.688  13.389 -29.059  1.00  0.00     0.180 A 
ATOM      2  C   UNL     1      -2.760  13.158 -27.670  1.00  0.00     0.208 A 
ATOM      3  C   UNL     1      -3.918  13.548 -26.979  1.00  0.00     0.235 A 
ATOM      4  O   UNL     1      -4.003  13.361 -25.734  1.00  0.00    -0.285 OA
ATOM      5  C   UNL     1      -4.978  14.136 -27.686  1.00  0.00     0.069 A 
ATOM      6  C   UNL     1      -4.837  14.312 -29.080  1.00  0.00     0.142 A 
ATOM      7  O   UNL     1      -3.721  13.938 -29.695  1.00  0.00    -0.452 OA
ATOM      8  C   UNL     1      -5.876  14.886 -29.821  1.00  0.00     0.094 A 
ATOM      9  C   UNL     1      -7.058  15.291 -29.185  1.00  0.00     0.119 A 
ATOM     10  C   UNL     1      -7.199  15.118 -27.803  1.00  0.00     0.047 A 
ATOM     11  C   UNL     1      -6.167  14.545 -27.054  1.00  0.00     0.020 A 
ENDROOT
BRANCH   1  12
ATOM     12  C   UNL     1      -1.494  13.025 -29.856  1.00  0.00     0.025 A 
ATOM     13  C   UNL     1      -0.242  13.553 -29.504  1.00  0.00     0.016 A 
ATOM     14  C   UNL     1       0.902  13.208 -30.228  1.00  0.00     0.051 A 
ATOM     15  C   UNL     1       0.815  12.319 -31.305  1.00  0.00     0.157 A 
ATOM     16  C   UNL     1      -1.576  12.116 -30.926  1.00  0.00     0.062 A 
ATOM     17  C   UNL     1      -0.428  11.767 -31.654  1.00  0.00     0.158 A 
BRANCH  15  18
ATOM     18  O   UNL     1       1.972  11.995 -32.011  1.00  0.00    -0.504 OA
ATOM     19  H   UNL     1       2.371  11.064 -31.994  1.00  0.00     0.293 HD
ENDBRANCH  15  18
BRANCH  17  20
ATOM     20  O   UNL     1      -0.519  10.869 -32.717  1.00  0.00    -0.504 OA
ATOM     21  H   UNL     1      -0.081  11.059 -33.611  1.00  0.00     0.293 HD
ENDBRANCH  17  20
ENDBRANCH   1  12
BRANCH   2  22
ATOM     22  O   UNL     1      -1.708  12.526 -27.002  1.00  0.00    -0.502 OA
ATOM     23  H   UNL     1      -0.819  12.334 -27.448  1.00  0.00     0.293 HD
ENDBRANCH   2  22
BRANCH   9  24
ATOM     24  O   UNL     1      -8.096  15.864 -29.914  1.00  0.00    -0.508 OA
ATOM     25  H   UNL     1      -7.982  16.751 -30.390  1.00  0.00     0.293 HD
ENDBRANCH   9  24
TORSDOF 5
ENDMDL
MODEL 2
REMARK VINA RESULT:    -3.415      3.642      5.319
REMARK INTER + INTRA:          -4.086
REMARK INTER:                  -4.217
REMARK INTRA:                   0.131
REMARK UNBOUND:                -0.072
REMARK SMILES O=c1c(O)c(-c2ccc(O)c(O)c2)oc2cc(O)ccc12
REMARK SMILES IDX 5 1 3 2 2 3 1 4 21 5 15 6 14 7 16 8 17 9 19 10 20 11 6 12
REMARK SMILES IDX 7 13 8 14 9 15 13 16 11 17 10 18 12 20 4 22 18 24
REMARK H PARENT 10 19 12 21 4 23 18 25
REMARK Flexibility Score: inf
ROOT
ATOM      1  C   UNL     1      -4.129  11.805 -31.250  1.00  0.00     0.180 A 
ATOM      2  C   UNL     1      -3.156  10.816 -30.996  1.00  0.00     0.208 A 
ATOM      3  C   UNL     1      -2.583  10.744 -29.716  1.00  0.00     0.235 A 
ATOM      4  O   UNL     1      -1.703   9.875 -29.467  1.00  0.00    -0.285 OA
ATOM      5  C   UNL     1      -3.006  11.639 -28.721  1.00  0.00     0.069 A 
ATOM      6  C   UNL     1      -4.002  12.584 -29.049  1.00  0.00     0.142 A 
ATOM      7  O   UNL     1      -4.512  12.625 -30.274  1.00  0.00    -0.452 OA
ATOM      8  C   UNL     1      -4.457  13.486 -28.080  1.00  0.00     0.094 A 
ATOM      9  C   UNL     1      -3.924  13.458 -26.783  1.00  0.00     0.119 A 
ATOM     10  C   UNL     1      -2.936  12.523 -26.457  1.00  0.00     0.047 A 
ATOM     11  C   UNL     1      -2.476  11.617 -27.417  1.00  0.00     0.020 A 
ENDROOT
BRANCH   1  12
ATOM     12  C   UNL     1      -4.765  11.958 -32.579  1.00  0.00     0.025 A 
ATOM     13  C   UNL     1      -4.927  13.242 -33.123  1.00  0.00     0.016 A 
ATOM     14  C   UNL     1      -5.505  13.409 -34.383  1.00  0.00     0.051 A 
ATOM     15  C   UNL     1      -5.919  12.298 -35.125  1.00  0.00     0.157 A 
ATOM     16  C   UNL     1      -5.163  10.841 -33.334  1.00  0.00     0.062 A 
ATOM     17  C   UNL     1      -5.743  11.007 -34.601  1.00  0.00     0.158 A 
BRANCH  15  18
ATOM     18  O   UNL     1      -6.496  12.496 -36.378  1.00  0.00    -0.504 OA
ATOM     19  H   UNL     1      -6.353  11.851 -37.145  1.00  0.00     0.293 HD
ENDBRANCH  15  18
BRANCH  17  20
ATOM     20  O   UNL     1      -6.139   9.894 -35.342  1.00  0.00    -0.504 OA
ATOM     21  H   UNL     1      -5.468   9.323 -35.843  1.00  0.00     0.293 HD
ENDBRANCH  17  20
ENDBRANCH   1  12
BRANCH   2  22
ATOM     22  O   UNL     1      -2.791   9.908 -31.993  1.00  0.00    -0.502 OA
ATOM     23  H   UNL     1      -1.928   9.379 -31.955  1.00  0.00     0.293 HD
ENDBRANCH   2  22
BRANCH   9  24
ATOM     24  O   UNL     1      -4.369  14.353 -25.814  1.00  0.00    -0.508 OA
ATOM     25  H   UNL     1      -3.723  14.938 -25.297  1.00  0.00     0.293 HD
ENDBRANCH   9  24
TORSDOF 5
ENDMDL
MODEL 3
REMARK VINA RESULT:    -3.085      3.808      5.852
REMARK INTER + INTRA:          -3.699
REMARK INTER:                  -3.556
REMARK INTRA:                  -0.143
REMARK UNBOUND:                -0.072
REMARK SMILES O=c1c(O)c(-c2ccc(O)c(O)c2)oc2cc(O)ccc12
REMARK SMILES IDX 5 1 3 2 2 3 1 4 21 5 15 6 14 7 16 8 17 9 19 10 20 11 6 12
REMARK SMILES IDX 7 13 8 14 9 15 13 16 11 17 10 18 12 20 4 22 18 24
REMARK H PARENT 10 19 12 21 4 23 18 25
REMARK Flexibility Score: inf
ROOT
ATOM      1  C   UNL     1      -4.263  12.636 -31.279  1.00  0.00     0.180 A 
ATOM      2  C   UNL     1      -4.535  13.973 -31.638  1.00  0.00     0.208 A 
ATOM      3  C   UNL     1      -5.086  14.235 -32.903  1.00  0.00     0.235 A 
ATOM      4  O   UNL     1      -5.329  15.422 -33.252  1.00  0.00    -0.285 OA
ATOM      5  C   UNL     1      -5.371  13.165 -33.766  1.00  0.00     0.069 A 
ATOM      6  C   UNL     1      -5.091  11.854 -33.322  1.00  0.00     0.142 A 
ATOM      7  O   UNL     1      -4.561  11.650 -32.121  1.00  0.00    -0.452 OA
ATOM      8  C   UNL     1      -5.370  10.760 -34.149  1.00  0.00     0.094 A 
ATOM      9  C   UNL     1      -5.925  10.961 -35.421  1.00  0.00     0.119 A 
ATOM     10  C   UNL     1      -6.202  12.259 -35.863  1.00  0.00     0.047 A 
ATOM     11  C   UNL     1      -5.927  13.358 -35.043  1.00  0.00     0.020 A 
ENDROOT
BRANCH   1  12
ATOM     12  C   UNL     1      -3.664  12.280 -29.972  1.00  0.00     0.025 A 
ATOM     13  C   UNL     1      -4.349  11.406 -29.115  1.00  0.00     0.016 A 
ATOM     14  C   UNL     1      -3.795  11.040 -27.886  1.00  0.00     0.051 A 
ATOM     15  C   UNL     1      -2.541  11.529 -27.501  1.00  0.00     0.157 A 
ATOM     16  C   UNL     1      -2.396  12.756 -29.594  1.00  0.00     0.062 A 
ATOM     17  C   UNL     1      -1.836  12.388 -28.360  1.00  0.00     0.158 A 
BRANCH  15  18
ATOM     18  O   UNL     1      -2.015  11.150 -26.268  1.00  0.00    -0.504 OA
ATOM     19  H   UNL     1      -1.897  10.177 -26.010  1.00  0.00     0.293 HD
ENDBRANCH  15  18
BRANCH  17  20
ATOM     20  O   UNL     1      -0.581  12.868 -27.990  1.00  0.00    -0.504 OA
ATOM     21  H   UNL     1       0.254  12.634 -28.516  1.00  0.00     0.293 HD
ENDBRANCH  17  20
ENDBRANCH   1  12
BRANCH   2  22
ATOM     22  O   UNL     1      -4.286  15.013 -30.739  1.00  0.00    -0.502 OA
ATOM     23  H   UNL     1      -3.372  15.437 -30.641  1.00  0.00     0.293 HD
ENDBRANCH   2  22
BRANCH   9  24
ATOM     24  O   UNL     1      -6.205   9.879 -36.252  1.00  0.00    -0.508 OA
ATOM     25  H   UNL     1      -5.817   8.960 -36.073  1.00  0.00     0.293 HD
ENDBRANCH   9  24
TORSDOF 5
ENDMDL
MODEL 4
REMARK VINA RESULT:    -2.615      3.515      5.798
REMARK INTER + INTRA:          -3.146
REMARK INTER:                  -2.981
REMARK INTRA:                  -0.165
REMARK UNBOUND:                -0.072
REMARK SMILES O=c1c(O)c(-c2ccc(O)c(O)c2)oc2cc(O)ccc12
REMARK SMILES IDX 5 1 3 2 2 3 1 4 21 5 15 6 14 7 16 8 17 9 19 10 20 11 6 12
REMARK SMILES IDX 7 13 8 14 9 15 13 16 11 17 10 18 12 20 4 22 18 24
REMARK H PARENT 10 19 12 21 4 23 18 25
REMARK Flexibility Score: inf
ROOT
ATOM      1  C   UNL     1      -4.084  13.213 -31.412  1.00  0.00     0.180 A 
ATOM      2  C   UNL     1      -4.743  13.876 -30.356  1.00  0.00     0.208 A 
ATOM      3  C   UNL     1      -4.025  14.160 -29.183  1.00  0.00     0.235 A 
ATOM      4  O   UNL     1      -4.594  14.743 -28.220  1.00  0.00    -0.285 OA
ATOM      5  C   UNL     1      -2.671  13.797 -29.099  1.00  0.00     0.069 A 
ATOM      6  C   UNL     1      -2.079  13.157 -30.209  1.00  0.00     0.142 A 
ATOM      7  O   UNL     1      -2.796  12.898 -31.297  1.00  0.00    -0.452 OA
ATOM      8  C   UNL     1      -0.730  12.789 -30.167  1.00  0.00     0.094 A 
ATOM      9  C   UNL     1       0.039  13.051 -29.024  1.00  0.00     0.119 A 
ATOM     10  C   UNL     1      -0.547  13.684 -27.922  1.00  0.00     0.047 A 
ATOM     11  C   UNL     1      -1.894  14.057 -27.955  1.00  0.00     0.020 A 
ENDROOT
BRANCH   1  12
ATOM     12  C   UNL     1      -4.778  12.861 -32.673  1.00  0.00     0.025 A 
ATOM     13  C   UNL     1      -5.199  13.883 -33.537  1.00  0.00     0.016 A 
ATOM     14  C   UNL     1      -5.837  13.574 -34.741  1.00  0.00     0.051 A 
ATOM     15  C   UNL     1      -6.050  12.240 -35.107  1.00  0.00     0.157 A 
ATOM     16  C   UNL     1      -4.974  11.520 -33.051  1.00  0.00     0.062 A 
ATOM     17  C   UNL     1      -5.614  11.208 -34.261  1.00  0.00     0.158 A 
BRANCH  15  18
ATOM     18  O   UNL     1      -6.692  11.963 -36.312  1.00  0.00    -0.504 OA
ATOM     19  H   UNL     1      -7.271  11.141 -36.437  1.00  0.00     0.293 HD
ENDBRANCH  15  18
BRANCH  17  20
ATOM     20  O   UNL     1      -5.810   9.877 -34.626  1.00  0.00    -0.504 OA
ATOM     21  H   UNL     1      -5.185   9.405 -35.269  1.00  0.00     0.293 HD
ENDBRANCH  17  20
ENDBRANCH   1  12
BRANCH   2  22
ATOM     22  O   UNL     1      -6.077  14.268 -30.488  1.00  0.00    -0.502 OA
ATOM     23  H   UNL     1      -6.558  14.263 -31.380  1.00  0.00     0.293 HD
ENDBRANCH   2  22
BRANCH   9  24
ATOM     24  O   UNL     1       1.382  12.687 -28.972  1.00  0.00    -0.508 OA
ATOM     25  H   UNL     1       1.679  11.823 -28.534  1.00  0.00     0.293 HD
ENDBRANCH   9  24
TORSDOF 5
ENDMDL
MODEL 5
REMARK VINA RESULT:    -2.448      5.138      7.047
REMARK INTER + INTRA:          -2.949
REMARK INTER:                  -3.326
REMARK INTRA:                   0.376
REMARK UNBOUND:                -0.072
REMARK SMILES O=c1c(O)c(-c2ccc(O)c(O)c2)oc2cc(O)ccc12
REMARK SMILES IDX 5 1 3 2 2 3 1 4 21 5 15 6 14 7 16 8 17 9 19 10 20 11 6 12
REMARK SMILES IDX 7 13 8 14 9 15 13 16 11 17 10 18 12 20 4 22 18 24
REMARK H PARENT 10 19 12 21 4 23 18 25
REMARK Flexibility Score: inf
ROOT
ATOM      1  C   UNL     1      -5.193  12.182 -33.390  1.00  0.00     0.180 A 
ATOM      2  C   UNL     1      -5.000  13.554 -33.128  1.00  0.00     0.208 A 
ATOM      3  C   UNL     1      -4.404  13.934 -31.915  1.00  0.00     0.235 A 
ATOM      4  O   UNL     1      -4.230  15.156 -31.652  1.00  0.00    -0.285 OA
ATOM      5  C   UNL     1      -3.999  12.944 -31.006  1.00  0.00     0.069 A 
ATOM      6  C   UNL     1      -4.206  11.591 -31.353  1.00  0.00     0.142 A 
ATOM      7  O   UNL     1      -4.782  11.274 -32.507  1.00  0.00    -0.452 OA
ATOM      8  C   UNL     1      -3.806  10.575 -30.478  1.00  0.00     0.094 A 
ATOM      9  C   UNL     1      -3.202  10.895 -29.253  1.00  0.00     0.119 A 
ATOM     10  C   UNL     1      -2.997  12.235 -28.907  1.00  0.00     0.047 A 
ATOM     11  C   UNL     1      -3.392  13.257 -29.775  1.00  0.00     0.020 A 
ENDROOT
BRANCH   1  12
ATOM     12  C   UNL     1      -5.831  11.702 -34.637  1.00  0.00     0.025 A 
ATOM     13  C   UNL     1      -5.697  10.355 -35.007  1.00  0.00     0.016 A 
ATOM     14  C   UNL     1      -6.307   9.875 -36.168  1.00  0.00     0.051 A 
ATOM     15  C   UNL     1      -7.073  10.729 -36.970  1.00  0.00     0.157 A 
ATOM     16  C   UNL     1      -6.617  12.555 -35.432  1.00  0.00     0.062 A 
ATOM     17  C   UNL     1      -7.233  12.074 -36.599  1.00  0.00     0.158 A 
BRANCH  15  18
ATOM     18  O   UNL     1      -7.667  10.223 -38.124  1.00  0.00    -0.504 OA
ATOM     19  H   UNL     1      -7.559   9.256 -38.406  1.00  0.00     0.293 HD
ENDBRANCH  15  18
BRANCH  17  20
ATOM     20  O   UNL     1      -8.006  12.927 -37.385  1.00  0.00    -0.504 OA
ATOM     21  H   UNL     1      -9.018  12.867 -37.397  1.00  0.00     0.293 HD
ENDBRANCH  17  20
ENDBRANCH   1  12
BRANCH   2  22
ATOM     22  O   UNL     1      -5.369  14.514 -34.073  1.00  0.00    -0.502 OA
ATOM     23  H   UNL     1      -6.332  14.799 -34.209  1.00  0.00     0.293 HD
ENDBRANCH   2  22
BRANCH   9  24
ATOM     24  O   UNL     1      -2.802   9.890 -28.375  1.00  0.00    -0.508 OA
ATOM     25  H   UNL     1      -1.824   9.660 -28.246  1.00  0.00     0.293 HD
ENDBRANCH   9  24
TORSDOF 5
ENDMDL
MODEL 6
REMARK VINA RESULT:    -2.357      1.839      6.694
REMARK INTER + INTRA:          -2.843
REMARK INTER:                  -3.179
REMARK INTRA:                   0.336
REMARK UNBOUND:                -0.072
REMARK SMILES O=c1c(O)c(-c2ccc(O)c(O)c2)oc2cc(O)ccc12
REMARK SMILES IDX 5 1 3 2 2 3 1 4 21 5 15 6 14 7 16 8 17 9 19 10 20 11 6 12
REMARK SMILES IDX 7 13 8 14 9 15 13 16 11 17 10 18 12 20 4 22 18 24
REMARK H PARENT 10 19 12 21 4 23 18 25
REMARK Flexibility Score: inf
ROOT
ATOM      1  C   UNL     1      -4.287  13.303 -29.637  1.00  0.00     0.180 A 
ATOM      2  C   UNL     1      -4.424  11.993 -29.132  1.00  0.00     0.208 A 
ATOM      3  C   UNL     1      -3.412  11.057 -29.399  1.00  0.00     0.235 A 
ATOM      4  O   UNL     1      -3.516   9.875 -28.968  1.00  0.00    -0.285 OA
ATOM      5  C   UNL     1      -2.287  11.450 -30.141  1.00  0.00     0.069 A 
ATOM      6  C   UNL     1      -2.215  12.786 -30.590  1.00  0.00     0.142 A 
ATOM      7  O   UNL     1      -3.198  13.639 -30.324  1.00  0.00    -0.452 OA
ATOM      8  C   UNL     1      -1.104  13.219 -31.323  1.00  0.00     0.094 A 
ATOM      9  C   UNL     1      -0.061  12.329 -31.617  1.00  0.00     0.119 A 
ATOM     10  C   UNL     1      -0.132  11.004 -31.173  1.00  0.00     0.047 A 
ATOM     11  C   UNL     1      -1.237  10.562 -30.439  1.00  0.00     0.020 A 
ENDROOT
BRANCH   1  12
ATOM     12  C   UNL     1      -5.319  14.342 -29.415  1.00  0.00     0.025 A 
ATOM     13  C   UNL     1      -6.100  14.301 -28.250  1.00  0.00     0.016 A 
ATOM     14  C   UNL     1      -7.065  15.282 -28.009  1.00  0.00     0.051 A 
ATOM     15  C   UNL     1      -7.255  16.326 -28.921  1.00  0.00     0.157 A 
ATOM     16  C   UNL     1      -5.497  15.403 -30.321  1.00  0.00     0.062 A 
ATOM     17  C   UNL     1      -6.465  16.391 -30.080  1.00  0.00     0.158 A 
BRANCH  15  18
ATOM     18  O   UNL     1      -8.228  17.288 -28.656  1.00  0.00    -0.504 OA
ATOM     19  H   UNL     1      -9.160  17.041 -28.347  1.00  0.00     0.293 HD
ENDBRANCH  15  18
BRANCH  17  20
ATOM     20  O   UNL     1      -6.639  17.436 -30.985  1.00  0.00    -0.504 OA
ATOM     21  H   UNL     1      -6.618  18.405 -30.688  1.00  0.00     0.293 HD
ENDBRANCH  17  20
ENDBRANCH   1  12
BRANCH   2  22
ATOM     22  O   UNL     1      -5.532  11.645 -28.356  1.00  0.00    -0.502 OA
ATOM     23  H   UNL     1      -6.427  11.408 -28.766  1.00  0.00     0.293 HD
ENDBRANCH   2  22
BRANCH   9  24
ATOM     24  O   UNL     1       1.047  12.750 -32.347  1.00  0.00    -0.508 OA
ATOM     25  H   UNL     1       1.320  12.290 -33.207  1.00  0.00     0.293 HD
ENDBRANCH   9  24
TORSDOF 5
ENDMDL
MODEL 7
REMARK VINA RESULT:    -2.055      1.240      6.610
REMARK INTER + INTRA:          -2.488
REMARK INTER:                  -2.609
REMARK INTRA:                   0.121
REMARK UNBOUND:                -0.072
REMARK SMILES O=c1c(O)c(-c2ccc(O)c(O)c2)oc2cc(O)ccc12
REMARK SMILES IDX 5 1 3 2 2 3 1 4 21 5 15 6 14 7 16 8 17 9 19 10 20 11 6 12
REMARK SMILES IDX 7 13 8 14 9 15 13 16 11 17 10 18 12 20 4 22 18 24
REMARK H PARENT 10 19 12 21 4 23 18 25
REMARK Flexibility Score: inf
ROOT
ATOM      1  C   UNL     1      -4.111  13.718 -29.029  1.00  0.00     0.180 A 
ATOM      2  C   UNL     1      -3.632  13.068 -27.873  1.00  0.00     0.208 A 
ATOM      3  C   UNL     1      -2.387  12.421 -27.927  1.00  0.00     0.235 A 
ATOM      4  O   UNL     1      -1.941  11.824 -26.910  1.00  0.00    -0.285 OA
ATOM      5  C   UNL     1      -1.645  12.453 -29.119  1.00  0.00     0.069 A 
ATOM      6  C   UNL     1      -2.184  13.145 -30.225  1.00  0.00     0.142 A 
ATOM      7  O   UNL     1      -3.370  13.736 -30.135  1.00  0.00    -0.452 OA
ATOM      8  C   UNL     1      -1.470  13.208 -31.427  1.00  0.00     0.094 A 
ATOM      9  C   UNL     1      -0.219  12.584 -31.539  1.00  0.00     0.119 A 
ATOM     10  C   UNL     1       0.316  11.897 -30.444  1.00  0.00     0.047 A 
ATOM     11  C   UNL     1      -0.389  11.829 -29.238  1.00  0.00     0.020 A 
ENDROOT
BRANCH   1  12
ATOM     12  C   UNL     1      -5.422  14.406 -29.058  1.00  0.00     0.025 A 
ATOM     13  C   UNL     1      -6.535  13.794 -28.460  1.00  0.00     0.016 A 
ATOM     14  C   UNL     1      -7.777  14.434 -28.457  1.00  0.00     0.051 A 
ATOM     15  C   UNL     1      -7.924  15.698 -29.037  1.00  0.00     0.157 A 
ATOM     16  C   UNL     1      -5.566  15.685 -29.623  1.00  0.00     0.062 A 
ATOM     17  C   UNL     1      -6.813  16.330 -29.620  1.00  0.00     0.158 A 
BRANCH  15  18
ATOM     18  O   UNL     1      -9.176  16.310 -29.022  1.00  0.00    -0.504 OA
ATOM     19  H   UNL     1      -9.997  15.866 -29.416  1.00  0.00     0.293 HD
ENDBRANCH  15  18
BRANCH  17  20
ATOM     20  O   UNL     1      -6.949  17.596 -30.187  1.00  0.00    -0.504 OA
ATOM     21  H   UNL     1      -6.300  18.345 -29.975  1.00  0.00     0.293 HD
ENDBRANCH  17  20
ENDBRANCH   1  12
BRANCH   2  22
ATOM     22  O   UNL     1      -4.370  13.095 -26.688  1.00  0.00    -0.502 OA
ATOM     23  H   UNL     1      -4.342  13.881 -26.049  1.00  0.00     0.293 HD
ENDBRANCH   2  22
BRANCH   9  24
ATOM     24  O   UNL     1       0.498  12.640 -32.731  1.00  0.00    -0.508 OA
ATOM     25  H   UNL     1       1.459  12.959 -32.755  1.00  0.00     0.293 HD
ENDBRANCH   9  24
TORSDOF 5
ENDMDL
MODEL 8
REMARK VINA RESULT:    -1.975      3.286      5.241
REMARK INTER + INTRA:          -2.394
REMARK INTER:                  -2.762
REMARK INTRA:                   0.368
REMARK UNBOUND:                -0.072
REMARK SMILES O=c1c(O)c(-c2ccc(O)c(O)c2)oc2cc(O)ccc12
REMARK SMILES IDX 5 1 3 2 2 3 1 4 21 5 15 6 14 7 16 8 17 9 19 10 20 11 6 12
REMARK SMILES IDX 7 13 8 14 9 15 13 16 11 17 10 18 12 20 4 22 18 24
REMARK H PARENT 10 19 12 21 4 23 18 25
REMARK Flexibility Score: inf
ROOT
ATOM      1  C   UNL     1      -4.683  13.001 -30.586  1.00  0.00     0.180 A 
ATOM      2  C   UNL     1      -5.087  14.145 -29.868  1.00  0.00     0.208 A 
ATOM      3  C   UNL     1      -4.805  14.217 -28.494  1.00  0.00     0.235 A 
ATOM      4  O   UNL     1      -5.165  15.225 -27.827  1.00  0.00    -0.285 OA
ATOM      5  C   UNL     1      -4.113  13.163 -27.877  1.00  0.00     0.069 A 
ATOM      6  C   UNL     1      -3.722  12.063 -28.671  1.00  0.00     0.142 A 
ATOM      7  O   UNL     1      -4.017  12.030 -29.965  1.00  0.00    -0.452 OA
ATOM      8  C   UNL     1      -3.022  10.997 -28.094  1.00  0.00     0.094 A 
ATOM      9  C   UNL     1      -2.708  11.016 -26.727  1.00  0.00     0.119 A 
ATOM     10  C   UNL     1      -3.096  12.104 -25.939  1.00  0.00     0.047 A 
ATOM     11  C   UNL     1      -3.795  13.174 -26.506  1.00  0.00     0.020 A 
ENDROOT
BRANCH   1  12
ATOM     12  C   UNL     1      -4.961  12.842 -32.032  1.00  0.00     0.025 A 
ATOM     13  C   UNL     1      -5.099  13.983 -32.837  1.00  0.00     0.016 A 
ATOM     14  C   UNL     1      -5.341  13.857 -34.207  1.00  0.00     0.051 A 
ATOM     15  C   UNL     1      -5.434  12.591 -34.796  1.00  0.00     0.157 A 
ATOM     16  C   UNL     1      -5.035  11.570 -32.628  1.00  0.00     0.062 A 
ATOM     17  C   UNL     1      -5.276  11.442 -34.005  1.00  0.00     0.158 A 
BRANCH  15  18
ATOM     18  O   UNL     1      -5.680  12.497 -36.165  1.00  0.00    -0.504 OA
ATOM     19  H   UNL     1      -4.939  12.574 -36.851  1.00  0.00     0.293 HD
ENDBRANCH  15  18
BRANCH  17  20
ATOM     20  O   UNL     1      -5.354  10.178 -34.587  1.00  0.00    -0.504 OA
ATOM     21  H   UNL     1      -6.245   9.750 -34.811  1.00  0.00     0.293 HD
ENDBRANCH  17  20
ENDBRANCH   1  12
BRANCH   2  22
ATOM     22  O   UNL     1      -5.731  15.200 -30.519  1.00  0.00    -0.502 OA
ATOM     23  H   UNL     1      -6.589  15.610 -30.170  1.00  0.00     0.293 HD
ENDBRANCH   2  22
BRANCH   9  24
ATOM     24  O   UNL     1      -2.013   9.959 -26.145  1.00  0.00    -0.508 OA
ATOM     25  H   UNL     1      -1.726   9.987 -25.173  1.00  0.00     0.293 HD
ENDBRANCH   9  24
TORSDOF 5
ENDMDL
MODEL 9
REMARK VINA RESULT:    -1.762      1.875      6.898
REMARK INTER + INTRA:          -2.143
REMARK INTER:                  -1.954
REMARK INTRA:                  -0.189
REMARK UNBOUND:                -0.072
REMARK SMILES O=c1c(O)c(-c2ccc(O)c(O)c2)oc2cc(O)ccc12
REMARK SMILES IDX 5 1 3 2 2 3 1 4 21 5 15 6 14 7 16 8 17 9 19 10 20 11 6 12
REMARK SMILES IDX 7 13 8 14 9 15 13 16 11 17 10 18 12 20 4 22 18 24
REMARK H PARENT 10 19 12 21 4 23 18 25
REMARK Flexibility Score: inf
ROOT
ATOM      1  C   UNL     1      -3.778  13.644 -29.515  1.00  0.00     0.180 A 
ATOM      2  C   UNL     1      -3.550  12.564 -30.393  1.00  0.00     0.208 A 
ATOM      3  C   UNL     1      -2.235  12.106 -30.574  1.00  0.00     0.235 A 
ATOM      4  O   UNL     1      -2.003  11.148 -31.362  1.00  0.00    -0.285 OA
ATOM      5  C   UNL     1      -1.188  12.717 -29.866  1.00  0.00     0.069 A 
ATOM      6  C   UNL     1      -1.503  13.777 -28.989  1.00  0.00     0.142 A 
ATOM      7  O   UNL     1      -2.759  14.186 -28.853  1.00  0.00    -0.452 OA
ATOM      8  C   UNL     1      -0.489  14.405 -28.257  1.00  0.00     0.094 A 
ATOM      9  C   UNL     1       0.843  13.988 -28.394  1.00  0.00     0.119 A 
ATOM     10  C   UNL     1       1.157  12.938 -29.265  1.00  0.00     0.047 A 
ATOM     11  C   UNL     1       0.150  12.304 -29.999  1.00  0.00     0.020 A 
ENDROOT
BRANCH   1  12
ATOM     12  C   UNL     1      -5.132  14.197 -29.286  1.00  0.00     0.025 A 
ATOM     13  C   UNL     1      -6.080  13.434 -28.585  1.00  0.00     0.016 A 
ATOM     14  C   UNL     1      -7.357  13.943 -28.339  1.00  0.00     0.051 A 
ATOM     15  C   UNL     1      -7.703  15.226 -28.776  1.00  0.00     0.157 A 
ATOM     16  C   UNL     1      -5.475  15.494 -29.707  1.00  0.00     0.062 A 
ATOM     17  C   UNL     1      -6.758  16.008 -29.459  1.00  0.00     0.158 A 
BRANCH  15  18
ATOM     18  O   UNL     1      -8.986  15.706 -28.519  1.00  0.00    -0.504 OA
ATOM     19  H   UNL     1      -9.814  15.251 -28.883  1.00  0.00     0.293 HD
ENDBRANCH  15  18
BRANCH  17  20
ATOM     20  O   UNL     1      -7.091  17.293 -29.884  1.00  0.00    -0.504 OA
ATOM     21  H   UNL     1      -6.862  17.620 -30.816  1.00  0.00     0.293 HD
ENDBRANCH  17  20
ENDBRANCH   1  12
BRANCH   2  22
ATOM     22  O   UNL     1      -4.617  11.944 -31.047  1.00  0.00    -0.502 OA
ATOM     23  H   UNL     1      -5.356  12.470 -31.498  1.00  0.00     0.293 HD
ENDBRANCH   2  22
BRANCH   9  24
ATOM     24  O   UNL     1       1.859  14.608 -27.672  1.00  0.00    -0.508 OA
ATOM     25  H   UNL     1       2.478  15.284 -28.104  1.00  0.00     0.293 HD
ENDBRANCH   9  24
TORSDOF 5
ENDMDL
