MODEL 1
REMARK VINA RESULT:    -3.466      0.000      0.000
REMARK INTER + INTRA:          -4.114
REMARK INTER:                  -4.074
REMARK INTRA:                  -0.040
REMARK UNBOUND:                -0.040
REMARK SMILES CCCCC(=O)[O-]
REMARK SMILES IDX 4 1 5 2 6 3 7 4 3 5 2 6 1 7
REMARK H PARENT
REMARK Flexibility Score: inf
ROOT
ATOM      1  C   UNL     1      -9.146   5.607  -7.941  1.00  0.00     0.053 C 
ENDROOT
BRANCH   1   2
ATOM      2  C   UNL     1      -7.819   5.621  -7.249  1.00  0.00     0.041 C 
ATOM      3  O   UNL     1      -6.805   6.087  -7.831  1.00  0.00    -0.550 OA
ATOM      4  O   UNL     1      -7.693   5.075  -5.978  1.00  0.00    -0.550 OA
ENDBRANCH   1   2
BRANCH   1   5
ATOM      5  C   UNL     1      -9.131   4.608  -9.104  1.00  0.00     0.006 C 
BRANCH   5   6
ATOM      6  C   UNL     1      -9.637   5.226 -10.418  1.00  0.00    -0.003 C 
ATOM      7  C   UNL     1      -8.763   4.860 -11.618  1.00  0.00     0.004 C 
ENDBRANCH   5   6
ENDBRANCH   1   5
TORSDOF 3
ENDMDL
MODEL 2
REMARK VINA RESULT:    -3.381      1.604      2.110
REMARK INTER + INTRA:          -4.013
REMARK INTER:                  -3.992
REMARK INTRA:                  -0.022
REMARK UNBOUND:                -0.040
REMARK SMILES CCCCC(=O)[O-]
REMARK SMILES IDX 4 1 5 2 6 3 7 4 3 5 2 6 1 7
REMARK H PARENT
REMARK Flexibility Score: inf
ROOT
ATOM      1  C   UNL     1      -7.747   5.559  -6.928  1.00  0.00     0.053 C 
ENDROOT
BRANCH   1   2
ATOM      2  C   UNL     1      -8.059   5.175  -5.516  1.00  0.00     0.041 C 
ATOM      3  O   UNL     1      -7.301   4.389  -4.890  1.00  0.00    -0.550 OA
ATOM      4  O   UNL     1      -9.214   5.648  -4.906  1.00  0.00    -0.550 OA
ENDBRANCH   1   2
BRANCH   1   5
ATOM      5  C   UNL     1      -9.036   5.648  -7.755  1.00  0.00     0.006 C 
BRANCH   5   6
ATOM      6  C   UNL     1      -8.962   4.826  -9.051  1.00  0.00    -0.003 C 
ATOM      7  C   UNL     1      -9.976   5.285 -10.101  1.00  0.00     0.004 C 
ENDBRANCH   5   6
ENDBRANCH   1   5
TORSDOF 3
ENDMDL
MODEL 3
REMARK VINA RESULT:    -3.374      1.120      1.652
REMARK INTER + INTRA:          -4.006
REMARK INTER:                  -3.960
REMARK INTRA:                  -0.046
REMARK UNBOUND:                -0.040
REMARK SMILES CCCCC(=O)[O-]
REMARK SMILES IDX 4 1 5 2 6 3 7 4 3 5 2 6 1 7
REMARK H PARENT
REMARK Flexibility Score: inf
ROOT
ATOM      1  C   UNL     1      -9.170   4.403  -9.335  1.00  0.00     0.053 C 
ENDROOT
BRANCH   1   2
ATOM      2  C   UNL     1      -8.640   5.303  -8.262  1.00  0.00     0.041 C 
ATOM      3  O   UNL     1      -7.428   5.642  -8.260  1.00  0.00    -0.550 OA
ATOM      4  O   UNL     1      -9.476   5.728  -7.237  1.00  0.00    -0.550 OA
ENDBRANCH   1   2
BRANCH   1   5
ATOM      5  C   UNL     1      -9.452   5.204 -10.612  1.00  0.00     0.006 C 
BRANCH   5   6
ATOM      6  C   UNL     1      -8.321   5.084 -11.645  1.00  0.00    -0.003 C 
ATOM      7  C   UNL     1      -8.771   4.404 -12.939  1.00  0.00     0.004 C 
ENDBRANCH   5   6
ENDBRANCH   1   5
TORSDOF 3
ENDMDL
MODEL 4
REMARK VINA RESULT:    -3.333      1.358      2.083
REMARK INTER + INTRA:          -3.958
REMARK INTER:                  -3.917
REMARK INTRA:                  -0.041
REMARK UNBOUND:                -0.040
REMARK SMILES CCCCC(=O)[O-]
REMARK SMILES IDX 4 1 5 2 6 3 7 4 3 5 2 6 1 7
REMARK H PARENT
REMARK Flexibility Score: inf
ROOT
ATOM      1  C   UNL     1      -7.857   5.495  -6.811  1.00  0.00     0.053 C 
ENDROOT
BRANCH   1   2
ATOM      2  C   UNL     1      -7.112   6.790  -6.727  1.00  0.00     0.041 C 
ATOM      3  O   UNL     1      -7.467   7.673  -5.902  1.00  0.00    -0.550 OA
ATOM      4  O   UNL     1      -6.056   7.041  -7.593  1.00  0.00    -0.550 OA
ENDBRANCH   1   2
BRANCH   1   5
ATOM      5  C   UNL     1      -9.085   5.643  -7.718  1.00  0.00     0.006 C 
BRANCH   5   6
ATOM      6  C   UNL     1      -8.931   4.884  -9.046  1.00  0.00    -0.003 C 
ATOM      7  C   UNL     1      -9.966   5.303 -10.091  1.00  0.00     0.004 C 
ENDBRANCH   5   6
ENDBRANCH   1   5
TORSDOF 3
ENDMDL
MODEL 5
REMARK VINA RESULT:    -3.194      3.791      5.308
REMARK INTER + INTRA:          -3.795
REMARK INTER:                  -3.776
REMARK INTRA:                  -0.018
REMARK UNBOUND:                -0.040
REMARK SMILES CCCCC(=O)[O-]
REMARK SMILES IDX 4 1 5 2 6 3 7 4 3 5 2 6 1 7
REMARK H PARENT
REMARK Flexibility Score: inf
ROOT
ATOM      1  C   UNL     1      -8.718   4.646 -12.875  1.00  0.00     0.053 C 
ENDROOT
BRANCH   1   2
ATOM      2  C   UNL     1      -7.767   5.307 -13.824  1.00  0.00     0.041 C 
ATOM      3  O   UNL     1      -6.530   5.296 -13.592  1.00  0.00    -0.550 OA
ATOM      4  O   UNL     1      -8.253   5.977 -14.939  1.00  0.00    -0.550 OA
ENDBRANCH   1   2
BRANCH   1   5
ATOM      5  C   UNL     1      -8.342   4.976 -11.425  1.00  0.00     0.006 C 
BRANCH   5   6
ATOM      6  C   UNL     1      -9.569   5.066 -10.505  1.00  0.00    -0.003 C 
ATOM      7  C   UNL     1      -9.199   5.032  -9.021  1.00  0.00     0.004 C 
ENDBRANCH   5   6
ENDBRANCH   1   5
TORSDOF 3
ENDMDL
MODEL 6
REMARK VINA RESULT:    -3.125      2.620      3.992
REMARK INTER + INTRA:          -3.713
REMARK INTER:                  -3.682
REMARK INTRA:                  -0.031
REMARK UNBOUND:                -0.040
REMARK SMILES CCCCC(=O)[O-]
REMARK SMILES IDX 4 1 5 2 6 3 7 4 3 5 2 6 1 7
REMARK H PARENT
REMARK Flexibility Score: inf
ROOT
ATOM      1  C   UNL     1      -8.603   4.820  -8.978  1.00  0.00     0.053 C 
ENDROOT
BRANCH   1   2
ATOM      2  C   UNL     1      -9.356   5.128 -10.234  1.00  0.00     0.041 C 
ATOM      3  O   UNL     1     -10.508   5.634 -10.175  1.00  0.00    -0.550 OA
ATOM      4  O   UNL     1      -8.806   4.813 -11.470  1.00  0.00    -0.550 OA
ENDBRANCH   1   2
BRANCH   1   5
ATOM      5  C   UNL     1      -9.177   5.619  -7.801  1.00  0.00     0.006 C 
BRANCH   5   6
ATOM      6  C   UNL     1      -8.184   5.746  -6.636  1.00  0.00    -0.003 C 
ATOM      7  C   UNL     1      -6.972   6.612  -6.983  1.00  0.00     0.004 C 
ENDBRANCH   5   6
ENDBRANCH   1   5
TORSDOF 3
ENDMDL
MODEL 7
REMARK VINA RESULT:    -3.057      2.657      3.703
REMARK INTER + INTRA:          -3.633
REMARK INTER:                  -3.616
REMARK INTRA:                  -0.017
REMARK UNBOUND:                -0.040
REMARK SMILES CCCCC(=O)[O-]
REMARK SMILES IDX 4 1 5 2 6 3 7 4 3 5 2 6 1 7
REMARK H PARENT
REMARK Flexibility Score: inf
ROOT
ATOM      1  C   UNL     1      -8.309   5.187 -11.323  1.00  0.00     0.053 C 
ENDROOT
BRANCH   1   2
ATOM      2  C   UNL     1      -9.360   4.984 -10.277  1.00  0.00     0.041 C 
ATOM      3  O   UNL     1     -10.365   5.741 -10.233  1.00  0.00    -0.550 OA
ATOM      4  O   UNL     1      -9.206   3.988  -9.321  1.00  0.00    -0.550 OA
ENDBRANCH   1   2
BRANCH   1   5
ATOM      5  C   UNL     1      -8.732   4.526 -12.641  1.00  0.00     0.006 C 
BRANCH   5   6
ATOM      6  C   UNL     1      -7.908   5.022 -13.840  1.00  0.00    -0.003 C 
ATOM      7  C   UNL     1      -6.682   4.151 -14.115  1.00  0.00     0.004 C 
ENDBRANCH   5   6
ENDBRANCH   1   5
TORSDOF 3
ENDMDL
MODEL 8
REMARK VINA RESULT:    -2.990      4.013      5.452
REMARK INTER + INTRA:          -3.554
REMARK INTER:                  -3.445
REMARK INTRA:                  -0.109
REMARK UNBOUND:                -0.040
REMARK SMILES CCCCC(=O)[O-]
REMARK SMILES IDX 4 1 5 2 6 3 7 4 3 5 2 6 1 7
REMARK H PARENT
REMARK Flexibility Score: inf
ROOT
ATOM      1  C   UNL     1      -6.953   5.247 -12.653  1.00  0.00     0.053 C 
ENDROOT
BRANCH   1   2
ATOM      2  C   UNL     1      -8.351   4.775 -12.404  1.00  0.00     0.041 C 
ATOM      3  O   UNL     1      -9.015   4.242 -13.331  1.00  0.00    -0.550 OA
ATOM      4  O   UNL     1      -8.937   4.967 -11.159  1.00  0.00    -0.550 OA
ENDBRANCH   1   2
BRANCH   1   5
ATOM      5  C   UNL     1      -6.366   4.549 -13.887  1.00  0.00     0.006 C 
BRANCH   5   6
ATOM      6  C   UNL     1      -5.996   5.539 -15.003  1.00  0.00    -0.003 C 
ATOM      7  C   UNL     1      -7.202   5.962 -15.842  1.00  0.00     0.004 C 
ENDBRANCH   5   6
ENDBRANCH   1   5
TORSDOF 3
ENDMDL
MODEL 9
REMARK VINA RESULT:    -2.874      2.399      4.437
REMARK INTER + INTRA:          -3.418
REMARK INTER:                  -3.309
REMARK INTRA:                  -0.108
REMARK UNBOUND:                -0.040
REMARK SMILES CCCCC(=O)[O-]
REMARK SMILES IDX 4 1 5 2 6 3 7 4 3 5 2 6 1 7
REMARK H PARENT
REMARK Flexibility Score: inf
ROOT
ATOM      1  C   UNL     1      -7.302   5.997  -7.478  1.00  0.00     0.053 C 
ENDROOT
BRANCH   1   2
ATOM      2  C   UNL     1      -8.730   5.599  -7.683  1.00  0.00     0.041 C 
ATOM      3  O   UNL     1      -9.549   5.660  -6.729  1.00  0.00    -0.550 OA
ATOM      4  O   UNL     1      -9.145   5.113  -8.917  1.00  0.00    -0.550 OA
ENDBRANCH   1   2
BRANCH   1   5
ATOM      5  C   UNL     1      -7.190   7.008  -6.330  1.00  0.00     0.006 C 
BRANCH   5   6
ATOM      6  C   UNL     1      -6.276   6.514  -5.198  1.00  0.00    -0.003 C 
ATOM      7  C   UNL     1      -6.893   5.367  -4.397  1.00  0.00     0.004 C 
ENDBRANCH   5   6
ENDBRANCH   1   5
TORSDOF 3
ENDMDL
