MODEL 1
REMARK VINA RESULT:    -5.076      0.000      0.000
REMARK INTER + INTRA:         -12.006
REMARK INTER:                  -9.823
REMARK INTRA:                  -2.182
REMARK UNBOUND:                -2.182
REMARK SMILES CCCCCCCCCCCCCCCCCC(=O)[O-]
REMARK SMILES IDX 10 1 11 2 12 3 13 4 14 5 15 6 16 7 17 8 18 9 19 10 20 11
REMARK SMILES IDX 9 12 8 13 7 14 6 15 5 16 4 17 3 18 2 19 1 20
REMARK H PARENT
REMARK Flexibility Score: inf
ROOT
ATOM      1  C   UNL     1     170.212 150.357 146.464  1.00  0.00     0.000 C 
ENDROOT
BRANCH   1   2
ATOM      2  C   UNL     1     168.706 150.045 146.399  1.00  0.00     0.000 C 
BRANCH   2   3
ATOM      3  C   UNL     1     168.356 148.678 147.009  1.00  0.00     0.000 C 
BRANCH   3   4
ATOM      4  C   UNL     1     167.418 148.796 148.223  1.00  0.00     0.000 C 
BRANCH   4   5
ATOM      5  C   UNL     1     168.079 148.327 149.529  1.00  0.00     0.000 C 
BRANCH   5   6
ATOM      6  C   UNL     1     167.546 146.965 150.008  1.00  0.00     0.000 C 
BRANCH   6   7
ATOM      7  C   UNL     1     166.031 146.807 149.771  1.00  0.00     0.006 C 
BRANCH   7   8
ATOM      8  C   UNL     1     165.596 145.354 149.513  1.00  0.00     0.053 C 
BRANCH   8   9
ATOM      9  C   UNL     1     164.943 144.735 150.708  1.00  0.00     0.041 C 
ATOM     10  O   UNL     1     165.012 143.492 150.895  1.00  0.00    -0.550 OA
ATOM     11  O   UNL     1     164.275 145.534 151.627  1.00  0.00    -0.550 OA
ENDBRANCH   8   9
ENDBRANCH   7   8
ENDBRANCH   6   7
ENDBRANCH   5   6
ENDBRANCH   4   5
ENDBRANCH   3   4
ENDBRANCH   2   3
ENDBRANCH   1   2
BRANCH   1  12
ATOM     12  C   UNL     1     170.810 150.096 147.857  1.00  0.00     0.000 C 
BRANCH  12  13
ATOM     13  C   UNL     1     171.010 151.388 148.663  1.00  0.00    -0.000 C 
BRANCH  13  14
ATOM     14  C   UNL     1     169.836 151.627 149.621  1.00  0.00    -0.000 C 
BRANCH  14  15
ATOM     15  C   UNL     1     169.663 153.125 149.916  1.00  0.00    -0.000 C 
BRANCH  15  16
ATOM     16  C   UNL     1     168.289 153.660 149.481  1.00  0.00    -0.000 C 
BRANCH  16  17
ATOM     17  C   UNL     1     167.951 153.303 148.026  1.00  0.00    -0.000 C 
BRANCH  17  18
ATOM     18  C   UNL     1     166.611 152.560 147.940  1.00  0.00    -0.000 C 
BRANCH  18  19
ATOM     19  C   UNL     1     165.905 152.540 149.299  1.00  0.00    -0.003 C 
ATOM     20  C   UNL     1     164.761 151.529 149.311  1.00  0.00     0.004 C 
ENDBRANCH  18  19
ENDBRANCH  17  18
ENDBRANCH  16  17
ENDBRANCH  15  16
ENDBRANCH  14  15
ENDBRANCH  13  14
ENDBRANCH  12  13
ENDBRANCH   1  12
TORSDOF 16
ENDMDL
MODEL 2
REMARK VINA RESULT:    -5.014      3.078      7.592
REMARK INTER + INTRA:         -11.885
REMARK INTER:                 -10.476
REMARK INTRA:                  -1.410
REMARK UNBOUND:                -2.182
REMARK SMILES CCCCCCCCCCCCCCCCCC(=O)[O-]
REMARK SMILES IDX 10 1 11 2 12 3 13 4 14 5 15 6 16 7 17 8 18 9 19 10 20 11
REMARK SMILES IDX 9 12 8 13 7 14 6 15 5 16 4 17 3 18 2 19 1 20
REMARK H PARENT
REMARK Flexibility Score: inf
ROOT
ATOM      1  C   UNL     1     167.323 148.994 148.532  1.00  0.00     0.000 C 
ENDROOT
BRANCH   1   2
ATOM      2  C   UNL     1     167.865 149.000 147.092  1.00  0.00     0.000 C 
BRANCH   2   3
ATOM      3  C   UNL     1     168.690 150.257 146.773  1.00  0.00     0.000 C 
BRANCH   3   4
ATOM      4  C   UNL     1     170.206 150.002 146.849  1.00  0.00     0.000 C 
BRANCH   4   5
ATOM      5  C   UNL     1     170.967 151.157 147.518  1.00  0.00     0.000 C 
BRANCH   5   6
ATOM      6  C   UNL     1     170.667 151.274 149.024  1.00  0.00     0.000 C 
BRANCH   6   7
ATOM      7  C   UNL     1     170.449 152.733 149.470  1.00  0.00     0.006 C 
BRANCH   7   8
ATOM      8  C   UNL     1     169.073 152.982 150.111  1.00  0.00     0.053 C 
BRANCH   8   9
ATOM      9  C   UNL     1     167.976 153.051 149.094  1.00  0.00     0.041 C 
ATOM     10  O   UNL     1     168.200 153.532 147.952  1.00  0.00    -0.550 OA
ATOM     11  O   UNL     1     166.712 152.563 149.402  1.00  0.00    -0.550 OA
ENDBRANCH   8   9
ENDBRANCH   7   8
ENDBRANCH   6   7
ENDBRANCH   5   6
ENDBRANCH   4   5
ENDBRANCH   3   4
ENDBRANCH   2   3
ENDBRANCH   1   2
BRANCH   1  12
ATOM     12  C   UNL     1     168.293 148.334 149.526  1.00  0.00     0.000 C 
BRANCH  12  13
ATOM     13  C   UNL     1     167.689 147.097 150.206  1.00  0.00    -0.000 C 
BRANCH  13  14
ATOM     14  C   UNL     1     166.439 146.613 149.460  1.00  0.00    -0.000 C 
BRANCH  14  15
ATOM     15  C   UNL     1     165.659 145.588 150.299  1.00  0.00    -0.000 C 
BRANCH  15  16
ATOM     16  C   UNL     1     166.023 144.137 149.950  1.00  0.00    -0.000 C 
BRANCH  16  17
ATOM     17  C   UNL     1     165.109 143.116 150.644  1.00  0.00    -0.000 C 
BRANCH  17  18
ATOM     18  C   UNL     1     164.070 143.820 151.527  1.00  0.00    -0.000 C 
BRANCH  18  19
ATOM     19  C   UNL     1     163.080 142.813 152.120  1.00  0.00    -0.003 C 
ATOM     20  C   UNL     1     163.679 141.410 152.163  1.00  0.00     0.004 C 
ENDBRANCH  18  19
ENDBRANCH  17  18
ENDBRANCH  16  17
ENDBRANCH  15  16
ENDBRANCH  14  15
ENDBRANCH  13  14
ENDBRANCH  12  13
ENDBRANCH   1  12
TORSDOF 16
ENDMDL
MODEL 3
REMARK VINA RESULT:    -4.920      4.661      7.699
REMARK INTER + INTRA:         -11.704
REMARK INTER:                  -9.042
REMARK INTRA:                  -2.662
REMARK UNBOUND:                -2.182
REMARK SMILES CCCCCCCCCCCCCCCCCC(=O)[O-]
REMARK SMILES IDX 10 1 11 2 12 3 13 4 14 5 15 6 16 7 17 8 18 9 19 10 20 11
REMARK SMILES IDX 9 12 8 13 7 14 6 15 5 16 4 17 3 18 2 19 1 20
REMARK H PARENT
REMARK Flexibility Score: inf
ROOT
ATOM      1  C   UNL     1     165.566 147.077 147.832  1.00  0.00     0.000 C 
ENDROOT
BRANCH   1   2
ATOM      2  C   UNL     1     165.383 147.257 149.350  1.00  0.00     0.000 C 
BRANCH   2   3
ATOM      3  C   UNL     1     166.463 146.531 150.168  1.00  0.00     0.000 C 
BRANCH   3   4
ATOM      4  C   UNL     1     167.879 147.058 149.876  1.00  0.00     0.000 C 
BRANCH   4   5
ATOM      5  C   UNL     1     168.906 145.929 149.702  1.00  0.00     0.000 C 
BRANCH   5   6
ATOM      6  C   UNL     1     168.254 144.535 149.642  1.00  0.00     0.000 C 
BRANCH   6   7
ATOM      7  C   UNL     1     169.282 143.414 149.390  1.00  0.00     0.006 C 
BRANCH   7   8
ATOM      8  C   UNL     1     170.629 143.644 150.095  1.00  0.00     0.053 C 
BRANCH   8   9
ATOM      9  C   UNL     1     171.032 142.480 150.945  1.00  0.00     0.041 C 
ATOM     10  O   UNL     1     171.931 141.690 150.553  1.00  0.00    -0.550 OA
ATOM     11  O   UNL     1     170.431 142.280 152.181  1.00  0.00    -0.550 OA
ENDBRANCH   8   9
ENDBRANCH   7   8
ENDBRANCH   6   7
ENDBRANCH   5   6
ENDBRANCH   4   5
ENDBRANCH   3   4
ENDBRANCH   2   3
ENDBRANCH   1   2
BRANCH   1  12
ATOM     12  C   UNL     1     165.196 145.662 147.357  1.00  0.00     0.000 C 
BRANCH  12  13
ATOM     13  C   UNL     1     166.319 145.002 146.542  1.00  0.00    -0.000 C 
BRANCH  13  14
ATOM     14  C   UNL     1     166.327 143.482 146.747  1.00  0.00    -0.000 C 
BRANCH  14  15
ATOM     15  C   UNL     1     165.246 143.056 147.752  1.00  0.00    -0.000 C 
BRANCH  15  16
ATOM     16  C   UNL     1     165.709 141.917 148.673  1.00  0.00    -0.000 C 
BRANCH  16  17
ATOM     17  C   UNL     1     165.212 142.086 150.117  1.00  0.00    -0.000 C 
BRANCH  17  18
ATOM     18  C   UNL     1     164.688 143.509 150.354  1.00  0.00    -0.000 C 
BRANCH  18  19
ATOM     19  C   UNL     1     163.714 143.547 151.536  1.00  0.00    -0.003 C 
ATOM     20  C   UNL     1     163.312 142.138 151.964  1.00  0.00     0.004 C 
ENDBRANCH  18  19
ENDBRANCH  17  18
ENDBRANCH  16  17
ENDBRANCH  15  16
ENDBRANCH  14  15
ENDBRANCH  13  14
ENDBRANCH  12  13
ENDBRANCH   1  12
TORSDOF 16
ENDMDL
MODEL 4
REMARK VINA RESULT:    -4.893      2.906      6.860
REMARK INTER + INTRA:         -11.653
REMARK INTER:                  -9.648
REMARK INTRA:                  -2.004
REMARK UNBOUND:                -2.182
REMARK SMILES CCCCCCCCCCCCCCCCCC(=O)[O-]
REMARK SMILES IDX 10 1 11 2 12 3 13 4 14 5 15 6 16 7 17 8 18 9 19 10 20 11
REMARK SMILES IDX 9 12 8 13 7 14 6 15 5 16 4 17 3 18 2 19 1 20
REMARK H PARENT
REMARK Flexibility Score: inf
ROOT
ATOM      1  C   UNL     1     167.866 149.650 146.803  1.00  0.00     0.000 C 
ENDROOT
BRANCH   1   2
ATOM      2  C   UNL     1     168.978 150.690 146.580  1.00  0.00     0.000 C 
BRANCH   2   3
ATOM      3  C   UNL     1     170.386 150.108 146.787  1.00  0.00     0.000 C 
BRANCH   3   4
ATOM      4  C   UNL     1     171.080 150.676 148.037  1.00  0.00     0.000 C 
BRANCH   4   5
ATOM      5  C   UNL     1     170.531 152.052 148.445  1.00  0.00     0.000 C 
BRANCH   5   6
ATOM      6  C   UNL     1     170.102 152.108 149.922  1.00  0.00     0.000 C 
BRANCH   6   7
ATOM      7  C   UNL     1     168.762 152.844 150.120  1.00  0.00     0.006 C 
BRANCH   7   8
ATOM      8  C   UNL     1     168.272 153.578 148.861  1.00  0.00     0.053 C 
BRANCH   8   9
ATOM      9  C   UNL     1     166.885 153.173 148.469  1.00  0.00     0.041 C 
ATOM     10  O   UNL     1     166.529 153.218 147.262  1.00  0.00    -0.550 OA
ATOM     11  O   UNL     1     165.993 152.726 149.434  1.00  0.00    -0.550 OA
ENDBRANCH   8   9
ENDBRANCH   7   8
ENDBRANCH   6   7
ENDBRANCH   5   6
ENDBRANCH   4   5
ENDBRANCH   3   4
ENDBRANCH   2   3
ENDBRANCH   1   2
BRANCH   1  12
ATOM     12  C   UNL     1     167.306 149.682 148.234  1.00  0.00     0.000 C 
BRANCH  12  13
ATOM     13  C   UNL     1     167.924 148.601 149.134  1.00  0.00    -0.000 C 
BRANCH  13  14
ATOM     14  C   UNL     1     167.295 147.229 148.858  1.00  0.00    -0.000 C 
BRANCH  14  15
ATOM     15  C   UNL     1     165.772 147.272 149.053  1.00  0.00    -0.000 C 
BRANCH  15  16
ATOM     16  C   UNL     1     165.311 146.477 150.285  1.00  0.00    -0.000 C 
BRANCH  16  17
ATOM     17  C   UNL     1     165.821 145.028 150.277  1.00  0.00    -0.000 C 
BRANCH  17  18
ATOM     18  C   UNL     1     164.673 144.041 150.525  1.00  0.00    -0.000 C 
BRANCH  18  19
ATOM     19  C   UNL     1     164.664 142.930 149.470  1.00  0.00    -0.003 C 
ATOM     20  C   UNL     1     164.678 143.511 148.059  1.00  0.00     0.004 C 
ENDBRANCH  18  19
ENDBRANCH  17  18
ENDBRANCH  16  17
ENDBRANCH  15  16
ENDBRANCH  14  15
ENDBRANCH  13  14
ENDBRANCH  12  13
ENDBRANCH   1  12
TORSDOF 16
ENDMDL
MODEL 5
REMARK VINA RESULT:    -4.885      1.212      2.316
REMARK INTER + INTRA:         -11.636
REMARK INTER:                  -9.527
REMARK INTRA:                  -2.109
REMARK UNBOUND:                -2.182
REMARK SMILES CCCCCCCCCCCCCCCCCC(=O)[O-]
REMARK SMILES IDX 10 1 11 2 12 3 13 4 14 5 15 6 16 7 17 8 18 9 19 10 20 11
REMARK SMILES IDX 9 12 8 13 7 14 6 15 5 16 4 17 3 18 2 19 1 20
REMARK H PARENT
REMARK Flexibility Score: inf
ROOT
ATOM      1  C   UNL     1     167.662 149.613 146.797  1.00  0.00     0.000 C 
ENDROOT
BRANCH   1   2
ATOM      2  C   UNL     1     167.084 149.077 148.119  1.00  0.00     0.000 C 
BRANCH   2   3
ATOM      3  C   UNL     1     168.173 148.745 149.152  1.00  0.00     0.000 C 
BRANCH   3   4
ATOM      4  C   UNL     1     167.819 147.517 150.009  1.00  0.00     0.000 C 
BRANCH   4   5
ATOM      5  C   UNL     1     168.116 146.190 149.292  1.00  0.00     0.000 C 
BRANCH   5   6
ATOM      6  C   UNL     1     167.083 145.095 149.615  1.00  0.00     0.000 C 
BRANCH   6   7
ATOM      7  C   UNL     1     165.658 145.660 149.782  1.00  0.00     0.006 C 
BRANCH   7   8
ATOM      8  C   UNL     1     164.993 145.270 151.113  1.00  0.00     0.053 C 
BRANCH   8   9
ATOM      9  C   UNL     1     164.202 144.004 151.004  1.00  0.00     0.041 C 
ATOM     10  O   UNL     1     163.508 143.606 151.976  1.00  0.00    -0.550 OA
ATOM     11  O   UNL     1     164.215 143.276 149.822  1.00  0.00    -0.550 OA
ENDBRANCH   8   9
ENDBRANCH   7   8
ENDBRANCH   6   7
ENDBRANCH   5   6
ENDBRANCH   4   5
ENDBRANCH   3   4
ENDBRANCH   2   3
ENDBRANCH   1   2
BRANCH   1  12
ATOM     12  C   UNL     1     169.125 149.195 146.580  1.00  0.00     0.000 C 
BRANCH  12  13
ATOM     13  C   UNL     1     170.048 150.395 146.316  1.00  0.00    -0.000 C 
BRANCH  13  14
ATOM     14  C   UNL     1     171.012 150.616 147.489  1.00  0.00    -0.000 C 
BRANCH  14  15
ATOM     15  C   UNL     1     170.776 151.985 148.145  1.00  0.00    -0.000 C 
BRANCH  15  16
ATOM     16  C   UNL     1     170.486 151.878 149.650  1.00  0.00    -0.000 C 
BRANCH  16  17
ATOM     17  C   UNL     1     169.383 152.845 150.108  1.00  0.00    -0.000 C 
BRANCH  17  18
ATOM     18  C   UNL     1     168.035 152.481 149.472  1.00  0.00    -0.000 C 
BRANCH  18  19
ATOM     19  C   UNL     1     167.522 153.617 148.581  1.00  0.00    -0.003 C 
ATOM     20  C   UNL     1     166.660 153.078 147.443  1.00  0.00     0.004 C 
ENDBRANCH  18  19
ENDBRANCH  17  18
ENDBRANCH  16  17
ENDBRANCH  15  16
ENDBRANCH  14  15
ENDBRANCH  13  14
ENDBRANCH  12  13
ENDBRANCH   1  12
TORSDOF 16
ENDMDL
MODEL 6
REMARK VINA RESULT:    -4.869      1.321      3.514
REMARK INTER + INTRA:         -11.606
REMARK INTER:                 -10.081
REMARK INTRA:                  -1.525
REMARK UNBOUND:                -2.182
REMARK SMILES CCCCCCCCCCCCCCCCCC(=O)[O-]
REMARK SMILES IDX 10 1 11 2 12 3 13 4 14 5 15 6 16 7 17 8 18 9 19 10 20 11
REMARK SMILES IDX 9 12 8 13 7 14 6 15 5 16 4 17 3 18 2 19 1 20
REMARK H PARENT
REMARK Flexibility Score: inf
ROOT
ATOM      1  C   UNL     1     166.814 150.194 148.513  1.00  0.00     0.000 C 
ENDROOT
BRANCH   1   2
ATOM      2  C   UNL     1     166.359 148.763 148.174  1.00  0.00     0.000 C 
BRANCH   2   3
ATOM      3  C   UNL     1     167.458 147.717 148.421  1.00  0.00     0.000 C 
BRANCH   3   4
ATOM      4  C   UNL     1     167.489 147.227 149.879  1.00  0.00     0.000 C 
BRANCH   4   5
ATOM      5  C   UNL     1     166.736 145.901 150.073  1.00  0.00     0.000 C 
BRANCH   5   6
ATOM      6  C   UNL     1     165.252 146.107 150.427  1.00  0.00     0.000 C 
BRANCH   6   7
ATOM      7  C   UNL     1     164.735 145.058 151.433  1.00  0.00     0.006 C 
BRANCH   7   8
ATOM      8  C   UNL     1     163.974 143.896 150.775  1.00  0.00     0.053 C 
BRANCH   8   9
ATOM      9  C   UNL     1     164.532 142.561 151.157  1.00  0.00     0.041 C 
ATOM     10  O   UNL     1     164.014 141.903 152.097  1.00  0.00    -0.550 OA
ATOM     11  O   UNL     1     165.612 142.033 150.460  1.00  0.00    -0.550 OA
ENDBRANCH   8   9
ENDBRANCH   7   8
ENDBRANCH   6   7
ENDBRANCH   5   6
ENDBRANCH   4   5
ENDBRANCH   3   4
ENDBRANCH   2   3
ENDBRANCH   1   2
BRANCH   1  12
ATOM     12  C   UNL     1     165.633 151.137 148.797  1.00  0.00     0.000 C 
BRANCH  12  13
ATOM     13  C   UNL     1     166.088 152.521 149.286  1.00  0.00    -0.000 C 
BRANCH  13  14
ATOM     14  C   UNL     1     167.273 153.035 148.457  1.00  0.00    -0.000 C 
BRANCH  14  15
ATOM     15  C   UNL     1     168.127 154.020 149.271  1.00  0.00    -0.000 C 
BRANCH  15  16
ATOM     16  C   UNL     1     169.209 153.316 150.105  1.00  0.00    -0.000 C 
BRANCH  16  17
ATOM     17  C   UNL     1     170.348 152.755 149.240  1.00  0.00    -0.000 C 
BRANCH  17  18
ATOM     18  C   UNL     1     170.346 151.221 149.257  1.00  0.00    -0.000 C 
BRANCH  18  19
ATOM     19  C   UNL     1     170.871 150.656 147.933  1.00  0.00    -0.003 C 
ATOM     20  C   UNL     1     169.984 151.075 146.764  1.00  0.00     0.004 C 
ENDBRANCH  18  19
ENDBRANCH  17  18
ENDBRANCH  16  17
ENDBRANCH  15  16
ENDBRANCH  14  15
ENDBRANCH  13  14
ENDBRANCH  12  13
ENDBRANCH   1  12
TORSDOF 16
ENDMDL
MODEL 7
REMARK VINA RESULT:    -4.856      3.499      7.500
REMARK INTER + INTRA:         -11.580
REMARK INTER:                  -8.741
REMARK INTRA:                  -2.839
REMARK UNBOUND:                -2.182
REMARK SMILES CCCCCCCCCCCCCCCCCC(=O)[O-]
REMARK SMILES IDX 10 1 11 2 12 3 13 4 14 5 15 6 16 7 17 8 18 9 19 10 20 11
REMARK SMILES IDX 9 12 8 13 7 14 6 15 5 16 4 17 3 18 2 19 1 20
REMARK H PARENT
REMARK Flexibility Score: inf
ROOT
ATOM      1  C   UNL     1     167.030 146.439 149.998  1.00  0.00     0.000 C 
ENDROOT
BRANCH   1   2
ATOM      2  C   UNL     1     168.323 147.245 150.213  1.00  0.00     0.000 C 
BRANCH   2   3
ATOM      3  C   UNL     1     169.469 146.786 149.297  1.00  0.00     0.000 C 
BRANCH   3   4
ATOM      4  C   UNL     1     169.897 147.875 148.297  1.00  0.00     0.000 C 
BRANCH   4   5
ATOM      5  C   UNL     1     169.095 147.822 146.987  1.00  0.00     0.000 C 
BRANCH   5   6
ATOM      6  C   UNL     1     168.152 149.027 146.818  1.00  0.00     0.000 C 
BRANCH   6   7
ATOM      7  C   UNL     1     168.461 150.162 147.814  1.00  0.00     0.006 C 
BRANCH   7   8
ATOM      8  C   UNL     1     167.209 150.902 148.312  1.00  0.00     0.053 C 
BRANCH   8   9
ATOM      9  C   UNL     1     167.084 152.271 147.721  1.00  0.00     0.041 C 
ATOM     10  O   UNL     1     167.991 153.126 147.905  1.00  0.00    -0.550 OA
ATOM     11  O   UNL     1     165.977 152.597 146.948  1.00  0.00    -0.550 OA
ENDBRANCH   8   9
ENDBRANCH   7   8
ENDBRANCH   6   7
ENDBRANCH   5   6
ENDBRANCH   4   5
ENDBRANCH   3   4
ENDBRANCH   2   3
ENDBRANCH   1   2
BRANCH   1  12
ATOM     12  C   UNL     1     165.944 147.246 149.270  1.00  0.00     0.000 C 
BRANCH  12  13
ATOM     13  C   UNL     1     165.354 146.493 148.069  1.00  0.00    -0.000 C 
BRANCH  13  14
ATOM     14  C   UNL     1     166.330 145.427 147.554  1.00  0.00    -0.000 C 
BRANCH  14  15
ATOM     15  C   UNL     1     165.585 144.141 147.165  1.00  0.00    -0.000 C 
BRANCH  15  16
ATOM     16  C   UNL     1     164.744 143.571 148.318  1.00  0.00    -0.000 C 
BRANCH  16  17
ATOM     17  C   UNL     1     165.567 142.687 149.268  1.00  0.00    -0.000 C 
BRANCH  17  18
ATOM     18  C   UNL     1     165.341 143.094 150.730  1.00  0.00    -0.000 C 
BRANCH  18  19
ATOM     19  C   UNL     1     164.032 143.872 150.889  1.00  0.00    -0.003 C 
ATOM     20  C   UNL     1     164.225 145.102 151.771  1.00  0.00     0.004 C 
ENDBRANCH  18  19
ENDBRANCH  17  18
ENDBRANCH  16  17
ENDBRANCH  15  16
ENDBRANCH  14  15
ENDBRANCH  13  14
ENDBRANCH  12  13
ENDBRANCH   1  12
TORSDOF 16
ENDMDL
MODEL 8
REMARK VINA RESULT:    -4.816      3.855      7.494
REMARK INTER + INTRA:         -11.502
REMARK INTER:                  -8.402
REMARK INTRA:                  -3.101
REMARK UNBOUND:                -2.182
REMARK SMILES CCCCCCCCCCCCCCCCCC(=O)[O-]
REMARK SMILES IDX 10 1 11 2 12 3 13 4 14 5 15 6 16 7 17 8 18 9 19 10 20 11
REMARK SMILES IDX 9 12 8 13 7 14 6 15 5 16 4 17 3 18 2 19 1 20
REMARK H PARENT
REMARK Flexibility Score: inf
ROOT
ATOM      1  C   UNL     1     166.717 146.722 149.920  1.00  0.00     0.000 C 
ENDROOT
BRANCH   1   2
ATOM      2  C   UNL     1     168.235 146.527 150.076  1.00  0.00     0.000 C 
BRANCH   2   3
ATOM      3  C   UNL     1     168.747 145.260 149.371  1.00  0.00     0.000 C 
BRANCH   3   4
ATOM      4  C   UNL     1     169.319 145.555 147.973  1.00  0.00     0.000 C 
BRANCH   4   5
ATOM      5  C   UNL     1     169.918 146.967 147.864  1.00  0.00     0.000 C 
BRANCH   5   6
ATOM      6  C   UNL     1     169.383 147.749 146.652  1.00  0.00     0.000 C 
BRANCH   6   7
ATOM      7  C   UNL     1     169.298 149.265 146.919  1.00  0.00     0.006 C 
BRANCH   7   8
ATOM      8  C   UNL     1     169.644 149.656 148.365  1.00  0.00     0.053 C 
BRANCH   8   9
ATOM      9  C   UNL     1     170.733 150.680 148.433  1.00  0.00     0.041 C 
ATOM     10  O   UNL     1     170.782 151.489 149.398  1.00  0.00    -0.550 OA
ATOM     11  O   UNL     1     171.706 150.728 147.444  1.00  0.00    -0.550 OA
ENDBRANCH   8   9
ENDBRANCH   7   8
ENDBRANCH   6   7
ENDBRANCH   5   6
ENDBRANCH   4   5
ENDBRANCH   3   4
ENDBRANCH   2   3
ENDBRANCH   1   2
BRANCH   1  12
ATOM     12  C   UNL     1     166.363 147.966 149.089  1.00  0.00     0.000 C 
BRANCH  12  13
ATOM     13  C   UNL     1     165.885 147.612 147.673  1.00  0.00    -0.000 C 
BRANCH  13  14
ATOM     14  C   UNL     1     165.221 146.229 147.645  1.00  0.00    -0.000 C 
BRANCH  14  15
ATOM     15  C   UNL     1     165.950 145.288 146.675  1.00  0.00    -0.000 C 
BRANCH  15  16
ATOM     16  C   UNL     1     165.912 143.821 147.131  1.00  0.00    -0.000 C 
BRANCH  16  17
ATOM     17  C   UNL     1     164.883 143.576 148.245  1.00  0.00    -0.000 C 
BRANCH  17  18
ATOM     18  C   UNL     1     165.555 142.997 149.496  1.00  0.00    -0.000 C 
BRANCH  18  19
ATOM     19  C   UNL     1     165.034 143.678 150.766  1.00  0.00    -0.003 C 
ATOM     20  C   UNL     1     163.653 143.152 151.147  1.00  0.00     0.004 C 
ENDBRANCH  18  19
ENDBRANCH  17  18
ENDBRANCH  16  17
ENDBRANCH  15  16
ENDBRANCH  14  15
ENDBRANCH  13  14
ENDBRANCH  12  13
ENDBRANCH   1  12
TORSDOF 16
ENDMDL
MODEL 9
REMARK VINA RESULT:    -4.809      1.707      4.000
REMARK INTER + INTRA:         -11.490
REMARK INTER:                  -9.956
REMARK INTRA:                  -1.534
REMARK UNBOUND:                -2.182
REMARK SMILES CCCCCCCCCCCCCCCCCC(=O)[O-]
REMARK SMILES IDX 10 1 11 2 12 3 13 4 14 5 15 6 16 7 17 8 18 9 19 10 20 11
REMARK SMILES IDX 9 12 8 13 7 14 6 15 5 16 4 17 3 18 2 19 1 20
REMARK H PARENT
REMARK Flexibility Score: inf
ROOT
ATOM      1  C   UNL     1     167.001 148.824 148.867  1.00  0.00     0.000 C 
ENDROOT
BRANCH   1   2
ATOM      2  C   UNL     1     166.239 147.537 148.504  1.00  0.00     0.000 C 
BRANCH   2   3
ATOM      3  C   UNL     1     165.156 147.178 149.533  1.00  0.00     0.000 C 
BRANCH   3   4
ATOM      4  C   UNL     1     165.571 146.009 150.444  1.00  0.00     0.000 C 
BRANCH   4   5
ATOM      5  C   UNL     1     164.530 145.710 151.534  1.00  0.00     0.000 C 
BRANCH   5   6
ATOM      6  C   UNL     1     164.081 144.237 151.540  1.00  0.00     0.000 C 
BRANCH   6   7
ATOM      7  C   UNL     1     164.444 143.505 150.233  1.00  0.00     0.006 C 
BRANCH   7   8
ATOM      8  C   UNL     1     165.416 142.330 150.434  1.00  0.00     0.053 C 
BRANCH   8   9
ATOM      9  C   UNL     1     166.712 142.534 149.715  1.00  0.00     0.041 C 
ATOM     10  O   UNL     1     167.762 142.793 150.362  1.00  0.00    -0.550 OA
ATOM     11  O   UNL     1     166.766 142.416 148.332  1.00  0.00    -0.550 OA
ENDBRANCH   8   9
ENDBRANCH   7   8
ENDBRANCH   6   7
ENDBRANCH   5   6
ENDBRANCH   4   5
ENDBRANCH   3   4
ENDBRANCH   2   3
ENDBRANCH   1   2
BRANCH   1  12
ATOM     12  C   UNL     1     167.570 149.542 147.632  1.00  0.00     0.000 C 
BRANCH  12  13
ATOM     13  C   UNL     1     167.047 150.979 147.492  1.00  0.00    -0.000 C 
BRANCH  13  14
ATOM     14  C   UNL     1     166.219 151.386 148.718  1.00  0.00    -0.000 C 
BRANCH  14  15
ATOM     15  C   UNL     1     166.492 152.847 149.107  1.00  0.00    -0.000 C 
BRANCH  15  16
ATOM     16  C   UNL     1     167.931 153.284 148.792  1.00  0.00    -0.000 C 
BRANCH  16  17
ATOM     17  C   UNL     1     168.857 153.191 150.014  1.00  0.00    -0.000 C 
BRANCH  17  18
ATOM     18  C   UNL     1     170.302 152.903 149.586  1.00  0.00    -0.000 C 
BRANCH  18  19
ATOM     19  C   UNL     1     170.371 152.510 148.107  1.00  0.00    -0.003 C 
ATOM     20  C   UNL     1     170.971 151.118 147.934  1.00  0.00     0.004 C 
ENDBRANCH  18  19
ENDBRANCH  17  18
ENDBRANCH  16  17
ENDBRANCH  15  16
ENDBRANCH  14  15
ENDBRANCH  13  14
ENDBRANCH  12  13
ENDBRANCH   1  12
TORSDOF 16
ENDMDL
