MODEL 1
REMARK VINA RESULT:    -3.712      0.000      0.000
REMARK INTER + INTRA:          -4.301
REMARK INTER:                  -4.254
REMARK INTRA:                  -0.047
REMARK UNBOUND:                -0.047
REMARK SMILES CC(C)[C@@H]([NH3+])C(=O)[O-]
REMARK SMILES IDX 4 1 5 2 6 6 7 7 8 8 2 9 1 10 3 11
REMARK H PARENT 5 3 5 4 5 5
REMARK Flexibility Score: inf
ROOT
ATOM      1  C   UNL     1      37.126  33.632 -10.642  1.00  0.00     0.230 C 
ENDROOT
BRANCH   1   2
ATOM      2  N   UNL     1      37.368  33.398 -12.075  1.00  0.00    -0.350 N 
ATOM      3  H   UNL     1      38.253  32.852 -12.192  1.00  0.00     0.345 HD
ATOM      4  H   UNL     1      37.462  34.297 -12.599  1.00  0.00     0.345 HD
ATOM      5  H   UNL     1      36.593  32.833 -12.489  1.00  0.00     0.345 HD
ENDBRANCH   1   2
BRANCH   1   6
ATOM      6  C   UNL     1      35.888  32.902 -10.184  1.00  0.00     0.099 C 
ATOM      7  O   UNL     1      35.500  31.875 -10.802  1.00  0.00    -0.544 OA
ATOM      8  O   UNL     1      35.139  33.374  -9.113  1.00  0.00    -0.544 OA
ENDBRANCH   1   6
BRANCH   1   9
ATOM      9  C   UNL     1      38.350  33.262  -9.750  1.00  0.00     0.047 C 
ATOM     10  C   UNL     1      39.258  32.185 -10.364  1.00  0.00     0.014 C 
ATOM     11  C   UNL     1      39.178  34.500  -9.372  1.00  0.00     0.014 C 
ENDBRANCH   1   9
TORSDOF 3
ENDMDL
MODEL 2
REMARK VINA RESULT:    -3.614      3.171      3.826
REMARK INTER + INTRA:          -4.189
REMARK INTER:                  -4.127
REMARK INTRA:                  -0.062
REMARK UNBOUND:                -0.047
REMARK SMILES CC(C)[C@@H]([NH3+])C(=O)[O-]
REMARK SMILES IDX 4 1 5 2 6 6 7 7 8 8 2 9 1 10 3 11
REMARK H PARENT 5 3 5 4 5 5
REMARK Flexibility Score: inf
ROOT
ATOM      1  C   UNL     1      38.994  34.389  -9.352  1.00  0.00     0.230 C 
ENDROOT
BRANCH   1   2
ATOM      2  N   UNL     1      38.411  35.318  -8.371  1.00  0.00    -0.350 N 
ATOM      3  H   UNL     1      37.823  36.025  -8.871  1.00  0.00     0.345 HD
ATOM      4  H   UNL     1      39.152  35.823  -7.835  1.00  0.00     0.345 HD
ATOM      5  H   UNL     1      37.789  34.805  -7.707  1.00  0.00     0.345 HD
ENDBRANCH   1   2
BRANCH   1   6
ATOM      6  C   UNL     1      39.905  33.397  -8.672  1.00  0.00     0.099 C 
ATOM      7  O   UNL     1      40.031  32.236  -9.143  1.00  0.00    -0.544 OA
ATOM      8  O   UNL     1      40.574  33.732  -7.501  1.00  0.00    -0.544 OA
ENDBRANCH   1   6
BRANCH   1   9
ATOM      9  C   UNL     1      37.918  33.657 -10.211  1.00  0.00     0.047 C 
ATOM     10  C   UNL     1      36.480  33.878  -9.717  1.00  0.00     0.014 C 
ATOM     11  C   UNL     1      38.029  34.020 -11.700  1.00  0.00     0.014 C 
ENDBRANCH   1   9
TORSDOF 3
ENDMDL
MODEL 3
REMARK VINA RESULT:    -3.518      2.073      2.666
REMARK INTER + INTRA:          -4.079
REMARK INTER:                  -4.028
REMARK INTRA:                  -0.051
REMARK UNBOUND:                -0.047
REMARK SMILES CC(C)[C@@H]([NH3+])C(=O)[O-]
REMARK SMILES IDX 4 1 5 2 6 6 7 7 8 8 2 9 1 10 3 11
REMARK H PARENT 5 3 5 4 5 5
REMARK Flexibility Score: inf
ROOT
ATOM      1  C   UNL     1      37.782  33.735  -9.774  1.00  0.00     0.230 C 
ENDROOT
BRANCH   1   2
ATOM      2  N   UNL     1      36.874  34.818  -9.365  1.00  0.00    -0.350 N 
ATOM      3  H   UNL     1      36.796  34.829  -8.321  1.00  0.00     0.345 HD
ATOM      4  H   UNL     1      35.918  34.689  -9.767  1.00  0.00     0.345 HD
ATOM      5  H   UNL     1      37.254  35.745  -9.662  1.00  0.00     0.345 HD
ENDBRANCH   1   2
BRANCH   1   6
ATOM      6  C   UNL     1      37.656  33.462 -11.252  1.00  0.00     0.099 C 
ATOM      7  O   UNL     1      37.124  32.392 -11.649  1.00  0.00    -0.544 OA
ATOM      8  O   UNL     1      38.162  34.358 -12.186  1.00  0.00    -0.544 OA
ENDBRANCH   1   6
BRANCH   1   9
ATOM      9  C   UNL     1      39.267  34.006  -9.383  1.00  0.00     0.047 C 
ATOM     10  C   UNL     1      39.439  35.145  -8.366  1.00  0.00     0.014 C 
ATOM     11  C   UNL     1      39.969  32.735  -8.880  1.00  0.00     0.014 C 
ENDBRANCH   1   9
TORSDOF 3
ENDMDL
MODEL 4
REMARK VINA RESULT:    -3.441      2.450      3.658
REMARK INTER + INTRA:          -3.991
REMARK INTER:                  -3.971
REMARK INTRA:                  -0.020
REMARK UNBOUND:                -0.047
REMARK SMILES CC(C)[C@@H]([NH3+])C(=O)[O-]
REMARK SMILES IDX 4 1 5 2 6 6 7 7 8 8 2 9 1 10 3 11
REMARK H PARENT 5 3 5 4 5 5
REMARK Flexibility Score: inf
ROOT
ATOM      1  C   UNL     1      37.512  33.635 -10.194  1.00  0.00     0.230 C 
ENDROOT
BRANCH   1   2
ATOM      2  N   UNL     1      37.505  34.836  -9.343  1.00  0.00    -0.350 N 
ATOM      3  H   UNL     1      38.238  35.503  -9.680  1.00  0.00     0.345 HD
ATOM      4  H   UNL     1      37.706  34.600  -8.345  1.00  0.00     0.345 HD
ATOM      5  H   UNL     1      36.583  35.323  -9.406  1.00  0.00     0.345 HD
ENDBRANCH   1   2
BRANCH   1   6
ATOM      6  C   UNL     1      38.809  32.879 -10.040  1.00  0.00     0.099 C 
ATOM      7  O   UNL     1      39.570  33.131  -9.069  1.00  0.00    -0.544 OA
ATOM      8  O   UNL     1      39.199  31.936 -10.983  1.00  0.00    -0.544 OA
ENDBRANCH   1   6
BRANCH   1   9
ATOM      9  C   UNL     1      36.291  32.700  -9.937  1.00  0.00     0.047 C 
ATOM     10  C   UNL     1      35.140  33.384  -9.182  1.00  0.00     0.014 C 
ATOM     11  C   UNL     1      35.770  32.068 -11.236  1.00  0.00     0.014 C 
ENDBRANCH   1   9
TORSDOF 3
ENDMDL
MODEL 5
REMARK VINA RESULT:    -3.425     16.767     17.781
REMARK INTER + INTRA:          -3.972
REMARK INTER:                  -3.919
REMARK INTRA:                  -0.053
REMARK UNBOUND:                -0.047
REMARK SMILES CC(C)[C@@H]([NH3+])C(=O)[O-]
REMARK SMILES IDX 4 1 5 2 6 6 7 7 8 8 2 9 1 10 3 11
REMARK H PARENT 5 3 5 4 5 5
REMARK Flexibility Score: inf
ROOT
ATOM      1  C   UNL     1      40.065  43.629   3.693  1.00  0.00     0.230 C 
ENDROOT
BRANCH   1   2
ATOM      2  N   UNL     1      41.124  44.259   4.498  1.00  0.00    -0.350 N 
ATOM      3  H   UNL     1      41.446  45.133   4.021  1.00  0.00     0.345 HD
ATOM      4  H   UNL     1      41.945  43.624   4.616  1.00  0.00     0.345 HD
ATOM      5  H   UNL     1      40.756  44.531   5.437  1.00  0.00     0.345 HD
ENDBRANCH   1   2
BRANCH   1   6
ATOM      6  C   UNL     1      38.702  43.977   4.237  1.00  0.00     0.099 C 
ATOM      7  O   UNL     1      38.116  45.019   3.839  1.00  0.00    -0.544 OA
ATOM      8  O   UNL     1      38.100  43.187   5.208  1.00  0.00    -0.544 OA
ENDBRANCH   1   6
BRANCH   1   9
ATOM      9  C   UNL     1      40.164  43.977   2.177  1.00  0.00     0.047 C 
ATOM     10  C   UNL     1      41.125  45.138   1.873  1.00  0.00     0.014 C 
ATOM     11  C   UNL     1      40.532  42.750   1.329  1.00  0.00     0.014 C 
ENDBRANCH   1   9
TORSDOF 3
ENDMDL
MODEL 6
REMARK VINA RESULT:    -3.276     17.081     17.659
REMARK INTER + INTRA:          -3.801
REMARK INTER:                  -3.998
REMARK INTRA:                   0.196
REMARK UNBOUND:                -0.047
REMARK SMILES CC(C)[C@@H]([NH3+])C(=O)[O-]
REMARK SMILES IDX 4 1 5 2 6 6 7 7 8 8 2 9 1 10 3 11
REMARK H PARENT 5 3 5 4 5 5
REMARK Flexibility Score: inf
ROOT
ATOM      1  C   UNL     1      39.505  43.469   2.704  1.00  0.00     0.230 C 
ENDROOT
BRANCH   1   2
ATOM      2  N   UNL     1      39.622  42.002   2.732  1.00  0.00    -0.350 N 
ATOM      3  H   UNL     1      40.604  41.738   2.977  1.00  0.00     0.345 HD
ATOM      4  H   UNL     1      39.387  41.581   1.804  1.00  0.00     0.345 HD
ATOM      5  H   UNL     1      38.995  41.600   3.465  1.00  0.00     0.345 HD
ENDBRANCH   1   2
BRANCH   1   6
ATOM      6  C   UNL     1      38.570  43.951   3.785  1.00  0.00     0.099 C 
ATOM      7  O   UNL     1      38.114  45.124   3.744  1.00  0.00    -0.544 OA
ATOM      8  O   UNL     1      38.238  43.130   4.856  1.00  0.00    -0.544 OA
ENDBRANCH   1   6
BRANCH   1   9
ATOM      9  C   UNL     1      40.884  44.191   2.800  1.00  0.00     0.047 C 
ATOM     10  C   UNL     1      41.091  45.269   1.724  1.00  0.00     0.014 C 
ATOM     11  C   UNL     1      41.125  44.783   4.196  1.00  0.00     0.014 C 
ENDBRANCH   1   9
TORSDOF 3
ENDMDL
MODEL 7
REMARK VINA RESULT:    -3.261      3.081      3.869
REMARK INTER + INTRA:          -3.784
REMARK INTER:                  -3.717
REMARK INTRA:                  -0.068
REMARK UNBOUND:                -0.047
REMARK SMILES CC(C)[C@@H]([NH3+])C(=O)[O-]
REMARK SMILES IDX 4 1 5 2 6 6 7 7 8 8 2 9 1 10 3 11
REMARK H PARENT 5 3 5 4 5 5
REMARK Flexibility Score: inf
ROOT
ATOM      1  C   UNL     1      38.924  33.117  -9.387  1.00  0.00     0.230 C 
ENDROOT
BRANCH   1   2
ATOM      2  N   UNL     1      39.654  32.220 -10.297  1.00  0.00    -0.350 N 
ATOM      3  H   UNL     1      39.045  31.984 -11.114  1.00  0.00     0.345 HD
ATOM      4  H   UNL     1      39.927  31.331  -9.820  1.00  0.00     0.345 HD
ATOM      5  H   UNL     1      40.509  32.693 -10.668  1.00  0.00     0.345 HD
ENDBRANCH   1   2
BRANCH   1   6
ATOM      6  C   UNL     1      39.884  33.945  -8.570  1.00  0.00     0.099 C 
ATOM      7  O   UNL     1      39.748  35.197  -8.520  1.00  0.00    -0.544 OA
ATOM      8  O   UNL     1      40.948  33.350  -7.904  1.00  0.00    -0.544 OA
ENDBRANCH   1   6
BRANCH   1   9
ATOM      9  C   UNL     1      37.896  34.027 -10.126  1.00  0.00     0.047 C 
ATOM     10  C   UNL     1      38.071  34.042 -11.653  1.00  0.00     0.014 C 
ATOM     11  C   UNL     1      36.447  33.667  -9.763  1.00  0.00     0.014 C 
ENDBRANCH   1   9
TORSDOF 3
ENDMDL
MODEL 8
REMARK VINA RESULT:    -3.231      2.556      3.065
REMARK INTER + INTRA:          -3.750
REMARK INTER:                  -3.840
REMARK INTRA:                   0.090
REMARK UNBOUND:                -0.047
REMARK SMILES CC(C)[C@@H]([NH3+])C(=O)[O-]
REMARK SMILES IDX 4 1 5 2 6 6 7 7 8 8 2 9 1 10 3 11
REMARK H PARENT 5 3 5 4 5 5
REMARK Flexibility Score: inf
ROOT
ATOM      1  C   UNL     1      39.181  34.349  -8.969  1.00  0.00     0.230 C 
ENDROOT
BRANCH   1   2
ATOM      2  N   UNL     1      39.786  35.689  -9.039  1.00  0.00    -0.350 N 
ATOM      3  H   UNL     1      39.878  35.976 -10.041  1.00  0.00     0.345 HD
ATOM      4  H   UNL     1      40.736  35.704  -8.602  1.00  0.00     0.345 HD
ATOM      5  H   UNL     1      39.174  36.392  -8.566  1.00  0.00     0.345 HD
ENDBRANCH   1   2
BRANCH   1   6
ATOM      6  C   UNL     1      38.153  34.170 -10.057  1.00  0.00     0.099 C 
ATOM      7  O   UNL     1      38.489  34.293 -11.265  1.00  0.00    -0.544 OA
ATOM      8  O   UNL     1      36.823  33.916  -9.744  1.00  0.00    -0.544 OA
ENDBRANCH   1   6
BRANCH   1   9
ATOM      9  C   UNL     1      40.237  33.202  -9.008  1.00  0.00     0.047 C 
ATOM     10  C   UNL     1      40.962  32.985  -7.670  1.00  0.00     0.014 C 
ATOM     11  C   UNL     1      39.630  31.881  -9.502  1.00  0.00     0.014 C 
ENDBRANCH   1   9
TORSDOF 3
ENDMDL
MODEL 9
REMARK VINA RESULT:    -2.164      1.496      2.165
REMARK INTER + INTRA:          -2.527
REMARK INTER:                  -2.469
REMARK INTRA:                  -0.058
REMARK UNBOUND:                -0.047
REMARK SMILES CC(C)[C@@H]([NH3+])C(=O)[O-]
REMARK SMILES IDX 4 1 5 2 6 6 7 7 8 8 2 9 1 10 3 11
REMARK H PARENT 5 3 5 4 5 5
REMARK Flexibility Score: inf
ROOT
ATOM      1  C   UNL     1      37.028  33.394  -9.766  1.00  0.00     0.230 C 
ENDROOT
BRANCH   1   2
ATOM      2  N   UNL     1      37.069  34.847  -9.532  1.00  0.00    -0.350 N 
ATOM      3  H   UNL     1      36.148  35.161  -9.147  1.00  0.00     0.345 HD
ATOM      4  H   UNL     1      37.256  35.373 -10.415  1.00  0.00     0.345 HD
ATOM      5  H   UNL     1      37.802  35.082  -8.825  1.00  0.00     0.345 HD
ENDBRANCH   1   2
BRANCH   1   6
ATOM      6  C   UNL     1      35.604  32.899  -9.801  1.00  0.00     0.099 C 
ATOM      7  O   UNL     1      34.751  33.387  -9.013  1.00  0.00    -0.544 OA
ATOM      8  O   UNL     1      35.228  31.875 -10.662  1.00  0.00    -0.544 OA
ENDBRANCH   1   6
BRANCH   1   9
ATOM      9  C   UNL     1      37.797  32.964 -11.053  1.00  0.00     0.047 C 
ATOM     10  C   UNL     1      38.147  34.137 -11.983  1.00  0.00     0.014 C 
ATOM     11  C   UNL     1      39.061  32.156 -10.722  1.00  0.00     0.014 C 
ENDBRANCH   1   9
TORSDOF 3
ENDMDL
