MODEL 1
REMARK VINA RESULT:     0.052      0.000      0.000
REMARK INTER + INTRA:          -0.231
REMARK INTER:                   0.073
REMARK INTRA:                  -0.304
REMARK UNBOUND:                -0.304
REMARK SMILES CCCCCCCCC(=O)[O-]
REMARK SMILES IDX 6 1 7 2 8 3 9 4 10 5 11 6 5 7 4 8 3 9 2 10 1 11
REMARK H PARENT
REMARK Flexibility Score: inf
ROOT
ATOM      1  C   UNL     1       2.151  -6.969  11.215  1.00  0.00     0.000 C 
ENDROOT
BRANCH   1   2
ATOM      2  C   UNL     1       1.227  -7.545  12.294  1.00  0.00     0.006 C 
BRANCH   2   3
ATOM      3  C   UNL     1      -0.240  -7.474  11.857  1.00  0.00     0.053 C 
BRANCH   3   4
ATOM      4  C   UNL     1      -0.417  -8.108  10.513  1.00  0.00     0.041 C 
ATOM      5  O   UNL     1       0.035  -9.263  10.293  1.00  0.00    -0.550 OA
ATOM      6  O   UNL     1      -1.124  -7.444   9.519  1.00  0.00    -0.550 OA
ENDBRANCH   3   4
ENDBRANCH   2   3
ENDBRANCH   1   2
BRANCH   1   7
ATOM      7  C   UNL     1       3.319  -7.920  10.925  1.00  0.00     0.000 C 
BRANCH   7   8
ATOM      8  C   UNL     1       3.995  -8.376  12.227  1.00  0.00    -0.000 C 
BRANCH   8   9
ATOM      9  C   UNL     1       4.833  -7.251  12.873  1.00  0.00    -0.000 C 
BRANCH   9  10
ATOM     10  C   UNL     1       6.034  -6.811  12.019  1.00  0.00    -0.003 C 
ATOM     11  C   UNL     1       7.348  -6.799  12.797  1.00  0.00     0.004 C 
ENDBRANCH   9  10
ENDBRANCH   8   9
ENDBRANCH   7   8
ENDBRANCH   1   7
TORSDOF 7
ENDMDL
MODEL 2
REMARK VINA RESULT:     0.282      1.436      2.499
REMARK INTER + INTRA:           0.093
REMARK INTER:                   0.582
REMARK INTRA:                  -0.489
REMARK UNBOUND:                -0.304
REMARK SMILES CCCCCCCCC(=O)[O-]
REMARK SMILES IDX 6 1 7 2 8 3 9 4 10 5 11 6 5 7 4 8 3 9 2 10 1 11
REMARK H PARENT
REMARK Flexibility Score: inf
ROOT
ATOM      1  C   UNL     1       2.704  -6.214  11.637  1.00  0.00     0.000 C 
ENDROOT
BRANCH   1   2
ATOM      2  C   UNL     1       1.980  -7.457  11.107  1.00  0.00     0.006 C 
BRANCH   2   3
ATOM      3  C   UNL     1       0.573  -7.570  11.703  1.00  0.00     0.053 C 
BRANCH   3   4
ATOM      4  C   UNL     1      -0.423  -7.901  10.637  1.00  0.00     0.041 C 
ATOM      5  O   UNL     1      -0.762  -7.029   9.794  1.00  0.00    -0.550 OA
ATOM      6  O   UNL     1      -0.940  -9.187  10.544  1.00  0.00    -0.550 OA
ENDBRANCH   3   4
ENDBRANCH   2   3
ENDBRANCH   1   2
BRANCH   1   7
ATOM      7  C   UNL     1       3.957  -6.604  12.432  1.00  0.00     0.000 C 
BRANCH   7   8
ATOM      8  C   UNL     1       4.499  -7.966  11.973  1.00  0.00    -0.000 C 
BRANCH   8   9
ATOM      9  C   UNL     1       4.615  -8.970  13.140  1.00  0.00    -0.000 C 
BRANCH   9  10
ATOM     10  C   UNL     1       3.442  -8.897  14.133  1.00  0.00    -0.003 C 
ATOM     11  C   UNL     1       3.428 -10.055  15.129  1.00  0.00     0.004 C 
ENDBRANCH   9  10
ENDBRANCH   8   9
ENDBRANCH   7   8
ENDBRANCH   1   7
TORSDOF 7
ENDMDL
MODEL 3
REMARK VINA RESULT:     1.149      3.262      5.963
REMARK INTER + INTRA:           1.316
REMARK INTER:                   1.751
REMARK INTRA:                  -0.435
REMARK UNBOUND:                -0.304
REMARK SMILES CCCCCCCCC(=O)[O-]
REMARK SMILES IDX 6 1 7 2 8 3 9 4 10 5 11 6 5 7 4 8 3 9 2 10 1 11
REMARK H PARENT
REMARK Flexibility Score: inf
ROOT
ATOM      1  C   UNL     1       3.071  -8.183  10.889  1.00  0.00     0.000 C 
ENDROOT
BRANCH   1   2
ATOM      2  C   UNL     1       4.399  -8.619  11.520  1.00  0.00     0.006 C 
BRANCH   2   3
ATOM      3  C   UNL     1       4.722  -7.778  12.758  1.00  0.00     0.053 C 
BRANCH   3   4
ATOM      4  C   UNL     1       5.954  -6.962  12.531  1.00  0.00     0.041 C 
ATOM      5  O   UNL     1       5.983  -6.100  11.614  1.00  0.00    -0.550 OA
ATOM      6  O   UNL     1       7.055  -7.118  13.364  1.00  0.00    -0.550 OA
ENDBRANCH   3   4
ENDBRANCH   2   3
ENDBRANCH   1   2
BRANCH   1   7
ATOM      7  C   UNL     1       2.438  -7.031  11.679  1.00  0.00     0.000 C 
BRANCH   7   8
ATOM      8  C   UNL     1       0.906  -7.069  11.576  1.00  0.00    -0.000 C 
BRANCH   8   9
ATOM      9  C   UNL     1       0.391  -8.420  11.037  1.00  0.00    -0.000 C 
BRANCH   9  10
ATOM     10  C   UNL     1      -1.004  -8.335  10.395  1.00  0.00    -0.003 C 
ATOM     11  C   UNL     1      -1.125  -7.209   9.371  1.00  0.00     0.004 C 
ENDBRANCH   9  10
ENDBRANCH   8   9
ENDBRANCH   7   8
ENDBRANCH   1   7
TORSDOF 7
ENDMDL
MODEL 4
REMARK VINA RESULT:     1.265      2.840      5.657
REMARK INTER + INTRA:           1.478
REMARK INTER:                   1.932
REMARK INTRA:                  -0.454
REMARK UNBOUND:                -0.304
REMARK SMILES CCCCCCCCC(=O)[O-]
REMARK SMILES IDX 6 1 7 2 8 3 9 4 10 5 11 6 5 7 4 8 3 9 2 10 1 11
REMARK H PARENT
REMARK Flexibility Score: inf
ROOT
ATOM      1  C   UNL     1       2.233  -7.706  10.896  1.00  0.00     0.000 C 
ENDROOT
BRANCH   1   2
ATOM      2  C   UNL     1       2.952  -6.374  11.141  1.00  0.00     0.006 C 
BRANCH   2   3
ATOM      3  C   UNL     1       3.693  -6.387  12.481  1.00  0.00     0.053 C 
BRANCH   3   4
ATOM      4  C   UNL     1       4.770  -7.426  12.474  1.00  0.00     0.041 C 
ATOM      5  O   UNL     1       5.891  -7.172  11.961  1.00  0.00    -0.550 OA
ATOM      6  O   UNL     1       4.552  -8.657  13.079  1.00  0.00    -0.550 OA
ENDBRANCH   3   4
ENDBRANCH   2   3
ENDBRANCH   1   2
BRANCH   1   7
ATOM      7  C   UNL     1       1.209  -7.991  12.002  1.00  0.00     0.000 C 
BRANCH   7   8
ATOM      8  C   UNL     1      -0.194  -7.523  11.588  1.00  0.00    -0.000 C 
BRANCH   8   9
ATOM      9  C   UNL     1      -0.913  -8.557  10.694  1.00  0.00    -0.000 C 
BRANCH   9  10
ATOM     10  C   UNL     1      -1.125  -8.078   9.248  1.00  0.00    -0.003 C 
ATOM     11  C   UNL     1      -1.124  -6.556   9.115  1.00  0.00     0.004 C 
ENDBRANCH   9  10
ENDBRANCH   8   9
ENDBRANCH   7   8
ENDBRANCH   1   7
TORSDOF 7
ENDMDL
MODEL 5
REMARK VINA RESULT:     1.812      3.031      5.359
REMARK INTER + INTRA:           2.250
REMARK INTER:                   1.759
REMARK INTRA:                   0.491
REMARK UNBOUND:                -0.304
REMARK SMILES CCCCCCCCC(=O)[O-]
REMARK SMILES IDX 6 1 7 2 8 3 9 4 10 5 11 6 5 7 4 8 3 9 2 10 1 11
REMARK H PARENT
REMARK Flexibility Score: inf
ROOT
ATOM      1  C   UNL     1       4.354  -7.915  10.856  1.00  0.00     0.000 C 
ENDROOT
BRANCH   1   2
ATOM      2  C   UNL     1       4.824  -7.478  12.249  1.00  0.00     0.006 C 
BRANCH   2   3
ATOM      3  C   UNL     1       3.805  -7.874  13.322  1.00  0.00     0.053 C 
BRANCH   3   4
ATOM      4  C   UNL     1       4.149  -9.207  13.905  1.00  0.00     0.041 C 
ATOM      5  O   UNL     1       5.162  -9.834  13.497  1.00  0.00    -0.550 OA
ATOM      6  O   UNL     1       3.380  -9.735  14.934  1.00  0.00    -0.550 OA
ENDBRANCH   3   4
ENDBRANCH   2   3
ENDBRANCH   1   2
BRANCH   1   7
ATOM      7  C   UNL     1       2.867  -8.287  10.867  1.00  0.00     0.000 C 
BRANCH   7   8
ATOM      8  C   UNL     1       1.998  -7.076  11.239  1.00  0.00    -0.000 C 
BRANCH   8   9
ATOM      9  C   UNL     1       0.583  -7.491  11.692  1.00  0.00    -0.000 C 
BRANCH   9  10
ATOM     10  C   UNL     1      -0.452  -7.493  10.555  1.00  0.00    -0.003 C 
ATOM     11  C   UNL     1      -1.125  -8.850  10.360  1.00  0.00     0.004 C 
ENDBRANCH   9  10
ENDBRANCH   8   9
ENDBRANCH   7   8
ENDBRANCH   1   7
TORSDOF 7
ENDMDL
