MODEL 1
REMARK VINA RESULT:    -4.601      0.000      0.000
REMARK INTER + INTRA:          -5.307
REMARK INTER:                  -5.542
REMARK INTRA:                   0.235
REMARK UNBOUND:                 0.235
REMARK SMILES NC(=O)C[C@H]([NH3+])C(=O)[O-]
REMARK SMILES IDX 4 1 5 2 6 3 7 7 8 8 9 9 2 10 3 11 1 12
REMARK H PARENT 6 4 6 5 6 6 1 13 1 14
REMARK Flexibility Score: inf
ROOT
ATOM      1  C   UNL     1      21.630  14.241 -19.743  1.00  0.00     0.171 C 
ENDROOT
BRANCH   1   2
ATOM      2  C   UNL     1      21.918  12.926 -18.989  1.00  0.00     0.237 C 
BRANCH   2   3
ATOM      3  N   UNL     1      22.156  11.816 -19.921  1.00  0.00    -0.350 N 
ATOM      4  H   UNL     1      22.395  12.193 -20.867  1.00  0.00     0.345 HD
ATOM      5  H   UNL     1      21.292  11.235 -20.016  1.00  0.00     0.345 HD
ATOM      6  H   UNL     1      22.941  11.211 -19.585  1.00  0.00     0.345 HD
ENDBRANCH   2   3
BRANCH   2   7
ATOM      7  C   UNL     1      20.764  12.600 -18.079  1.00  0.00     0.100 C 
ATOM      8  O   UNL     1      19.823  11.871 -18.487  1.00  0.00    -0.544 OA
ATOM      9  O   UNL     1      20.739  13.088 -16.778  1.00  0.00    -0.544 OA
ENDBRANCH   2   7
ENDBRANCH   1   2
BRANCH   1  10
ATOM     10  C   UNL     1      20.667  14.032 -20.875  1.00  0.00     0.223 C 
ATOM     11  O   UNL     1      19.429  14.168 -20.679  1.00  0.00    -0.275 OA
ATOM     12  N   UNL     1      21.142  13.653 -22.166  1.00  0.00    -0.369 N 
ATOM     13  H   UNL     1      22.164  13.527 -22.341  1.00  0.00     0.159 HD
ATOM     14  H   UNL     1      20.470  13.496 -22.949  1.00  0.00     0.159 HD
ENDBRANCH   1  10
TORSDOF 4
ENDMDL
MODEL 2
REMARK VINA RESULT:    -4.454      1.098      1.098
REMARK INTER + INTRA:          -5.130
REMARK INTER:                  -4.736
REMARK INTRA:                  -0.395
REMARK UNBOUND:                 0.235
REMARK SMILES NC(=O)C[C@H]([NH3+])C(=O)[O-]
REMARK SMILES IDX 4 1 5 2 6 3 7 7 8 8 9 9 2 10 3 11 1 12
REMARK H PARENT 6 4 6 5 6 6 1 13 1 14
REMARK Flexibility Score: inf
ROOT
ATOM      1  C   UNL     1      21.631  14.251 -19.814  1.00  0.00     0.171 C 
ENDROOT
BRANCH   1   2
ATOM      2  C   UNL     1      21.929  12.975 -19.000  1.00  0.00     0.237 C 
BRANCH   2   3
ATOM      3  N   UNL     1      22.193  11.828 -19.879  1.00  0.00    -0.350 N 
ATOM      4  H   UNL     1      22.386  10.976 -19.303  1.00  0.00     0.345 HD
ATOM      5  H   UNL     1      23.036  12.014 -20.469  1.00  0.00     0.345 HD
ATOM      6  H   UNL     1      21.373  11.641 -20.502  1.00  0.00     0.345 HD
ENDBRANCH   2   3
BRANCH   2   7
ATOM      7  C   UNL     1      20.769  12.672 -18.090  1.00  0.00     0.100 C 
ATOM      8  O   UNL     1      19.759  12.065 -18.532  1.00  0.00    -0.544 OA
ATOM      9  O   UNL     1      20.813  13.046 -16.751  1.00  0.00    -0.544 OA
ENDBRANCH   2   7
ENDBRANCH   1   2
BRANCH   1  10
ATOM     10  C   UNL     1      20.732  13.968 -20.981  1.00  0.00     0.223 C 
ATOM     11  O   UNL     1      21.227  13.600 -22.080  1.00  0.00    -0.275 OA
ATOM     12  N   UNL     1      19.320  14.142 -20.864  1.00  0.00    -0.369 N 
ATOM     13  H   UNL     1      18.896  14.457 -19.963  1.00  0.00     0.159 HD
ATOM     14  H   UNL     1      18.697  13.957 -21.681  1.00  0.00     0.159 HD
ENDBRANCH   1  10
TORSDOF 4
ENDMDL
MODEL 3
REMARK VINA RESULT:    -4.453      1.874      3.586
REMARK INTER + INTRA:          -5.128
REMARK INTER:                  -5.391
REMARK INTRA:                   0.262
REMARK UNBOUND:                 0.235
REMARK SMILES NC(=O)C[C@H]([NH3+])C(=O)[O-]
REMARK SMILES IDX 4 1 5 2 6 3 7 7 8 8 9 9 2 10 3 11 1 12
REMARK H PARENT 6 4 6 5 6 6 1 13 1 14
REMARK Flexibility Score: inf
ROOT
ATOM      1  C   UNL     1      21.750  12.460 -18.870  1.00  0.00     0.171 C 
ENDROOT
BRANCH   1   2
ATOM      2  C   UNL     1      21.922  13.803 -19.610  1.00  0.00     0.237 C 
BRANCH   2   3
ATOM      3  N   UNL     1      21.924  14.934 -18.672  1.00  0.00    -0.350 N 
ATOM      4  H   UNL     1      22.772  14.886 -18.061  1.00  0.00     0.345 HD
ATOM      5  H   UNL     1      21.081  14.892 -18.056  1.00  0.00     0.345 HD
ATOM      6  H   UNL     1      21.927  15.845 -19.188  1.00  0.00     0.345 HD
ENDBRANCH   2   3
BRANCH   2   7
ATOM      7  C   UNL     1      20.818  13.970 -20.619  1.00  0.00     0.100 C 
ATOM      8  O   UNL     1      19.749  14.552 -20.299  1.00  0.00    -0.544 OA
ATOM      9  O   UNL     1      20.979  13.498 -21.917  1.00  0.00    -0.544 OA
ENDBRANCH   2   7
ENDBRANCH   1   2
BRANCH   1  10
ATOM     10  C   UNL     1      20.647  12.522 -17.855  1.00  0.00     0.223 C 
ATOM     11  O   UNL     1      19.474  12.199 -18.184  1.00  0.00    -0.275 OA
ATOM     12  N   UNL     1      20.912  12.972 -16.527  1.00  0.00    -0.369 N 
ATOM     13  H   UNL     1      21.877  13.253 -16.243  1.00  0.00     0.159 HD
ATOM     14  H   UNL     1      20.141  13.026 -15.826  1.00  0.00     0.159 HD
ENDBRANCH   1  10
TORSDOF 4
ENDMDL
MODEL 4
REMARK VINA RESULT:    -4.101      2.193      3.457
REMARK INTER + INTRA:          -4.705
REMARK INTER:                  -4.782
REMARK INTRA:                   0.077
REMARK UNBOUND:                 0.235
REMARK SMILES NC(=O)C[C@H]([NH3+])C(=O)[O-]
REMARK SMILES IDX 4 1 5 2 6 3 7 7 8 8 9 9 2 10 3 11 1 12
REMARK H PARENT 6 4 6 5 6 6 1 13 1 14
REMARK Flexibility Score: inf
ROOT
ATOM      1  C   UNL     1      20.305  12.526 -19.144  1.00  0.00     0.171 C 
ENDROOT
BRANCH   1   2
ATOM      2  C   UNL     1      20.837  13.825 -19.782  1.00  0.00     0.237 C 
BRANCH   2   3
ATOM      3  N   UNL     1      20.901  13.716 -21.246  1.00  0.00    -0.350 N 
ATOM      4  H   UNL     1      19.939  13.803 -21.650  1.00  0.00     0.345 HD
ATOM      5  H   UNL     1      21.281  12.781 -21.520  1.00  0.00     0.345 HD
ATOM      6  H   UNL     1      21.510  14.466 -21.648  1.00  0.00     0.345 HD
ENDBRANCH   2   3
BRANCH   2   7
ATOM      7  C   UNL     1      22.199  14.142 -19.226  1.00  0.00     0.100 C 
ATOM      8  O   UNL     1      22.427  15.269 -18.713  1.00  0.00    -0.544 OA
ATOM      9  O   UNL     1      23.209  13.187 -19.261  1.00  0.00    -0.544 OA
ENDBRANCH   2   7
ENDBRANCH   1   2
BRANCH   1  10
ATOM     10  C   UNL     1      20.049  12.692 -17.675  1.00  0.00     0.223 C 
ATOM     11  O   UNL     1      18.879  12.567 -17.224  1.00  0.00    -0.275 OA
ATOM     12  N   UNL     1      21.118  13.021 -16.789  1.00  0.00    -0.369 N 
ATOM     13  H   UNL     1      22.091  13.138 -17.149  1.00  0.00     0.159 HD
ATOM     14  H   UNL     1      20.936  13.148 -15.769  1.00  0.00     0.159 HD
ENDBRANCH   1  10
TORSDOF 4
ENDMDL
MODEL 5
REMARK VINA RESULT:    -3.983      2.381      3.042
REMARK INTER + INTRA:          -4.563
REMARK INTER:                  -4.390
REMARK INTRA:                  -0.173
REMARK UNBOUND:                 0.235
REMARK SMILES NC(=O)C[C@H]([NH3+])C(=O)[O-]
REMARK SMILES IDX 4 1 5 2 6 3 7 7 8 8 9 9 2 10 3 11 1 12
REMARK H PARENT 6 4 6 5 6 6 1 13 1 14
REMARK Flexibility Score: inf
ROOT
ATOM      1  C   UNL     1      21.651  14.828 -18.890  1.00  0.00     0.171 C 
ENDROOT
BRANCH   1   2
ATOM      2  C   UNL     1      21.241  13.856 -20.016  1.00  0.00     0.237 C 
BRANCH   2   3
ATOM      3  N   UNL     1      19.910  14.181 -20.545  1.00  0.00    -0.350 N 
ATOM      4  H   UNL     1      19.241  14.329 -19.754  1.00  0.00     0.345 HD
ATOM      5  H   UNL     1      19.550  13.389 -21.125  1.00  0.00     0.345 HD
ATOM      6  H   UNL     1      19.944  15.047 -21.130  1.00  0.00     0.345 HD
ENDBRANCH   2   3
BRANCH   2   7
ATOM      7  C   UNL     1      21.261  12.443 -19.497  1.00  0.00     0.100 C 
ATOM      8  O   UNL     1      22.229  11.684 -19.765  1.00  0.00    -0.544 OA
ATOM      9  O   UNL     1      20.220  11.972 -18.706  1.00  0.00    -0.544 OA
ENDBRANCH   2   7
ENDBRANCH   1   2
BRANCH   1  10
ATOM     10  C   UNL     1      23.112  15.168 -18.955  1.00  0.00     0.223 C 
ATOM     11  O   UNL     1      23.475  16.374 -18.950  1.00  0.00    -0.275 OA
ATOM     12  N   UNL     1      24.090  14.134 -19.051  1.00  0.00    -0.369 N 
ATOM     13  H   UNL     1      23.803  13.130 -19.067  1.00  0.00     0.159 HD
ATOM     14  H   UNL     1      25.104  14.372 -19.108  1.00  0.00     0.159 HD
ENDBRANCH   1  10
TORSDOF 4
ENDMDL
MODEL 6
REMARK VINA RESULT:    -3.901      1.974      2.305
REMARK INTER + INTRA:          -4.464
REMARK INTER:                  -4.553
REMARK INTRA:                   0.089
REMARK UNBOUND:                 0.235
REMARK SMILES NC(=O)C[C@H]([NH3+])C(=O)[O-]
REMARK SMILES IDX 4 1 5 2 6 3 7 7 8 8 9 9 2 10 3 11 1 12
REMARK H PARENT 6 4 6 5 6 6 1 13 1 14
REMARK Flexibility Score: inf
ROOT
ATOM      1  C   UNL     1      20.066  13.985 -19.733  1.00  0.00     0.171 C 
ENDROOT
BRANCH   1   2
ATOM      2  C   UNL     1      20.679  12.774 -19.001  1.00  0.00     0.237 C 
BRANCH   2   3
ATOM      3  N   UNL     1      20.442  12.847 -17.553  1.00  0.00    -0.350 N 
ATOM      4  H   UNL     1      20.482  13.844 -17.238  1.00  0.00     0.345 HD
ATOM      5  H   UNL     1      21.184  12.319 -17.040  1.00  0.00     0.345 HD
ATOM      6  H   UNL     1      19.506  12.448 -17.310  1.00  0.00     0.345 HD
ENDBRANCH   2   3
BRANCH   2   7
ATOM      7  C   UNL     1      22.157  12.707 -19.281  1.00  0.00     0.100 C 
ATOM      8  O   UNL     1      22.889  13.706 -19.058  1.00  0.00    -0.544 OA
ATOM      9  O   UNL     1      22.725  11.537 -19.771  1.00  0.00    -0.544 OA
ENDBRANCH   2   7
ENDBRANCH   1   2
BRANCH   1  10
ATOM     10  C   UNL     1      20.086  13.802 -21.223  1.00  0.00     0.223 C 
ATOM     11  O   UNL     1      19.002  13.774 -21.865  1.00  0.00    -0.275 OA
ATOM     12  N   UNL     1      21.323  13.631 -21.913  1.00  0.00    -0.369 N 
ATOM     13  H   UNL     1      22.228  13.642 -21.392  1.00  0.00     0.159 HD
ATOM     14  H   UNL     1      21.334  13.491 -22.947  1.00  0.00     0.159 HD
ENDBRANCH   1  10
TORSDOF 4
ENDMDL
MODEL 7
REMARK VINA RESULT:    -3.802      2.377      2.732
REMARK INTER + INTRA:          -4.344
REMARK INTER:                  -4.243
REMARK INTRA:                  -0.101
REMARK UNBOUND:                 0.235
REMARK SMILES NC(=O)C[C@H]([NH3+])C(=O)[O-]
REMARK SMILES IDX 4 1 5 2 6 3 7 7 8 8 9 9 2 10 3 11 1 12
REMARK H PARENT 6 4 6 5 6 6 1 13 1 14
REMARK Flexibility Score: inf
ROOT
ATOM      1  C   UNL     1      21.835  14.830 -18.917  1.00  0.00     0.171 C 
ENDROOT
BRANCH   1   2
ATOM      2  C   UNL     1      21.682  13.322 -19.205  1.00  0.00     0.237 C 
BRANCH   2   3
ATOM      3  N   UNL     1      21.326  13.079 -20.610  1.00  0.00    -0.350 N 
ATOM      4  H   UNL     1      20.381  13.481 -20.810  1.00  0.00     0.345 HD
ATOM      5  H   UNL     1      21.285  12.052 -20.798  1.00  0.00     0.345 HD
ATOM      6  H   UNL     1      22.027  13.518 -21.251  1.00  0.00     0.345 HD
ENDBRANCH   2   3
BRANCH   2   7
ATOM      7  C   UNL     1      20.634  12.737 -18.297  1.00  0.00     0.100 C 
ATOM      8  O   UNL     1      19.753  11.967 -18.761  1.00  0.00    -0.544 OA
ATOM      9  O   UNL     1      20.643  13.028 -16.938  1.00  0.00    -0.544 OA
ENDBRANCH   2   7
ENDBRANCH   1   2
BRANCH   1  10
ATOM     10  C   UNL     1      23.274  15.255 -18.931  1.00  0.00     0.223 C 
ATOM     11  O   UNL     1      24.184  14.395 -18.786  1.00  0.00    -0.275 OA
ATOM     12  N   UNL     1      23.619  16.632 -19.079  1.00  0.00    -0.369 N 
ATOM     13  H   UNL     1      22.876  17.357 -19.190  1.00  0.00     0.159 HD
ATOM     14  H   UNL     1      24.620  16.927 -19.077  1.00  0.00     0.159 HD
ENDBRANCH   1  10
TORSDOF 4
ENDMDL
MODEL 8
REMARK VINA RESULT:    -3.724      2.393      3.733
REMARK INTER + INTRA:          -4.251
REMARK INTER:                  -4.159
REMARK INTRA:                  -0.092
REMARK UNBOUND:                 0.235
REMARK SMILES NC(=O)C[C@H]([NH3+])C(=O)[O-]
REMARK SMILES IDX 4 1 5 2 6 3 7 7 8 8 9 9 2 10 3 11 1 12
REMARK H PARENT 6 4 6 5 6 6 1 13 1 14
REMARK Flexibility Score: inf
ROOT
ATOM      1  C   UNL     1      21.965  12.042 -19.531  1.00  0.00     0.171 C 
ENDROOT
BRANCH   1   2
ATOM      2  C   UNL     1      21.625  13.546 -19.503  1.00  0.00     0.237 C 
BRANCH   2   3
ATOM      3  N   UNL     1      21.158  13.965 -18.174  1.00  0.00    -0.350 N 
ATOM      4  H   UNL     1      21.784  14.716 -17.800  1.00  0.00     0.345 HD
ATOM      5  H   UNL     1      21.194  13.158 -17.510  1.00  0.00     0.345 HD
ATOM      6  H   UNL     1      20.178  14.328 -18.222  1.00  0.00     0.345 HD
ENDBRANCH   2   3
BRANCH   2   7
ATOM      7  C   UNL     1      20.575  13.847 -20.539  1.00  0.00     0.100 C 
ATOM      8  O   UNL     1      19.457  14.310 -20.191  1.00  0.00    -0.544 OA
ATOM      9  O   UNL     1      20.839  13.633 -21.887  1.00  0.00    -0.544 OA
ENDBRANCH   2   7
ENDBRANCH   1   2
BRANCH   1  10
ATOM     10  C   UNL     1      23.442  11.804 -19.410  1.00  0.00     0.223 C 
ATOM     11  O   UNL     1      23.888  10.625 -19.397  1.00  0.00    -0.275 OA
ATOM     12  N   UNL     1      24.342  12.903 -19.281  1.00  0.00    -0.369 N 
ATOM     13  H   UNL     1      23.986  13.885 -19.280  1.00  0.00     0.159 HD
ATOM     14  H   UNL     1      25.367  12.736 -19.185  1.00  0.00     0.159 HD
ENDBRANCH   1  10
TORSDOF 4
ENDMDL
MODEL 9
REMARK VINA RESULT:    -3.630      2.166      3.304
REMARK INTER + INTRA:          -4.138
REMARK INTER:                  -3.781
REMARK INTRA:                  -0.357
REMARK UNBOUND:                 0.235
REMARK SMILES NC(=O)C[C@H]([NH3+])C(=O)[O-]
REMARK SMILES IDX 4 1 5 2 6 3 7 7 8 8 9 9 2 10 3 11 1 12
REMARK H PARENT 6 4 6 5 6 6 1 13 1 14
REMARK Flexibility Score: inf
ROOT
ATOM      1  C   UNL     1      21.457  13.433 -18.377  1.00  0.00     0.171 C 
ENDROOT
BRANCH   1   2
ATOM      2  C   UNL     1      21.004  12.640 -19.620  1.00  0.00     0.237 C 
BRANCH   2   3
ATOM      3  N   UNL     1      22.088  11.799 -20.143  1.00  0.00    -0.350 N 
ATOM      4  H   UNL     1      22.407  12.167 -21.070  1.00  0.00     0.345 HD
ATOM      5  H   UNL     1      21.747  10.821 -20.287  1.00  0.00     0.345 HD
ATOM      6  H   UNL     1      22.900  11.786 -19.483  1.00  0.00     0.345 HD
ENDBRANCH   2   3
BRANCH   2   7
ATOM      7  C   UNL     1      20.529  13.594 -20.684  1.00  0.00     0.100 C 
ATOM      8  O   UNL     1      19.611  14.417 -20.432  1.00  0.00    -0.544 OA
ATOM      9  O   UNL     1      21.114  13.583 -21.945  1.00  0.00    -0.544 OA
ENDBRANCH   2   7
ENDBRANCH   1   2
BRANCH   1  10
ATOM     10  C   UNL     1      22.595  14.358 -18.692  1.00  0.00     0.223 C 
ATOM     11  O   UNL     1      23.668  13.894 -19.165  1.00  0.00    -0.275 OA
ATOM     12  N   UNL     1      22.482  15.756 -18.432  1.00  0.00    -0.369 N 
ATOM     13  H   UNL     1      21.604  16.153 -18.031  1.00  0.00     0.159 HD
ATOM     14  H   UNL     1      23.279  16.397 -18.640  1.00  0.00     0.159 HD
ENDBRANCH   1  10
TORSDOF 4
ENDMDL
