MODEL 1
REMARK VINA RESULT:    -5.807      0.000      0.000
REMARK INTER + INTRA:         -11.733
REMARK INTER:                 -10.559
REMARK INTRA:                  -1.174
REMARK UNBOUND:                -1.174
REMARK SMILES CCCCCCCCCCCCCCCC(=O)[O-]
REMARK SMILES IDX 9 1 10 2 11 3 12 4 13 5 14 6 15 7 16 8 17 9 18 10 8 11 7 12
REMARK SMILES IDX 6 13 5 14 4 15 3 16 2 17 1 18
REMARK H PARENT
REMARK Flexibility Score: inf
ROOT
ATOM      1  C   UNL     1      43.162  39.903  15.526  1.00  0.00     0.000 C 
ENDROOT
BRANCH   1   2
ATOM      2  C   UNL     1      42.634  41.316  15.228  1.00  0.00     0.000 C 
BRANCH   2   3
ATOM      3  C   UNL     1      41.111  41.428  15.416  1.00  0.00     0.000 C 
BRANCH   3   4
ATOM      4  C   UNL     1      40.619  40.728  16.694  1.00  0.00     0.000 C 
BRANCH   4   5
ATOM      5  C   UNL     1      41.264  41.298  17.970  1.00  0.00     0.000 C 
BRANCH   5   6
ATOM      6  C   UNL     1      41.377  40.250  19.090  1.00  0.00     0.006 C 
BRANCH   6   7
ATOM      7  C   UNL     1      42.420  40.626  20.150  1.00  0.00     0.053 C 
BRANCH   7   8
ATOM      8  C   UNL     1      42.303  42.075  20.505  1.00  0.00     0.041 C 
ATOM      9  O   UNL     1      43.224  42.878  20.204  1.00  0.00    -0.550 OA
ATOM     10  O   UNL     1      41.150  42.549  21.118  1.00  0.00    -0.550 OA
ENDBRANCH   7   8
ENDBRANCH   6   7
ENDBRANCH   5   6
ENDBRANCH   4   5
ENDBRANCH   3   4
ENDBRANCH   2   3
ENDBRANCH   1   2
BRANCH   1  11
ATOM     11  C   UNL     1      44.301  39.484  14.585  1.00  0.00     0.000 C 
BRANCH  11  12
ATOM     12  C   UNL     1      43.851  38.348  13.654  1.00  0.00    -0.000 C 
BRANCH  12  13
ATOM     13  C   UNL     1      42.795  37.435  14.299  1.00  0.00    -0.000 C 
BRANCH  13  14
ATOM     14  C   UNL     1      41.953  36.679  13.256  1.00  0.00    -0.000 C 
BRANCH  14  15
ATOM     15  C   UNL     1      40.464  37.056  13.317  1.00  0.00    -0.000 C 
BRANCH  15  16
ATOM     16  C   UNL     1      40.232  38.573  13.195  1.00  0.00    -0.000 C 
BRANCH  16  17
ATOM     17  C   UNL     1      39.151  38.921  12.160  1.00  0.00    -0.003 C 
ATOM     18  C   UNL     1      38.380  37.694  11.676  1.00  0.00     0.004 C 
ENDBRANCH  16  17
ENDBRANCH  15  16
ENDBRANCH  14  15
ENDBRANCH  13  14
ENDBRANCH  12  13
ENDBRANCH  11  12
ENDBRANCH   1  11
TORSDOF 14
ENDMDL
MODEL 2
REMARK VINA RESULT:    -5.759      1.583      1.778
REMARK INTER + INTRA:         -11.646
REMARK INTER:                 -10.142
REMARK INTRA:                  -1.503
REMARK UNBOUND:                -1.174
REMARK SMILES CCCCCCCCCCCCCCCC(=O)[O-]
REMARK SMILES IDX 9 1 10 2 11 3 12 4 13 5 14 6 15 7 16 8 17 9 18 10 8 11 7 12
REMARK SMILES IDX 6 13 5 14 4 15 3 16 2 17 1 18
REMARK H PARENT
REMARK Flexibility Score: inf
ROOT
ATOM      1  C   UNL     1      42.326  40.201  15.729  1.00  0.00     0.000 C 
ENDROOT
BRANCH   1   2
ATOM      2  C   UNL     1      41.212  41.203  15.384  1.00  0.00     0.000 C 
BRANCH   2   3
ATOM      3  C   UNL     1      41.708  42.660  15.391  1.00  0.00     0.000 C 
BRANCH   3   4
ATOM      4  C   UNL     1      41.563  43.328  16.769  1.00  0.00     0.000 C 
BRANCH   4   5
ATOM      5  C   UNL     1      42.918  43.578  17.455  1.00  0.00     0.000 C 
BRANCH   5   6
ATOM      6  C   UNL     1      43.331  42.422  18.380  1.00  0.00     0.006 C 
BRANCH   6   7
ATOM      7  C   UNL     1      42.330  42.189  19.519  1.00  0.00     0.053 C 
BRANCH   7   8
ATOM      8  C   UNL     1      42.022  40.730  19.651  1.00  0.00     0.041 C 
ATOM      9  O   UNL     1      42.584  40.041  20.542  1.00  0.00    -0.550 OA
ATOM     10  O   UNL     1      41.072  40.144  18.825  1.00  0.00    -0.550 OA
ENDBRANCH   7   8
ENDBRANCH   6   7
ENDBRANCH   5   6
ENDBRANCH   4   5
ENDBRANCH   3   4
ENDBRANCH   2   3
ENDBRANCH   1   2
BRANCH   1  11
ATOM     11  C   UNL     1      43.507  40.265  14.749  1.00  0.00     0.000 C 
BRANCH  11  12
ATOM     12  C   UNL     1      43.646  38.947  13.973  1.00  0.00    -0.000 C 
BRANCH  12  13
ATOM     13  C   UNL     1      42.709  37.847  14.500  1.00  0.00    -0.000 C 
BRANCH  13  14
ATOM     14  C   UNL     1      42.103  36.997  13.369  1.00  0.00    -0.000 C 
BRANCH  14  15
ATOM     15  C   UNL     1      40.577  37.152  13.269  1.00  0.00    -0.000 C 
BRANCH  15  16
ATOM     16  C   UNL     1      40.135  38.626  13.203  1.00  0.00    -0.000 C 
BRANCH  16  17
ATOM     17  C   UNL     1      39.105  38.881  12.091  1.00  0.00    -0.003 C 
ATOM     18  C   UNL     1      38.344  37.618  11.690  1.00  0.00     0.004 C 
ENDBRANCH  16  17
ENDBRANCH  15  16
ENDBRANCH  14  15
ENDBRANCH  13  14
ENDBRANCH  12  13
ENDBRANCH  11  12
ENDBRANCH   1  11
TORSDOF 14
ENDMDL
MODEL 3
REMARK VINA RESULT:    -5.723      2.435      3.574
REMARK INTER + INTRA:         -11.580
REMARK INTER:                  -9.681
REMARK INTRA:                  -1.899
REMARK UNBOUND:                -1.174
REMARK SMILES CCCCCCCCCCCCCCCC(=O)[O-]
REMARK SMILES IDX 9 1 10 2 11 3 12 4 13 5 14 6 15 7 16 8 17 9 18 10 8 11 7 12
REMARK SMILES IDX 6 13 5 14 4 15 3 16 2 17 1 18
REMARK H PARENT
REMARK Flexibility Score: inf
ROOT
ATOM      1  C   UNL     1      40.694  40.489  16.178  1.00  0.00     0.000 C 
ENDROOT
BRANCH   1   2
ATOM      2  C   UNL     1      40.598  41.147  17.565  1.00  0.00     0.000 C 
BRANCH   2   3
ATOM      3  C   UNL     1      41.624  40.577  18.559  1.00  0.00     0.000 C 
BRANCH   3   4
ATOM      4  C   UNL     1      42.510  41.667  19.186  1.00  0.00     0.000 C 
BRANCH   4   5
ATOM      5  C   UNL     1      43.439  42.341  18.161  1.00  0.00     0.000 C 
BRANCH   5   6
ATOM      6  C   UNL     1      43.135  43.838  17.987  1.00  0.00     0.006 C 
BRANCH   6   7
ATOM      7  C   UNL     1      43.474  44.352  16.582  1.00  0.00     0.053 C 
BRANCH   7   8
ATOM      8  C   UNL     1      42.228  44.777  15.869  1.00  0.00     0.041 C 
ATOM      9  O   UNL     1      41.115  44.728  16.454  1.00  0.00    -0.550 OA
ATOM     10  O   UNL     1      42.305  45.280  14.577  1.00  0.00    -0.550 OA
ENDBRANCH   7   8
ENDBRANCH   6   7
ENDBRANCH   5   6
ENDBRANCH   4   5
ENDBRANCH   3   4
ENDBRANCH   2   3
ENDBRANCH   1   2
BRANCH   1  11
ATOM     11  C   UNL     1      41.458  41.353  15.163  1.00  0.00     0.000 C 
BRANCH  11  12
ATOM     12  C   UNL     1      42.885  40.823  14.958  1.00  0.00    -0.000 C 
BRANCH  12  13
ATOM     13  C   UNL     1      42.975  39.295  15.098  1.00  0.00    -0.000 C 
BRANCH  13  14
ATOM     14  C   UNL     1      42.840  38.570  13.747  1.00  0.00    -0.000 C 
BRANCH  14  15
ATOM     15  C   UNL     1      42.189  37.184  13.884  1.00  0.00    -0.000 C 
BRANCH  15  16
ATOM     16  C   UNL     1      40.780  37.128  13.267  1.00  0.00    -0.000 C 
BRANCH  16  17
ATOM     17  C   UNL     1      40.116  38.512  13.192  1.00  0.00    -0.003 C 
ATOM     18  C   UNL     1      39.112  38.624  12.045  1.00  0.00     0.004 C 
ENDBRANCH  16  17
ENDBRANCH  15  16
ENDBRANCH  14  15
ENDBRANCH  13  14
ENDBRANCH  12  13
ENDBRANCH  11  12
ENDBRANCH   1  11
TORSDOF 14
ENDMDL
MODEL 4
REMARK VINA RESULT:    -5.433      3.460      7.058
REMARK INTER + INTRA:         -11.053
REMARK INTER:                  -9.215
REMARK INTRA:                  -1.839
REMARK UNBOUND:                -1.174
REMARK SMILES CCCCCCCCCCCCCCCC(=O)[O-]
REMARK SMILES IDX 9 1 10 2 11 3 12 4 13 5 14 6 15 7 16 8 17 9 18 10 8 11 7 12
REMARK SMILES IDX 6 13 5 14 4 15 3 16 2 17 1 18
REMARK H PARENT
REMARK Flexibility Score: inf
ROOT
ATOM      1  C   UNL     1      40.854  41.058  16.466  1.00  0.00     0.000 C 
ENDROOT
BRANCH   1   2
ATOM      2  C   UNL     1      42.095  40.171  16.271  1.00  0.00     0.000 C 
BRANCH   2   3
ATOM      3  C   UNL     1      42.991  40.658  15.119  1.00  0.00     0.000 C 
BRANCH   3   4
ATOM      4  C   UNL     1      43.922  39.556  14.586  1.00  0.00     0.000 C 
BRANCH   4   5
ATOM      5  C   UNL     1      43.248  38.173  14.549  1.00  0.00     0.000 C 
BRANCH   5   6
ATOM      6  C   UNL     1      42.476  37.930  13.242  1.00  0.00     0.006 C 
BRANCH   6   7
ATOM      7  C   UNL     1      41.080  37.339  13.479  1.00  0.00     0.053 C 
BRANCH   7   8
ATOM      8  C   UNL     1      40.025  38.320  13.074  1.00  0.00     0.041 C 
ATOM      9  O   UNL     1      40.048  39.497  13.520  1.00  0.00    -0.550 OA
ATOM     10  O   UNL     1      39.048  37.950  12.158  1.00  0.00    -0.550 OA
ENDBRANCH   7   8
ENDBRANCH   6   7
ENDBRANCH   5   6
ENDBRANCH   4   5
ENDBRANCH   3   4
ENDBRANCH   2   3
ENDBRANCH   1   2
BRANCH   1  11
ATOM     11  C   UNL     1      40.982  42.419  15.766  1.00  0.00     0.000 C 
BRANCH  11  12
ATOM     12  C   UNL     1      41.144  43.549  16.794  1.00  0.00    -0.000 C 
BRANCH  12  13
ATOM     13  C   UNL     1      42.498  44.267  16.676  1.00  0.00    -0.000 C 
BRANCH  13  14
ATOM     14  C   UNL     1      43.389  44.052  17.913  1.00  0.00    -0.000 C 
BRANCH  14  15
ATOM     15  C   UNL     1      43.341  42.605  18.429  1.00  0.00    -0.000 C 
BRANCH  15  16
ATOM     16  C   UNL     1      42.973  42.521  19.922  1.00  0.00    -0.000 C 
BRANCH  16  17
ATOM     17  C   UNL     1      41.736  41.646  20.174  1.00  0.00    -0.003 C 
ATOM     18  C   UNL     1      42.013  40.157  19.966  1.00  0.00     0.004 C 
ENDBRANCH  16  17
ENDBRANCH  15  16
ENDBRANCH  14  15
ENDBRANCH  13  14
ENDBRANCH  12  13
ENDBRANCH  11  12
ENDBRANCH   1  11
TORSDOF 14
ENDMDL
MODEL 5
REMARK VINA RESULT:    -5.183      3.352      4.856
REMARK INTER + INTRA:         -10.598
REMARK INTER:                  -9.013
REMARK INTRA:                  -1.585
REMARK UNBOUND:                -1.174
REMARK SMILES CCCCCCCCCCCCCCCC(=O)[O-]
REMARK SMILES IDX 9 1 10 2 11 3 12 4 13 5 14 6 15 7 16 8 17 9 18 10 8 11 7 12
REMARK SMILES IDX 6 13 5 14 4 15 3 16 2 17 1 18
REMARK H PARENT
REMARK Flexibility Score: inf
ROOT
ATOM      1  C   UNL     1      41.600  40.814  19.426  1.00  0.00     0.000 C 
ENDROOT
BRANCH   1   2
ATOM      2  C   UNL     1      42.321  42.153  19.653  1.00  0.00     0.000 C 
BRANCH   2   3
ATOM      3  C   UNL     1      43.393  42.432  18.584  1.00  0.00     0.000 C 
BRANCH   3   4
ATOM      4  C   UNL     1      43.239  43.820  17.940  1.00  0.00     0.000 C 
BRANCH   4   5
ATOM      5  C   UNL     1      42.854  43.747  16.452  1.00  0.00     0.000 C 
BRANCH   5   6
ATOM      6  C   UNL     1      41.516  44.442  16.156  1.00  0.00     0.006 C 
BRANCH   6   7
ATOM      7  C   UNL     1      41.603  45.970  16.270  1.00  0.00     0.053 C 
BRANCH   7   8
ATOM      8  C   UNL     1      41.284  46.609  14.955  1.00  0.00     0.041 C 
ATOM      9  O   UNL     1      42.148  46.644  14.040  1.00  0.00    -0.550 OA
ATOM     10  O   UNL     1      40.013  47.117  14.721  1.00  0.00    -0.550 OA
ENDBRANCH   7   8
ENDBRANCH   6   7
ENDBRANCH   5   6
ENDBRANCH   4   5
ENDBRANCH   3   4
ENDBRANCH   2   3
ENDBRANCH   1   2
BRANCH   1  11
ATOM     11  C   UNL     1      41.733  40.305  17.983  1.00  0.00     0.000 C 
BRANCH  11  12
ATOM     12  C   UNL     1      40.603  40.858  17.101  1.00  0.00    -0.000 C 
BRANCH  12  13
ATOM     13  C   UNL     1      40.862  40.641  15.601  1.00  0.00    -0.000 C 
BRANCH  13  14
ATOM     14  C   UNL     1      42.165  39.866  15.334  1.00  0.00    -0.000 C 
BRANCH  14  15
ATOM     15  C   UNL     1      42.247  39.331  13.895  1.00  0.00    -0.000 C 
BRANCH  15  16
ATOM     16  C   UNL     1      42.081  37.801  13.823  1.00  0.00    -0.000 C 
BRANCH  16  17
ATOM     17  C   UNL     1      40.649  37.383  13.456  1.00  0.00    -0.003 C 
ATOM     18  C   UNL     1      39.870  38.495  12.754  1.00  0.00     0.004 C 
ENDBRANCH  16  17
ENDBRANCH  15  16
ENDBRANCH  14  15
ENDBRANCH  13  14
ENDBRANCH  12  13
ENDBRANCH  11  12
ENDBRANCH   1  11
TORSDOF 14
ENDMDL
MODEL 6
REMARK VINA RESULT:    -5.170      1.701      3.071
REMARK INTER + INTRA:         -10.575
REMARK INTER:                  -8.857
REMARK INTRA:                  -1.718
REMARK UNBOUND:                -1.174
REMARK SMILES CCCCCCCCCCCCCCCC(=O)[O-]
REMARK SMILES IDX 9 1 10 2 11 3 12 4 13 5 14 6 15 7 16 8 17 9 18 10 8 11 7 12
REMARK SMILES IDX 6 13 5 14 4 15 3 16 2 17 1 18
REMARK H PARENT
REMARK Flexibility Score: inf
ROOT
ATOM      1  C   UNL     1      41.054  42.285  15.272  1.00  0.00     0.000 C 
ENDROOT
BRANCH   1   2
ATOM      2  C   UNL     1      40.462  43.458  16.073  1.00  0.00     0.000 C 
BRANCH   2   3
ATOM      3  C   UNL     1      41.530  44.485  16.489  1.00  0.00     0.000 C 
BRANCH   3   4
ATOM      4  C   UNL     1      42.919  43.852  16.678  1.00  0.00     0.000 C 
BRANCH   4   5
ATOM      5  C   UNL     1      43.402  43.902  18.138  1.00  0.00     0.000 C 
BRANCH   5   6
ATOM      6  C   UNL     1      43.276  42.544  18.847  1.00  0.00     0.006 C 
BRANCH   6   7
ATOM      7  C   UNL     1      41.819  42.091  19.006  1.00  0.00     0.053 C 
BRANCH   7   8
ATOM      8  C   UNL     1      41.567  41.633  20.408  1.00  0.00     0.041 C 
ATOM      9  O   UNL     1      41.663  40.413  20.703  1.00  0.00    -0.550 OA
ATOM     10  O   UNL     1      41.282  42.561  21.402  1.00  0.00    -0.550 OA
ENDBRANCH   7   8
ENDBRANCH   6   7
ENDBRANCH   5   6
ENDBRANCH   4   5
ENDBRANCH   3   4
ENDBRANCH   2   3
ENDBRANCH   1   2
BRANCH   1  11
ATOM     11  C   UNL     1      40.831  40.928  15.955  1.00  0.00     0.000 C 
BRANCH  11  12
ATOM     12  C   UNL     1      42.148  40.144  16.059  1.00  0.00    -0.000 C 
BRANCH  12  13
ATOM     13  C   UNL     1      43.186  40.590  15.016  1.00  0.00    -0.000 C 
BRANCH  13  14
ATOM     14  C   UNL     1      44.061  39.424  14.520  1.00  0.00    -0.000 C 
BRANCH  14  15
ATOM     15  C   UNL     1      43.392  38.056  14.727  1.00  0.00    -0.000 C 
BRANCH  15  16
ATOM     16  C   UNL     1      42.904  37.430  13.408  1.00  0.00    -0.000 C 
BRANCH  16  17
ATOM     17  C   UNL     1      41.420  37.032  13.459  1.00  0.00    -0.003 C 
ATOM     18  C   UNL     1      40.482  38.235  13.360  1.00  0.00     0.004 C 
ENDBRANCH  16  17
ENDBRANCH  15  16
ENDBRANCH  14  15
ENDBRANCH  13  14
ENDBRANCH  12  13
ENDBRANCH  11  12
ENDBRANCH   1  11
TORSDOF 14
ENDMDL
MODEL 7
REMARK VINA RESULT:    -5.149      3.858      6.907
REMARK INTER + INTRA:         -10.537
REMARK INTER:                  -8.631
REMARK INTRA:                  -1.906
REMARK UNBOUND:                -1.174
REMARK SMILES CCCCCCCCCCCCCCCC(=O)[O-]
REMARK SMILES IDX 9 1 10 2 11 3 12 4 13 5 14 6 15 7 16 8 17 9 18 10 8 11 7 12
REMARK SMILES IDX 6 13 5 14 4 15 3 16 2 17 1 18
REMARK H PARENT
REMARK Flexibility Score: inf
ROOT
ATOM      1  C   UNL     1      41.077  40.715  16.090  1.00  0.00     0.000 C 
ENDROOT
BRANCH   1   2
ATOM      2  C   UNL     1      42.404  39.938  16.056  1.00  0.00     0.000 C 
BRANCH   2   3
ATOM      3  C   UNL     1      43.260  40.288  14.827  1.00  0.00     0.000 C 
BRANCH   3   4
ATOM      4  C   UNL     1      43.467  39.088  13.888  1.00  0.00     0.000 C 
BRANCH   4   5
ATOM      5  C   UNL     1      42.796  37.803  14.407  1.00  0.00     0.000 C 
BRANCH   5   6
ATOM      6  C   UNL     1      41.607  37.368  13.536  1.00  0.00     0.006 C 
BRANCH   6   7
ATOM      7  C   UNL     1      40.600  38.500  13.299  1.00  0.00     0.053 C 
BRANCH   7   8
ATOM      8  C   UNL     1      39.454  38.013  12.469  1.00  0.00     0.041 C 
ATOM      9  O   UNL     1      38.829  38.809  11.720  1.00  0.00    -0.550 OA
ATOM     10  O   UNL     1      39.112  36.667  12.479  1.00  0.00    -0.550 OA
ENDBRANCH   7   8
ENDBRANCH   6   7
ENDBRANCH   5   6
ENDBRANCH   4   5
ENDBRANCH   3   4
ENDBRANCH   2   3
ENDBRANCH   1   2
BRANCH   1  11
ATOM     11  C   UNL     1      40.599  41.011  17.519  1.00  0.00     0.000 C 
BRANCH  11  12
ATOM     12  C   UNL     1      41.665  40.605  18.548  1.00  0.00    -0.000 C 
BRANCH  12  13
ATOM     13  C   UNL     1      42.304  41.816  19.246  1.00  0.00    -0.000 C 
BRANCH  13  14
ATOM     14  C   UNL     1      43.397  42.482  18.390  1.00  0.00    -0.000 C 
BRANCH  14  15
ATOM     15  C   UNL     1      42.885  43.723  17.642  1.00  0.00    -0.000 C 
BRANCH  15  16
ATOM     16  C   UNL     1      43.316  43.743  16.164  1.00  0.00    -0.000 C 
BRANCH  16  17
ATOM     17  C   UNL     1      42.172  44.152  15.223  1.00  0.00    -0.003 C 
ATOM     18  C   UNL     1      40.860  44.407  15.965  1.00  0.00     0.004 C 
ENDBRANCH  16  17
ENDBRANCH  15  16
ENDBRANCH  14  15
ENDBRANCH  13  14
ENDBRANCH  12  13
ENDBRANCH  11  12
ENDBRANCH   1  11
TORSDOF 14
ENDMDL
MODEL 8
REMARK VINA RESULT:    -5.005      4.042      6.875
REMARK INTER + INTRA:         -10.275
REMARK INTER:                  -8.669
REMARK INTRA:                  -1.606
REMARK UNBOUND:                -1.174
REMARK SMILES CCCCCCCCCCCCCCCC(=O)[O-]
REMARK SMILES IDX 9 1 10 2 11 3 12 4 13 5 14 6 15 7 16 8 17 9 18 10 8 11 7 12
REMARK SMILES IDX 6 13 5 14 4 15 3 16 2 17 1 18
REMARK H PARENT
REMARK Flexibility Score: inf
ROOT
ATOM      1  C   UNL     1      41.399  40.657  18.693  1.00  0.00     0.000 C 
ENDROOT
BRANCH   1   2
ATOM      2  C   UNL     1      40.585  41.362  17.595  1.00  0.00     0.000 C 
BRANCH   2   3
ATOM      3  C   UNL     1      40.635  40.612  16.252  1.00  0.00     0.000 C 
BRANCH   3   4
ATOM      4  C   UNL     1      41.528  41.314  15.215  1.00  0.00     0.000 C 
BRANCH   4   5
ATOM      5  C   UNL     1      42.882  40.609  15.021  1.00  0.00     0.000 C 
BRANCH   5   6
ATOM      6  C   UNL     1      42.744  39.079  14.954  1.00  0.00     0.006 C 
BRANCH   6   7
ATOM      7  C   UNL     1      42.497  38.568  13.528  1.00  0.00     0.053 C 
BRANCH   7   8
ATOM      8  C   UNL     1      41.101  38.045  13.398  1.00  0.00     0.041 C 
ATOM      9  O   UNL     1      40.869  36.815  13.534  1.00  0.00    -0.550 OA
ATOM     10  O   UNL     1      40.047  38.924  13.183  1.00  0.00    -0.550 OA
ENDBRANCH   7   8
ENDBRANCH   6   7
ENDBRANCH   5   6
ENDBRANCH   4   5
ENDBRANCH   3   4
ENDBRANCH   2   3
ENDBRANCH   1   2
BRANCH   1  11
ATOM     11  C   UNL     1      42.403  41.593  19.382  1.00  0.00     0.000 C 
BRANCH  11  12
ATOM     12  C   UNL     1      43.405  42.162  18.366  1.00  0.00    -0.000 C 
BRANCH  12  13
ATOM     13  C   UNL     1      43.211  43.668  18.123  1.00  0.00    -0.000 C 
BRANCH  13  14
ATOM     14  C   UNL     1      43.182  44.024  16.625  1.00  0.00    -0.000 C 
BRANCH  14  15
ATOM     15  C   UNL     1      42.615  45.428  16.364  1.00  0.00    -0.000 C 
BRANCH  15  16
ATOM     16  C   UNL     1      41.244  45.391  15.663  1.00  0.00    -0.000 C 
BRANCH  16  17
ATOM     17  C   UNL     1      40.710  46.796  15.342  1.00  0.00    -0.003 C 
ATOM     18  C   UNL     1      41.367  47.409  14.105  1.00  0.00     0.004 C 
ENDBRANCH  16  17
ENDBRANCH  15  16
ENDBRANCH  14  15
ENDBRANCH  13  14
ENDBRANCH  12  13
ENDBRANCH  11  12
ENDBRANCH   1  11
TORSDOF 14
ENDMDL
MODEL 9
REMARK VINA RESULT:    -4.991      1.657      3.153
REMARK INTER + INTRA:         -10.250
REMARK INTER:                  -9.056
REMARK INTRA:                  -1.194
REMARK UNBOUND:                -1.174
REMARK SMILES CCCCCCCCCCCCCCCC(=O)[O-]
REMARK SMILES IDX 9 1 10 2 11 3 12 4 13 5 14 6 15 7 16 8 17 9 18 10 8 11 7 12
REMARK SMILES IDX 6 13 5 14 4 15 3 16 2 17 1 18
REMARK H PARENT
REMARK Flexibility Score: inf
ROOT
ATOM      1  C   UNL     1      40.991  42.767  16.116  1.00  0.00     0.000 C 
ENDROOT
BRANCH   1   2
ATOM      2  C   UNL     1      40.433  41.837  17.206  1.00  0.00     0.000 C 
BRANCH   2   3
ATOM      3  C   UNL     1      41.044  42.121  18.590  1.00  0.00     0.000 C 
BRANCH   3   4
ATOM      4  C   UNL     1      41.750  40.893  19.188  1.00  0.00     0.000 C 
BRANCH   4   5
ATOM      5  C   UNL     1      42.771  41.265  20.279  1.00  0.00     0.000 C 
BRANCH   5   6
ATOM      6  C   UNL     1      43.195  42.741  20.207  1.00  0.00     0.006 C 
BRANCH   6   7
ATOM      7  C   UNL     1      44.184  43.128  21.314  1.00  0.00     0.053 C 
BRANCH   7   8
ATOM      8  C   UNL     1      44.415  44.606  21.313  1.00  0.00     0.041 C 
ATOM      9  O   UNL     1      44.377  45.255  22.392  1.00  0.00    -0.550 OA
ATOM     10  O   UNL     1      44.727  45.260  20.128  1.00  0.00    -0.550 OA
ENDBRANCH   7   8
ENDBRANCH   6   7
ENDBRANCH   5   6
ENDBRANCH   4   5
ENDBRANCH   3   4
ENDBRANCH   2   3
ENDBRANCH   1   2
BRANCH   1  11
ATOM     11  C   UNL     1      41.783  42.011  15.039  1.00  0.00     0.000 C 
BRANCH  11  12
ATOM     12  C   UNL     1      41.654  40.493  15.231  1.00  0.00    -0.000 C 
BRANCH  12  13
ATOM     13  C   UNL     1      42.956  39.847  15.732  1.00  0.00    -0.000 C 
BRANCH  13  14
ATOM     14  C   UNL     1      43.531  38.827  14.732  1.00  0.00    -0.000 C 
BRANCH  14  15
ATOM     15  C   UNL     1      42.580  38.553  13.557  1.00  0.00    -0.000 C 
BRANCH  15  16
ATOM     16  C   UNL     1      42.004  37.125  13.582  1.00  0.00    -0.000 C 
BRANCH  16  17
ATOM     17  C   UNL     1      40.475  37.105  13.421  1.00  0.00    -0.003 C 
ATOM     18  C   UNL     1      39.927  38.401  12.824  1.00  0.00     0.004 C 
ENDBRANCH  16  17
ENDBRANCH  15  16
ENDBRANCH  14  15
ENDBRANCH  13  14
ENDBRANCH  12  13
ENDBRANCH  11  12
ENDBRANCH   1  11
TORSDOF 14
ENDMDL
