MODEL 1
REMARK VINA RESULT:    -4.033      0.000      0.000
REMARK INTER + INTRA:          -5.655
REMARK INTER:                  -5.448
REMARK INTRA:                  -0.207
REMARK UNBOUND:                -0.207
REMARK SMILES CCCCCCCC(=O)[O-]
REMARK SMILES IDX 5 1 6 2 7 3 8 4 9 5 10 6 4 7 3 8 2 9 1 10
REMARK H PARENT
REMARK Flexibility Score: inf
ROOT
ATOM      1  C   UNL     1      16.489  68.263  34.873  1.00  0.00     0.000 C 
ENDROOT
BRANCH   1   2
ATOM      2  C   UNL     1      17.270  67.854  36.134  1.00  0.00     0.006 C 
BRANCH   2   3
ATOM      3  C   UNL     1      18.447  68.789  36.436  1.00  0.00     0.053 C 
BRANCH   3   4
ATOM      4  C   UNL     1      19.356  68.173  37.452  1.00  0.00     0.041 C 
ATOM      5  O   UNL     1      19.881  68.886  38.347  1.00  0.00    -0.550 OA
ATOM      6  O   UNL     1      19.663  66.820  37.383  1.00  0.00    -0.550 OA
ENDBRANCH   3   4
ENDBRANCH   2   3
ENDBRANCH   1   2
BRANCH   1   7
ATOM      7  C   UNL     1      17.276  69.133  33.871  1.00  0.00     0.000 C 
BRANCH   7   8
ATOM      8  C   UNL     1      16.463  69.639  32.668  1.00  0.00    -0.000 C 
BRANCH   8   9
ATOM      9  C   UNL     1      15.256  68.747  32.345  1.00  0.00    -0.003 C 
ATOM     10  C   UNL     1      14.557  69.208  31.069  1.00  0.00     0.004 C 
ENDBRANCH   8   9
ENDBRANCH   7   8
ENDBRANCH   1   7
TORSDOF 6
ENDMDL
MODEL 2
REMARK VINA RESULT:    -3.980      1.556      2.023
REMARK INTER + INTRA:          -5.583
REMARK INTER:                  -5.378
REMARK INTRA:                  -0.205
REMARK UNBOUND:                -0.207
REMARK SMILES CCCCCCCC(=O)[O-]
REMARK SMILES IDX 5 1 6 2 7 3 8 4 9 5 10 6 4 7 3 8 2 9 1 10
REMARK H PARENT
REMARK Flexibility Score: inf
ROOT
ATOM      1  C   UNL     1      16.363  66.806  34.903  1.00  0.00     0.000 C 
ENDROOT
BRANCH   1   2
ATOM      2  C   UNL     1      16.504  67.879  35.996  1.00  0.00     0.006 C 
BRANCH   2   3
ATOM      3  C   UNL     1      17.838  67.793  36.748  1.00  0.00     0.053 C 
BRANCH   3   4
ATOM      4  C   UNL     1      18.688  68.984  36.441  1.00  0.00     0.041 C 
ATOM      5  O   UNL     1      19.746  69.192  37.091  1.00  0.00    -0.550 OA
ATOM      6  O   UNL     1      18.288  69.893  35.469  1.00  0.00    -0.550 OA
ENDBRANCH   3   4
ENDBRANCH   2   3
ENDBRANCH   1   2
BRANCH   1   7
ATOM      7  C   UNL     1      15.032  66.838  34.123  1.00  0.00     0.000 C 
BRANCH   7   8
ATOM      8  C   UNL     1      15.156  67.224  32.639  1.00  0.00    -0.000 C 
BRANCH   8   9
ATOM      9  C   UNL     1      15.246  68.741  32.422  1.00  0.00    -0.003 C 
ATOM     10  C   UNL     1      14.569  69.151  31.117  1.00  0.00     0.004 C 
ENDBRANCH   8   9
ENDBRANCH   7   8
ENDBRANCH   1   7
TORSDOF 6
ENDMDL
MODEL 3
REMARK VINA RESULT:    -3.962      2.973      5.430
REMARK INTER + INTRA:          -5.558
REMARK INTER:                  -5.294
REMARK INTRA:                  -0.264
REMARK UNBOUND:                -0.207
REMARK SMILES CCCCCCCC(=O)[O-]
REMARK SMILES IDX 5 1 6 2 7 3 8 4 9 5 10 6 4 7 3 8 2 9 1 10
REMARK H PARENT
REMARK Flexibility Score: inf
ROOT
ATOM      1  C   UNL     1      17.008  70.577  34.092  1.00  0.00     0.000 C 
ENDROOT
BRANCH   1   2
ATOM      2  C   UNL     1      16.979  69.444  33.052  1.00  0.00     0.006 C 
BRANCH   2   3
ATOM      3  C   UNL     1      15.555  69.027  32.665  1.00  0.00     0.053 C 
BRANCH   3   4
ATOM      4  C   UNL     1      15.270  67.638  33.142  1.00  0.00     0.041 C 
ATOM      5  O   UNL     1      14.894  66.753  32.328  1.00  0.00    -0.550 OA
ATOM      6  O   UNL     1      15.371  67.331  34.493  1.00  0.00    -0.550 OA
ENDBRANCH   3   4
ENDBRANCH   2   3
ENDBRANCH   1   2
BRANCH   1   7
ATOM      7  C   UNL     1      18.104  70.447  35.170  1.00  0.00     0.000 C 
BRANCH   7   8
ATOM      8  C   UNL     1      18.124  69.105  35.922  1.00  0.00    -0.000 C 
BRANCH   8   9
ATOM      9  C   UNL     1      19.249  69.021  36.963  1.00  0.00    -0.003 C 
ATOM     10  C   UNL     1      18.749  69.425  38.347  1.00  0.00     0.004 C 
ENDBRANCH   8   9
ENDBRANCH   7   8
ENDBRANCH   1   7
TORSDOF 6
ENDMDL
MODEL 4
REMARK VINA RESULT:    -3.924      1.218      2.034
REMARK INTER + INTRA:          -5.507
REMARK INTER:                  -5.128
REMARK INTRA:                  -0.379
REMARK UNBOUND:                -0.207
REMARK SMILES CCCCCCCC(=O)[O-]
REMARK SMILES IDX 5 1 6 2 7 3 8 4 9 5 10 6 4 7 3 8 2 9 1 10
REMARK H PARENT
REMARK Flexibility Score: inf
ROOT
ATOM      1  C   UNL     1      17.119  70.152  34.375  1.00  0.00     0.000 C 
ENDROOT
BRANCH   1   2
ATOM      2  C   UNL     1      18.198  69.475  35.239  1.00  0.00     0.006 C 
BRANCH   2   3
ATOM      3  C   UNL     1      17.622  68.420  36.191  1.00  0.00     0.053 C 
BRANCH   3   4
ATOM      4  C   UNL     1      18.380  68.412  37.481  1.00  0.00     0.041 C 
ATOM      5  O   UNL     1      18.895  67.345  37.907  1.00  0.00    -0.550 OA
ATOM      6  O   UNL     1      18.476  69.572  38.239  1.00  0.00    -0.550 OA
ENDBRANCH   3   4
ENDBRANCH   2   3
ENDBRANCH   1   2
BRANCH   1   7
ATOM      7  C   UNL     1      16.866  69.487  33.006  1.00  0.00     0.000 C 
BRANCH   7   8
ATOM      8  C   UNL     1      15.402  69.103  32.728  1.00  0.00    -0.000 C 
BRANCH   8   9
ATOM      9  C   UNL     1      15.206  67.590  32.553  1.00  0.00    -0.003 C 
ATOM     10  C   UNL     1      15.198  66.877  33.903  1.00  0.00     0.004 C 
ENDBRANCH   8   9
ENDBRANCH   7   8
ENDBRANCH   1   7
TORSDOF 6
ENDMDL
MODEL 5
REMARK VINA RESULT:    -3.921      1.213      2.150
REMARK INTER + INTRA:          -5.503
REMARK INTER:                  -5.118
REMARK INTRA:                  -0.385
REMARK UNBOUND:                -0.207
REMARK SMILES CCCCCCCC(=O)[O-]
REMARK SMILES IDX 5 1 6 2 7 3 8 4 9 5 10 6 4 7 3 8 2 9 1 10
REMARK H PARENT
REMARK Flexibility Score: inf
ROOT
ATOM      1  C   UNL     1      15.777  67.467  35.451  1.00  0.00     0.000 C 
ENDROOT
BRANCH   1   2
ATOM      2  C   UNL     1      17.170  67.074  35.972  1.00  0.00     0.006 C 
BRANCH   2   3
ATOM      3  C   UNL     1      17.607  67.902  37.186  1.00  0.00     0.053 C 
BRANCH   3   4
ATOM      4  C   UNL     1      19.099  67.990  37.249  1.00  0.00     0.041 C 
ATOM      5  O   UNL     1      19.783  66.969  37.521  1.00  0.00    -0.550 OA
ATOM      6  O   UNL     1      19.734  69.211  37.056  1.00  0.00    -0.550 OA
ENDBRANCH   3   4
ENDBRANCH   2   3
ENDBRANCH   1   2
BRANCH   1   7
ATOM      7  C   UNL     1      15.639  67.498  33.914  1.00  0.00     0.000 C 
BRANCH   7   8
ATOM      8  C   UNL     1      15.743  68.894  33.278  1.00  0.00    -0.000 C 
BRANCH   8   9
ATOM      9  C   UNL     1      17.173  69.454  33.300  1.00  0.00    -0.003 C 
ATOM     10  C   UNL     1      17.295  70.611  34.288  1.00  0.00     0.004 C 
ENDBRANCH   8   9
ENDBRANCH   7   8
ENDBRANCH   1   7
TORSDOF 6
ENDMDL
MODEL 6
REMARK VINA RESULT:    -3.881      5.143      6.105
REMARK INTER + INTRA:          -5.450
REMARK INTER:                  -5.285
REMARK INTRA:                  -0.165
REMARK UNBOUND:                -0.207
REMARK SMILES CCCCCCCC(=O)[O-]
REMARK SMILES IDX 5 1 6 2 7 3 8 4 9 5 10 6 4 7 3 8 2 9 1 10
REMARK H PARENT
REMARK Flexibility Score: inf
ROOT
ATOM      1  C   UNL     1      14.447  65.261  33.336  1.00  0.00     0.000 C 
ENDROOT
BRANCH   1   2
ATOM      2  C   UNL     1      14.869  66.547  32.604  1.00  0.00     0.006 C 
BRANCH   2   3
ATOM      3  C   UNL     1      15.658  67.510  33.499  1.00  0.00     0.053 C 
BRANCH   3   4
ATOM      4  C   UNL     1      15.632  68.892  32.929  1.00  0.00     0.041 C 
ATOM      5  O   UNL     1      14.942  69.143  31.906  1.00  0.00    -0.550 OA
ATOM      6  O   UNL     1      16.409  69.894  33.497  1.00  0.00    -0.550 OA
ENDBRANCH   3   4
ENDBRANCH   2   3
ENDBRANCH   1   2
BRANCH   1   7
ATOM      7  C   UNL     1      13.615  64.272  32.493  1.00  0.00     0.000 C 
BRANCH   7   8
ATOM      8  C   UNL     1      12.380  63.690  33.200  1.00  0.00    -0.000 C 
BRANCH   8   9
ATOM      9  C   UNL     1      11.377  63.056  32.225  1.00  0.00    -0.003 C 
ATOM     10  C   UNL     1      11.905  63.092  30.794  1.00  0.00     0.004 C 
ENDBRANCH   8   9
ENDBRANCH   7   8
ENDBRANCH   1   7
TORSDOF 6
ENDMDL
MODEL 7
REMARK VINA RESULT:    -3.826      3.351      5.758
REMARK INTER + INTRA:          -5.376
REMARK INTER:                  -5.111
REMARK INTRA:                  -0.264
REMARK UNBOUND:                -0.207
REMARK SMILES CCCCCCCC(=O)[O-]
REMARK SMILES IDX 5 1 6 2 7 3 8 4 9 5 10 6 4 7 3 8 2 9 1 10
REMARK H PARENT
REMARK Flexibility Score: inf
ROOT
ATOM      1  C   UNL     1      18.291  69.553  35.611  1.00  0.00     0.000 C 
ENDROOT
BRANCH   1   2
ATOM      2  C   UNL     1      17.043  68.947  34.947  1.00  0.00     0.006 C 
BRANCH   2   3
ATOM      3  C   UNL     1      16.709  69.598  33.600  1.00  0.00     0.053 C 
BRANCH   3   4
ATOM      4  C   UNL     1      15.631  68.831  32.902  1.00  0.00     0.041 C 
ATOM      5  O   UNL     1      15.280  67.700  33.328  1.00  0.00    -0.550 OA
ATOM      6  O   UNL     1      15.047  69.343  31.750  1.00  0.00    -0.550 OA
ENDBRANCH   3   4
ENDBRANCH   2   3
ENDBRANCH   1   2
BRANCH   1   7
ATOM      7  C   UNL     1      18.850  68.752  36.806  1.00  0.00     0.000 C 
BRANCH   7   8
ATOM      8  C   UNL     1      18.622  69.393  38.185  1.00  0.00    -0.000 C 
BRANCH   8   9
ATOM      9  C   UNL     1      17.871  68.470  39.155  1.00  0.00    -0.003 C 
ATOM     10  C   UNL     1      17.647  67.091  38.539  1.00  0.00     0.004 C 
ENDBRANCH   8   9
ENDBRANCH   7   8
ENDBRANCH   1   7
TORSDOF 6
ENDMDL
MODEL 8
REMARK VINA RESULT:    -3.817      3.107      5.366
REMARK INTER + INTRA:          -5.363
REMARK INTER:                  -4.951
REMARK INTRA:                  -0.412
REMARK UNBOUND:                -0.207
REMARK SMILES CCCCCCCC(=O)[O-]
REMARK SMILES IDX 5 1 6 2 7 3 8 4 9 5 10 6 4 7 3 8 2 9 1 10
REMARK H PARENT
REMARK Flexibility Score: inf
ROOT
ATOM      1  C   UNL     1      16.678  66.738  36.447  1.00  0.00     0.000 C 
ENDROOT
BRANCH   1   2
ATOM      2  C   UNL     1      16.192  67.936  35.611  1.00  0.00     0.006 C 
BRANCH   2   3
ATOM      3  C   UNL     1      17.331  68.876  35.199  1.00  0.00     0.053 C 
BRANCH   3   4
ATOM      4  C   UNL     1      16.861  69.838  34.155  1.00  0.00     0.041 C 
ATOM      5  O   UNL     1      17.120  71.066  34.262  1.00  0.00    -0.550 OA
ATOM      6  O   UNL     1      16.094  69.389  33.088  1.00  0.00    -0.550 OA
ENDBRANCH   3   4
ENDBRANCH   2   3
ENDBRANCH   1   2
BRANCH   1   7
ATOM      7  C   UNL     1      17.885  67.028  37.363  1.00  0.00     0.000 C 
BRANCH   7   8
ATOM      8  C   UNL     1      17.552  67.159  38.859  1.00  0.00    -0.000 C 
BRANCH   8   9
ATOM      9  C   UNL     1      17.777  68.579  39.398  1.00  0.00    -0.003 C 
ATOM     10  C   UNL     1      18.768  69.347  38.528  1.00  0.00     0.004 C 
ENDBRANCH   8   9
ENDBRANCH   7   8
ENDBRANCH   1   7
TORSDOF 6
ENDMDL
MODEL 9
REMARK VINA RESULT:    -3.790      3.255      5.652
REMARK INTER + INTRA:          -5.327
REMARK INTER:                  -5.051
REMARK INTRA:                  -0.276
REMARK UNBOUND:                -0.207
REMARK SMILES CCCCCCCC(=O)[O-]
REMARK SMILES IDX 5 1 6 2 7 3 8 4 9 5 10 6 4 7 3 8 2 9 1 10
REMARK H PARENT
REMARK Flexibility Score: inf
ROOT
ATOM      1  C   UNL     1      16.721  67.178  36.312  1.00  0.00     0.000 C 
ENDROOT
BRANCH   1   2
ATOM      2  C   UNL     1      16.704  68.285  35.244  1.00  0.00     0.006 C 
BRANCH   2   3
ATOM      3  C   UNL     1      15.885  67.905  34.005  1.00  0.00     0.053 C 
BRANCH   3   4
ATOM      4  C   UNL     1      15.900  69.020  33.007  1.00  0.00     0.041 C 
ATOM      5  O   UNL     1      14.977  69.122  32.157  1.00  0.00    -0.550 OA
ATOM      6  O   UNL     1      16.959  69.919  32.984  1.00  0.00    -0.550 OA
ENDBRANCH   3   4
ENDBRANCH   2   3
ENDBRANCH   1   2
BRANCH   1   7
ATOM      7  C   UNL     1      17.958  67.177  37.234  1.00  0.00     0.000 C 
BRANCH   7   8
ATOM      8  C   UNL     1      18.837  68.436  37.146  1.00  0.00    -0.000 C 
BRANCH   8   9
ATOM      9  C   UNL     1      18.585  69.421  38.297  1.00  0.00    -0.003 C 
ATOM     10  C   UNL     1      17.815  68.753  39.433  1.00  0.00     0.004 C 
ENDBRANCH   8   9
ENDBRANCH   7   8
ENDBRANCH   1   7
TORSDOF 6
ENDMDL
