MODEL 1
REMARK VINA RESULT:    -5.436      0.000      0.000
REMARK INTER + INTRA:          -8.898
REMARK INTER:                  -8.297
REMARK INTRA:                  -0.601
REMARK UNBOUND:                -0.601
REMARK SMILES CCCCCCCCCCC(=O)[O-]
REMARK SMILES IDX 7 1 8 2 9 3 10 4 11 5 12 6 13 7 6 8 5 9 4 10 3 11 2 12 1 13
REMARK H PARENT
REMARK Flexibility Score: inf
ROOT
ATOM      1  C   UNL     1      63.582 151.507   3.246  1.00  0.00     0.000 C 
ENDROOT
BRANCH   1   2
ATOM      2  C   UNL     1      62.083 151.796   3.418  1.00  0.00     0.000 C 
BRANCH   2   3
ATOM      3  C   UNL     1      61.344 151.914   2.073  1.00  0.00     0.006 C 
BRANCH   3   4
ATOM      4  C   UNL     1      60.246 152.985   2.108  1.00  0.00     0.053 C 
BRANCH   4   5
ATOM      5  C   UNL     1      60.212 153.789   0.845  1.00  0.00     0.041 C 
ATOM      6  O   UNL     1      61.264 153.965   0.176  1.00  0.00    -0.550 OA
ATOM      7  O   UNL     1      59.010 154.317   0.389  1.00  0.00    -0.550 OA
ENDBRANCH   4   5
ENDBRANCH   3   4
ENDBRANCH   2   3
ENDBRANCH   1   2
BRANCH   1   8
ATOM      8  C   UNL     1      64.447 152.204   4.308  1.00  0.00     0.000 C 
BRANCH   8   9
ATOM      9  C   UNL     1      65.004 151.189   5.313  1.00  0.00    -0.000 C 
BRANCH   9  10
ATOM     10  C   UNL     1      64.932 149.763   4.754  1.00  0.00    -0.000 C 
BRANCH  10  11
ATOM     11  C   UNL     1      64.263 148.813   5.754  1.00  0.00    -0.000 C 
BRANCH  11  12
ATOM     12  C   UNL     1      62.748 148.756   5.527  1.00  0.00    -0.003 C 
ATOM     13  C   UNL     1      62.270 147.316   5.351  1.00  0.00     0.004 C 
ENDBRANCH  11  12
ENDBRANCH  10  11
ENDBRANCH   9  10
ENDBRANCH   8   9
ENDBRANCH   1   8
TORSDOF 9
ENDMDL
MODEL 2
REMARK VINA RESULT:    -5.383      3.388      6.126
REMARK INTER + INTRA:          -8.816
REMARK INTER:                  -8.088
REMARK INTRA:                  -0.728
REMARK UNBOUND:                -0.601
REMARK SMILES CCCCCCCCCCC(=O)[O-]
REMARK SMILES IDX 7 1 8 2 9 3 10 4 11 5 12 6 13 7 6 8 5 9 4 10 3 11 2 12 1 13
REMARK H PARENT
REMARK Flexibility Score: inf
ROOT
ATOM      1  C   UNL     1      64.179 152.290   3.900  1.00  0.00     0.000 C 
ENDROOT
BRANCH   1   2
ATOM      2  C   UNL     1      65.002 151.398   4.843  1.00  0.00     0.000 C 
BRANCH   2   3
ATOM      3  C   UNL     1      65.030 149.927   4.393  1.00  0.00     0.006 C 
BRANCH   3   4
ATOM      4  C   UNL     1      64.817 148.960   5.565  1.00  0.00     0.053 C 
BRANCH   4   5
ATOM      5  C   UNL     1      63.371 148.846   5.937  1.00  0.00     0.041 C 
ATOM      6  O   UNL     1      62.625 148.022   5.343  1.00  0.00    -0.550 OA
ATOM      7  O   UNL     1      62.852 149.628   6.962  1.00  0.00    -0.550 OA
ENDBRANCH   4   5
ENDBRANCH   3   4
ENDBRANCH   2   3
ENDBRANCH   1   2
BRANCH   1   8
ATOM      8  C   UNL     1      63.091 151.510   3.145  1.00  0.00     0.000 C 
BRANCH   8   9
ATOM      9  C   UNL     1      61.761 151.549   3.906  1.00  0.00    -0.000 C 
BRANCH   9  10
ATOM     10  C   UNL     1      60.668 152.228   3.071  1.00  0.00    -0.000 C 
BRANCH  10  11
ATOM     11  C   UNL     1      61.196 152.613   1.684  1.00  0.00    -0.000 C 
BRANCH  11  12
ATOM     12  C   UNL     1      60.288 153.654   1.020  1.00  0.00    -0.003 C 
ATOM     13  C   UNL     1      58.927 153.719   1.709  1.00  0.00     0.004 C 
ENDBRANCH  11  12
ENDBRANCH  10  11
ENDBRANCH   9  10
ENDBRANCH   8   9
ENDBRANCH   1   8
TORSDOF 9
ENDMDL
MODEL 3
REMARK VINA RESULT:    -5.148      1.395      2.932
REMARK INTER + INTRA:          -8.458
REMARK INTER:                  -7.333
REMARK INTRA:                  -1.125
REMARK UNBOUND:                -0.601
REMARK SMILES CCCCCCCCCCC(=O)[O-]
REMARK SMILES IDX 7 1 8 2 9 3 10 4 11 5 12 6 13 7 6 8 5 9 4 10 3 11 2 12 1 13
REMARK H PARENT
REMARK Flexibility Score: inf
ROOT
ATOM      1  C   UNL     1      62.069 150.862   6.428  1.00  0.00     0.000 C 
ENDROOT
BRANCH   1   2
ATOM      2  C   UNL     1      61.305 150.636   5.114  1.00  0.00     0.000 C 
BRANCH   2   3
ATOM      3  C   UNL     1      61.148 151.927   4.292  1.00  0.00     0.006 C 
BRANCH   3   4
ATOM      4  C   UNL     1      61.170 151.657   2.782  1.00  0.00     0.053 C 
BRANCH   4   5
ATOM      5  C   UNL     1      60.500 152.752   2.010  1.00  0.00     0.041 C 
ATOM      6  O   UNL     1      61.147 153.415   1.157  1.00  0.00    -0.550 OA
ATOM      7  O   UNL     1      59.151 153.020   2.210  1.00  0.00    -0.550 OA
ENDBRANCH   4   5
ENDBRANCH   3   4
ENDBRANCH   2   3
ENDBRANCH   1   2
BRANCH   1   8
ATOM      8  C   UNL     1      62.872 149.628   6.867  1.00  0.00     0.000 C 
BRANCH   8   9
ATOM      9  C   UNL     1      63.546 148.956   5.665  1.00  0.00    -0.000 C 
BRANCH   9  10
ATOM     10  C   UNL     1      64.947 149.530   5.426  1.00  0.00    -0.000 C 
BRANCH  10  11
ATOM     11  C   UNL     1      65.049 150.173   4.037  1.00  0.00    -0.000 C 
BRANCH  11  12
ATOM     12  C   UNL     1      64.707 151.666   4.096  1.00  0.00    -0.003 C 
ATOM     13  C   UNL     1      65.288 152.316   5.349  1.00  0.00     0.004 C 
ENDBRANCH  11  12
ENDBRANCH  10  11
ENDBRANCH   9  10
ENDBRANCH   8   9
ENDBRANCH   1   8
TORSDOF 9
ENDMDL
MODEL 4
REMARK VINA RESULT:    -5.073      3.472      6.361
REMARK INTER + INTRA:          -8.344
REMARK INTER:                  -7.699
REMARK INTRA:                  -0.645
REMARK UNBOUND:                -0.601
REMARK SMILES CCCCCCCCCCC(=O)[O-]
REMARK SMILES IDX 7 1 8 2 9 3 10 4 11 5 12 6 13 7 6 8 5 9 4 10 3 11 2 12 1 13
REMARK H PARENT
REMARK Flexibility Score: inf
ROOT
ATOM      1  C   UNL     1      62.103 151.685   3.071  1.00  0.00     0.000 C 
ENDROOT
BRANCH   1   2
ATOM      2  C   UNL     1      63.615 151.555   3.319  1.00  0.00     0.000 C 
BRANCH   2   3
ATOM      3  C   UNL     1      64.029 152.042   4.718  1.00  0.00     0.006 C 
BRANCH   3   4
ATOM      4  C   UNL     1      64.986 151.063   5.411  1.00  0.00     0.053 C 
BRANCH   4   5
ATOM      5  C   UNL     1      64.652 149.638   5.093  1.00  0.00     0.041 C 
ATOM      6  O   UNL     1      65.334 148.999   4.249  1.00  0.00    -0.550 OA
ATOM      7  O   UNL     1      63.606 149.005   5.753  1.00  0.00    -0.550 OA
ENDBRANCH   4   5
ENDBRANCH   3   4
ENDBRANCH   2   3
ENDBRANCH   1   2
BRANCH   1   8
ATOM      8  C   UNL     1      61.299 151.829   4.372  1.00  0.00     0.000 C 
BRANCH   8   9
ATOM      9  C   UNL     1      60.033 152.664   4.146  1.00  0.00    -0.000 C 
BRANCH   9  10
ATOM     10  C   UNL     1      59.546 152.544   2.696  1.00  0.00    -0.000 C 
BRANCH  10  11
ATOM     11  C   UNL     1      58.897 153.850   2.224  1.00  0.00    -0.000 C 
BRANCH  11  12
ATOM     12  C   UNL     1      59.255 154.145   0.763  1.00  0.00    -0.003 C 
ATOM     13  C   UNL     1      60.741 153.912   0.502  1.00  0.00     0.004 C 
ENDBRANCH  11  12
ENDBRANCH  10  11
ENDBRANCH   9  10
ENDBRANCH   8   9
ENDBRANCH   1   8
TORSDOF 9
ENDMDL
MODEL 5
REMARK VINA RESULT:    -5.065      1.680      2.290
REMARK INTER + INTRA:          -8.332
REMARK INTER:                  -7.685
REMARK INTRA:                  -0.647
REMARK UNBOUND:                -0.601
REMARK SMILES CCCCCCCCCCC(=O)[O-]
REMARK SMILES IDX 7 1 8 2 9 3 10 4 11 5 12 6 13 7 6 8 5 9 4 10 3 11 2 12 1 13
REMARK H PARENT
REMARK Flexibility Score: inf
ROOT
ATOM      1  C   UNL     1      62.072 151.747   3.501  1.00  0.00     0.000 C 
ENDROOT
BRANCH   1   2
ATOM      2  C   UNL     1      61.384 151.753   2.126  1.00  0.00     0.000 C 
BRANCH   2   3
ATOM      3  C   UNL     1      60.587 153.044   1.870  1.00  0.00     0.006 C 
BRANCH   3   4
ATOM      4  C   UNL     1      59.172 152.977   2.461  1.00  0.00     0.053 C 
BRANCH   4   5
ATOM      5  C   UNL     1      58.975 153.987   3.550  1.00  0.00     0.041 C 
ATOM      6  O   UNL     1      58.246 154.995   3.355  1.00  0.00    -0.550 OA
ATOM      7  O   UNL     1      59.571 153.798   4.790  1.00  0.00    -0.550 OA
ENDBRANCH   4   5
ENDBRANCH   3   4
ENDBRANCH   2   3
ENDBRANCH   1   2
BRANCH   1   8
ATOM      8  C   UNL     1      63.596 151.584   3.400  1.00  0.00     0.000 C 
BRANCH   8   9
ATOM      9  C   UNL     1      64.292 152.153   4.642  1.00  0.00    -0.000 C 
BRANCH   9  10
ATOM     10  C   UNL     1      65.271 151.135   5.240  1.00  0.00    -0.000 C 
BRANCH  10  11
ATOM     11  C   UNL     1      64.876 149.703   4.861  1.00  0.00    -0.000 C 
BRANCH  11  12
ATOM     12  C   UNL     1      64.073 149.039   5.985  1.00  0.00    -0.003 C 
ATOM     13  C   UNL     1      62.889 148.253   5.427  1.00  0.00     0.004 C 
ENDBRANCH  11  12
ENDBRANCH  10  11
ENDBRANCH   9  10
ENDBRANCH   8   9
ENDBRANCH   1   8
TORSDOF 9
ENDMDL
MODEL 6
REMARK VINA RESULT:    -5.028      3.465      6.252
REMARK INTER + INTRA:          -8.275
REMARK INTER:                  -7.451
REMARK INTRA:                  -0.825
REMARK UNBOUND:                -0.601
REMARK SMILES CCCCCCCCCCC(=O)[O-]
REMARK SMILES IDX 7 1 8 2 9 3 10 4 11 5 12 6 13 7 6 8 5 9 4 10 3 11 2 12 1 13
REMARK H PARENT
REMARK Flexibility Score: inf
ROOT
ATOM      1  C   UNL     1      61.210 151.592   2.537  1.00  0.00     0.000 C 
ENDROOT
BRANCH   1   2
ATOM      2  C   UNL     1      62.105 151.604   3.787  1.00  0.00     0.000 C 
BRANCH   2   3
ATOM      3  C   UNL     1      63.602 151.518   3.443  1.00  0.00     0.006 C 
BRANCH   3   4
ATOM      4  C   UNL     1      64.461 151.204   4.675  1.00  0.00     0.053 C 
BRANCH   4   5
ATOM      5  C   UNL     1      64.678 149.731   4.841  1.00  0.00     0.041 C 
ATOM      6  O   UNL     1      64.296 149.148   5.890  1.00  0.00    -0.550 OA
ATOM      7  O   UNL     1      65.275 148.997   3.824  1.00  0.00    -0.550 OA
ENDBRANCH   4   5
ENDBRANCH   3   4
ENDBRANCH   2   3
ENDBRANCH   1   2
BRANCH   1   8
ATOM      8  C   UNL     1      61.422 152.824   1.644  1.00  0.00     0.000 C 
BRANCH   8   9
ATOM      9  C   UNL     1      60.085 153.496   1.312  1.00  0.00    -0.000 C 
BRANCH   9  10
ATOM     10  C   UNL     1      59.024 153.165   2.368  1.00  0.00    -0.000 C 
BRANCH  10  11
ATOM     11  C   UNL     1      58.661 154.407   3.192  1.00  0.00    -0.000 C 
BRANCH  11  12
ATOM     12  C   UNL     1      59.011 154.206   4.671  1.00  0.00    -0.003 C 
ATOM     13  C   UNL     1      58.726 152.774   5.116  1.00  0.00     0.004 C 
ENDBRANCH  11  12
ENDBRANCH  10  11
ENDBRANCH   9  10
ENDBRANCH   8   9
ENDBRANCH   1   8
TORSDOF 9
ENDMDL
MODEL 7
REMARK VINA RESULT:    -4.866      1.672      2.806
REMARK INTER + INTRA:          -8.028
REMARK INTER:                  -7.304
REMARK INTRA:                  -0.724
REMARK UNBOUND:                -0.601
REMARK SMILES CCCCCCCCCCC(=O)[O-]
REMARK SMILES IDX 7 1 8 2 9 3 10 4 11 5 12 6 13 7 6 8 5 9 4 10 3 11 2 12 1 13
REMARK H PARENT
REMARK Flexibility Score: inf
ROOT
ATOM      1  C   UNL     1      60.942 152.914   5.705  1.00  0.00     0.000 C 
ENDROOT
BRANCH   1   2
ATOM      2  C   UNL     1      59.627 152.561   4.992  1.00  0.00     0.000 C 
BRANCH   2   3
ATOM      3  C   UNL     1      59.233 153.600   3.928  1.00  0.00     0.006 C 
BRANCH   3   4
ATOM      4  C   UNL     1      59.162 152.990   2.522  1.00  0.00     0.053 C 
BRANCH   4   5
ATOM      5  C   UNL     1      58.936 154.035   1.472  1.00  0.00     0.041 C 
ATOM      6  O   UNL     1      59.620 154.030   0.414  1.00  0.00    -0.550 OA
ATOM      7  O   UNL     1      57.948 154.996   1.648  1.00  0.00    -0.550 OA
ENDBRANCH   4   5
ENDBRANCH   3   4
ENDBRANCH   2   3
ENDBRANCH   1   2
BRANCH   1   8
ATOM      8  C   UNL     1      61.980 151.784   5.628  1.00  0.00     0.000 C 
BRANCH   8   9
ATOM      9  C   UNL     1      62.031 151.181   4.219  1.00  0.00    -0.000 C 
BRANCH   9  10
ATOM     10  C   UNL     1      63.208 151.751   3.418  1.00  0.00    -0.000 C 
BRANCH  10  11
ATOM     11  C   UNL     1      64.538 151.491   4.136  1.00  0.00    -0.000 C 
BRANCH  11  12
ATOM     12  C   UNL     1      64.969 150.028   3.982  1.00  0.00    -0.003 C 
ATOM     13  C   UNL     1      65.169 149.365   5.342  1.00  0.00     0.004 C 
ENDBRANCH  11  12
ENDBRANCH  10  11
ENDBRANCH   9  10
ENDBRANCH   8   9
ENDBRANCH   1   8
TORSDOF 9
ENDMDL
MODEL 8
REMARK VINA RESULT:    -4.795      1.784      2.449
REMARK INTER + INTRA:          -7.918
REMARK INTER:                  -6.812
REMARK INTRA:                  -1.106
REMARK UNBOUND:                -0.601
REMARK SMILES CCCCCCCCCCC(=O)[O-]
REMARK SMILES IDX 7 1 8 2 9 3 10 4 11 5 12 6 13 7 6 8 5 9 4 10 3 11 2 12 1 13
REMARK H PARENT
REMARK Flexibility Score: inf
ROOT
ATOM      1  C   UNL     1      64.693 151.119   3.864  1.00  0.00     0.000 C 
ENDROOT
BRANCH   1   2
ATOM      2  C   UNL     1      63.513 152.097   3.750  1.00  0.00     0.000 C 
BRANCH   2   3
ATOM      3  C   UNL     1      62.225 151.416   3.255  1.00  0.00     0.006 C 
BRANCH   3   4
ATOM      4  C   UNL     1      61.596 152.161   2.070  1.00  0.00     0.053 C 
BRANCH   4   5
ATOM      5  C   UNL     1      60.266 152.750   2.424  1.00  0.00     0.041 C 
ATOM      6  O   UNL     1      59.554 153.289   1.536  1.00  0.00    -0.550 OA
ATOM      7  O   UNL     1      59.798 152.677   3.730  1.00  0.00    -0.550 OA
ENDBRANCH   4   5
ENDBRANCH   3   4
ENDBRANCH   2   3
ENDBRANCH   1   2
BRANCH   1   8
ATOM      8  C   UNL     1      64.884 150.584   5.291  1.00  0.00     0.000 C 
BRANCH   8   9
ATOM      9  C   UNL     1      64.687 149.064   5.338  1.00  0.00    -0.000 C 
BRANCH   9  10
ATOM     10  C   UNL     1      63.278 148.706   5.827  1.00  0.00    -0.000 C 
BRANCH  10  11
ATOM     11  C   UNL     1      62.821 149.661   6.936  1.00  0.00    -0.000 C 
BRANCH  11  12
ATOM     12  C   UNL     1      61.460 150.281   6.600  1.00  0.00    -0.003 C 
ATOM     13  C   UNL     1      61.445 151.776   6.908  1.00  0.00     0.004 C 
ENDBRANCH  11  12
ENDBRANCH  10  11
ENDBRANCH   9  10
ENDBRANCH   8   9
ENDBRANCH   1   8
TORSDOF 9
ENDMDL
MODEL 9
REMARK VINA RESULT:    -4.748      2.243      3.414
REMARK INTER + INTRA:          -7.847
REMARK INTER:                  -7.286
REMARK INTRA:                  -0.561
REMARK UNBOUND:                -0.601
REMARK SMILES CCCCCCCCCCC(=O)[O-]
REMARK SMILES IDX 7 1 8 2 9 3 10 4 11 5 12 6 13 7 6 8 5 9 4 10 3 11 2 12 1 13
REMARK H PARENT
REMARK Flexibility Score: inf
ROOT
ATOM      1  C   UNL     1      61.251 152.275   1.838  1.00  0.00     0.000 C 
ENDROOT
BRANCH   1   2
ATOM      2  C   UNL     1      60.339 153.376   1.274  1.00  0.00     0.000 C 
BRANCH   2   3
ATOM      3  C   UNL     1      58.960 153.410   1.955  1.00  0.00     0.006 C 
BRANCH   3   4
ATOM      4  C   UNL     1      58.359 154.821   1.974  1.00  0.00     0.053 C 
BRANCH   4   5
ATOM      5  C   UNL     1      58.228 155.353   3.368  1.00  0.00     0.041 C 
ATOM      6  O   UNL     1      57.875 156.546   3.562  1.00  0.00    -0.550 OA
ATOM      7  O   UNL     1      58.466 154.521   4.455  1.00  0.00    -0.550 OA
ENDBRANCH   4   5
ENDBRANCH   3   4
ENDBRANCH   2   3
ENDBRANCH   1   2
BRANCH   1   8
ATOM      8  C   UNL     1      60.923 151.923   3.297  1.00  0.00     0.000 C 
BRANCH   8   9
ATOM      9  C   UNL     1      62.163 151.393   4.026  1.00  0.00    -0.000 C 
BRANCH   9  10
ATOM     10  C   UNL     1      63.445 152.008   3.450  1.00  0.00    -0.000 C 
BRANCH  10  11
ATOM     11  C   UNL     1      64.682 151.509   4.206  1.00  0.00    -0.000 C 
BRANCH  11  12
ATOM     12  C   UNL     1      64.289 150.524   5.313  1.00  0.00    -0.003 C 
ATOM     13  C   UNL     1      65.088 149.228   5.207  1.00  0.00     0.004 C 
ENDBRANCH  11  12
ENDBRANCH  10  11
ENDBRANCH   9  10
ENDBRANCH   8   9
ENDBRANCH   1   8
TORSDOF 9
ENDMDL
