MODEL 1
REMARK VINA RESULT:    -6.073      0.000      0.000
REMARK INTER + INTRA:         -12.678
REMARK INTER:                 -11.754
REMARK INTRA:                  -0.924
REMARK UNBOUND:                -0.924
REMARK SMILES CCCCCCCCCCCCCCCCCC(=O)[O-]
REMARK SMILES IDX 10 1 11 2 12 3 13 4 14 5 15 6 16 7 17 8 18 9 19 10 20 11
REMARK SMILES IDX 9 12 8 13 7 14 6 15 5 16 4 17 3 18 2 19 1 20
REMARK H PARENT
REMARK Flexibility Score: inf
ROOT
ATOM      1  C   UNL     1     103.810 311.631 195.922  1.00  0.00     0.000 C 
ENDROOT
BRANCH   1   2
ATOM      2  C   UNL     1     103.835 311.167 197.387  1.00  0.00     0.000 C 
BRANCH   2   3
ATOM      3  C   UNL     1     103.563 312.312 198.375  1.00  0.00     0.000 C 
BRANCH   3   4
ATOM      4  C   UNL     1     103.723 311.838 199.824  1.00  0.00     0.000 C 
BRANCH   4   5
ATOM      5  C   UNL     1     102.358 311.525 200.456  1.00  0.00     0.000 C 
BRANCH   5   6
ATOM      6  C   UNL     1     102.468 311.143 201.940  1.00  0.00     0.000 C 
BRANCH   6   7
ATOM      7  C   UNL     1     103.919 311.167 202.453  1.00  0.00     0.006 C 
BRANCH   7   8
ATOM      8  C   UNL     1     104.031 310.661 203.897  1.00  0.00     0.053 C 
BRANCH   8   9
ATOM      9  C   UNL     1     104.721 311.653 204.781  1.00  0.00     0.041 C 
ATOM     10  O   UNL     1     105.296 312.655 204.280  1.00  0.00    -0.550 OA
ATOM     11  O   UNL     1     104.761 311.453 206.155  1.00  0.00    -0.550 OA
ENDBRANCH   8   9
ENDBRANCH   7   8
ENDBRANCH   6   7
ENDBRANCH   5   6
ENDBRANCH   4   5
ENDBRANCH   3   4
ENDBRANCH   2   3
ENDBRANCH   1   2
BRANCH   1  12
ATOM     12  C   UNL     1     103.948 313.157 195.783  1.00  0.00     0.000 C 
BRANCH  12  13
ATOM     13  C   UNL     1     104.995 313.558 194.732  1.00  0.00    -0.000 C 
BRANCH  13  14
ATOM     14  C   UNL     1     105.869 312.373 194.286  1.00  0.00    -0.000 C 
BRANCH  14  15
ATOM     15  C   UNL     1     105.768 312.089 192.776  1.00  0.00    -0.000 C 
BRANCH  15  16
ATOM     16  C   UNL     1     105.398 313.308 191.912  1.00  0.00    -0.000 C 
BRANCH  16  17
ATOM     17  C   UNL     1     104.022 313.174 191.243  1.00  0.00    -0.000 C 
BRANCH  17  18
ATOM     18  C   UNL     1     103.561 314.515 190.661  1.00  0.00    -0.000 C 
BRANCH  18  19
ATOM     19  C   UNL     1     102.889 314.321 189.296  1.00  0.00    -0.003 C 
ATOM     20  C   UNL     1     103.568 315.167 188.223  1.00  0.00     0.004 C 
ENDBRANCH  18  19
ENDBRANCH  17  18
ENDBRANCH  16  17
ENDBRANCH  15  16
ENDBRANCH  14  15
ENDBRANCH  13  14
ENDBRANCH  12  13
ENDBRANCH   1  12
TORSDOF 16
ENDMDL
MODEL 2
REMARK VINA RESULT:    -5.968      1.248      2.222
REMARK INTER + INTRA:         -12.475
REMARK INTER:                 -10.962
REMARK INTRA:                  -1.513
REMARK UNBOUND:                -0.924
REMARK SMILES CCCCCCCCCCCCCCCCCC(=O)[O-]
REMARK SMILES IDX 10 1 11 2 12 3 13 4 14 5 15 6 16 7 17 8 18 9 19 10 20 11
REMARK SMILES IDX 9 12 8 13 7 14 6 15 5 16 4 17 3 18 2 19 1 20
REMARK H PARENT
REMARK Flexibility Score: inf
ROOT
ATOM      1  C   UNL     1     103.870 312.508 196.054  1.00  0.00     0.000 C 
ENDROOT
BRANCH   1   2
ATOM      2  C   UNL     1     103.858 311.688 197.352  1.00  0.00     0.000 C 
BRANCH   2   3
ATOM      3  C   UNL     1     103.560 312.545 198.591  1.00  0.00     0.000 C 
BRANCH   3   4
ATOM      4  C   UNL     1     103.724 311.728 199.879  1.00  0.00     0.000 C 
BRANCH   4   5
ATOM      5  C   UNL     1     102.357 311.380 200.487  1.00  0.00     0.000 C 
BRANCH   5   6
ATOM      6  C   UNL     1     102.423 311.178 202.010  1.00  0.00     0.000 C 
BRANCH   6   7
ATOM      7  C   UNL     1     103.807 311.512 202.592  1.00  0.00     0.006 C 
BRANCH   7   8
ATOM      8  C   UNL     1     104.259 310.482 203.636  1.00  0.00     0.053 C 
BRANCH   8   9
ATOM      9  C   UNL     1     103.858 310.884 205.022  1.00  0.00     0.041 C 
ATOM     10  O   UNL     1     102.751 310.512 205.493  1.00  0.00    -0.550 OA
ATOM     11  O   UNL     1     104.690 311.698 205.780  1.00  0.00    -0.550 OA
ENDBRANCH   8   9
ENDBRANCH   7   8
ENDBRANCH   6   7
ENDBRANCH   5   6
ENDBRANCH   4   5
ENDBRANCH   3   4
ENDBRANCH   2   3
ENDBRANCH   1   2
BRANCH   1  12
ATOM     12  C   UNL     1     104.240 311.662 194.823  1.00  0.00     0.000 C 
BRANCH  12  13
ATOM     13  C   UNL     1     105.649 311.976 194.296  1.00  0.00    -0.000 C 
BRANCH  13  14
ATOM     14  C   UNL     1     105.656 312.319 192.796  1.00  0.00    -0.000 C 
BRANCH  14  15
ATOM     15  C   UNL     1     104.248 312.316 192.175  1.00  0.00    -0.000 C 
BRANCH  15  16
ATOM     16  C   UNL     1     104.002 313.415 191.124  1.00  0.00    -0.000 C 
BRANCH  16  17
ATOM     17  C   UNL     1     104.412 314.813 191.610  1.00  0.00    -0.000 C 
BRANCH  17  18
ATOM     18  C   UNL     1     103.405 315.358 192.629  1.00  0.00    -0.000 C 
BRANCH  18  19
ATOM     19  C   UNL     1     104.046 315.504 194.014  1.00  0.00    -0.003 C 
ATOM     20  C   UNL     1     105.522 315.877 193.901  1.00  0.00     0.004 C 
ENDBRANCH  18  19
ENDBRANCH  17  18
ENDBRANCH  16  17
ENDBRANCH  15  16
ENDBRANCH  14  15
ENDBRANCH  13  14
ENDBRANCH  12  13
ENDBRANCH   1  12
TORSDOF 16
ENDMDL
MODEL 3
REMARK VINA RESULT:    -5.964      6.920     10.639
REMARK INTER + INTRA:         -12.466
REMARK INTER:                 -10.255
REMARK INTRA:                  -2.211
REMARK UNBOUND:                -0.924
REMARK SMILES CCCCCCCCCCCCCCCCCC(=O)[O-]
REMARK SMILES IDX 10 1 11 2 12 3 13 4 14 5 15 6 16 7 17 8 18 9 19 10 20 11
REMARK SMILES IDX 9 12 8 13 7 14 6 15 5 16 4 17 3 18 2 19 1 20
REMARK H PARENT
REMARK Flexibility Score: inf
ROOT
ATOM      1  C   UNL     1     104.145 312.630 191.934  1.00  0.00     0.000 C 
ENDROOT
BRANCH   1   2
ATOM      2  C   UNL     1     105.431 313.363 191.522  1.00  0.00     0.000 C 
BRANCH   2   3
ATOM      3  C   UNL     1     105.171 314.486 190.507  1.00  0.00     0.000 C 
BRANCH   3   4
ATOM      4  C   UNL     1     103.669 314.679 190.271  1.00  0.00     0.000 C 
BRANCH   4   5
ATOM      5  C   UNL     1     103.362 314.831 188.774  1.00  0.00     0.000 C 
BRANCH   5   6
ATOM      6  C   UNL     1     101.951 314.344 188.408  1.00  0.00     0.000 C 
BRANCH   6   7
ATOM      7  C   UNL     1     101.099 315.440 187.744  1.00  0.00     0.006 C 
BRANCH   7   8
ATOM      8  C   UNL     1      99.944 315.900 188.644  1.00  0.00     0.053 C 
BRANCH   8   9
ATOM      9  C   UNL     1      98.639 315.298 188.223  1.00  0.00     0.041 C 
ATOM     10  O   UNL     1      97.716 316.034 187.784  1.00  0.00    -0.550 OA
ATOM     11  O   UNL     1      98.429 313.931 188.350  1.00  0.00    -0.550 OA
ENDBRANCH   8   9
ENDBRANCH   7   8
ENDBRANCH   6   7
ENDBRANCH   5   6
ENDBRANCH   4   5
ENDBRANCH   3   4
ENDBRANCH   2   3
ENDBRANCH   1   2
BRANCH   1  12
ATOM     12  C   UNL     1     104.416 311.442 192.874  1.00  0.00     0.000 C 
BRANCH  12  13
ATOM     13  C   UNL     1     105.769 311.559 193.592  1.00  0.00    -0.000 C 
BRANCH  13  14
ATOM     14  C   UNL     1     105.619 311.929 195.078  1.00  0.00    -0.000 C 
BRANCH  14  15
ATOM     15  C   UNL     1     104.158 311.884 195.561  1.00  0.00    -0.000 C 
BRANCH  15  16
ATOM     16  C   UNL     1     103.592 313.235 196.037  1.00  0.00    -0.000 C 
BRANCH  16  17
ATOM     17  C   UNL     1     104.351 314.439 195.459  1.00  0.00    -0.000 C 
BRANCH  17  18
ATOM     18  C   UNL     1     103.533 315.129 194.362  1.00  0.00    -0.000 C 
BRANCH  18  19
ATOM     19  C   UNL     1     104.290 316.333 193.785  1.00  0.00    -0.003 C 
ATOM     20  C   UNL     1     105.799 316.114 193.844  1.00  0.00     0.004 C 
ENDBRANCH  18  19
ENDBRANCH  17  18
ENDBRANCH  16  17
ENDBRANCH  15  16
ENDBRANCH  14  15
ENDBRANCH  13  14
ENDBRANCH  12  13
ENDBRANCH   1  12
TORSDOF 16
ENDMDL
MODEL 4
REMARK VINA RESULT:    -5.896      5.638     11.435
REMARK INTER + INTRA:         -12.335
REMARK INTER:                 -11.469
REMARK INTRA:                  -0.865
REMARK UNBOUND:                -0.924
REMARK SMILES CCCCCCCCCCCCCCCCCC(=O)[O-]
REMARK SMILES IDX 10 1 11 2 12 3 13 4 14 5 15 6 16 7 17 8 18 9 19 10 20 11
REMARK SMILES IDX 9 12 8 13 7 14 6 15 5 16 4 17 3 18 2 19 1 20
REMARK H PARENT
REMARK Flexibility Score: inf
ROOT
ATOM      1  C   UNL     1     103.598 312.819 196.045  1.00  0.00     0.000 C 
ENDROOT
BRANCH   1   2
ATOM      2  C   UNL     1     104.383 313.383 194.850  1.00  0.00     0.000 C 
BRANCH   2   3
ATOM      3  C   UNL     1     105.344 312.354 194.236  1.00  0.00     0.000 C 
BRANCH   3   4
ATOM      4  C   UNL     1     104.759 311.752 192.953  1.00  0.00     0.000 C 
BRANCH   4   5
ATOM      5  C   UNL     1     104.195 312.850 192.038  1.00  0.00     0.000 C 
BRANCH   5   6
ATOM      6  C   UNL     1     105.296 313.642 191.317  1.00  0.00     0.000 C 
BRANCH   6   7
ATOM      7  C   UNL     1     104.740 314.575 190.227  1.00  0.00     0.006 C 
BRANCH   7   8
ATOM      8  C   UNL     1     103.265 314.286 189.915  1.00  0.00     0.053 C 
BRANCH   8   9
ATOM      9  C   UNL     1     102.888 314.745 188.541  1.00  0.00     0.041 C 
ATOM     10  O   UNL     1     103.726 315.355 187.825  1.00  0.00    -0.550 OA
ATOM     11  O   UNL     1     101.602 314.531 188.064  1.00  0.00    -0.550 OA
ENDBRANCH   8   9
ENDBRANCH   7   8
ENDBRANCH   6   7
ENDBRANCH   5   6
ENDBRANCH   4   5
ENDBRANCH   3   4
ENDBRANCH   2   3
ENDBRANCH   1   2
BRANCH   1  12
ATOM     12  C   UNL     1     104.096 311.430 196.478  1.00  0.00     0.000 C 
BRANCH  12  13
ATOM     13  C   UNL     1     103.603 311.040 197.880  1.00  0.00    -0.000 C 
BRANCH  13  14
ATOM     14  C   UNL     1     103.595 312.229 198.856  1.00  0.00    -0.000 C 
BRANCH  14  15
ATOM     15  C   UNL     1     103.746 311.798 200.326  1.00  0.00    -0.000 C 
BRANCH  15  16
ATOM     16  C   UNL     1     102.443 311.333 201.001  1.00  0.00    -0.000 C 
BRANCH  16  17
ATOM     17  C   UNL     1     102.551 311.264 202.532  1.00  0.00    -0.000 C 
BRANCH  17  18
ATOM     18  C   UNL     1     103.909 310.696 202.961  1.00  0.00    -0.000 C 
BRANCH  18  19
ATOM     19  C   UNL     1     104.279 311.164 204.374  1.00  0.00    -0.003 C 
ATOM     20  C   UNL     1     103.171 310.836 205.371  1.00  0.00     0.004 C 
ENDBRANCH  18  19
ENDBRANCH  17  18
ENDBRANCH  16  17
ENDBRANCH  15  16
ENDBRANCH  14  15
ENDBRANCH  13  14
ENDBRANCH  12  13
ENDBRANCH   1  12
TORSDOF 16
ENDMDL
MODEL 5
REMARK VINA RESULT:    -5.893      1.109      1.703
REMARK INTER + INTRA:         -12.329
REMARK INTER:                 -11.187
REMARK INTRA:                  -1.142
REMARK UNBOUND:                -0.924
REMARK SMILES CCCCCCCCCCCCCCCCCC(=O)[O-]
REMARK SMILES IDX 10 1 11 2 12 3 13 4 14 5 15 6 16 7 17 8 18 9 19 10 20 11
REMARK SMILES IDX 9 12 8 13 7 14 6 15 5 16 4 17 3 18 2 19 1 20
REMARK H PARENT
REMARK Flexibility Score: inf
ROOT
ATOM      1  C   UNL     1     104.003 314.935 196.707  1.00  0.00     0.000 C 
ENDROOT
BRANCH   1   2
ATOM      2  C   UNL     1     102.893 314.093 197.354  1.00  0.00     0.000 C 
BRANCH   2   3
ATOM      3  C   UNL     1     103.295 313.542 198.730  1.00  0.00     0.000 C 
BRANCH   3   4
ATOM      4  C   UNL     1     103.551 312.031 198.665  1.00  0.00     0.000 C 
BRANCH   4   5
ATOM      5  C   UNL     1     103.071 311.336 199.948  1.00  0.00     0.000 C 
BRANCH   5   6
ATOM      6  C   UNL     1     104.038 311.536 201.126  1.00  0.00     0.000 C 
BRANCH   6   7
ATOM      7  C   UNL     1     103.357 311.344 202.492  1.00  0.00     0.006 C 
BRANCH   7   8
ATOM      8  C   UNL     1     104.219 310.520 203.458  1.00  0.00     0.053 C 
BRANCH   8   9
ATOM      9  C   UNL     1     104.134 311.041 204.859  1.00  0.00     0.041 C 
ATOM     10  O   UNL     1     103.162 310.722 205.594  1.00  0.00    -0.550 OA
ATOM     11  O   UNL     1     105.107 311.905 205.342  1.00  0.00    -0.550 OA
ENDBRANCH   8   9
ENDBRANCH   7   8
ENDBRANCH   6   7
ENDBRANCH   5   6
ENDBRANCH   4   5
ENDBRANCH   3   4
ENDBRANCH   2   3
ENDBRANCH   1   2
BRANCH   1  12
ATOM     12  C   UNL     1     104.576 314.282 195.437  1.00  0.00     0.000 C 
BRANCH  12  13
ATOM     13  C   UNL     1     103.971 312.896 195.165  1.00  0.00    -0.000 C 
BRANCH  13  14
ATOM     14  C   UNL     1     105.030 311.859 194.753  1.00  0.00    -0.000 C 
BRANCH  14  15
ATOM     15  C   UNL     1     105.071 311.617 193.233  1.00  0.00    -0.000 C 
BRANCH  15  16
ATOM     16  C   UNL     1     106.122 312.448 192.474  1.00  0.00    -0.000 C 
BRANCH  16  17
ATOM     17  C   UNL     1     105.497 313.474 191.517  1.00  0.00    -0.000 C 
BRANCH  17  18
ATOM     18  C   UNL     1     103.984 313.262 191.395  1.00  0.00    -0.000 C 
BRANCH  18  19
ATOM     19  C   UNL     1     103.421 314.003 190.176  1.00  0.00    -0.003 C 
ATOM     20  C   UNL     1     103.600 315.512 190.317  1.00  0.00     0.004 C 
ENDBRANCH  18  19
ENDBRANCH  17  18
ENDBRANCH  16  17
ENDBRANCH  15  16
ENDBRANCH  14  15
ENDBRANCH  13  14
ENDBRANCH  12  13
ENDBRANCH   1  12
TORSDOF 16
ENDMDL
MODEL 6
REMARK VINA RESULT:    -5.890      1.189      2.390
REMARK INTER + INTRA:         -12.323
REMARK INTER:                 -11.294
REMARK INTRA:                  -1.029
REMARK UNBOUND:                -0.924
REMARK SMILES CCCCCCCCCCCCCCCCCC(=O)[O-]
REMARK SMILES IDX 10 1 11 2 12 3 13 4 14 5 15 6 16 7 17 8 18 9 19 10 20 11
REMARK SMILES IDX 9 12 8 13 7 14 6 15 5 16 4 17 3 18 2 19 1 20
REMARK H PARENT
REMARK Flexibility Score: inf
ROOT
ATOM      1  C   UNL     1     103.416 313.043 198.901  1.00  0.00     0.000 C 
ENDROOT
BRANCH   1   2
ATOM      2  C   UNL     1     103.841 311.673 199.451  1.00  0.00     0.000 C 
BRANCH   2   3
ATOM      3  C   UNL     1     103.851 311.629 200.986  1.00  0.00     0.000 C 
BRANCH   3   4
ATOM      4  C   UNL     1     102.468 311.255 201.534  1.00  0.00     0.000 C 
BRANCH   4   5
ATOM      5  C   UNL     1     102.573 310.701 202.963  1.00  0.00     0.000 C 
BRANCH   5   6
ATOM      6  C   UNL     1     104.028 310.579 203.443  1.00  0.00     0.000 C 
BRANCH   6   7
ATOM      7  C   UNL     1     104.224 311.092 204.880  1.00  0.00     0.006 C 
BRANCH   7   8
ATOM      8  C   UNL     1     105.348 312.132 204.976  1.00  0.00     0.053 C 
BRANCH   8   9
ATOM      9  C   UNL     1     105.015 313.381 204.221  1.00  0.00     0.041 C 
ATOM     10  O   UNL     1     103.913 313.960 204.410  1.00  0.00    -0.550 OA
ATOM     11  O   UNL     1     105.906 313.887 203.283  1.00  0.00    -0.550 OA
ENDBRANCH   8   9
ENDBRANCH   7   8
ENDBRANCH   6   7
ENDBRANCH   5   6
ENDBRANCH   4   5
ENDBRANCH   3   4
ENDBRANCH   2   3
ENDBRANCH   1   2
BRANCH   1  12
ATOM     12  C   UNL     1     103.479 313.110 197.365  1.00  0.00     0.000 C 
BRANCH  12  13
ATOM     13  C   UNL     1     103.794 311.746 196.731  1.00  0.00    -0.000 C 
BRANCH  13  14
ATOM     14  C   UNL     1     103.900 311.818 195.198  1.00  0.00    -0.000 C 
BRANCH  14  15
ATOM     15  C   UNL     1     105.209 312.469 194.718  1.00  0.00    -0.000 C 
BRANCH  15  16
ATOM     16  C   UNL     1     105.775 311.894 193.406  1.00  0.00    -0.000 C 
BRANCH  16  17
ATOM     17  C   UNL     1     105.615 312.849 192.214  1.00  0.00    -0.000 C 
BRANCH  17  18
ATOM     18  C   UNL     1     104.165 312.869 191.717  1.00  0.00    -0.000 C 
BRANCH  18  19
ATOM     19  C   UNL     1     103.744 314.286 191.307  1.00  0.00    -0.003 C 
ATOM     20  C   UNL     1     103.367 314.343 189.830  1.00  0.00     0.004 C 
ENDBRANCH  18  19
ENDBRANCH  17  18
ENDBRANCH  16  17
ENDBRANCH  15  16
ENDBRANCH  14  15
ENDBRANCH  13  14
ENDBRANCH  12  13
ENDBRANCH   1  12
TORSDOF 16
ENDMDL
MODEL 7
REMARK VINA RESULT:    -5.846     19.942     20.671
REMARK INTER + INTRA:         -12.237
REMARK INTER:                 -11.320
REMARK INTRA:                  -0.917
REMARK UNBOUND:                -0.924
REMARK SMILES CCCCCCCCCCCCCCCCCC(=O)[O-]
REMARK SMILES IDX 10 1 11 2 12 3 13 4 14 5 15 6 16 7 17 8 18 9 19 10 20 11
REMARK SMILES IDX 9 12 8 13 7 14 6 15 5 16 4 17 3 18 2 19 1 20
REMARK H PARENT
REMARK Flexibility Score: inf
ROOT
ATOM      1  C   UNL     1      88.880 325.125 197.435  1.00  0.00     0.000 C 
ENDROOT
BRANCH   1   2
ATOM      2  C   UNL     1      88.605 326.479 198.107  1.00  0.00     0.000 C 
BRANCH   2   3
ATOM      3  C   UNL     1      89.341 326.634 199.447  1.00  0.00     0.000 C 
BRANCH   3   4
ATOM      4  C   UNL     1      88.851 325.598 200.466  1.00  0.00     0.000 C 
BRANCH   4   5
ATOM      5  C   UNL     1      88.916 326.159 201.895  1.00  0.00     0.000 C 
BRANCH   5   6
ATOM      6  C   UNL     1      90.235 326.894 202.181  1.00  0.00     0.000 C 
BRANCH   6   7
ATOM      7  C   UNL     1      90.529 327.020 203.686  1.00  0.00     0.006 C 
BRANCH   7   8
ATOM      8  C   UNL     1      89.261 327.308 204.501  1.00  0.00     0.053 C 
BRANCH   8   9
ATOM      9  C   UNL     1      89.466 327.040 205.960  1.00  0.00     0.041 C 
ATOM     10  O   UNL     1      90.566 327.318 206.506  1.00  0.00    -0.550 OA
ATOM     11  O   UNL     1      88.456 326.451 206.709  1.00  0.00    -0.550 OA
ENDBRANCH   8   9
ENDBRANCH   7   8
ENDBRANCH   6   7
ENDBRANCH   5   6
ENDBRANCH   4   5
ENDBRANCH   3   4
ENDBRANCH   2   3
ENDBRANCH   1   2
BRANCH   1  12
ATOM     12  C   UNL     1      88.286 325.036 196.018  1.00  0.00     0.000 C 
BRANCH  12  13
ATOM     13  C   UNL     1      87.887 326.412 195.462  1.00  0.00    -0.000 C 
BRANCH  13  14
ATOM     14  C   UNL     1      87.587 326.376 193.954  1.00  0.00    -0.000 C 
BRANCH  14  15
ATOM     15  C   UNL     1      86.384 325.481 193.603  1.00  0.00    -0.000 C 
BRANCH  15  16
ATOM     16  C   UNL     1      86.661 324.417 192.525  1.00  0.00    -0.000 C 
BRANCH  16  17
ATOM     17  C   UNL     1      88.152 324.288 192.179  1.00  0.00    -0.000 C 
BRANCH  17  18
ATOM     18  C   UNL     1      88.341 323.797 190.739  1.00  0.00    -0.000 C 
BRANCH  18  19
ATOM     19  C   UNL     1      87.223 322.827 190.337  1.00  0.00    -0.003 C 
ATOM     20  C   UNL     1      87.423 322.315 188.913  1.00  0.00     0.004 C 
ENDBRANCH  18  19
ENDBRANCH  17  18
ENDBRANCH  16  17
ENDBRANCH  15  16
ENDBRANCH  14  15
ENDBRANCH  13  14
ENDBRANCH  12  13
ENDBRANCH   1  12
TORSDOF 16
ENDMDL
MODEL 8
REMARK VINA RESULT:    -5.806      1.396      2.355
REMARK INTER + INTRA:         -12.160
REMARK INTER:                 -10.926
REMARK INTRA:                  -1.234
REMARK UNBOUND:                -0.924
REMARK SMILES CCCCCCCCCCCCCCCCCC(=O)[O-]
REMARK SMILES IDX 10 1 11 2 12 3 13 4 14 5 15 6 16 7 17 8 18 9 19 10 20 11
REMARK SMILES IDX 9 12 8 13 7 14 6 15 5 16 4 17 3 18 2 19 1 20
REMARK H PARENT
REMARK Flexibility Score: inf
ROOT
ATOM      1  C   UNL     1     103.975 311.500 194.766  1.00  0.00     0.000 C 
ENDROOT
BRANCH   1   2
ATOM      2  C   UNL     1     103.855 312.945 195.273  1.00  0.00     0.000 C 
BRANCH   2   3
ATOM      3  C   UNL     1     103.628 313.022 196.791  1.00  0.00     0.000 C 
BRANCH   3   4
ATOM      4  C   UNL     1     103.972 311.689 197.466  1.00  0.00     0.000 C 
BRANCH   4   5
ATOM      5  C   UNL     1     103.177 311.511 198.769  1.00  0.00     0.000 C 
BRANCH   5   6
ATOM      6  C   UNL     1     103.551 312.554 199.835  1.00  0.00     0.000 C 
BRANCH   6   7
ATOM      7  C   UNL     1     104.621 312.042 200.815  1.00  0.00     0.006 C 
BRANCH   7   8
ATOM      8  C   UNL     1     104.252 312.327 202.276  1.00  0.00     0.053 C 
BRANCH   8   9
ATOM      9  C   UNL     1     103.688 311.116 202.953  1.00  0.00     0.041 C 
ATOM     10  O   UNL     1     102.556 310.675 202.620  1.00  0.00    -0.550 OA
ATOM     11  O   UNL     1     104.395 310.495 203.974  1.00  0.00    -0.550 OA
ENDBRANCH   8   9
ENDBRANCH   7   8
ENDBRANCH   6   7
ENDBRANCH   5   6
ENDBRANCH   4   5
ENDBRANCH   3   4
ENDBRANCH   2   3
ENDBRANCH   1   2
BRANCH   1  12
ATOM     12  C   UNL     1     104.484 311.423 193.316  1.00  0.00     0.000 C 
BRANCH  12  13
ATOM     13  C   UNL     1     105.739 312.280 193.088  1.00  0.00    -0.000 C 
BRANCH  13  14
ATOM     14  C   UNL     1     105.658 313.115 191.798  1.00  0.00    -0.000 C 
BRANCH  14  15
ATOM     15  C   UNL     1     104.211 313.358 191.332  1.00  0.00    -0.000 C 
BRANCH  15  16
ATOM     16  C   UNL     1     103.558 314.637 191.888  1.00  0.00    -0.000 C 
BRANCH  16  17
ATOM     17  C   UNL     1     103.324 315.708 190.812  1.00  0.00    -0.000 C 
BRANCH  17  18
ATOM     18  C   UNL     1     103.643 315.162 189.416  1.00  0.00    -0.000 C 
BRANCH  18  19
ATOM     19  C   UNL     1     102.479 315.412 188.448  1.00  0.00    -0.003 C 
ATOM     20  C   UNL     1     101.696 314.129 188.185  1.00  0.00     0.004 C 
ENDBRANCH  18  19
ENDBRANCH  17  18
ENDBRANCH  16  17
ENDBRANCH  15  16
ENDBRANCH  14  15
ENDBRANCH  13  14
ENDBRANCH  12  13
ENDBRANCH   1  12
TORSDOF 16
ENDMDL
MODEL 9
REMARK VINA RESULT:    -5.734      4.526     10.619
REMARK INTER + INTRA:         -12.020
REMARK INTER:                 -10.659
REMARK INTRA:                  -1.362
REMARK UNBOUND:                -0.924
REMARK SMILES CCCCCCCCCCCCCCCCCC(=O)[O-]
REMARK SMILES IDX 10 1 11 2 12 3 13 4 14 5 15 6 16 7 17 8 18 9 19 10 20 11
REMARK SMILES IDX 9 12 8 13 7 14 6 15 5 16 4 17 3 18 2 19 1 20
REMARK H PARENT
REMARK Flexibility Score: inf
ROOT
ATOM      1  C   UNL     1     103.411 311.673 199.263  1.00  0.00     0.000 C 
ENDROOT
BRANCH   1   2
ATOM      2  C   UNL     1     103.195 313.065 198.649  1.00  0.00     0.000 C 
BRANCH   2   3
ATOM      3  C   UNL     1     103.527 313.108 197.150  1.00  0.00     0.000 C 
BRANCH   3   4
ATOM      4  C   UNL     1     103.896 311.714 196.628  1.00  0.00     0.000 C 
BRANCH   4   5
ATOM      5  C   UNL     1     104.017 311.713 195.097  1.00  0.00     0.000 C 
BRANCH   5   6
ATOM      6  C   UNL     1     105.462 311.923 194.618  1.00  0.00     0.000 C 
BRANCH   6   7
ATOM      7  C   UNL     1     105.601 311.826 193.089  1.00  0.00     0.006 C 
BRANCH   7   8
ATOM      8  C   UNL     1     104.282 312.134 192.368  1.00  0.00     0.053 C 
BRANCH   8   9
ATOM      9  C   UNL     1     104.383 313.372 191.532  1.00  0.00     0.041 C 
ATOM     10  O   UNL     1     105.217 314.268 191.827  1.00  0.00    -0.550 OA
ATOM     11  O   UNL     1     103.532 313.553 190.450  1.00  0.00    -0.550 OA
ENDBRANCH   8   9
ENDBRANCH   7   8
ENDBRANCH   6   7
ENDBRANCH   5   6
ENDBRANCH   4   5
ENDBRANCH   3   4
ENDBRANCH   2   3
ENDBRANCH   1   2
BRANCH   1  12
ATOM     12  C   UNL     1     103.478 311.709 200.800  1.00  0.00     0.000 C 
BRANCH  12  13
ATOM     13  C   UNL     1     102.190 311.189 201.456  1.00  0.00    -0.000 C 
BRANCH  13  14
ATOM     14  C   UNL     1     102.413 310.716 202.903  1.00  0.00    -0.000 C 
BRANCH  14  15
ATOM     15  C   UNL     1     103.895 310.743 203.320  1.00  0.00    -0.000 C 
BRANCH  15  16
ATOM     16  C   UNL     1     104.139 310.774 204.840  1.00  0.00    -0.000 C 
BRANCH  16  17
ATOM     17  C   UNL     1     105.030 311.945 205.280  1.00  0.00    -0.000 C 
BRANCH  17  18
ATOM     18  C   UNL     1     105.260 312.926 204.125  1.00  0.00    -0.000 C 
BRANCH  18  19
ATOM     19  C   UNL     1     104.520 314.247 204.369  1.00  0.00    -0.003 C 
ATOM     20  C   UNL     1     103.289 314.364 203.476  1.00  0.00     0.004 C 
ENDBRANCH  18  19
ENDBRANCH  17  18
ENDBRANCH  16  17
ENDBRANCH  15  16
ENDBRANCH  14  15
ENDBRANCH  13  14
ENDBRANCH  12  13
ENDBRANCH   1  12
TORSDOF 16
ENDMDL
