MODEL 1
REMARK VINA RESULT:    -5.738      0.000      0.000
REMARK INTER + INTRA:         -11.646
REMARK INTER:                 -10.770
REMARK INTRA:                  -0.876
REMARK UNBOUND:                -0.876
REMARK SMILES O=C([O-])CCCCCCCCCCCCCCC(=O)[O-]
REMARK SMILES IDX 10 1 9 2 8 3 7 4 6 5 5 6 4 7 2 8 1 9 3 10 11 11 12 12 13 13
REMARK SMILES IDX 14 14 15 15 16 16 17 17 18 18 19 19 20 20
REMARK H PARENT
REMARK Flexibility Score: inf
ROOT
ATOM      1  C   UNL     1     103.487 313.268 197.696  1.00  0.00     0.000 C 
ENDROOT
BRANCH   1   2
ATOM      2  C   UNL     1     103.824 311.860 198.219  1.00  0.00     0.000 C 
BRANCH   2   3
ATOM      3  C   UNL     1     103.748 311.759 199.752  1.00  0.00     0.000 C 
BRANCH   3   4
ATOM      4  C   UNL     1     102.314 311.560 200.288  1.00  0.00     0.000 C 
BRANCH   4   5
ATOM      5  C   UNL     1     102.284 311.408 201.819  1.00  0.00     0.000 C 
BRANCH   5   6
ATOM      6  C   UNL     1     103.648 311.676 202.480  1.00  0.00     0.006 C 
BRANCH   6   7
ATOM      7  C   UNL     1     104.062 310.612 203.512  1.00  0.00     0.053 C 
BRANCH   7   8
ATOM      8  C   UNL     1     103.457 310.850 204.862  1.00  0.00     0.041 C 
ATOM      9  O   UNL     1     102.336 310.357 205.153  1.00  0.00    -0.550 OA
ATOM     10  O   UNL     1     104.149 311.588 205.814  1.00  0.00    -0.550 OA
ENDBRANCH   7   8
ENDBRANCH   6   7
ENDBRANCH   5   6
ENDBRANCH   4   5
ENDBRANCH   3   4
ENDBRANCH   2   3
ENDBRANCH   1   2
BRANCH   1  11
ATOM     11  C   UNL     1     103.898 313.466 196.229  1.00  0.00     0.000 C 
BRANCH  11  12
ATOM     12  C   UNL     1     104.387 312.167 195.569  1.00  0.00     0.000 C 
BRANCH  12  13
ATOM     13  C   UNL     1     103.345 311.626 194.583  1.00  0.00     0.000 C 
BRANCH  13  14
ATOM     14  C   UNL     1     103.976 311.356 193.208  1.00  0.00     0.000 C 
BRANCH  14  15
ATOM     15  C   UNL     1     105.415 311.885 193.103  1.00  0.00     0.000 C 
BRANCH  15  16
ATOM     16  C   UNL     1     105.521 313.140 192.221  1.00  0.00     0.006 C 
BRANCH  16  17
ATOM     17  C   UNL     1     104.213 313.437 191.476  1.00  0.00     0.053 C 
BRANCH  17  18
ATOM     18  C   UNL     1     104.401 314.469 190.406  1.00  0.00     0.041 C 
ATOM     19  O   UNL     1     103.400 314.985 189.843  1.00  0.00    -0.550 OA
ATOM     20  O   UNL     1     105.679 314.882 190.054  1.00  0.00    -0.550 OA
ENDBRANCH  17  18
ENDBRANCH  16  17
ENDBRANCH  15  16
ENDBRANCH  14  15
ENDBRANCH  13  14
ENDBRANCH  12  13
ENDBRANCH  11  12
ENDBRANCH   1  11
TORSDOF 15
ENDMDL
MODEL 2
REMARK VINA RESULT:    -5.708      1.166     10.952
REMARK INTER + INTRA:         -11.590
REMARK INTER:                 -10.716
REMARK INTRA:                  -0.874
REMARK UNBOUND:                -0.876
REMARK SMILES O=C([O-])CCCCCCCCCCCCCCC(=O)[O-]
REMARK SMILES IDX 10 1 9 2 8 3 7 4 6 5 5 6 4 7 2 8 1 9 3 10 11 11 12 12 13 13
REMARK SMILES IDX 14 14 15 15 16 16 17 17 18 18 19 19 20 20
REMARK H PARENT
REMARK Flexibility Score: inf
ROOT
ATOM      1  C   UNL     1     103.499 311.869 194.598  1.00  0.00     0.000 C 
ENDROOT
BRANCH   1   2
ATOM      2  C   UNL     1     104.154 311.464 193.267  1.00  0.00     0.000 C 
BRANCH   2   3
ATOM      3  C   UNL     1     105.639 311.859 193.188  1.00  0.00     0.000 C 
BRANCH   3   4
ATOM      4  C   UNL     1     105.927 312.978 192.165  1.00  0.00     0.000 C 
BRANCH   4   5
ATOM      5  C   UNL     1     105.363 314.336 192.616  1.00  0.00     0.000 C 
BRANCH   5   6
ATOM      6  C   UNL     1     104.038 314.700 191.922  1.00  0.00     0.006 C 
BRANCH   6   7
ATOM      7  C   UNL     1     103.864 314.059 190.534  1.00  0.00     0.053 C 
BRANCH   7   8
ATOM      8  C   UNL     1     103.829 315.071 189.429  1.00  0.00     0.041 C 
ATOM      9  O   UNL     1     103.357 314.767 188.302  1.00  0.00    -0.550 OA
ATOM     10  O   UNL     1     104.286 316.363 189.655  1.00  0.00    -0.550 OA
ENDBRANCH   7   8
ENDBRANCH   6   7
ENDBRANCH   5   6
ENDBRANCH   4   5
ENDBRANCH   3   4
ENDBRANCH   2   3
ENDBRANCH   1   2
BRANCH   1  11
ATOM     11  C   UNL     1     104.496 311.878 195.768  1.00  0.00     0.000 C 
BRANCH  11  12
ATOM     12  C   UNL     1     103.930 311.220 197.036  1.00  0.00     0.000 C 
BRANCH  12  13
ATOM     13  C   UNL     1     103.729 312.255 198.149  1.00  0.00     0.000 C 
BRANCH  13  14
ATOM     14  C   UNL     1     103.382 311.571 199.480  1.00  0.00     0.000 C 
BRANCH  14  15
ATOM     15  C   UNL     1     104.423 311.848 200.577  1.00  0.00     0.000 C 
BRANCH  15  16
ATOM     16  C   UNL     1     103.779 312.237 201.919  1.00  0.00     0.006 C 
BRANCH  16  17
ATOM     17  C   UNL     1     103.993 311.164 202.995  1.00  0.00     0.053 C 
BRANCH  17  18
ATOM     18  C   UNL     1     102.697 310.709 203.595  1.00  0.00     0.041 C 
ATOM     19  O   UNL     1     102.656 310.319 204.791  1.00  0.00    -0.550 OA
ATOM     20  O   UNL     1     101.531 310.745 202.842  1.00  0.00    -0.550 OA
ENDBRANCH  17  18
ENDBRANCH  16  17
ENDBRANCH  15  16
ENDBRANCH  14  15
ENDBRANCH  13  14
ENDBRANCH  12  13
ENDBRANCH  11  12
ENDBRANCH   1  11
TORSDOF 15
ENDMDL
MODEL 3
REMARK VINA RESULT:    -5.692      1.370      2.042
REMARK INTER + INTRA:         -11.560
REMARK INTER:                 -10.496
REMARK INTRA:                  -1.064
REMARK UNBOUND:                -0.876
REMARK SMILES O=C([O-])CCCCCCCCCCCCCCC(=O)[O-]
REMARK SMILES IDX 10 1 9 2 8 3 7 4 6 5 5 6 4 7 2 8 1 9 3 10 11 11 12 12 13 13
REMARK SMILES IDX 14 14 15 15 16 16 17 17 18 18 19 19 20 20
REMARK H PARENT
REMARK Flexibility Score: inf
ROOT
ATOM      1  C   UNL     1     104.045 313.036 196.511  1.00  0.00     0.000 C 
ENDROOT
BRANCH   1   2
ATOM      2  C   UNL     1     104.250 311.592 197.000  1.00  0.00     0.000 C 
BRANCH   2   3
ATOM      3  C   UNL     1     103.507 311.296 198.314  1.00  0.00     0.000 C 
BRANCH   3   4
ATOM      4  C   UNL     1     103.614 312.432 199.354  1.00  0.00     0.000 C 
BRANCH   4   5
ATOM      5  C   UNL     1     104.650 312.121 200.448  1.00  0.00     0.000 C 
BRANCH   5   6
ATOM      6  C   UNL     1     104.131 312.403 201.869  1.00  0.00     0.006 C 
BRANCH   6   7
ATOM      7  C   UNL     1     103.990 311.144 202.744  1.00  0.00     0.053 C 
BRANCH   7   8
ATOM      8  C   UNL     1     102.563 310.731 202.937  1.00  0.00     0.041 C 
ATOM      9  O   UNL     1     102.156 310.359 204.069  1.00  0.00    -0.550 OA
ATOM     10  O   UNL     1     101.671 310.791 201.873  1.00  0.00    -0.550 OA
ENDBRANCH   7   8
ENDBRANCH   6   7
ENDBRANCH   5   6
ENDBRANCH   4   5
ENDBRANCH   3   4
ENDBRANCH   2   3
ENDBRANCH   1   2
BRANCH   1  11
ATOM     11  C   UNL     1     103.669 313.107 195.022  1.00  0.00     0.000 C 
BRANCH  11  12
ATOM     12  C   UNL     1     103.492 311.719 194.388  1.00  0.00     0.000 C 
BRANCH  12  13
ATOM     13  C   UNL     1     104.028 311.699 192.951  1.00  0.00     0.000 C 
BRANCH  13  14
ATOM     14  C   UNL     1     105.434 312.314 192.880  1.00  0.00     0.000 C 
BRANCH  14  15
ATOM     15  C   UNL     1     105.521 313.478 191.881  1.00  0.00     0.000 C 
BRANCH  15  16
ATOM     16  C   UNL     1     104.202 313.709 191.125  1.00  0.00     0.006 C 
BRANCH  16  17
ATOM     17  C   UNL     1     103.846 315.199 191.025  1.00  0.00     0.053 C 
BRANCH  17  18
ATOM     18  C   UNL     1     103.110 315.513 189.758  1.00  0.00     0.041 C 
ATOM     19  O   UNL     1     102.509 316.613 189.632  1.00  0.00    -0.550 OA
ATOM     20  O   UNL     1     103.114 314.605 188.707  1.00  0.00    -0.550 OA
ENDBRANCH  17  18
ENDBRANCH  16  17
ENDBRANCH  15  16
ENDBRANCH  14  15
ENDBRANCH  13  14
ENDBRANCH  12  13
ENDBRANCH  11  12
ENDBRANCH   1  11
TORSDOF 15
ENDMDL
MODEL 4
REMARK VINA RESULT:    -5.681      1.597     11.532
REMARK INTER + INTRA:         -11.540
REMARK INTER:                 -10.978
REMARK INTRA:                  -0.561
REMARK UNBOUND:                -0.876
REMARK SMILES O=C([O-])CCCCCCCCCCCCCCC(=O)[O-]
REMARK SMILES IDX 10 1 9 2 8 3 7 4 6 5 5 6 4 7 2 8 1 9 3 10 11 11 12 12 13 13
REMARK SMILES IDX 14 14 15 15 16 16 17 17 18 18 19 19 20 20
REMARK H PARENT
REMARK Flexibility Score: inf
ROOT
ATOM      1  C   UNL     1     103.877 311.454 193.502  1.00  0.00     0.000 C 
ENDROOT
BRANCH   1   2
ATOM      2  C   UNL     1     105.361 311.816 193.321  1.00  0.00     0.000 C 
BRANCH   2   3
ATOM      3  C   UNL     1     105.569 313.055 192.433  1.00  0.00     0.000 C 
BRANCH   3   4
ATOM      4  C   UNL     1     104.263 313.811 192.111  1.00  0.00     0.000 C 
BRANCH   4   5
ATOM      5  C   UNL     1     103.921 313.765 190.611  1.00  0.00     0.000 C 
BRANCH   5   6
ATOM      6  C   UNL     1     103.828 315.161 189.970  1.00  0.00     0.006 C 
BRANCH   6   7
ATOM      7  C   UNL     1     103.505 315.138 188.465  1.00  0.00     0.053 C 
BRANCH   7   8
ATOM      8  C   UNL     1     104.276 316.165 187.693  1.00  0.00     0.041 C 
ATOM      9  O   UNL     1     105.532 316.197 187.754  1.00  0.00    -0.550 OA
ATOM     10  O   UNL     1     103.606 317.067 186.875  1.00  0.00    -0.550 OA
ENDBRANCH   7   8
ENDBRANCH   6   7
ENDBRANCH   5   6
ENDBRANCH   4   5
ENDBRANCH   3   4
ENDBRANCH   2   3
ENDBRANCH   1   2
BRANCH   1  11
ATOM     11  C   UNL     1     103.328 311.883 194.872  1.00  0.00     0.000 C 
BRANCH  11  12
ATOM     12  C   UNL     1     104.403 311.876 195.970  1.00  0.00     0.000 C 
BRANCH  12  13
ATOM     13  C   UNL     1     103.869 311.235 197.257  1.00  0.00     0.000 C 
BRANCH  13  14
ATOM     14  C   UNL     1     103.855 312.248 198.411  1.00  0.00     0.000 C 
BRANCH  14  15
ATOM     15  C   UNL     1     103.277 311.661 199.708  1.00  0.00     0.000 C 
BRANCH  15  16
ATOM     16  C   UNL     1     104.319 311.578 200.837  1.00  0.00     0.006 C 
BRANCH  16  17
ATOM     17  C   UNL     1     103.799 312.176 202.150  1.00  0.00     0.053 C 
BRANCH  17  18
ATOM     18  C   UNL     1     103.370 311.114 203.117  1.00  0.00     0.041 C 
ATOM     19  O   UNL     1     102.332 310.437 202.893  1.00  0.00    -0.550 OA
ATOM     20  O   UNL     1     104.133 310.852 204.247  1.00  0.00    -0.550 OA
ENDBRANCH  17  18
ENDBRANCH  16  17
ENDBRANCH  15  16
ENDBRANCH  14  15
ENDBRANCH  13  14
ENDBRANCH  12  13
ENDBRANCH  11  12
ENDBRANCH   1  11
TORSDOF 15
ENDMDL
MODEL 5
REMARK VINA RESULT:    -5.669     19.645     20.441
REMARK INTER + INTRA:         -11.517
REMARK INTER:                 -10.726
REMARK INTRA:                  -0.791
REMARK UNBOUND:                -0.876
REMARK SMILES O=C([O-])CCCCCCCCCCCCCCC(=O)[O-]
REMARK SMILES IDX 10 1 9 2 8 3 7 4 6 5 5 6 4 7 2 8 1 9 3 10 11 11 12 12 13 13
REMARK SMILES IDX 14 14 15 15 16 16 17 17 18 18 19 19 20 20
REMARK H PARENT
REMARK Flexibility Score: inf
ROOT
ATOM      1  C   UNL     1      88.085 325.872 196.646  1.00  0.00     0.000 C 
ENDROOT
BRANCH   1   2
ATOM      2  C   UNL     1      88.705 326.511 197.901  1.00  0.00     0.000 C 
BRANCH   2   3
ATOM      3  C   UNL     1      88.921 325.500 199.041  1.00  0.00     0.000 C 
BRANCH   3   4
ATOM      4  C   UNL     1      88.977 326.149 200.440  1.00  0.00     0.000 C 
BRANCH   4   5
ATOM      5  C   UNL     1      90.348 326.782 200.731  1.00  0.00     0.000 C 
BRANCH   5   6
ATOM      6  C   UNL     1      91.030 326.200 201.982  1.00  0.00     0.006 C 
BRANCH   6   7
ATOM      7  C   UNL     1      91.565 327.265 202.955  1.00  0.00     0.053 C 
BRANCH   7   8
ATOM      8  C   UNL     1      90.664 327.475 204.135  1.00  0.00     0.041 C 
ATOM      9  O   UNL     1      91.149 327.626 205.286  1.00  0.00    -0.550 OA
ATOM     10  O   UNL     1      89.288 327.540 203.956  1.00  0.00    -0.550 OA
ENDBRANCH   7   8
ENDBRANCH   6   7
ENDBRANCH   5   6
ENDBRANCH   4   5
ENDBRANCH   3   4
ENDBRANCH   2   3
ENDBRANCH   1   2
BRANCH   1  11
ATOM     11  C   UNL     1      88.840 326.245 195.360  1.00  0.00     0.000 C 
BRANCH  11  12
ATOM     12  C   UNL     1      87.898 326.639 194.212  1.00  0.00     0.000 C 
BRANCH  12  13
ATOM     13  C   UNL     1      86.451 326.238 194.527  1.00  0.00     0.000 C 
BRANCH  13  14
ATOM     14  C   UNL     1      85.879 325.331 193.426  1.00  0.00     0.000 C 
BRANCH  14  15
ATOM     15  C   UNL     1      86.700 324.047 193.231  1.00  0.00     0.000 C 
BRANCH  15  16
ATOM     16  C   UNL     1      86.741 323.588 191.763  1.00  0.00     0.006 C 
BRANCH  16  17
ATOM     17  C   UNL     1      88.090 323.896 191.098  1.00  0.00     0.053 C 
BRANCH  17  18
ATOM     18  C   UNL     1      88.343 323.012 189.915  1.00  0.00     0.041 C 
ATOM     19  O   UNL     1      87.417 322.771 189.096  1.00  0.00    -0.550 OA
ATOM     20  O   UNL     1      89.608 322.481 189.700  1.00  0.00    -0.550 OA
ENDBRANCH  17  18
ENDBRANCH  16  17
ENDBRANCH  15  16
ENDBRANCH  14  15
ENDBRANCH  13  14
ENDBRANCH  12  13
ENDBRANCH  11  12
ENDBRANCH   1  11
TORSDOF 15
ENDMDL
MODEL 6
REMARK VINA RESULT:    -5.655     19.621     23.002
REMARK INTER + INTRA:         -11.491
REMARK INTER:                 -10.955
REMARK INTRA:                  -0.535
REMARK UNBOUND:                -0.876
REMARK SMILES O=C([O-])CCCCCCCCCCCCCCC(=O)[O-]
REMARK SMILES IDX 10 1 9 2 8 3 7 4 6 5 5 6 4 7 2 8 1 9 3 10 11 11 12 12 13 13
REMARK SMILES IDX 14 14 15 15 16 16 17 17 18 18 19 19 20 20
REMARK H PARENT
REMARK Flexibility Score: inf
ROOT
ATOM      1  C   UNL     1      88.863 325.836 195.650  1.00  0.00     0.000 C 
ENDROOT
BRANCH   1   2
ATOM      2  C   UNL     1      88.325 326.538 194.391  1.00  0.00     0.000 C 
BRANCH   2   3
ATOM      3  C   UNL     1      86.840 326.233 194.128  1.00  0.00     0.000 C 
BRANCH   3   4
ATOM      4  C   UNL     1      86.609 324.948 193.305  1.00  0.00     0.000 C 
BRANCH   4   5
ATOM      5  C   UNL     1      87.774 324.658 192.342  1.00  0.00     0.000 C 
BRANCH   5   6
ATOM      6  C   UNL     1      87.475 323.510 191.361  1.00  0.00     0.006 C 
BRANCH   6   7
ATOM      7  C   UNL     1      88.367 323.513 190.107  1.00  0.00     0.053 C 
BRANCH   7   8
ATOM      8  C   UNL     1      88.121 322.330 189.220  1.00  0.00     0.041 C 
ATOM      9  O   UNL     1      88.938 321.374 189.194  1.00  0.00    -0.550 OA
ATOM     10  O   UNL     1      86.968 322.268 188.447  1.00  0.00    -0.550 OA
ENDBRANCH   7   8
ENDBRANCH   6   7
ENDBRANCH   5   6
ENDBRANCH   4   5
ENDBRANCH   3   4
ENDBRANCH   2   3
ENDBRANCH   1   2
BRANCH   1  11
ATOM     11  C   UNL     1      88.005 326.116 196.894  1.00  0.00     0.000 C 
BRANCH  11  12
ATOM     12  C   UNL     1      88.814 326.729 198.047  1.00  0.00     0.000 C 
BRANCH  12  13
ATOM     13  C   UNL     1      88.887 325.767 199.239  1.00  0.00     0.000 C 
BRANCH  13  14
ATOM     14  C   UNL     1      89.746 326.355 200.369  1.00  0.00     0.000 C 
BRANCH  14  15
ATOM     15  C   UNL     1      88.987 326.448 201.702  1.00  0.00     0.000 C 
BRANCH  15  16
ATOM     16  C   UNL     1      89.883 326.920 202.861  1.00  0.00     0.006 C 
BRANCH  16  17
ATOM     17  C   UNL     1      89.066 327.316 204.098  1.00  0.00     0.053 C 
BRANCH  17  18
ATOM     18  C   UNL     1      89.014 326.212 205.110  1.00  0.00     0.041 C 
ATOM     19  O   UNL     1      88.138 325.312 205.019  1.00  0.00    -0.550 OA
ATOM     20  O   UNL     1      89.951 326.160 206.133  1.00  0.00    -0.550 OA
ENDBRANCH  17  18
ENDBRANCH  16  17
ENDBRANCH  15  16
ENDBRANCH  14  15
ENDBRANCH  13  14
ENDBRANCH  12  13
ENDBRANCH  11  12
ENDBRANCH   1  11
TORSDOF 15
ENDMDL
MODEL 7
REMARK VINA RESULT:    -5.646      1.222      2.122
REMARK INTER + INTRA:         -11.473
REMARK INTER:                 -10.823
REMARK INTRA:                  -0.650
REMARK UNBOUND:                -0.876
REMARK SMILES O=C([O-])CCCCCCCCCCCCCCC(=O)[O-]
REMARK SMILES IDX 10 1 9 2 8 3 7 4 6 5 5 6 4 7 2 8 1 9 3 10 11 11 12 12 13 13
REMARK SMILES IDX 14 14 15 15 16 16 17 17 18 18 19 19 20 20
REMARK H PARENT
REMARK Flexibility Score: inf
ROOT
ATOM      1  C   UNL     1     104.466 312.283 195.855  1.00  0.00     0.000 C 
ENDROOT
BRANCH   1   2
ATOM      2  C   UNL     1     104.241 311.468 197.140  1.00  0.00     0.000 C 
BRANCH   2   3
ATOM      3  C   UNL     1     103.632 312.304 198.278  1.00  0.00     0.000 C 
BRANCH   3   4
ATOM      4  C   UNL     1     103.339 311.489 199.556  1.00  0.00     0.000 C 
BRANCH   4   5
ATOM      5  C   UNL     1     104.307 311.837 200.700  1.00  0.00     0.000 C 
BRANCH   5   6
ATOM      6  C   UNL     1     103.623 311.881 202.078  1.00  0.00     0.006 C 
BRANCH   6   7
ATOM      7  C   UNL     1     103.982 310.697 202.993  1.00  0.00     0.053 C 
BRANCH   7   8
ATOM      8  C   UNL     1     104.024 311.077 204.442  1.00  0.00     0.041 C 
ATOM      9  O   UNL     1     103.117 310.695 205.226  1.00  0.00    -0.550 OA
ATOM     10  O   UNL     1     105.086 311.826 204.934  1.00  0.00    -0.550 OA
ENDBRANCH   7   8
ENDBRANCH   6   7
ENDBRANCH   5   6
ENDBRANCH   4   5
ENDBRANCH   3   4
ENDBRANCH   2   3
ENDBRANCH   1   2
BRANCH   1  11
ATOM     11  C   UNL     1     103.419 311.980 194.772  1.00  0.00     0.000 C 
BRANCH  11  12
ATOM     12  C   UNL     1     104.049 311.503 193.454  1.00  0.00     0.000 C 
BRANCH  12  13
ATOM     13  C   UNL     1     105.486 312.019 193.315  1.00  0.00     0.000 C 
BRANCH  13  14
ATOM     14  C   UNL     1     105.604 313.005 192.143  1.00  0.00     0.000 C 
BRANCH  14  15
ATOM     15  C   UNL     1     104.237 313.479 191.627  1.00  0.00     0.000 C 
BRANCH  15  16
ATOM     16  C   UNL     1     104.352 314.382 190.387  1.00  0.00     0.006 C 
BRANCH  16  17
ATOM     17  C   UNL     1     105.652 315.199 190.385  1.00  0.00     0.053 C 
BRANCH  17  18
ATOM     18  C   UNL     1     105.410 316.633 190.747  1.00  0.00     0.041 C 
ATOM     19  O   UNL     1     106.121 317.192 191.624  1.00  0.00    -0.550 OA
ATOM     20  O   UNL     1     104.421 317.359 190.096  1.00  0.00    -0.550 OA
ENDBRANCH  17  18
ENDBRANCH  16  17
ENDBRANCH  15  16
ENDBRANCH  14  15
ENDBRANCH  13  14
ENDBRANCH  12  13
ENDBRANCH  11  12
ENDBRANCH   1  11
TORSDOF 15
ENDMDL
MODEL 8
REMARK VINA RESULT:    -5.634     19.405     20.292
REMARK INTER + INTRA:         -11.450
REMARK INTER:                 -10.012
REMARK INTRA:                  -1.438
REMARK UNBOUND:                -0.876
REMARK SMILES O=C([O-])CCCCCCCCCCCCCCC(=O)[O-]
REMARK SMILES IDX 10 1 9 2 8 3 7 4 6 5 5 6 4 7 2 8 1 9 3 10 11 11 12 12 13 13
REMARK SMILES IDX 14 14 15 15 16 16 17 17 18 18 19 19 20 20
REMARK H PARENT
REMARK Flexibility Score: inf
ROOT
ATOM      1  C   UNL     1      88.956 326.501 195.221  1.00  0.00     0.000 C 
ENDROOT
BRANCH   1   2
ATOM      2  C   UNL     1      88.090 326.019 196.399  1.00  0.00     0.000 C 
BRANCH   2   3
ATOM      3  C   UNL     1      88.465 326.693 197.729  1.00  0.00     0.000 C 
BRANCH   3   4
ATOM      4  C   UNL     1      88.841 325.695 198.844  1.00  0.00     0.000 C 
BRANCH   4   5
ATOM      5  C   UNL     1      89.542 326.384 200.028  1.00  0.00     0.000 C 
BRANCH   5   6
ATOM      6  C   UNL     1      88.878 326.080 201.383  1.00  0.00     0.006 C 
BRANCH   6   7
ATOM      7  C   UNL     1      89.877 325.781 202.515  1.00  0.00     0.053 C 
BRANCH   7   8
ATOM      8  C   UNL     1      90.574 327.011 203.011  1.00  0.00     0.041 C 
ATOM      9  O   UNL     1      90.006 327.777 203.832  1.00  0.00    -0.550 OA
ATOM     10  O   UNL     1      91.869 327.292 202.593  1.00  0.00    -0.550 OA
ENDBRANCH   7   8
ENDBRANCH   6   7
ENDBRANCH   5   6
ENDBRANCH   4   5
ENDBRANCH   3   4
ENDBRANCH   2   3
ENDBRANCH   1   2
BRANCH   1  11
ATOM     11  C   UNL     1      88.136 326.727 193.941  1.00  0.00     0.000 C 
BRANCH  11  12
ATOM     12  C   UNL     1      86.689 326.227 194.066  1.00  0.00     0.000 C 
BRANCH  12  13
ATOM     13  C   UNL     1      86.467 324.969 193.218  1.00  0.00     0.000 C 
BRANCH  13  14
ATOM     14  C   UNL     1      87.737 324.605 192.433  1.00  0.00     0.000 C 
BRANCH  14  15
ATOM     15  C   UNL     1      88.286 323.219 192.805  1.00  0.00     0.000 C 
BRANCH  15  16
ATOM     16  C   UNL     1      88.084 322.882 194.292  1.00  0.00     0.006 C 
BRANCH  16  17
ATOM     17  C   UNL     1      89.363 322.334 194.940  1.00  0.00     0.053 C 
BRANCH  17  18
ATOM     18  C   UNL     1      89.462 322.711 196.387  1.00  0.00     0.041 C 
ATOM     19  O   UNL     1      90.517 323.236 196.833  1.00  0.00    -0.550 OA
ATOM     20  O   UNL     1      88.380 322.512 197.234  1.00  0.00    -0.550 OA
ENDBRANCH  17  18
ENDBRANCH  16  17
ENDBRANCH  15  16
ENDBRANCH  14  15
ENDBRANCH  13  14
ENDBRANCH  12  13
ENDBRANCH  11  12
ENDBRANCH   1  11
TORSDOF 15
ENDMDL
MODEL 9
REMARK VINA RESULT:    -5.613     19.331     20.210
REMARK INTER + INTRA:         -11.411
REMARK INTER:                  -9.959
REMARK INTRA:                  -1.451
REMARK UNBOUND:                -0.876
REMARK SMILES O=C([O-])CCCCCCCCCCCCCCC(=O)[O-]
REMARK SMILES IDX 10 1 9 2 8 3 7 4 6 5 5 6 4 7 2 8 1 9 3 10 11 11 12 12 13 13
REMARK SMILES IDX 14 14 15 15 16 16 17 17 18 18 19 19 20 20
REMARK H PARENT
REMARK Flexibility Score: inf
ROOT
ATOM      1  C   UNL     1      88.945 325.097 195.966  1.00  0.00     0.000 C 
ENDROOT
BRANCH   1   2
ATOM      2  C   UNL     1      88.547 325.100 197.452  1.00  0.00     0.000 C 
BRANCH   2   3
ATOM      3  C   UNL     1      88.551 326.510 198.067  1.00  0.00     0.000 C 
BRANCH   3   4
ATOM      4  C   UNL     1      89.262 326.586 199.435  1.00  0.00     0.000 C 
BRANCH   4   5
ATOM      5  C   UNL     1      89.970 325.268 199.794  1.00  0.00     0.000 C 
BRANCH   5   6
ATOM      6  C   UNL     1      91.023 325.431 200.905  1.00  0.00     0.006 C 
BRANCH   6   7
ATOM      7  C   UNL     1      91.004 326.811 201.586  1.00  0.00     0.053 C 
BRANCH   7   8
ATOM      8  C   UNL     1      90.385 326.773 202.951  1.00  0.00     0.041 C 
ATOM      9  O   UNL     1      90.579 327.715 203.763  1.00  0.00    -0.550 OA
ATOM     10  O   UNL     1      89.564 325.713 203.314  1.00  0.00    -0.550 OA
ENDBRANCH   7   8
ENDBRANCH   6   7
ENDBRANCH   5   6
ENDBRANCH   4   5
ENDBRANCH   3   4
ENDBRANCH   2   3
ENDBRANCH   1   2
BRANCH   1  11
ATOM     11  C   UNL     1      88.969 326.509 195.358  1.00  0.00     0.000 C 
BRANCH  11  12
ATOM     12  C   UNL     1      88.200 326.597 194.031  1.00  0.00     0.000 C 
BRANCH  12  13
ATOM     13  C   UNL     1      86.810 325.962 194.159  1.00  0.00     0.000 C 
BRANCH  13  14
ATOM     14  C   UNL     1      86.567 324.938 193.039  1.00  0.00     0.000 C 
BRANCH  14  15
ATOM     15  C   UNL     1      87.852 324.582 192.275  1.00  0.00     0.000 C 
BRANCH  15  16
ATOM     16  C   UNL     1      88.106 323.065 192.220  1.00  0.00     0.006 C 
BRANCH  16  17
ATOM     17  C   UNL     1      88.623 322.517 193.557  1.00  0.00     0.053 C 
BRANCH  17  18
ATOM     18  C   UNL     1      87.538 321.844 194.342  1.00  0.00     0.041 C 
ATOM     19  O   UNL     1      86.560 321.319 193.748  1.00  0.00    -0.550 OA
ATOM     20  O   UNL     1      87.624 321.771 195.726  1.00  0.00    -0.550 OA
ENDBRANCH  17  18
ENDBRANCH  16  17
ENDBRANCH  15  16
ENDBRANCH  14  15
ENDBRANCH  13  14
ENDBRANCH  12  13
ENDBRANCH  11  12
ENDBRANCH   1  11
TORSDOF 15
ENDMDL
