MODEL 1
REMARK VINA RESULT:    -6.057      0.000      0.000
REMARK INTER + INTRA:         -12.623
REMARK INTER:                 -11.014
REMARK INTRA:                  -1.610
REMARK UNBOUND:                -1.610
REMARK SMILES CCCCCC=CCC=CCCCCCCCC(=O)[O-]
REMARK SMILES IDX 11 1 12 2 13 3 14 4 15 5 16 6 17 7 18 8 19 9 20 10 10 11
REMARK SMILES IDX 9 12 8 13 7 14 6 15 5 16 4 17 3 18 2 19 1 20
REMARK H PARENT
REMARK Flexibility Score: inf
ROOT
ATOM      1  C   UNL     1      -8.907 -15.379  27.206  1.00  0.00     0.027 C 
ENDROOT
BRANCH   1   2
ATOM      2  C   UNL     1      -7.684 -14.592  26.712  1.00  0.00     0.004 C 
BRANCH   2   3
ATOM      3  C   UNL     1      -6.530 -14.621  27.726  1.00  0.00     0.000 C 
BRANCH   3   4
ATOM      4  C   UNL     1      -6.781 -13.638  28.876  1.00  0.00     0.000 C 
BRANCH   4   5
ATOM      5  C   UNL     1      -6.179 -14.160  30.191  1.00  0.00     0.000 C 
BRANCH   5   6
ATOM      6  C   UNL     1      -6.814 -13.512  31.430  1.00  0.00     0.006 C 
BRANCH   6   7
ATOM      7  C   UNL     1      -5.952 -13.675  32.688  1.00  0.00     0.053 C 
BRANCH   7   8
ATOM      8  C   UNL     1      -4.802 -12.720  32.661  1.00  0.00     0.041 C 
ATOM      9  O   UNL     1      -5.007 -11.480  32.756  1.00  0.00    -0.550 OA
ATOM     10  O   UNL     1      -3.503 -13.196  32.488  1.00  0.00    -0.550 OA
ENDBRANCH   7   8
ENDBRANCH   6   7
ENDBRANCH   5   6
ENDBRANCH   4   5
ENDBRANCH   3   4
ENDBRANCH   2   3
ENDBRANCH   1   2
BRANCH   1  11
ATOM     11  C   UNL     1     -10.148 -15.047  26.412  1.00  0.00    -0.031 C 
ATOM     12  C   UNL     1     -11.359 -15.602  26.611  1.00  0.00    -0.027 C 
BRANCH  12  13
ATOM     13  C   UNL     1     -11.652 -16.696  27.608  1.00  0.00     0.054 C 
BRANCH  13  14
ATOM     14  C   UNL     1     -12.815 -16.335  28.498  1.00  0.00    -0.027 C 
ATOM     15  C   UNL     1     -13.238 -17.069  29.543  1.00  0.00    -0.031 C 
BRANCH  15  16
ATOM     16  C   UNL     1     -12.674 -18.412  29.935  1.00  0.00     0.027 C 
BRANCH  16  17
ATOM     17  C   UNL     1     -11.690 -18.264  31.101  1.00  0.00     0.004 C 
BRANCH  17  18
ATOM     18  C   UNL     1     -10.240 -18.205  30.596  1.00  0.00     0.000 C 
BRANCH  18  19
ATOM     19  C   UNL     1      -9.648 -16.788  30.669  1.00  0.00    -0.003 C 
ATOM     20  C   UNL     1      -8.390 -16.719  31.535  1.00  0.00     0.004 C 
ENDBRANCH  18  19
ENDBRANCH  17  18
ENDBRANCH  16  17
ENDBRANCH  15  16
ENDBRANCH  13  14
ENDBRANCH  12  13
ENDBRANCH   1  11
TORSDOF 14
ENDMDL
MODEL 2
REMARK VINA RESULT:    -5.942      2.496      6.517
REMARK INTER + INTRA:         -12.415
REMARK INTER:                 -10.886
REMARK INTRA:                  -1.529
REMARK UNBOUND:                -1.610
REMARK SMILES CCCCCC=CCC=CCCCCCCCC(=O)[O-]
REMARK SMILES IDX 11 1 12 2 13 3 14 4 15 5 16 6 17 7 18 8 19 9 20 10 10 11
REMARK SMILES IDX 9 12 8 13 7 14 6 15 5 16 4 17 3 18 2 19 1 20
REMARK H PARENT
REMARK Flexibility Score: inf
ROOT
ATOM      1  C   UNL     1     -12.203 -17.305  31.045  1.00  0.00     0.027 C 
ENDROOT
BRANCH   1   2
ATOM      2  C   UNL     1     -13.258 -17.519  29.949  1.00  0.00     0.004 C 
BRANCH   2   3
ATOM      3  C   UNL     1     -13.184 -16.441  28.857  1.00  0.00     0.000 C 
BRANCH   3   4
ATOM      4  C   UNL     1     -12.007 -16.696  27.909  1.00  0.00     0.000 C 
BRANCH   4   5
ATOM      5  C   UNL     1     -12.135 -15.853  26.630  1.00  0.00     0.000 C 
BRANCH   5   6
ATOM      6  C   UNL     1     -10.837 -15.110  26.279  1.00  0.00     0.006 C 
BRANCH   6   7
ATOM      7  C   UNL     1      -9.652 -15.552  27.144  1.00  0.00     0.053 C 
BRANCH   7   8
ATOM      8  C   UNL     1      -8.434 -14.751  26.813  1.00  0.00     0.041 C 
ATOM      9  O   UNL     1      -8.531 -13.717  26.101  1.00  0.00    -0.550 OA
ATOM     10  O   UNL     1      -7.180 -15.170  27.258  1.00  0.00    -0.550 OA
ENDBRANCH   7   8
ENDBRANCH   6   7
ENDBRANCH   5   6
ENDBRANCH   4   5
ENDBRANCH   3   4
ENDBRANCH   2   3
ENDBRANCH   1   2
BRANCH   1  11
ATOM     11  C   UNL     1     -11.053 -18.276  30.917  1.00  0.00    -0.031 C 
ATOM     12  C   UNL     1      -9.758 -17.923  30.802  1.00  0.00    -0.027 C 
BRANCH  12  13
ATOM     13  C   UNL     1      -9.258 -16.503  30.706  1.00  0.00     0.054 C 
BRANCH  13  14
ATOM     14  C   UNL     1      -8.008 -16.302  31.527  1.00  0.00    -0.027 C 
ATOM     15  C   UNL     1      -7.240 -15.197  31.497  1.00  0.00    -0.031 C 
BRANCH  15  16
ATOM     16  C   UNL     1      -7.457 -14.024  30.574  1.00  0.00     0.027 C 
BRANCH  16  17
ATOM     17  C   UNL     1      -6.114 -13.445  30.115  1.00  0.00     0.004 C 
BRANCH  17  18
ATOM     18  C   UNL     1      -6.027 -11.942  30.422  1.00  0.00     0.000 C 
BRANCH  18  19
ATOM     19  C   UNL     1      -6.003 -11.651  31.932  1.00  0.00    -0.003 C 
ATOM     20  C   UNL     1      -4.844 -12.347  32.648  1.00  0.00     0.004 C 
ENDBRANCH  18  19
ENDBRANCH  17  18
ENDBRANCH  16  17
ENDBRANCH  15  16
ENDBRANCH  13  14
ENDBRANCH  12  13
ENDBRANCH   1  11
TORSDOF 14
ENDMDL
MODEL 3
REMARK VINA RESULT:    -5.912      2.860      6.599
REMARK INTER + INTRA:         -12.360
REMARK INTER:                 -10.775
REMARK INTRA:                  -1.585
REMARK UNBOUND:                -1.610
REMARK SMILES CCCCCC=CCC=CCCCCCCCC(=O)[O-]
REMARK SMILES IDX 11 1 12 2 13 3 14 4 15 5 16 6 17 7 18 8 19 9 20 10 10 11
REMARK SMILES IDX 9 12 8 13 7 14 6 15 5 16 4 17 3 18 2 19 1 20
REMARK H PARENT
REMARK Flexibility Score: inf
ROOT
ATOM      1  C   UNL     1      -8.386 -13.901  26.381  1.00  0.00     0.027 C 
ENDROOT
BRANCH   1   2
ATOM      2  C   UNL     1      -9.619 -14.736  26.006  1.00  0.00     0.004 C 
BRANCH   2   3
ATOM      3  C   UNL     1     -10.126 -15.581  27.185  1.00  0.00     0.000 C 
BRANCH   3   4
ATOM      4  C   UNL     1     -11.598 -15.967  26.994  1.00  0.00     0.000 C 
BRANCH   4   5
ATOM      5  C   UNL     1     -11.978 -17.158  27.889  1.00  0.00     0.000 C 
BRANCH   5   6
ATOM      6  C   UNL     1     -12.615 -16.721  29.216  1.00  0.00     0.006 C 
BRANCH   6   7
ATOM      7  C   UNL     1     -12.254 -17.654  30.378  1.00  0.00     0.053 C 
BRANCH   7   8
ATOM      8  C   UNL     1     -10.771 -17.722  30.554  1.00  0.00     0.041 C 
ATOM      9  O   UNL     1     -10.122 -16.686  30.860  1.00  0.00    -0.550 OA
ATOM     10  O   UNL     1     -10.096 -18.923  30.339  1.00  0.00    -0.550 OA
ENDBRANCH   7   8
ENDBRANCH   6   7
ENDBRANCH   5   6
ENDBRANCH   4   5
ENDBRANCH   3   4
ENDBRANCH   2   3
ENDBRANCH   1   2
BRANCH   1  11
ATOM     11  C   UNL     1      -7.172 -14.766  26.623  1.00  0.00    -0.031 C 
ATOM     12  C   UNL     1      -6.467 -14.798  27.771  1.00  0.00    -0.027 C 
BRANCH  12  13
ATOM     13  C   UNL     1      -6.733 -13.921  28.969  1.00  0.00     0.054 C 
BRANCH  13  14
ATOM     14  C   UNL     1      -7.460 -14.675  30.054  1.00  0.00    -0.027 C 
ATOM     15  C   UNL     1      -7.067 -14.739  31.339  1.00  0.00    -0.031 C 
BRANCH  15  16
ATOM     16  C   UNL     1      -5.790 -14.143  31.879  1.00  0.00     0.027 C 
BRANCH  16  17
ATOM     17  C   UNL     1      -6.070 -12.799  32.562  1.00  0.00     0.004 C 
BRANCH  17  18
ATOM     18  C   UNL     1      -4.827 -11.897  32.534  1.00  0.00     0.000 C 
BRANCH  18  19
ATOM     19  C   UNL     1      -4.539 -11.334  31.132  1.00  0.00    -0.003 C 
ATOM     20  C   UNL     1      -5.733 -10.582  30.542  1.00  0.00     0.004 C 
ENDBRANCH  18  19
ENDBRANCH  17  18
ENDBRANCH  16  17
ENDBRANCH  15  16
ENDBRANCH  13  14
ENDBRANCH  12  13
ENDBRANCH   1  11
TORSDOF 14
ENDMDL
MODEL 4
REMARK VINA RESULT:    -5.876      2.764      6.527
REMARK INTER + INTRA:         -12.295
REMARK INTER:                 -11.200
REMARK INTRA:                  -1.094
REMARK UNBOUND:                -1.610
REMARK SMILES CCCCCC=CCC=CCCCCCCCC(=O)[O-]
REMARK SMILES IDX 11 1 12 2 13 3 14 4 15 5 16 6 17 7 18 8 19 9 20 10 10 11
REMARK SMILES IDX 9 12 8 13 7 14 6 15 5 16 4 17 3 18 2 19 1 20
REMARK H PARENT
REMARK Flexibility Score: inf
ROOT
ATOM      1  C   UNL     1     -11.103 -15.700  26.904  1.00  0.00     0.027 C 
ENDROOT
BRANCH   1   2
ATOM      2  C   UNL     1     -12.570 -15.569  26.470  1.00  0.00     0.004 C 
BRANCH   2   3
ATOM      3  C   UNL     1     -13.540 -16.077  27.548  1.00  0.00     0.000 C 
BRANCH   3   4
ATOM      4  C   UNL     1     -12.828 -16.243  28.896  1.00  0.00     0.000 C 
BRANCH   4   5
ATOM      5  C   UNL     1     -13.595 -17.212  29.811  1.00  0.00     0.000 C 
BRANCH   5   6
ATOM      6  C   UNL     1     -12.852 -18.540  30.020  1.00  0.00     0.006 C 
BRANCH   6   7
ATOM      7  C   UNL     1     -11.757 -18.441  31.088  1.00  0.00     0.053 C 
BRANCH   7   8
ATOM      8  C   UNL     1     -10.418 -18.249  30.450  1.00  0.00     0.041 C 
ATOM      9  O   UNL     1      -9.907 -19.172  29.763  1.00  0.00    -0.550 OA
ATOM     10  O   UNL     1      -9.713 -17.063  30.651  1.00  0.00    -0.550 OA
ENDBRANCH   7   8
ENDBRANCH   6   7
ENDBRANCH   5   6
ENDBRANCH   4   5
ENDBRANCH   3   4
ENDBRANCH   2   3
ENDBRANCH   1   2
BRANCH   1  11
ATOM     11  C   UNL     1     -10.181 -14.884  26.031  1.00  0.00    -0.031 C 
ATOM     12  C   UNL     1      -8.873 -14.675  26.277  1.00  0.00    -0.027 C 
BRANCH  12  13
ATOM     13  C   UNL     1      -8.140 -15.160  27.502  1.00  0.00     0.054 C 
BRANCH  13  14
ATOM     14  C   UNL     1      -6.709 -14.680  27.515  1.00  0.00    -0.027 C 
ATOM     15  C   UNL     1      -6.135 -14.007  28.528  1.00  0.00    -0.031 C 
BRANCH  15  16
ATOM     16  C   UNL     1      -6.855 -13.546  29.771  1.00  0.00     0.027 C 
BRANCH  16  17
ATOM     17  C   UNL     1      -6.732 -14.594  30.884  1.00  0.00     0.004 C 
BRANCH  17  18
ATOM     18  C   UNL     1      -6.393 -13.934  32.229  1.00  0.00     0.000 C 
BRANCH  18  19
ATOM     19  C   UNL     1      -6.322 -12.401  32.130  1.00  0.00    -0.003 C 
ATOM     20  C   UNL     1      -4.955 -11.847  32.535  1.00  0.00     0.004 C 
ENDBRANCH  18  19
ENDBRANCH  17  18
ENDBRANCH  16  17
ENDBRANCH  15  16
ENDBRANCH  13  14
ENDBRANCH  12  13
ENDBRANCH   1  11
TORSDOF 14
ENDMDL
MODEL 5
REMARK VINA RESULT:    -5.863      3.992      7.061
REMARK INTER + INTRA:         -12.272
REMARK INTER:                 -10.984
REMARK INTRA:                  -1.288
REMARK UNBOUND:                -1.610
REMARK SMILES CCCCCC=CCC=CCCCCCCCC(=O)[O-]
REMARK SMILES IDX 11 1 12 2 13 3 14 4 15 5 16 6 17 7 18 8 19 9 20 10 10 11
REMARK SMILES IDX 9 12 8 13 7 14 6 15 5 16 4 17 3 18 2 19 1 20
REMARK H PARENT
REMARK Flexibility Score: inf
ROOT
ATOM      1  C   UNL     1     -11.401 -16.450  27.740  1.00  0.00     0.027 C 
ENDROOT
BRANCH   1   2
ATOM      2  C   UNL     1     -12.874 -16.327  28.156  1.00  0.00     0.004 C 
BRANCH   2   3
ATOM      3  C   UNL     1     -13.174 -17.091  29.455  1.00  0.00     0.000 C 
BRANCH   3   4
ATOM      4  C   UNL     1     -11.947 -17.120  30.374  1.00  0.00     0.000 C 
BRANCH   4   5
ATOM      5  C   UNL     1     -12.364 -17.131  31.854  1.00  0.00     0.000 C 
BRANCH   5   6
ATOM      6  C   UNL     1     -13.129 -18.405  32.243  1.00  0.00     0.006 C 
BRANCH   6   7
ATOM      7  C   UNL     1     -12.196 -19.563  32.614  1.00  0.00     0.053 C 
BRANCH   7   8
ATOM      8  C   UNL     1     -12.629 -20.194  33.899  1.00  0.00     0.041 C 
ATOM      9  O   UNL     1     -11.983 -21.165  34.376  1.00  0.00    -0.550 OA
ATOM     10  O   UNL     1     -13.774 -19.736  34.550  1.00  0.00    -0.550 OA
ENDBRANCH   7   8
ENDBRANCH   6   7
ENDBRANCH   5   6
ENDBRANCH   4   5
ENDBRANCH   3   4
ENDBRANCH   2   3
ENDBRANCH   1   2
BRANCH   1  11
ATOM     11  C   UNL     1     -11.065 -15.545  26.579  1.00  0.00    -0.031 C 
ATOM     12  C   UNL     1      -9.840 -15.048  26.321  1.00  0.00    -0.027 C 
BRANCH  12  13
ATOM     13  C   UNL     1      -8.625 -15.257  27.191  1.00  0.00     0.054 C 
BRANCH  13  14
ATOM     14  C   UNL     1      -7.424 -14.524  26.646  1.00  0.00    -0.027 C 
ATOM     15  C   UNL     1      -6.323 -14.220  27.357  1.00  0.00    -0.031 C 
BRANCH  15  16
ATOM     16  C   UNL     1      -6.154 -14.482  28.834  1.00  0.00     0.027 C 
BRANCH  16  17
ATOM     17  C   UNL     1      -6.762 -13.339  29.656  1.00  0.00     0.004 C 
BRANCH  17  18
ATOM     18  C   UNL     1      -7.253 -13.843  31.022  1.00  0.00     0.000 C 
BRANCH  18  19
ATOM     19  C   UNL     1      -7.133 -15.370  31.163  1.00  0.00    -0.003 C 
ATOM     20  C   UNL     1      -8.475 -16.085  30.996  1.00  0.00     0.004 C 
ENDBRANCH  18  19
ENDBRANCH  17  18
ENDBRANCH  16  17
ENDBRANCH  15  16
ENDBRANCH  13  14
ENDBRANCH  12  13
ENDBRANCH   1  11
TORSDOF 14
ENDMDL
MODEL 6
REMARK VINA RESULT:    -5.858      1.625      2.479
REMARK INTER + INTRA:         -12.263
REMARK INTER:                 -10.606
REMARK INTRA:                  -1.657
REMARK UNBOUND:                -1.610
REMARK SMILES CCCCCC=CCC=CCCCCCCCC(=O)[O-]
REMARK SMILES IDX 11 1 12 2 13 3 14 4 15 5 16 6 17 7 18 8 19 9 20 10 10 11
REMARK SMILES IDX 9 12 8 13 7 14 6 15 5 16 4 17 3 18 2 19 1 20
REMARK H PARENT
REMARK Flexibility Score: inf
ROOT
ATOM      1  C   UNL     1     -10.730 -15.573  27.013  1.00  0.00     0.027 C 
ENDROOT
BRANCH   1   2
ATOM      2  C   UNL     1      -9.992 -14.930  25.829  1.00  0.00     0.004 C 
BRANCH   2   3
ATOM      3  C   UNL     1      -8.790 -14.089  26.284  1.00  0.00     0.000 C 
BRANCH   3   4
ATOM      4  C   UNL     1      -7.564 -14.972  26.543  1.00  0.00     0.000 C 
BRANCH   4   5
ATOM      5  C   UNL     1      -6.368 -14.133  27.022  1.00  0.00     0.000 C 
BRANCH   5   6
ATOM      6  C   UNL     1      -5.936 -14.482  28.453  1.00  0.00     0.006 C 
BRANCH   6   7
ATOM      7  C   UNL     1      -4.603 -13.832  28.841  1.00  0.00     0.053 C 
BRANCH   7   8
ATOM      8  C   UNL     1      -4.835 -12.644  29.719  1.00  0.00     0.041 C 
ATOM      9  O   UNL     1      -4.770 -12.760  30.971  1.00  0.00    -0.550 OA
ATOM     10  O   UNL     1      -5.167 -11.413  29.154  1.00  0.00    -0.550 OA
ENDBRANCH   7   8
ENDBRANCH   6   7
ENDBRANCH   5   6
ENDBRANCH   4   5
ENDBRANCH   3   4
ENDBRANCH   2   3
ENDBRANCH   1   2
BRANCH   1  11
ATOM     11  C   UNL     1     -12.192 -15.798  26.712  1.00  0.00    -0.031 C 
ATOM     12  C   UNL     1     -13.145 -16.005  27.641  1.00  0.00    -0.027 C 
BRANCH  12  13
ATOM     13  C   UNL     1     -12.892 -16.121  29.124  1.00  0.00     0.054 C 
BRANCH  13  14
ATOM     14  C   UNL     1     -13.248 -17.494  29.639  1.00  0.00    -0.027 C 
ATOM     15  C   UNL     1     -12.388 -18.523  29.736  1.00  0.00    -0.031 C 
BRANCH  15  16
ATOM     16  C   UNL     1     -10.956 -18.495  29.262  1.00  0.00     0.027 C 
BRANCH  16  17
ATOM     17  C   UNL     1     -10.008 -18.929  30.387  1.00  0.00     0.004 C 
BRANCH  17  18
ATOM     18  C   UNL     1      -9.456 -17.711  31.143  1.00  0.00     0.000 C 
BRANCH  18  19
ATOM     19  C   UNL     1      -9.399 -16.450  30.266  1.00  0.00    -0.003 C 
ATOM     20  C   UNL     1      -8.274 -15.497  30.675  1.00  0.00     0.004 C 
ENDBRANCH  18  19
ENDBRANCH  17  18
ENDBRANCH  16  17
ENDBRANCH  15  16
ENDBRANCH  13  14
ENDBRANCH  12  13
ENDBRANCH   1  11
TORSDOF 14
ENDMDL
MODEL 7
REMARK VINA RESULT:    -5.788      2.795      6.786
REMARK INTER + INTRA:         -12.135
REMARK INTER:                 -10.686
REMARK INTRA:                  -1.449
REMARK UNBOUND:                -1.610
REMARK SMILES CCCCCC=CCC=CCCCCCCCC(=O)[O-]
REMARK SMILES IDX 11 1 12 2 13 3 14 4 15 5 16 6 17 7 18 8 19 9 20 10 10 11
REMARK SMILES IDX 9 12 8 13 7 14 6 15 5 16 4 17 3 18 2 19 1 20
REMARK H PARENT
REMARK Flexibility Score: inf
ROOT
ATOM      1  C   UNL     1      -7.316 -14.090  26.625  1.00  0.00     0.027 C 
ENDROOT
BRANCH   1   2
ATOM      2  C   UNL     1      -8.347 -15.228  26.587  1.00  0.00     0.004 C 
BRANCH   2   3
ATOM      3  C   UNL     1      -9.687 -14.776  25.988  1.00  0.00     0.000 C 
BRANCH   3   4
ATOM      4  C   UNL     1     -10.859 -15.525  26.631  1.00  0.00     0.000 C 
BRANCH   4   5
ATOM      5  C   UNL     1     -10.419 -16.242  27.918  1.00  0.00     0.000 C 
BRANCH   5   6
ATOM      6  C   UNL     1     -11.608 -16.717  28.767  1.00  0.00     0.006 C 
BRANCH   6   7
ATOM      7  C   UNL     1     -11.364 -16.546  30.270  1.00  0.00     0.053 C 
BRANCH   7   8
ATOM      8  C   UNL     1     -10.243 -17.425  30.723  1.00  0.00     0.041 C 
ATOM      9  O   UNL     1     -10.436 -18.658  30.898  1.00  0.00    -0.550 OA
ATOM     10  O   UNL     1      -8.990 -16.876  30.993  1.00  0.00    -0.550 OA
ENDBRANCH   7   8
ENDBRANCH   6   7
ENDBRANCH   5   6
ENDBRANCH   4   5
ENDBRANCH   3   4
ENDBRANCH   2   3
ENDBRANCH   1   2
BRANCH   1  11
ATOM     11  C   UNL     1      -6.100 -14.456  27.442  1.00  0.00    -0.031 C 
ATOM     12  C   UNL     1      -6.012 -14.345  28.782  1.00  0.00    -0.027 C 
BRANCH  12  13
ATOM     13  C   UNL     1      -7.085 -13.766  29.670  1.00  0.00     0.054 C 
BRANCH  13  14
ATOM     14  C   UNL     1      -6.842 -14.103  31.120  1.00  0.00    -0.027 C 
ATOM     15  C   UNL     1      -6.529 -13.207  32.074  1.00  0.00    -0.031 C 
BRANCH  15  16
ATOM     16  C   UNL     1      -6.284 -11.739  31.827  1.00  0.00     0.027 C 
BRANCH  16  17
ATOM     17  C   UNL     1      -4.815 -11.491  31.464  1.00  0.00     0.004 C 
BRANCH  17  18
ATOM     18  C   UNL     1      -3.935 -11.451  32.722  1.00  0.00     0.000 C 
BRANCH  18  19
ATOM     19  C   UNL     1      -2.999 -12.667  32.825  1.00  0.00    -0.003 C 
ATOM     20  C   UNL     1      -2.812 -13.382  31.485  1.00  0.00     0.004 C 
ENDBRANCH  18  19
ENDBRANCH  17  18
ENDBRANCH  16  17
ENDBRANCH  15  16
ENDBRANCH  13  14
ENDBRANCH  12  13
ENDBRANCH   1  11
TORSDOF 14
ENDMDL
MODEL 8
REMARK VINA RESULT:    -5.787      1.601      3.826
REMARK INTER + INTRA:         -12.132
REMARK INTER:                 -10.452
REMARK INTRA:                  -1.680
REMARK UNBOUND:                -1.610
REMARK SMILES CCCCCC=CCC=CCCCCCCCC(=O)[O-]
REMARK SMILES IDX 11 1 12 2 13 3 14 4 15 5 16 6 17 7 18 8 19 9 20 10 10 11
REMARK SMILES IDX 9 12 8 13 7 14 6 15 5 16 4 17 3 18 2 19 1 20
REMARK H PARENT
REMARK Flexibility Score: inf
ROOT
ATOM      1  C   UNL     1     -10.838 -16.055  27.398  1.00  0.00     0.027 C 
ENDROOT
BRANCH   1   2
ATOM      2  C   UNL     1     -10.815 -15.117  26.182  1.00  0.00     0.004 C 
BRANCH   2   3
ATOM      3  C   UNL     1      -9.396 -14.623  25.859  1.00  0.00     0.000 C 
BRANCH   3   4
ATOM      4  C   UNL     1      -8.532 -14.564  27.124  1.00  0.00     0.000 C 
BRANCH   4   5
ATOM      5  C   UNL     1      -7.056 -14.849  26.800  1.00  0.00     0.000 C 
BRANCH   5   6
ATOM      6  C   UNL     1      -6.094 -13.915  27.550  1.00  0.00     0.006 C 
BRANCH   6   7
ATOM      7  C   UNL     1      -4.714 -14.544  27.770  1.00  0.00     0.053 C 
BRANCH   7   8
ATOM      8  C   UNL     1      -3.885 -13.686  28.672  1.00  0.00     0.041 C 
ATOM      9  O   UNL     1      -2.752 -14.082  29.056  1.00  0.00    -0.550 OA
ATOM     10  O   UNL     1      -4.382 -12.465  29.125  1.00  0.00    -0.550 OA
ENDBRANCH   7   8
ENDBRANCH   6   7
ENDBRANCH   5   6
ENDBRANCH   4   5
ENDBRANCH   3   4
ENDBRANCH   2   3
ENDBRANCH   1   2
BRANCH   1  11
ATOM     11  C   UNL     1     -12.231 -16.557  27.696  1.00  0.00    -0.031 C 
ATOM     12  C   UNL     1     -12.761 -16.665  28.929  1.00  0.00    -0.027 C 
BRANCH  12  13
ATOM     13  C   UNL     1     -12.023 -16.374  30.212  1.00  0.00     0.054 C 
BRANCH  13  14
ATOM     14  C   UNL     1     -11.104 -17.510  30.590  1.00  0.00    -0.027 C 
ATOM     15  C   UNL     1      -9.774 -17.396  30.761  1.00  0.00    -0.031 C 
BRANCH  15  16
ATOM     16  C   UNL     1      -8.980 -16.137  30.514  1.00  0.00     0.027 C 
BRANCH  16  17
ATOM     17  C   UNL     1      -7.831 -16.019  31.523  1.00  0.00     0.004 C 
BRANCH  17  18
ATOM     18  C   UNL     1      -6.789 -14.992  31.054  1.00  0.00     0.000 C 
BRANCH  18  19
ATOM     19  C   UNL     1      -6.376 -14.021  32.172  1.00  0.00    -0.003 C 
ATOM     20  C   UNL     1      -6.688 -12.563  31.833  1.00  0.00     0.004 C 
ENDBRANCH  18  19
ENDBRANCH  17  18
ENDBRANCH  16  17
ENDBRANCH  15  16
ENDBRANCH  13  14
ENDBRANCH  12  13
ENDBRANCH   1  11
TORSDOF 14
ENDMDL
MODEL 9
REMARK VINA RESULT:    -5.783      3.519      7.365
REMARK INTER + INTRA:         -12.125
REMARK INTER:                 -10.030
REMARK INTRA:                  -2.095
REMARK UNBOUND:                -1.610
REMARK SMILES CCCCCC=CCC=CCCCCCCCC(=O)[O-]
REMARK SMILES IDX 11 1 12 2 13 3 14 4 15 5 16 6 17 7 18 8 19 9 20 10 10 11
REMARK SMILES IDX 9 12 8 13 7 14 6 15 5 16 4 17 3 18 2 19 1 20
REMARK H PARENT
REMARK Flexibility Score: inf
ROOT
ATOM      1  C   UNL     1      -7.103 -13.880  28.592  1.00  0.00     0.027 C 
ENDROOT
BRANCH   1   2
ATOM      2  C   UNL     1      -6.693 -14.583  27.290  1.00  0.00     0.004 C 
BRANCH   2   3
ATOM      3  C   UNL     1      -7.867 -15.332  26.642  1.00  0.00     0.000 C 
BRANCH   3   4
ATOM      4  C   UNL     1      -8.991 -14.364  26.252  1.00  0.00     0.000 C 
BRANCH   4   5
ATOM      5  C   UNL     1     -10.357 -15.070  26.264  1.00  0.00     0.000 C 
BRANCH   5   6
ATOM      6  C   UNL     1     -10.570 -15.926  27.521  1.00  0.00     0.006 C 
BRANCH   6   7
ATOM      7  C   UNL     1     -12.053 -16.167  27.826  1.00  0.00     0.053 C 
BRANCH   7   8
ATOM      8  C   UNL     1     -12.231 -16.618  29.240  1.00  0.00     0.041 C 
ATOM      9  O   UNL     1     -11.406 -16.267  30.124  1.00  0.00    -0.550 OA
ATOM     10  O   UNL     1     -13.288 -17.464  29.575  1.00  0.00    -0.550 OA
ENDBRANCH   7   8
ENDBRANCH   6   7
ENDBRANCH   5   6
ENDBRANCH   4   5
ENDBRANCH   3   4
ENDBRANCH   2   3
ENDBRANCH   1   2
BRANCH   1  11
ATOM     11  C   UNL     1      -7.631 -14.855  29.617  1.00  0.00    -0.031 C 
ATOM     12  C   UNL     1      -7.104 -15.043  30.842  1.00  0.00    -0.027 C 
BRANCH  12  13
ATOM     13  C   UNL     1      -5.859 -14.366  31.357  1.00  0.00     0.054 C 
BRANCH  13  14
ATOM     14  C   UNL     1      -6.186 -13.337  32.411  1.00  0.00    -0.027 C 
ATOM     15  C   UNL     1      -6.342 -12.021  32.176  1.00  0.00    -0.031 C 
BRANCH  15  16
ATOM     16  C   UNL     1      -6.125 -11.354  30.841  1.00  0.00     0.027 C 
BRANCH  16  17
ATOM     17  C   UNL     1      -4.690 -10.826  30.729  1.00  0.00     0.004 C 
BRANCH  17  18
ATOM     18  C   UNL     1      -4.098 -11.125  29.344  1.00  0.00     0.000 C 
BRANCH  18  19
ATOM     19  C   UNL     1      -3.474 -12.529  29.262  1.00  0.00    -0.003 C 
ATOM     20  C   UNL     1      -2.624 -12.869  30.487  1.00  0.00     0.004 C 
ENDBRANCH  18  19
ENDBRANCH  17  18
ENDBRANCH  16  17
ENDBRANCH  15  16
ENDBRANCH  13  14
ENDBRANCH  12  13
ENDBRANCH   1  11
TORSDOF 14
ENDMDL
