MODEL 1
REMARK VINA RESULT:    -4.382      0.000      0.000
REMARK INTER + INTRA:          -4.655
REMARK INTER:                  -4.638
REMARK INTRA:                  -0.017
REMARK UNBOUND:                -0.017
REMARK SMILES O=C([O-])c1cccnc1
REMARK SMILES IDX 4 1 5 2 9 3 6 4 8 5 7 6 2 7 1 8 3 9
REMARK H PARENT
REMARK Flexibility Score: inf
ROOT
ATOM      1  C   UNL     1       7.093  -2.126  16.870  1.00  0.00     0.016 A 
ATOM      2  C   UNL     1       6.274  -2.350  17.990  1.00  0.00     0.013 A 
ATOM      3  C   UNL     1       6.492  -2.086  15.601  1.00  0.00     0.120 A 
ATOM      4  C   UNL     1       4.899  -2.527  17.828  1.00  0.00     0.021 A 
ATOM      5  N   UNL     1       5.151  -2.262  15.471  1.00  0.00    -0.264 NA
ATOM      6  C   UNL     1       4.349  -2.479  16.546  1.00  0.00     0.111 A 
ENDROOT
BRANCH   1   7
ATOM      7  C   UNL     1       8.552  -1.936  17.021  1.00  0.00     0.073 C 
ATOM      8  O   UNL     1       9.361  -2.742  16.491  1.00  0.00    -0.545 OA
ATOM      9  O   UNL     1       9.050  -0.863  17.754  1.00  0.00    -0.545 OA
ENDBRANCH   1   7
TORSDOF 1
ENDMDL
MODEL 2
REMARK VINA RESULT:    -4.014      8.167      9.043
REMARK INTER + INTRA:          -4.266
REMARK INTER:                  -4.242
REMARK INTRA:                  -0.024
REMARK UNBOUND:                -0.017
REMARK SMILES O=C([O-])c1cccnc1
REMARK SMILES IDX 4 1 5 2 9 3 6 4 8 5 7 6 2 7 1 8 3 9
REMARK H PARENT
REMARK Flexibility Score: inf
ROOT
ATOM      1  C   UNL     1       8.738   1.537  23.922  1.00  0.00     0.016 A 
ATOM      2  C   UNL     1       8.133   1.607  25.188  1.00  0.00     0.013 A 
ATOM      3  C   UNL     1      10.047   1.033  23.834  1.00  0.00     0.120 A 
ATOM      4  C   UNL     1       8.828   1.183  26.321  1.00  0.00     0.021 A 
ATOM      5  N   UNL     1      10.702   0.627  24.954  1.00  0.00    -0.264 NA
ATOM      6  C   UNL     1      10.126   0.690  26.184  1.00  0.00     0.111 A 
ENDROOT
BRANCH   1   7
ATOM      7  C   UNL     1       8.018   1.981  22.709  1.00  0.00     0.073 C 
ATOM      8  O   UNL     1       6.841   2.423  22.788  1.00  0.00    -0.545 OA
ATOM      9  O   UNL     1       8.633   1.917  21.463  1.00  0.00    -0.545 OA
ENDBRANCH   1   7
TORSDOF 1
ENDMDL
MODEL 3
REMARK VINA RESULT:    -3.845      3.267      4.198
REMARK INTER + INTRA:          -4.087
REMARK INTER:                  -4.067
REMARK INTRA:                  -0.020
REMARK UNBOUND:                -0.017
REMARK SMILES O=C([O-])c1cccnc1
REMARK SMILES IDX 4 1 5 2 9 3 6 4 8 5 7 6 2 7 1 8 3 9
REMARK H PARENT
REMARK Flexibility Score: inf
ROOT
ATOM      1  C   UNL     1       5.151  -2.246  15.919  1.00  0.00     0.016 A 
ATOM      2  C   UNL     1       6.390  -2.130  15.268  1.00  0.00     0.013 A 
ATOM      3  C   UNL     1       5.143  -2.554  17.290  1.00  0.00     0.120 A 
ATOM      4  C   UNL     1       7.576  -2.319  15.979  1.00  0.00     0.021 A 
ATOM      5  N   UNL     1       6.312  -2.734  17.959  1.00  0.00    -0.264 NA
ATOM      6  C   UNL     1       7.516  -2.624  17.340  1.00  0.00     0.111 A 
ENDROOT
BRANCH   1   7
ATOM      7  C   UNL     1       3.884  -2.049  15.182  1.00  0.00     0.073 C 
ATOM      8  O   UNL     1       3.760  -1.101  14.361  1.00  0.00    -0.545 OA
ATOM      9  O   UNL     1       2.810  -2.910  15.387  1.00  0.00    -0.545 OA
ENDBRANCH   1   7
TORSDOF 1
ENDMDL
MODEL 4
REMARK VINA RESULT:    -3.817      3.218      3.914
REMARK INTER + INTRA:          -4.058
REMARK INTER:                  -4.037
REMARK INTRA:                  -0.021
REMARK UNBOUND:                -0.017
REMARK SMILES O=C([O-])c1cccnc1
REMARK SMILES IDX 4 1 5 2 9 3 6 4 8 5 7 6 2 7 1 8 3 9
REMARK H PARENT
REMARK Flexibility Score: inf
ROOT
ATOM      1  C   UNL     1       5.144  -2.261  15.951  1.00  0.00     0.016 A 
ATOM      2  C   UNL     1       5.195  -2.502  17.334  1.00  0.00     0.013 A 
ATOM      3  C   UNL     1       6.355  -2.150  15.247  1.00  0.00     0.120 A 
ATOM      4  C   UNL     1       6.427  -2.626  17.978  1.00  0.00     0.021 A 
ATOM      5  N   UNL     1       7.541  -2.275  15.899  1.00  0.00    -0.264 NA
ATOM      6  C   UNL     1       7.602  -2.508  17.236  1.00  0.00     0.111 A 
ENDROOT
BRANCH   1   7
ATOM      7  C   UNL     1       3.849  -2.125  15.250  1.00  0.00     0.073 C 
ATOM      8  O   UNL     1       3.722  -1.324  14.286  1.00  0.00    -0.545 OA
ATOM      9  O   UNL     1       2.751  -2.882  15.648  1.00  0.00    -0.545 OA
ENDBRANCH   1   7
TORSDOF 1
ENDMDL
MODEL 5
REMARK VINA RESULT:    -3.793      2.196      3.117
REMARK INTER + INTRA:          -4.032
REMARK INTER:                  -4.015
REMARK INTRA:                  -0.017
REMARK UNBOUND:                -0.017
REMARK SMILES O=C([O-])c1cccnc1
REMARK SMILES IDX 4 1 5 2 9 3 6 4 8 5 7 6 2 7 1 8 3 9
REMARK H PARENT
REMARK Flexibility Score: inf
ROOT
ATOM      1  C   UNL     1       6.225  -2.429  17.986  1.00  0.00     0.016 A 
ATOM      2  C   UNL     1       7.497  -2.336  17.397  1.00  0.00     0.013 A 
ATOM      3  C   UNL     1       5.098  -2.412  17.146  1.00  0.00     0.120 A 
ATOM      4  C   UNL     1       7.622  -2.229  16.011  1.00  0.00     0.021 A 
ATOM      5  N   UNL     1       5.248  -2.308  15.799  1.00  0.00    -0.264 NA
ATOM      6  C   UNL     1       6.474  -2.217  15.219  1.00  0.00     0.111 A 
ENDROOT
BRANCH   1   7
ATOM      7  C   UNL     1       6.072  -2.542  19.452  1.00  0.00     0.073 C 
ATOM      8  O   UNL     1       6.306  -1.554  20.198  1.00  0.00    -0.545 OA
ATOM      9  O   UNL     1       5.667  -3.742  20.027  1.00  0.00    -0.545 OA
ENDBRANCH   1   7
TORSDOF 1
ENDMDL
MODEL 6
REMARK VINA RESULT:    -3.649      8.068      8.790
REMARK INTER + INTRA:          -3.880
REMARK INTER:                  -3.857
REMARK INTRA:                  -0.023
REMARK UNBOUND:                -0.017
REMARK SMILES O=C([O-])c1cccnc1
REMARK SMILES IDX 4 1 5 2 9 3 6 4 8 5 7 6 2 7 1 8 3 9
REMARK H PARENT
REMARK Flexibility Score: inf
ROOT
ATOM      1  C   UNL     1       9.566   1.129  24.453  1.00  0.00     0.016 A 
ATOM      2  C   UNL     1       9.701   1.138  23.055  1.00  0.00     0.013 A 
ATOM      3  C   UNL     1       8.345   1.550  25.008  1.00  0.00     0.120 A 
ATOM      4  C   UNL     1       8.640   1.556  22.250  1.00  0.00     0.021 A 
ATOM      5  N   UNL     1       7.328   1.952  24.201  1.00  0.00    -0.264 NA
ATOM      6  C   UNL     1       7.448   1.964  22.848  1.00  0.00     0.111 A 
ENDROOT
BRANCH   1   7
ATOM      7  C   UNL     1      10.678   0.691  25.322  1.00  0.00     0.073 C 
ATOM      8  O   UNL     1      11.574  -0.076  24.878  1.00  0.00    -0.545 OA
ATOM      9  O   UNL     1      10.750   1.119  26.644  1.00  0.00    -0.545 OA
ENDBRANCH   1   7
TORSDOF 1
ENDMDL
MODEL 7
REMARK VINA RESULT:    -3.598      3.708      4.426
REMARK INTER + INTRA:          -3.826
REMARK INTER:                  -3.807
REMARK INTRA:                  -0.019
REMARK UNBOUND:                -0.017
REMARK SMILES O=C([O-])c1cccnc1
REMARK SMILES IDX 4 1 5 2 9 3 6 4 8 5 7 6 2 7 1 8 3 9
REMARK H PARENT
REMARK Flexibility Score: inf
ROOT
ATOM      1  C   UNL     1       5.428  -3.427  19.300  1.00  0.00     0.016 A 
ATOM      2  C   UNL     1       4.671  -4.610  19.360  1.00  0.00     0.013 A 
ATOM      3  C   UNL     1       6.097  -3.003  20.460  1.00  0.00     0.120 A 
ATOM      4  C   UNL     1       4.596  -5.334  20.551  1.00  0.00     0.021 A 
ATOM      5  N   UNL     1       6.007  -3.727  21.607  1.00  0.00    -0.264 NA
ATOM      6  C   UNL     1       5.279  -4.872  21.676  1.00  0.00     0.111 A 
ENDROOT
BRANCH   1   7
ATOM      7  C   UNL     1       5.519  -2.646  18.048  1.00  0.00     0.073 C 
ATOM      8  O   UNL     1       4.477  -2.314  17.422  1.00  0.00    -0.545 OA
ATOM      9  O   UNL     1       6.759  -2.267  17.543  1.00  0.00    -0.545 OA
ENDBRANCH   1   7
TORSDOF 1
ENDMDL
MODEL 8
REMARK VINA RESULT:    -3.591      1.912      2.476
REMARK INTER + INTRA:          -3.819
REMARK INTER:                  -3.795
REMARK INTRA:                  -0.024
REMARK UNBOUND:                -0.017
REMARK SMILES O=C([O-])c1cccnc1
REMARK SMILES IDX 4 1 5 2 9 3 6 4 8 5 7 6 2 7 1 8 3 9
REMARK H PARENT
REMARK Flexibility Score: inf
ROOT
ATOM      1  C   UNL     1       4.932  -2.601  17.198  1.00  0.00     0.016 A 
ATOM      2  C   UNL     1       3.708  -3.010  17.753  1.00  0.00     0.013 A 
ATOM      3  C   UNL     1       4.961  -2.230  15.844  1.00  0.00     0.120 A 
ATOM      4  C   UNL     1       2.557  -3.042  16.964  1.00  0.00     0.021 A 
ATOM      5  N   UNL     1       3.825  -2.270  15.097  1.00  0.00    -0.264 NA
ATOM      6  C   UNL     1       2.636  -2.663  15.623  1.00  0.00     0.111 A 
ENDROOT
BRANCH   1   7
ATOM      7  C   UNL     1       6.162  -2.562  18.018  1.00  0.00     0.073 C 
ATOM      8  O   UNL     1       7.248  -2.154  17.525  1.00  0.00    -0.545 OA
ATOM      9  O   UNL     1       6.137  -2.975  19.346  1.00  0.00    -0.545 OA
ENDBRANCH   1   7
TORSDOF 1
ENDMDL
