MODEL 1
REMARK VINA RESULT:    -6.797      0.000      0.000
REMARK INTER + INTRA:          -8.381
REMARK INTER:                  -8.188
REMARK INTRA:                  -0.193
REMARK UNBOUND:                -0.193
REMARK SMILES O=c1c(O)c(-c2ccc(O)cc2O)oc2cc(O)cc(O)c12
REMARK SMILES IDX 5 1 3 2 2 3 1 4 22 5 20 6 19 7 17 8 16 9 15 10 14 11 6 12
REMARK SMILES IDX 8 13 7 14 9 15 11 16 12 17 10 18 13 20 4 22 21 24 18 26
REMARK H PARENT 10 19 13 21 4 23 21 25 18 27
REMARK Flexibility Score: inf
ROOT
ATOM      1  C   UNL     1      42.455   7.325  17.544  1.00  0.00     0.184 A 
ATOM      2  C   UNL     1      41.937   6.359  16.668  1.00  0.00     0.208 A 
ATOM      3  C   UNL     1      42.516   6.209  15.398  1.00  0.00     0.238 A 
ATOM      4  O   UNL     1      42.007   5.385  14.596  1.00  0.00    -0.285 OA
ATOM      5  C   UNL     1      43.626   7.010  15.033  1.00  0.00     0.111 A 
ATOM      6  C   UNL     1      44.319   6.916  13.789  1.00  0.00     0.134 A 
ATOM      7  C   UNL     1      45.326   7.841  13.488  1.00  0.00     0.093 A 
ATOM      8  C   UNL     1      45.711   8.813  14.410  1.00  0.00     0.123 A 
ATOM      9  C   UNL     1      45.081   8.877  15.653  1.00  0.00     0.094 A 
ATOM     10  C   UNL     1      44.046   7.992  15.969  1.00  0.00     0.146 A 
ATOM     11  O   UNL     1      43.464   8.095  17.157  1.00  0.00    -0.451 OA
ENDROOT
BRANCH   1  12
ATOM     12  C   UNL     1      41.899   7.510  18.902  1.00  0.00     0.063 A 
ATOM     13  C   UNL     1      39.956   7.822  20.333  1.00  0.00     0.047 A 
ATOM     14  C   UNL     1      40.515   7.700  19.059  1.00  0.00     0.020 A 
ATOM     15  C   UNL     1      40.768   7.749  21.467  1.00  0.00     0.119 A 
ATOM     16  C   UNL     1      42.147   7.557  21.322  1.00  0.00     0.093 A 
ATOM     17  C   UNL     1      42.722   7.444  20.051  1.00  0.00     0.130 A 
BRANCH  15  18
ATOM     18  O   UNL     1      40.195   7.867  22.731  1.00  0.00    -0.508 OA
ATOM     19  H   UNL     1      40.761   8.027  23.556  1.00  0.00     0.293 HD
ENDBRANCH  15  18
BRANCH  17  20
ATOM     20  O   UNL     1      44.107   7.290  19.963  1.00  0.00    -0.507 OA
ATOM     21  H   UNL     1      44.671   6.922  20.717  1.00  0.00     0.293 HD
ENDBRANCH  17  20
ENDBRANCH   1  12
BRANCH   2  22
ATOM     22  O   UNL     1      40.842   5.581  17.057  1.00  0.00    -0.502 OA
ATOM     23  H   UNL     1      40.949   4.667  17.481  1.00  0.00     0.293 HD
ENDBRANCH   2  22
BRANCH   6  24
ATOM     24  O   UNL     1      44.076   5.926  12.832  1.00  0.00    -0.507 OA
ATOM     25  H   UNL     1      44.728   5.646  12.115  1.00  0.00     0.293 HD
ENDBRANCH   6  24
BRANCH   8  26
ATOM     26  O   UNL     1      46.728   9.708  14.082  1.00  0.00    -0.508 OA
ATOM     27  H   UNL     1      46.661  10.311  13.271  1.00  0.00     0.293 HD
ENDBRANCH   8  26
TORSDOF 6
ENDMDL
MODEL 2
REMARK VINA RESULT:    -6.736     15.958     17.853
REMARK INTER + INTRA:          -8.308
REMARK INTER:                  -7.933
REMARK INTRA:                  -0.375
REMARK UNBOUND:                -0.193
REMARK SMILES O=c1c(O)c(-c2ccc(O)cc2O)oc2cc(O)cc(O)c12
REMARK SMILES IDX 5 1 3 2 2 3 1 4 22 5 20 6 19 7 17 8 16 9 15 10 14 11 6 12
REMARK SMILES IDX 8 13 7 14 9 15 11 16 12 17 10 18 13 20 4 22 21 24 18 26
REMARK H PARENT 10 19 13 21 4 23 21 25 18 27
REMARK Flexibility Score: inf
ROOT
ATOM      1  C   UNL     1      56.288  -2.499  20.455  1.00  0.00     0.184 A 
ATOM      2  C   UNL     1      55.945  -3.792  20.879  1.00  0.00     0.208 A 
ATOM      3  C   UNL     1      55.086  -3.943  21.979  1.00  0.00     0.238 A 
ATOM      4  O   UNL     1      54.833  -5.104  22.392  1.00  0.00    -0.285 OA
ATOM      5  C   UNL     1      54.558  -2.797  22.622  1.00  0.00     0.111 A 
ATOM      6  C   UNL     1      53.646  -2.831  23.720  1.00  0.00     0.134 A 
ATOM      7  C   UNL     1      53.286  -1.636  24.355  1.00  0.00     0.093 A 
ATOM      8  C   UNL     1      53.749  -0.405  23.892  1.00  0.00     0.123 A 
ATOM      9  C   UNL     1      54.594  -0.356  22.783  1.00  0.00     0.094 A 
ATOM     10  C   UNL     1      55.003  -1.533  22.151  1.00  0.00     0.146 A 
ATOM     11  O   UNL     1      55.818  -1.442  21.107  1.00  0.00    -0.451 OA
ENDROOT
BRANCH   1  12
ATOM     12  C   UNL     1      57.170  -2.279  19.289  1.00  0.00     0.063 A 
ATOM     13  C   UNL     1      59.420  -2.187  18.367  1.00  0.00     0.047 A 
ATOM     14  C   UNL     1      58.564  -2.335  19.460  1.00  0.00     0.020 A 
ATOM     15  C   UNL     1      58.897  -1.990  17.086  1.00  0.00     0.119 A 
ATOM     16  C   UNL     1      57.509  -1.935  16.904  1.00  0.00     0.093 A 
ATOM     17  C   UNL     1      56.641  -2.071  17.994  1.00  0.00     0.130 A 
BRANCH  15  18
ATOM     18  O   UNL     1      59.763  -1.849  16.005  1.00  0.00    -0.508 OA
ATOM     19  H   UNL     1      60.768  -1.861  16.127  1.00  0.00     0.293 HD
ENDBRANCH  15  18
BRANCH  17  20
ATOM     20  O   UNL     1      55.268  -1.972  17.760  1.00  0.00    -0.507 OA
ATOM     21  H   UNL     1      54.596  -1.774  18.489  1.00  0.00     0.293 HD
ENDBRANCH  17  20
ENDBRANCH   1  12
BRANCH   2  22
ATOM     22  O   UNL     1      56.479  -4.905  20.223  1.00  0.00    -0.502 OA
ATOM     23  H   UNL     1      56.043  -5.314  19.406  1.00  0.00     0.293 HD
ENDBRANCH   2  22
BRANCH   6  24
ATOM     24  O   UNL     1      53.052  -3.999  24.206  1.00  0.00    -0.507 OA
ATOM     25  H   UNL     1      52.087  -4.079  24.490  1.00  0.00     0.293 HD
ENDBRANCH   6  24
BRANCH   8  26
ATOM     26  O   UNL     1      53.357   0.765  24.539  1.00  0.00    -0.508 OA
ATOM     27  H   UNL     1      53.895   1.152  25.305  1.00  0.00     0.293 HD
ENDBRANCH   8  26
TORSDOF 6
ENDMDL
MODEL 3
REMARK VINA RESULT:    -6.312      1.399      3.164
REMARK INTER + INTRA:          -7.797
REMARK INTER:                  -7.445
REMARK INTRA:                  -0.352
REMARK UNBOUND:                -0.193
REMARK SMILES O=c1c(O)c(-c2ccc(O)cc2O)oc2cc(O)cc(O)c12
REMARK SMILES IDX 5 1 3 2 2 3 1 4 22 5 20 6 19 7 17 8 16 9 15 10 14 11 6 12
REMARK SMILES IDX 8 13 7 14 9 15 11 16 12 17 10 18 13 20 4 22 21 24 18 26
REMARK H PARENT 10 19 13 21 4 23 21 25 18 27
REMARK Flexibility Score: inf
ROOT
ATOM      1  C   UNL     1      42.918   7.626  17.556  1.00  0.00     0.184 A 
ATOM      2  C   UNL     1      43.776   8.674  17.190  1.00  0.00     0.208 A 
ATOM      3  C   UNL     1      44.340   8.676  15.904  1.00  0.00     0.238 A 
ATOM      4  O   UNL     1      45.156   9.585  15.604  1.00  0.00    -0.285 OA
ATOM      5  C   UNL     1      44.015   7.642  14.992  1.00  0.00     0.111 A 
ATOM      6  C   UNL     1      44.496   7.563  13.651  1.00  0.00     0.134 A 
ATOM      7  C   UNL     1      44.207   6.432  12.879  1.00  0.00     0.093 A 
ATOM      8  C   UNL     1      43.401   5.407  13.375  1.00  0.00     0.123 A 
ATOM      9  C   UNL     1      42.877   5.501  14.664  1.00  0.00     0.094 A 
ATOM     10  C   UNL     1      43.179   6.600  15.473  1.00  0.00     0.146 A 
ATOM     11  O   UNL     1      42.671   6.643  16.699  1.00  0.00    -0.451 OA
ENDROOT
BRANCH   1  12
ATOM     12  C   UNL     1      42.278   7.585  18.888  1.00  0.00     0.063 A 
ATOM     13  C   UNL     1      42.504   7.398  21.304  1.00  0.00     0.047 A 
ATOM     14  C   UNL     1      43.075   7.386  20.030  1.00  0.00     0.020 A 
ATOM     15  C   UNL     1      41.133   7.617  21.458  1.00  0.00     0.119 A 
ATOM     16  C   UNL     1      40.331   7.820  20.329  1.00  0.00     0.093 A 
ATOM     17  C   UNL     1      40.889   7.799  19.045  1.00  0.00     0.130 A 
BRANCH  15  18
ATOM     18  O   UNL     1      40.579   7.633  22.736  1.00  0.00    -0.508 OA
ATOM     19  H   UNL     1      39.607   7.873  22.889  1.00  0.00     0.293 HD
ENDBRANCH  15  18
BRANCH  17  20
ATOM     20  O   UNL     1      40.036   7.970  17.952  1.00  0.00    -0.507 OA
ATOM     21  H   UNL     1      40.333   8.387  17.080  1.00  0.00     0.293 HD
ENDBRANCH  17  20
ENDBRANCH   1  12
BRANCH   2  22
ATOM     22  O   UNL     1      44.076   9.683  18.109  1.00  0.00    -0.502 OA
ATOM     23  H   UNL     1      44.515   9.491  19.002  1.00  0.00     0.293 HD
ENDBRANCH   2  22
BRANCH   6  24
ATOM     24  O   UNL     1      45.234   8.572  13.025  1.00  0.00    -0.507 OA
ATOM     25  H   UNL     1      45.200   9.549  13.274  1.00  0.00     0.293 HD
ENDBRANCH   6  24
BRANCH   8  26
ATOM     26  O   UNL     1      43.121   4.303  12.572  1.00  0.00    -0.508 OA
ATOM     27  H   UNL     1      42.969   3.384  12.971  1.00  0.00     0.293 HD
ENDBRANCH   8  26
TORSDOF 6
ENDMDL
MODEL 4
REMARK VINA RESULT:    -6.294     16.699     18.498
REMARK INTER + INTRA:          -7.775
REMARK INTER:                  -7.370
REMARK INTRA:                  -0.405
REMARK UNBOUND:                -0.193
REMARK SMILES O=c1c(O)c(-c2ccc(O)cc2O)oc2cc(O)cc(O)c12
REMARK SMILES IDX 5 1 3 2 2 3 1 4 22 5 20 6 19 7 17 8 16 9 15 10 14 11 6 12
REMARK SMILES IDX 8 13 7 14 9 15 11 16 12 17 10 18 13 20 4 22 21 24 18 26
REMARK H PARENT 10 19 13 21 4 23 21 25 18 27
REMARK Flexibility Score: inf
ROOT
ATOM      1  C   UNL     1      56.893  -3.030  19.538  1.00  0.00     0.184 A 
ATOM      2  C   UNL     1      56.677  -4.407  19.696  1.00  0.00     0.208 A 
ATOM      3  C   UNL     1      55.815  -4.850  20.712  1.00  0.00     0.238 A 
ATOM      4  O   UNL     1      55.674  -6.088  20.888  1.00  0.00    -0.285 OA
ATOM      5  C   UNL     1      55.159  -3.905  21.539  1.00  0.00     0.111 A 
ATOM      6  C   UNL     1      54.233  -4.237  22.573  1.00  0.00     0.134 A 
ATOM      7  C   UNL     1      53.738  -3.227  23.407  1.00  0.00     0.093 A 
ATOM      8  C   UNL     1      54.082  -1.892  23.204  1.00  0.00     0.123 A 
ATOM      9  C   UNL     1      54.940  -1.548  22.159  1.00  0.00     0.094 A 
ATOM     10  C   UNL     1      55.481  -2.537  21.333  1.00  0.00     0.146 A 
ATOM     11  O   UNL     1      56.304  -2.169  20.359  1.00  0.00    -0.451 OA
ENDROOT
BRANCH   1  12
ATOM     12  C   UNL     1      57.772  -2.507  18.471  1.00  0.00     0.063 A 
ATOM     13  C   UNL     1      58.086  -1.922  16.130  1.00  0.00     0.047 A 
ATOM     14  C   UNL     1      57.299  -2.463  17.148  1.00  0.00     0.020 A 
ATOM     15  C   UNL     1      59.354  -1.410  16.418  1.00  0.00     0.119 A 
ATOM     16  C   UNL     1      59.834  -1.445  17.732  1.00  0.00     0.093 A 
ATOM     17  C   UNL     1      59.059  -1.995  18.760  1.00  0.00     0.130 A 
BRANCH  15  18
ATOM     18  O   UNL     1      60.125  -0.868  15.392  1.00  0.00    -0.508 OA
ATOM     19  H   UNL     1      60.510  -1.449  14.657  1.00  0.00     0.293 HD
ENDBRANCH  15  18
BRANCH  17  20
ATOM     20  O   UNL     1      59.602  -2.038  20.046  1.00  0.00    -0.507 OA
ATOM     21  H   UNL     1      59.293  -2.688  20.756  1.00  0.00     0.293 HD
ENDBRANCH  17  20
ENDBRANCH   1  12
BRANCH   2  22
ATOM     22  O   UNL     1      57.336  -5.317  18.864  1.00  0.00    -0.502 OA
ATOM     23  H   UNL     1      57.432  -5.169  17.866  1.00  0.00     0.293 HD
ENDBRANCH   2  22
BRANCH   6  24
ATOM     24  O   UNL     1      53.752  -5.529  22.805  1.00  0.00    -0.507 OA
ATOM     25  H   UNL     1      54.229  -6.377  22.541  1.00  0.00     0.293 HD
ENDBRANCH   6  24
BRANCH   8  26
ATOM     26  O   UNL     1      53.558  -0.911  24.044  1.00  0.00    -0.508 OA
ATOM     27  H   UNL     1      53.274  -0.006  23.689  1.00  0.00     0.293 HD
ENDBRANCH   8  26
TORSDOF 6
ENDMDL
MODEL 5
REMARK VINA RESULT:    -6.232     16.661     17.741
REMARK INTER + INTRA:          -7.700
REMARK INTER:                  -7.326
REMARK INTRA:                  -0.374
REMARK UNBOUND:                -0.193
REMARK SMILES O=c1c(O)c(-c2ccc(O)cc2O)oc2cc(O)cc(O)c12
REMARK SMILES IDX 5 1 3 2 2 3 1 4 22 5 20 6 19 7 17 8 16 9 15 10 14 11 6 12
REMARK SMILES IDX 8 13 7 14 9 15 11 16 12 17 10 18 13 20 4 22 21 24 18 26
REMARK H PARENT 10 19 13 21 4 23 21 25 18 27
REMARK Flexibility Score: inf
ROOT
ATOM      1  C   UNL     1      57.035  -2.680  18.969  1.00  0.00     0.184 A 
ATOM      2  C   UNL     1      58.244  -1.974  19.067  1.00  0.00     0.208 A 
ATOM      3  C   UNL     1      58.942  -1.651  17.893  1.00  0.00     0.238 A 
ATOM      4  O   UNL     1      60.055  -1.073  17.992  1.00  0.00    -0.285 OA
ATOM      5  C   UNL     1      58.405  -2.014  16.633  1.00  0.00     0.111 A 
ATOM      6  C   UNL     1      59.005  -1.703  15.376  1.00  0.00     0.134 A 
ATOM      7  C   UNL     1      58.448  -2.218  14.199  1.00  0.00     0.093 A 
ATOM      8  C   UNL     1      57.279  -2.976  14.227  1.00  0.00     0.123 A 
ATOM      9  C   UNL     1      56.650  -3.237  15.445  1.00  0.00     0.094 A 
ATOM     10  C   UNL     1      57.202  -2.769  16.640  1.00  0.00     0.146 A 
ATOM     11  O   UNL     1      56.581  -3.051  17.779  1.00  0.00    -0.451 OA
ENDROOT
BRANCH   1  12
ATOM     12  C   UNL     1      56.247  -3.027  20.171  1.00  0.00     0.063 A 
ATOM     13  C   UNL     1      54.866  -2.301  22.038  1.00  0.00     0.047 A 
ATOM     14  C   UNL     1      55.662  -1.999  20.932  1.00  0.00     0.020 A 
ATOM     15  C   UNL     1      54.636  -3.631  22.397  1.00  0.00     0.119 A 
ATOM     16  C   UNL     1      55.210  -4.663  21.645  1.00  0.00     0.093 A 
ATOM     17  C   UNL     1      56.019  -4.374  20.540  1.00  0.00     0.130 A 
BRANCH  15  18
ATOM     18  O   UNL     1      53.835  -3.916  23.501  1.00  0.00    -0.508 OA
ATOM     19  H   UNL     1      52.831  -3.788  23.473  1.00  0.00     0.293 HD
ENDBRANCH  15  18
BRANCH  17  20
ATOM     20  O   UNL     1      56.597  -5.440  19.848  1.00  0.00    -0.507 OA
ATOM     21  H   UNL     1      56.636  -5.488  18.838  1.00  0.00     0.293 HD
ENDBRANCH  17  20
ENDBRANCH   1  12
BRANCH   2  22
ATOM     22  O   UNL     1      58.748  -1.626  20.324  1.00  0.00    -0.502 OA
ATOM     23  H   UNL     1      58.151  -1.499  21.132  1.00  0.00     0.293 HD
ENDBRANCH   2  22
BRANCH   6  24
ATOM     24  O   UNL     1      60.124  -0.878  15.227  1.00  0.00    -0.507 OA
ATOM     25  H   UNL     1      60.131   0.118  15.389  1.00  0.00     0.293 HD
ENDBRANCH   6  24
BRANCH   8  26
ATOM     26  O   UNL     1      56.744  -3.459  13.034  1.00  0.00    -0.508 OA
ATOM     27  H   UNL     1      55.834  -3.903  13.003  1.00  0.00     0.293 HD
ENDBRANCH   8  26
TORSDOF 6
ENDMDL
MODEL 6
REMARK VINA RESULT:    -6.226      0.872      1.535
REMARK INTER + INTRA:          -7.693
REMARK INTER:                  -7.510
REMARK INTRA:                  -0.183
REMARK UNBOUND:                -0.193
REMARK SMILES O=c1c(O)c(-c2ccc(O)cc2O)oc2cc(O)cc(O)c12
REMARK SMILES IDX 5 1 3 2 2 3 1 4 22 5 20 6 19 7 17 8 16 9 15 10 14 11 6 12
REMARK SMILES IDX 8 13 7 14 9 15 11 16 12 17 10 18 13 20 4 22 21 24 18 26
REMARK H PARENT 10 19 13 21 4 23 21 25 18 27
REMARK Flexibility Score: inf
ROOT
ATOM      1  C   UNL     1      42.862   7.222  17.226  1.00  0.00     0.184 A 
ATOM      2  C   UNL     1      42.378   6.237  16.351  1.00  0.00     0.208 A 
ATOM      3  C   UNL     1      42.972   6.095  15.088  1.00  0.00     0.238 A 
ATOM      4  O   UNL     1      42.493   5.253  14.286  1.00  0.00    -0.285 OA
ATOM      5  C   UNL     1      44.064   6.923  14.727  1.00  0.00     0.111 A 
ATOM      6  C   UNL     1      44.770   6.841  13.489  1.00  0.00     0.134 A 
ATOM      7  C   UNL     1      45.754   7.791  13.191  1.00  0.00     0.093 A 
ATOM      8  C   UNL     1      46.104   8.779  14.110  1.00  0.00     0.123 A 
ATOM      9  C   UNL     1      45.462   8.833  15.348  1.00  0.00     0.094 A 
ATOM     10  C   UNL     1      44.449   7.922  15.660  1.00  0.00     0.146 A 
ATOM     11  O   UNL     1      43.853   8.017  16.843  1.00  0.00    -0.451 OA
ENDROOT
BRANCH   1  12
ATOM     12  C   UNL     1      42.289   7.401  18.577  1.00  0.00     0.063 A 
ATOM     13  C   UNL     1      42.623   7.498  20.985  1.00  0.00     0.047 A 
ATOM     14  C   UNL     1      43.125   7.279  19.701  1.00  0.00     0.020 A 
ATOM     15  C   UNL     1      41.283   7.850  21.167  1.00  0.00     0.119 A 
ATOM     16  C   UNL     1      40.443   7.978  20.054  1.00  0.00     0.093 A 
ATOM     17  C   UNL     1      40.931   7.750  18.762  1.00  0.00     0.130 A 
BRANCH  15  18
ATOM     18  O   UNL     1      40.799   8.070  22.453  1.00  0.00    -0.508 OA
ATOM     19  H   UNL     1      40.224   7.384  22.927  1.00  0.00     0.293 HD
ENDBRANCH  15  18
BRANCH  17  20
ATOM     20  O   UNL     1      40.040   7.855  17.692  1.00  0.00    -0.507 OA
ATOM     21  H   UNL     1      40.305   7.676  16.732  1.00  0.00     0.293 HD
ENDBRANCH  17  20
ENDBRANCH   1  12
BRANCH   2  22
ATOM     22  O   UNL     1      41.301   5.433  16.736  1.00  0.00    -0.502 OA
ATOM     23  H   UNL     1      40.728   4.936  16.064  1.00  0.00     0.293 HD
ENDBRANCH   2  22
BRANCH   6  24
ATOM     24  O   UNL     1      44.562   5.839  12.537  1.00  0.00    -0.507 OA
ATOM     25  H   UNL     1      44.188   4.923  12.737  1.00  0.00     0.293 HD
ENDBRANCH   6  24
BRANCH   8  26
ATOM     26  O   UNL     1      47.099   9.698  13.786  1.00  0.00    -0.508 OA
ATOM     27  H   UNL     1      47.040  10.668  14.076  1.00  0.00     0.293 HD
ENDBRANCH   8  26
TORSDOF 6
ENDMDL
MODEL 7
REMARK VINA RESULT:    -6.197     15.956     16.926
REMARK INTER + INTRA:          -7.659
REMARK INTER:                  -7.247
REMARK INTRA:                  -0.412
REMARK UNBOUND:                -0.193
REMARK SMILES O=c1c(O)c(-c2ccc(O)cc2O)oc2cc(O)cc(O)c12
REMARK SMILES IDX 5 1 3 2 2 3 1 4 22 5 20 6 19 7 17 8 16 9 15 10 14 11 6 12
REMARK SMILES IDX 8 13 7 14 9 15 11 16 12 17 10 18 13 20 4 22 21 24 18 26
REMARK H PARENT 10 19 13 21 4 23 21 25 18 27
REMARK Flexibility Score: inf
ROOT
ATOM      1  C   UNL     1      56.224  -2.804  18.910  1.00  0.00     0.184 A 
ATOM      2  C   UNL     1      57.581  -3.098  18.705  1.00  0.00     0.208 A 
ATOM      3  C   UNL     1      58.150  -2.847  17.447  1.00  0.00     0.238 A 
ATOM      4  O   UNL     1      59.350  -3.170  17.252  1.00  0.00    -0.285 OA
ATOM      5  C   UNL     1      57.360  -2.277  16.418  1.00  0.00     0.111 A 
ATOM      6  C   UNL     1      57.841  -1.942  15.117  1.00  0.00     0.134 A 
ATOM      7  C   UNL     1      56.941  -1.498  14.141  1.00  0.00     0.093 A 
ATOM      8  C   UNL     1      55.591  -1.313  14.436  1.00  0.00     0.123 A 
ATOM      9  C   UNL     1      55.120  -1.581  15.722  1.00  0.00     0.094 A 
ATOM     10  C   UNL     1      55.986  -2.062  16.707  1.00  0.00     0.146 A 
ATOM     11  O   UNL     1      55.494  -2.318  17.913  1.00  0.00    -0.451 OA
ENDROOT
BRANCH   1  12
ATOM     12  C   UNL     1      55.578  -3.026  20.221  1.00  0.00     0.063 A 
ATOM     13  C   UNL     1      54.956  -2.166  22.410  1.00  0.00     0.047 A 
ATOM     14  C   UNL     1      55.606  -2.004  21.185  1.00  0.00     0.020 A 
ATOM     15  C   UNL     1      54.262  -3.346  22.688  1.00  0.00     0.119 A 
ATOM     16  C   UNL     1      54.225  -4.370  21.733  1.00  0.00     0.093 A 
ATOM     17  C   UNL     1      54.882  -4.225  20.506  1.00  0.00     0.130 A 
BRANCH  15  18
ATOM     18  O   UNL     1      53.614  -3.490  23.912  1.00  0.00    -0.508 OA
ATOM     19  H   UNL     1      52.625  -3.295  24.014  1.00  0.00     0.293 HD
ENDBRANCH  15  18
BRANCH  17  20
ATOM     20  O   UNL     1      54.843  -5.292  19.606  1.00  0.00    -0.507 OA
ATOM     21  H   UNL     1      55.674  -5.741  19.245  1.00  0.00     0.293 HD
ENDBRANCH  17  20
ENDBRANCH   1  12
BRANCH   2  22
ATOM     22  O   UNL     1      58.337  -3.656  19.739  1.00  0.00    -0.502 OA
ATOM     23  H   UNL     1      58.539  -4.648  19.791  1.00  0.00     0.293 HD
ENDBRANCH   2  22
BRANCH   6  24
ATOM     24  O   UNL     1      59.186  -2.004  14.742  1.00  0.00    -0.507 OA
ATOM     25  H   UNL     1      59.547  -1.722  13.843  1.00  0.00     0.293 HD
ENDBRANCH   6  24
BRANCH   8  26
ATOM     26  O   UNL     1      54.727  -0.854  13.444  1.00  0.00    -0.508 OA
ATOM     27  H   UNL     1      55.076  -0.458  12.579  1.00  0.00     0.293 HD
ENDBRANCH   8  26
TORSDOF 6
ENDMDL
MODEL 8
REMARK VINA RESULT:    -6.142      1.816      3.286
REMARK INTER + INTRA:          -7.591
REMARK INTER:                  -7.197
REMARK INTRA:                  -0.395
REMARK UNBOUND:                -0.193
REMARK SMILES O=c1c(O)c(-c2ccc(O)cc2O)oc2cc(O)cc(O)c12
REMARK SMILES IDX 5 1 3 2 2 3 1 4 22 5 20 6 19 7 17 8 16 9 15 10 14 11 6 12
REMARK SMILES IDX 8 13 7 14 9 15 11 16 12 17 10 18 13 20 4 22 21 24 18 26
REMARK H PARENT 10 19 13 21 4 23 21 25 18 27
REMARK Flexibility Score: inf
ROOT
ATOM      1  C   UNL     1      41.873   7.011  17.124  1.00  0.00     0.184 A 
ATOM      2  C   UNL     1      42.234   7.989  16.186  1.00  0.00     0.208 A 
ATOM      3  C   UNL     1      42.506   7.600  14.865  1.00  0.00     0.238 A 
ATOM      4  O   UNL     1      42.889   8.473  14.045  1.00  0.00    -0.285 OA
ATOM      5  C   UNL     1      42.384   6.238  14.494  1.00  0.00     0.111 A 
ATOM      6  C   UNL     1      42.595   5.735  13.175  1.00  0.00     0.134 A 
ATOM      7  C   UNL     1      42.566   4.353  12.951  1.00  0.00     0.093 A 
ATOM      8  C   UNL     1      42.269   3.462  13.980  1.00  0.00     0.123 A 
ATOM      9  C   UNL     1      42.003   3.946  15.261  1.00  0.00     0.094 A 
ATOM     10  C   UNL     1      42.061   5.317  15.526  1.00  0.00     0.146 A 
ATOM     11  O   UNL     1      41.815   5.735  16.761  1.00  0.00    -0.451 OA
ENDROOT
BRANCH   1  12
ATOM     12  C   UNL     1      41.553   7.366  18.523  1.00  0.00     0.063 A 
ATOM     13  C   UNL     1      39.876   7.782  20.237  1.00  0.00     0.047 A 
ATOM     14  C   UNL     1      40.208   7.502  18.910  1.00  0.00     0.020 A 
ATOM     15  C   UNL     1      40.880   7.923  21.198  1.00  0.00     0.119 A 
ATOM     16  C   UNL     1      42.222   7.787  20.825  1.00  0.00     0.093 A 
ATOM     17  C   UNL     1      42.569   7.517  19.496  1.00  0.00     0.130 A 
BRANCH  15  18
ATOM     18  O   UNL     1      40.532   8.197  22.519  1.00  0.00    -0.508 OA
ATOM     19  H   UNL     1      40.762   7.557  23.270  1.00  0.00     0.293 HD
ENDBRANCH  15  18
BRANCH  17  20
ATOM     20  O   UNL     1      43.925   7.428  19.173  1.00  0.00    -0.507 OA
ATOM     21  H   UNL     1      44.413   6.548  19.075  1.00  0.00     0.293 HD
ENDBRANCH  17  20
ENDBRANCH   1  12
BRANCH   2  22
ATOM     22  O   UNL     1      42.343   9.326  16.580  1.00  0.00    -0.502 OA
ATOM     23  H   UNL     1      42.774   9.601  17.454  1.00  0.00     0.293 HD
ENDBRANCH   2  22
BRANCH   6  24
ATOM     24  O   UNL     1      42.810   6.544  12.055  1.00  0.00    -0.507 OA
ATOM     25  H   UNL     1      42.913   6.204  11.111  1.00  0.00     0.293 HD
ENDBRANCH   6  24
BRANCH   8  26
ATOM     26  O   UNL     1      42.234   2.094  13.716  1.00  0.00    -0.508 OA
ATOM     27  H   UNL     1      42.843   1.445  14.202  1.00  0.00     0.293 HD
ENDBRANCH   8  26
TORSDOF 6
ENDMDL
MODEL 9
REMARK VINA RESULT:    -5.960      2.743      5.998
REMARK INTER + INTRA:          -7.372
REMARK INTER:                  -7.000
REMARK INTRA:                  -0.372
REMARK UNBOUND:                -0.193
REMARK SMILES O=c1c(O)c(-c2ccc(O)cc2O)oc2cc(O)cc(O)c12
REMARK SMILES IDX 5 1 3 2 2 3 1 4 22 5 20 6 19 7 17 8 16 9 15 10 14 11 6 12
REMARK SMILES IDX 8 13 7 14 9 15 11 16 12 17 10 18 13 20 4 22 21 24 18 26
REMARK H PARENT 10 19 13 21 4 23 21 25 18 27
REMARK Flexibility Score: inf
ROOT
ATOM      1  C   UNL     1      42.961   8.174  17.909  1.00  0.00     0.184 A 
ATOM      2  C   UNL     1      43.254   9.507  17.585  1.00  0.00     0.208 A 
ATOM      3  C   UNL     1      44.079  10.252  18.442  1.00  0.00     0.238 A 
ATOM      4  O   UNL     1      44.287  11.464  18.178  1.00  0.00    -0.285 OA
ATOM      5  C   UNL     1      44.623   9.643  19.600  1.00  0.00     0.111 A 
ATOM      6  C   UNL     1      45.503  10.289  20.519  1.00  0.00     0.134 A 
ATOM      7  C   UNL     1      45.881   9.628  21.694  1.00  0.00     0.093 A 
ATOM      8  C   UNL     1      45.466   8.322  21.952  1.00  0.00     0.123 A 
ATOM      9  C   UNL     1      44.653   7.659  21.032  1.00  0.00     0.094 A 
ATOM     10  C   UNL     1      44.228   8.305  19.868  1.00  0.00     0.146 A 
ATOM     11  O   UNL     1      43.443   7.643  19.026  1.00  0.00    -0.451 OA
ENDROOT
BRANCH   1  12
ATOM     12  C   UNL     1      42.117   7.336  17.031  1.00  0.00     0.063 A 
ATOM     13  C   UNL     1      41.831   6.160  14.920  1.00  0.00     0.047 A 
ATOM     14  C   UNL     1      42.582   6.996  15.748  1.00  0.00     0.020 A 
ATOM     15  C   UNL     1      40.610   5.644  15.361  1.00  0.00     0.119 A 
ATOM     16  C   UNL     1      40.139   5.973  16.638  1.00  0.00     0.093 A 
ATOM     17  C   UNL     1      40.877   6.819  17.474  1.00  0.00     0.130 A 
BRANCH  15  18
ATOM     18  O   UNL     1      39.876   4.807  14.525  1.00  0.00    -0.508 OA
ATOM     19  H   UNL     1      39.640   3.861  14.799  1.00  0.00     0.293 HD
ENDBRANCH  15  18
BRANCH  17  20
ATOM     20  O   UNL     1      40.342   7.144  18.723  1.00  0.00    -0.507 OA
ATOM     21  H   UNL     1      40.790   7.782  19.367  1.00  0.00     0.293 HD
ENDBRANCH  17  20
ENDBRANCH   1  12
BRANCH   2  22
ATOM     22  O   UNL     1      42.706  10.081  16.434  1.00  0.00    -0.502 OA
ATOM     23  H   UNL     1      42.401  11.047  16.402  1.00  0.00     0.293 HD
ENDBRANCH   2  22
BRANCH   6  24
ATOM     24  O   UNL     1      46.050  11.559  20.315  1.00  0.00    -0.507 OA
ATOM     25  H   UNL     1      46.913  11.742  19.824  1.00  0.00     0.293 HD
ENDBRANCH   6  24
BRANCH   8  26
ATOM     26  O   UNL     1      45.875   7.690  23.124  1.00  0.00    -0.508 OA
ATOM     27  H   UNL     1      46.046   8.212  23.976  1.00  0.00     0.293 HD
ENDBRANCH   8  26
TORSDOF 6
ENDMDL
