MODEL 1
REMARK VINA RESULT:    -3.619      0.000      0.000
REMARK INTER + INTRA:          -5.962
REMARK INTER:                  -5.523
REMARK INTRA:                  -0.439
REMARK UNBOUND:                -0.439
REMARK SMILES CC1=CCC[C@H](C)C(=O)C[C@H](C(C)C)C(=O)C1
REMARK SMILES IDX 8 1 9 2 6 3 7 4 5 5 4 6 3 7 2 8 1 9 10 11 11 12 15 13 16 14
REMARK SMILES IDX 17 15 12 17 13 18 14 19
REMARK H PARENT
REMARK Flexibility Score: 70.00
ROOT
ATOM      1  C   UNL     1      18.240  18.745   8.676  1.00  0.00     0.136 C 
ATOM      2  O   UNL     1      17.867  17.897   7.878  1.00  0.00    -0.299 OA
ENDROOT
BRANCH   1   3
ATOM      3  C   UNL     1      19.528  18.541   9.455  1.00  0.00     0.053 C 
ATOM      4  C   UNL     1      19.619  17.144  10.089  1.00  0.00     0.016 C 
BRANCH   3   5
ATOM      5  C   UNL     1      20.791  18.898   8.634  1.00  0.00     0.015 C 
BRANCH   5   6
ATOM      6  C   UNL     1      20.865  20.298   7.986  1.00  0.00     0.028 C 
BRANCH   6   7
ATOM      7  C   UNL     1      21.227  21.460   8.883  1.00  0.00    -0.028 C 
ATOM      8  C   UNL     1      20.372  22.360   9.425  1.00  0.00    -0.070 CG0
ATOM      9  C   UNL     1      20.925  23.330  10.439  1.00  0.00     0.039 C 
ATOM     10  G   UNL     1      18.919  22.499   9.016  1.00  0.00     0.000 G0
ENDBRANCH   6   7
ENDBRANCH   5   6
ENDBRANCH   3   5
ENDBRANCH   1   3
BRANCH   1  11
ATOM     11  C   UNL     1      17.386  19.981   8.875  1.00  0.00     0.087 C 
BRANCH  11  12
ATOM     12  C   UNL     1      17.531  20.630  10.280  1.00  0.00     0.066 C 
BRANCH  12  13
ATOM     13  C   UNL     1      17.996  22.070  10.147  1.00  0.00     0.140 C 
ATOM     14  O   UNL     1      17.609  22.900  10.959  1.00  0.00    -0.299 OA
BRANCH  13  15
ATOM     15  C   UNL     1      18.901  22.507   9.019  1.00  0.00     0.106 CG0
ATOM     16  G   UNL     1      20.352  22.350   9.428  1.00  0.00     0.000 G0
ENDBRANCH  13  15
ENDBRANCH  12  13
BRANCH  12  17
ATOM     17  C   UNL     1      16.211  20.545  11.109  1.00  0.00    -0.006 C 
ATOM     18  C   UNL     1      14.962  20.743  10.231  1.00  0.00     0.008 C 
ATOM     19  C   UNL     1      16.098  19.193  11.838  1.00  0.00     0.008 C 
ENDBRANCH  12  17
ENDBRANCH  11  12
ENDBRANCH   1  11
TORSDOF 1
ENDMDL
MODEL 2
REMARK VINA RESULT:    -3.390      4.163      6.344
REMARK INTER + INTRA:          -5.614
REMARK INTER:                  -5.231
REMARK INTRA:                  -0.383
REMARK UNBOUND:                -0.439
REMARK SMILES CC1=CCC[C@H](C)C(=O)C[C@H](C(C)C)C(=O)C1
REMARK SMILES IDX 8 1 9 2 6 3 7 4 5 5 4 6 3 7 2 8 1 9 10 11 11 12 15 13 16 14
REMARK SMILES IDX 17 15 12 17 13 18 14 19
REMARK H PARENT
REMARK Flexibility Score: 70.00
ROOT
ATOM      1  C   UNL     1      17.298  17.961  11.250  1.00  0.00     0.136 C 
ATOM      2  O   UNL     1      16.116  18.200  11.450  1.00  0.00    -0.299 OA
ENDROOT
BRANCH   1   3
ATOM      3  C   UNL     1      17.867  18.065   9.845  1.00  0.00     0.053 C 
ATOM      4  C   UNL     1      19.271  18.690   9.822  1.00  0.00     0.016 C 
BRANCH   3   5
ATOM      5  C   UNL     1      17.807  16.725   9.071  1.00  0.00     0.015 C 
BRANCH   5   6
ATOM      6  C   UNL     1      19.119  15.928   8.894  1.00  0.00     0.028 C 
BRANCH   6   7
ATOM      7  C   UNL     1      19.172  14.539   9.487  1.00  0.00    -0.028 C 
ATOM      8  C   UNL     1      19.473  14.216  10.767  1.00  0.00    -0.070 CG0
ATOM      9  C   UNL     1      19.289  12.780  11.190  1.00  0.00     0.039 C 
ATOM     10  G   UNL     1      20.056  15.191  11.770  1.00  0.00     0.000 G0
ENDBRANCH   6   7
ENDBRANCH   5   6
ENDBRANCH   3   5
ENDBRANCH   1   3
BRANCH   1  11
ATOM     11  C   UNL     1      18.166  17.551  12.424  1.00  0.00     0.087 C 
BRANCH  11  12
ATOM     12  C   UNL     1      17.884  16.115  12.946  1.00  0.00     0.066 C 
BRANCH  12  13
ATOM     13  C   UNL     1      19.172  15.311  12.992  1.00  0.00     0.140 C 
ATOM     14  O   UNL     1      19.507  14.779  14.042  1.00  0.00    -0.299 OA
BRANCH  13  15
ATOM     15  C   UNL     1      20.065  15.180  11.781  1.00  0.00     0.106 CG0
ATOM     16  G   UNL     1      19.440  14.230  10.778  1.00  0.00     0.000 G0
ENDBRANCH  13  15
ENDBRANCH  12  13
BRANCH  12  17
ATOM     17  C   UNL     1      17.180  16.121  14.340  1.00  0.00    -0.006 C 
ATOM     18  C   UNL     1      17.231  17.508  15.007  1.00  0.00     0.008 C 
ATOM     19  C   UNL     1      15.710  15.678  14.224  1.00  0.00     0.008 C 
ENDBRANCH  12  17
ENDBRANCH  11  12
ENDBRANCH   1  11
TORSDOF 1
ENDMDL
MODEL 3
REMARK VINA RESULT:    -3.321      3.753      5.435
REMARK INTER + INTRA:          -5.507
REMARK INTER:                  -5.063
REMARK INTRA:                  -0.445
REMARK UNBOUND:                -0.439
REMARK SMILES CC1=CCC[C@H](C)C(=O)C[C@H](C(C)C)C(=O)C1
REMARK SMILES IDX 8 1 9 2 6 3 7 4 5 5 4 6 3 7 2 8 1 9 10 11 11 12 15 13 16 14
REMARK SMILES IDX 17 15 12 17 13 18 14 19
REMARK H PARENT
REMARK Flexibility Score: 70.00
ROOT
ATOM      1  C   UNL     1      18.353  14.968  10.287  1.00  0.00     0.136 C 
ATOM      2  O   UNL     1      18.182  14.809   9.087  1.00  0.00    -0.299 OA
ENDROOT
BRANCH   1   3
ATOM      3  C   UNL     1      19.756  15.167  10.835  1.00  0.00     0.053 C 
ATOM      4  C   UNL     1      20.702  14.013  10.466  1.00  0.00     0.016 C 
BRANCH   3   5
ATOM      5  C   UNL     1      20.351  16.551  10.479  1.00  0.00     0.015 C 
BRANCH   5   6
ATOM      6  C   UNL     1      19.956  17.759  11.357  1.00  0.00     0.028 C 
BRANCH   6   7
ATOM      7  C   UNL     1      18.712  18.523  10.967  1.00  0.00    -0.028 C 
ATOM      8  C   UNL     1      17.628  18.754  11.744  1.00  0.00    -0.070 CG0
ATOM      9  C   UNL     1      16.573  19.696  11.216  1.00  0.00     0.039 C 
ATOM     10  G   UNL     1      17.376  18.065  13.071  1.00  0.00     0.000 G0
ENDBRANCH   6   7
ENDBRANCH   5   6
ENDBRANCH   3   5
ENDBRANCH   1   3
BRANCH   1  11
ATOM     11  C   UNL     1      17.145  14.948  11.203  1.00  0.00     0.087 C 
BRANCH  11  12
ATOM     12  C   UNL     1      17.430  15.478  12.636  1.00  0.00     0.066 C 
BRANCH  12  13
ATOM     13  C   UNL     1      16.658  16.762  12.884  1.00  0.00     0.140 C 
ATOM     14  O   UNL     1      15.434  16.730  12.896  1.00  0.00    -0.299 OA
BRANCH  13  15
ATOM     15  C   UNL     1      17.364  18.082  13.085  1.00  0.00     0.106 CG0
ATOM     16  G   UNL     1      17.619  18.742  11.744  1.00  0.00     0.000 G0
ENDBRANCH  13  15
ENDBRANCH  12  13
BRANCH  12  17
ATOM     17  C   UNL     1      17.110  14.414  13.733  1.00  0.00    -0.006 C 
ATOM     18  C   UNL     1      16.642  13.079  13.125  1.00  0.00     0.008 C 
ATOM     19  C   UNL     1      18.335  14.151  14.628  1.00  0.00     0.008 C 
ENDBRANCH  12  17
ENDBRANCH  11  12
ENDBRANCH   1  11
TORSDOF 1
ENDMDL
MODEL 4
REMARK VINA RESULT:    -3.299      4.066      6.432
REMARK INTER + INTRA:          -5.474
REMARK INTER:                  -5.110
REMARK INTRA:                  -0.364
REMARK UNBOUND:                -0.439
REMARK SMILES CC1=CCC[C@H](C)C(=O)C[C@H](C(C)C)C(=O)C1
REMARK SMILES IDX 8 1 9 2 6 3 7 4 5 5 4 6 3 7 2 8 1 9 10 11 11 12 15 13 16 14
REMARK SMILES IDX 17 15 12 17 13 18 14 19
REMARK H PARENT
REMARK Flexibility Score: 70.00
ROOT
ATOM      1  C   UNL     1      19.237  14.952  13.029  1.00  0.00     0.136 C 
ATOM      2  O   UNL     1      20.279  15.239  13.600  1.00  0.00    -0.299 OA
ENDROOT
BRANCH   1   3
ATOM      3  C   UNL     1      17.917  15.508  13.535  1.00  0.00     0.053 C 
ATOM      4  C   UNL     1      17.485  14.881  14.870  1.00  0.00     0.016 C 
BRANCH   3   5
ATOM      5  C   UNL     1      17.891  17.056  13.578  1.00  0.00     0.015 C 
BRANCH   5   6
ATOM      6  C   UNL     1      17.656  17.816  12.253  1.00  0.00     0.028 C 
BRANCH   6   7
ATOM      7  C   UNL     1      18.861  18.073  11.377  1.00  0.00    -0.028 C 
ATOM      8  C   UNL     1      19.045  17.638  10.109  1.00  0.00    -0.070 CG0
ATOM      9  C   UNL     1      20.242  18.163   9.354  1.00  0.00     0.039 C 
ATOM     10  G   UNL     1      18.170  16.600   9.434  1.00  0.00     0.000 G0
ENDBRANCH   6   7
ENDBRANCH   5   6
ENDBRANCH   3   5
ENDBRANCH   1   3
BRANCH   1  11
ATOM     11  C   UNL     1      19.294  14.028  11.829  1.00  0.00     0.087 C 
BRANCH  11  12
ATOM     12  C   UNL     1      18.201  14.310  10.762  1.00  0.00     0.066 C 
BRANCH  12  13
ATOM     13  C   UNL     1      18.755  15.204   9.666  1.00  0.00     0.140 C 
ATOM     14  O   UNL     1      19.695  14.808   8.990  1.00  0.00    -0.299 OA
BRANCH  13  15
ATOM     15  C   UNL     1      18.191  16.582   9.410  1.00  0.00     0.106 CG0
ATOM     16  G   UNL     1      19.042  17.626  10.108  1.00  0.00     0.000 G0
ENDBRANCH  13  15
ENDBRANCH  12  13
BRANCH  12  17
ATOM     17  C   UNL     1      17.608  12.996  10.163  1.00  0.00    -0.006 C 
ATOM     18  C   UNL     1      18.128  11.742  10.891  1.00  0.00     0.008 C 
ATOM     19  C   UNL     1      16.069  13.002  10.219  1.00  0.00     0.008 C 
ENDBRANCH  12  17
ENDBRANCH  11  12
ENDBRANCH   1  11
TORSDOF 1
ENDMDL
MODEL 5
REMARK VINA RESULT:    -3.219      4.348      6.633
REMARK INTER + INTRA:          -5.352
REMARK INTER:                  -4.928
REMARK INTRA:                  -0.424
REMARK UNBOUND:                -0.439
REMARK SMILES CC1=CCC[C@H](C)C(=O)C[C@H](C(C)C)C(=O)C1
REMARK SMILES IDX 8 1 9 2 6 3 7 4 5 5 4 6 3 7 2 8 1 9 10 11 11 12 15 13 16 14
REMARK SMILES IDX 17 15 12 17 13 18 14 19
REMARK H PARENT
REMARK Flexibility Score: 70.00
ROOT
ATOM      1  C   UNL     1      18.594  14.824  13.785  1.00  0.00     0.136 C 
ATOM      2  O   UNL     1      19.181  14.498  14.807  1.00  0.00    -0.299 OA
ENDROOT
BRANCH   1   3
ATOM      3  C   UNL     1      17.263  14.182  13.434  1.00  0.00     0.053 C 
ATOM      4  C   UNL     1      17.290  12.653  13.581  1.00  0.00     0.016 C 
BRANCH   3   5
ATOM      5  C   UNL     1      16.069  14.824  14.183  1.00  0.00     0.015 C 
BRANCH   5   6
ATOM      6  C   UNL     1      15.278  15.940  13.466  1.00  0.00     0.028 C 
BRANCH   6   7
ATOM      7  C   UNL     1      15.727  17.365  13.696  1.00  0.00    -0.028 C 
ATOM      8  C   UNL     1      16.198  18.225  12.763  1.00  0.00    -0.070 CG0
ATOM      9  C   UNL     1      16.417  19.660  13.178  1.00  0.00     0.039 C 
ATOM     10  G   UNL     1      16.591  17.816  11.357  1.00  0.00     0.000 G0
ENDBRANCH   6   7
ENDBRANCH   5   6
ENDBRANCH   3   5
ENDBRANCH   1   3
BRANCH   1  11
ATOM     11  C   UNL     1      19.230  15.863  12.881  1.00  0.00     0.087 C 
BRANCH  11  12
ATOM     12  C   UNL     1      18.533  16.011  11.501  1.00  0.00     0.066 C 
BRANCH  12  13
ATOM     13  C   UNL     1      18.072  17.443  11.297  1.00  0.00     0.140 C 
ATOM     14  O   UNL     1      18.907  18.319  11.111  1.00  0.00    -0.299 OA
BRANCH  13  15
ATOM     15  C   UNL     1      16.609  17.818  11.348  1.00  0.00     0.106 CG0
ATOM     16  G   UNL     1      16.226  18.215  12.760  1.00  0.00     0.000 G0
ENDBRANCH  13  15
ENDBRANCH  12  13
BRANCH  12  17
ATOM     17  C   UNL     1      19.449  15.547  10.324  1.00  0.00    -0.006 C 
ATOM     18  C   UNL     1      19.861  14.070  10.460  1.00  0.00     0.008 C 
ATOM     19  C   UNL     1      18.754  15.747   8.965  1.00  0.00     0.008 C 
ENDBRANCH  12  17
ENDBRANCH  11  12
ENDBRANCH   1  11
TORSDOF 1
ENDMDL
MODEL 6
REMARK VINA RESULT:    -3.212      2.222      4.216
REMARK INTER + INTRA:          -5.341
REMARK INTER:                  -5.424
REMARK INTRA:                   0.084
REMARK UNBOUND:                -0.439
REMARK SMILES CC1=CCC[C@H](C)C(=O)C[C@H](C(C)C)C(=O)C1
REMARK SMILES IDX 8 1 9 2 6 3 7 4 5 5 4 6 3 7 2 8 1 9 10 11 11 12 15 13 16 14
REMARK SMILES IDX 17 15 12 17 13 18 14 19
REMARK H PARENT
REMARK Flexibility Score: 70.00
ROOT
ATOM      1  C   UNL     1      18.970  21.784   9.311  1.00  0.00     0.136 C 
ATOM      2  O   UNL     1      18.316  22.814   9.390  1.00  0.00    -0.299 OA
ENDROOT
BRANCH   1   3
ATOM      3  C   UNL     1      20.124  21.691   8.328  1.00  0.00     0.053 C 
ATOM      4  C   UNL     1      20.941  22.990   8.253  1.00  0.00     0.016 C 
BRANCH   3   5
ATOM      5  C   UNL     1      21.016  20.448   8.562  1.00  0.00     0.015 C 
BRANCH   5   6
ATOM      6  C   UNL     1      20.601  19.119   7.893  1.00  0.00     0.028 C 
BRANCH   6   7
ATOM      7  C   UNL     1      20.728  17.858   8.717  1.00  0.00    -0.028 C 
ATOM      8  C   UNL     1      19.731  17.002   9.044  1.00  0.00    -0.070 CG0
ATOM      9  C   UNL     1      20.110  15.709   9.721  1.00  0.00     0.039 C 
ATOM     10  G   UNL     1      18.258  17.302   8.842  1.00  0.00     0.000 G0
ENDBRANCH   6   7
ENDBRANCH   5   6
ENDBRANCH   3   5
ENDBRANCH   1   3
BRANCH   1  11
ATOM     11  C   UNL     1      18.593  20.613  10.197  1.00  0.00     0.087 C 
BRANCH  11  12
ATOM     12  C   UNL     1      17.478  19.707   9.607  1.00  0.00     0.066 C 
BRANCH  12  13
ATOM     13  C   UNL     1      17.768  18.248   9.916  1.00  0.00     0.140 C 
ATOM     14  O   UNL     1      17.622  17.840  11.061  1.00  0.00    -0.299 OA
BRANCH  13  15
ATOM     15  C   UNL     1      18.262  17.298   8.851  1.00  0.00     0.106 CG0
ATOM     16  G   UNL     1      19.739  17.021   9.049  1.00  0.00     0.000 G0
ENDBRANCH  13  15
ENDBRANCH  12  13
BRANCH  12  17
ATOM     17  C   UNL     1      16.058  20.112  10.113  1.00  0.00    -0.006 C 
ATOM     18  C   UNL     1      16.125  21.109  11.285  1.00  0.00     0.008 C 
ATOM     19  C   UNL     1      15.218  20.731   8.981  1.00  0.00     0.008 C 
ENDBRANCH  12  17
ENDBRANCH  11  12
ENDBRANCH   1  11
TORSDOF 1
ENDMDL
MODEL 7
REMARK VINA RESULT:    -3.202      3.631      6.024
REMARK INTER + INTRA:          -5.326
REMARK INTER:                  -5.114
REMARK INTRA:                  -0.213
REMARK UNBOUND:                -0.439
REMARK SMILES CC1=CCC[C@H](C)C(=O)C[C@H](C(C)C)C(=O)C1
REMARK SMILES IDX 8 1 9 2 6 3 7 4 5 5 4 6 3 7 2 8 1 9 10 11 11 12 15 13 16 14
REMARK SMILES IDX 17 15 12 17 13 18 14 19
REMARK H PARENT
REMARK Flexibility Score: 70.00
ROOT
ATOM      1  C   UNL     1      16.311  16.351  11.527  1.00  0.00     0.136 C 
ATOM      2  O   UNL     1      15.398  15.538  11.523  1.00  0.00    -0.299 OA
ENDROOT
BRANCH   1   3
ATOM      3  C   UNL     1      16.771  16.970  12.835  1.00  0.00     0.053 C 
ATOM      4  C   UNL     1      15.624  17.641  13.606  1.00  0.00     0.016 C 
BRANCH   3   5
ATOM      5  C   UNL     1      17.575  15.984  13.718  1.00  0.00     0.015 C 
BRANCH   5   6
ATOM      6  C   UNL     1      19.100  15.886  13.496  1.00  0.00     0.028 C 
BRANCH   6   7
ATOM      7  C   UNL     1      19.600  14.787  12.586  1.00  0.00    -0.028 C 
ATOM      8  C   UNL     1      20.348  14.941  11.468  1.00  0.00    -0.070 CG0
ATOM      9  C   UNL     1      20.891  13.696  10.811  1.00  0.00     0.039 C 
ATOM     10  G   UNL     1      20.605  16.276  10.798  1.00  0.00     0.000 G0
ENDBRANCH   6   7
ENDBRANCH   5   6
ENDBRANCH   3   5
ENDBRANCH   1   3
BRANCH   1  11
ATOM     11  C   UNL     1      16.953  16.729  10.207  1.00  0.00     0.087 C 
BRANCH  11  12
ATOM     12  C   UNL     1      18.297  17.494  10.354  1.00  0.00     0.066 C 
BRANCH  12  13
ATOM     13  C   UNL     1      19.450  16.625   9.883  1.00  0.00     0.140 C 
ATOM     14  O   UNL     1      19.433  16.176   8.744  1.00  0.00    -0.299 OA
BRANCH  13  15
ATOM     15  C   UNL     1      20.603  16.278  10.795  1.00  0.00     0.106 CG0
ATOM     16  G   UNL     1      20.345  14.946  11.471  1.00  0.00     0.000 G0
ENDBRANCH  13  15
ENDBRANCH  12  13
BRANCH  12  17
ATOM     17  C   UNL     1      18.285  18.862   9.601  1.00  0.00    -0.006 C 
ATOM     18  C   UNL     1      17.648  18.746   8.204  1.00  0.00     0.008 C 
ATOM     19  C   UNL     1      17.529  19.935  10.406  1.00  0.00     0.008 C 
ENDBRANCH  12  17
ENDBRANCH  11  12
ENDBRANCH   1  11
TORSDOF 1
ENDMDL
MODEL 8
REMARK VINA RESULT:    -3.198      5.250      7.330
REMARK INTER + INTRA:          -5.320
REMARK INTER:                  -5.333
REMARK INTRA:                   0.013
REMARK UNBOUND:                -0.439
REMARK SMILES CC1=CCC[C@H](C)C(=O)C[C@H](C(C)C)C(=O)C1
REMARK SMILES IDX 8 1 9 2 6 3 7 4 5 5 4 6 3 7 2 8 1 9 10 11 11 12 15 13 16 14
REMARK SMILES IDX 17 15 12 17 13 18 14 19
REMARK H PARENT
REMARK Flexibility Score: 70.00
ROOT
ATOM      1  C   UNL     1      18.781  12.884  11.732  1.00  0.00     0.136 C 
ATOM      2  O   UNL     1      19.465  12.049  11.157  1.00  0.00    -0.299 OA
ENDROOT
BRANCH   1   3
ATOM      3  C   UNL     1      17.423  12.498  12.291  1.00  0.00     0.053 C 
ATOM      4  C   UNL     1      17.079  11.022  12.042  1.00  0.00     0.016 C 
BRANCH   3   5
ATOM      5  C   UNL     1      17.246  12.900  13.776  1.00  0.00     0.015 C 
BRANCH   5   6
ATOM      6  C   UNL     1      16.299  14.075  14.104  1.00  0.00     0.028 C 
BRANCH   6   7
ATOM      7  C   UNL     1      16.861  15.210  14.929  1.00  0.00    -0.028 C 
ATOM      8  C   UNL     1      17.070  16.483  14.518  1.00  0.00    -0.070 CG0
ATOM      9  C   UNL     1      17.469  17.500  15.558  1.00  0.00     0.039 C 
ATOM     10  G   UNL     1      17.004  16.925  13.069  1.00  0.00     0.000 G0
ENDBRANCH   6   7
ENDBRANCH   5   6
ENDBRANCH   3   5
ENDBRANCH   1   3
BRANCH   1  11
ATOM     11  C   UNL     1      19.313  14.298  11.858  1.00  0.00     0.087 C 
BRANCH  11  12
ATOM     12  C   UNL     1      18.323  15.391  11.370  1.00  0.00     0.066 C 
BRANCH  12  13
ATOM     13  C   UNL     1      18.289  16.546  12.355  1.00  0.00     0.140 C 
ATOM     14  O   UNL     1      19.323  17.158  12.594  1.00  0.00    -0.299 OA
BRANCH  13  15
ATOM     15  C   UNL     1      17.018  16.939  13.070  1.00  0.00     0.106 CG0
ATOM     16  G   UNL     1      17.073  16.481  14.514  1.00  0.00     0.000 G0
ENDBRANCH  13  15
ENDBRANCH  12  13
BRANCH  12  17
ATOM     17  C   UNL     1      18.661  15.894   9.931  1.00  0.00    -0.006 C 
ATOM     18  C   UNL     1      19.313  14.795   9.073  1.00  0.00     0.008 C 
ATOM     19  C   UNL     1      17.401  16.407   9.210  1.00  0.00     0.008 C 
ENDBRANCH  12  17
ENDBRANCH  11  12
ENDBRANCH   1  11
TORSDOF 1
ENDMDL
MODEL 9
REMARK VINA RESULT:    -3.190      4.075      5.713
REMARK INTER + INTRA:          -5.307
REMARK INTER:                  -5.115
REMARK INTRA:                  -0.193
REMARK UNBOUND:                -0.439
REMARK SMILES CC1=CCC[C@H](C)C(=O)C[C@H](C(C)C)C(=O)C1
REMARK SMILES IDX 8 1 9 2 6 3 7 4 5 5 4 6 3 7 2 8 1 9 10 11 11 12 15 13 16 14
REMARK SMILES IDX 17 15 12 17 13 18 14 19
REMARK H PARENT
REMARK Flexibility Score: 70.00
ROOT
ATOM      1  C   UNL     1      17.591  16.156  15.133  1.00  0.00     0.136 C 
ATOM      2  O   UNL     1      17.631  16.474  16.312  1.00  0.00    -0.299 OA
ENDROOT
BRANCH   1   3
ATOM      3  C   UNL     1      18.550  15.107  14.596  1.00  0.00     0.053 C 
ATOM      4  C   UNL     1      17.846  13.787  14.247  1.00  0.00     0.016 C 
BRANCH   3   5
ATOM      5  C   UNL     1      19.427  15.632  13.433  1.00  0.00     0.015 C 
BRANCH   5   6
ATOM      6  C   UNL     1      18.958  15.354  11.987  1.00  0.00     0.028 C 
BRANCH   6   7
ATOM      7  C   UNL     1      19.085  16.482  10.988  1.00  0.00    -0.028 C 
ATOM      8  C   UNL     1      18.202  17.489  10.790  1.00  0.00    -0.070 CG0
ATOM      9  C   UNL     1      18.613  18.610   9.868  1.00  0.00     0.039 C 
ATOM     10  G   UNL     1      16.803  17.515  11.373  1.00  0.00     0.000 G0
ENDBRANCH   6   7
ENDBRANCH   5   6
ENDBRANCH   3   5
ENDBRANCH   1   3
BRANCH   1  11
ATOM     11  C   UNL     1      16.581  16.836  14.229  1.00  0.00     0.087 C 
BRANCH  11  12
ATOM     12  C   UNL     1      16.934  18.309  13.885  1.00  0.00     0.066 C 
BRANCH  12  13
ATOM     13  C   UNL     1      16.666  18.583  12.415  1.00  0.00     0.140 C 
ATOM     14  O   UNL     1      16.321  19.706  12.070  1.00  0.00    -0.299 OA
BRANCH  13  15
ATOM     15  C   UNL     1      16.786  17.495  11.374  1.00  0.00     0.106 CG0
ATOM     16  G   UNL     1      18.189  17.481  10.799  1.00  0.00     0.000 G0
ENDBRANCH  13  15
ENDBRANCH  12  13
BRANCH  12  17
ATOM     17  C   UNL     1      16.170  19.326  14.790  1.00  0.00    -0.006 C 
ATOM     18  C   UNL     1      15.008  18.664  15.552  1.00  0.00     0.008 C 
ATOM     19  C   UNL     1      17.118  19.989  15.806  1.00  0.00     0.008 C 
ENDBRANCH  12  17
ENDBRANCH  11  12
ENDBRANCH   1  11
TORSDOF 1
ENDMDL
