MODEL 1
REMARK VINA RESULT:    -6.997      0.000      0.000
REMARK INTER + INTRA:         -12.679
REMARK INTER:                  -9.656
REMARK INTRA:                  -3.024
REMARK UNBOUND:                -3.024
REMARK SMILES CC[C@@H](CC[C@H](C)[C@@H]1CC[C@H]2C3=CC[C@@H]4C[C@H](O)CC[C@]4(C)[C@H]3CC[C@@]21C)C(C)C
REMARK SMILES IDX 5 1 4 2 3 3 2 4 1 5 28 6 29 7 30 8 6 9 7 10 8 11 9 12 26 13
REMARK SMILES IDX 10 14 11 15 25 16 27 17 12 18 24 19 23 20 13 21 21 22 14 23
REMARK SMILES IDX 15 24 20 25 22 26 16 27 19 28 17 29 18 30
REMARK H PARENT 18 31
REMARK Flexibility Score: inf
ROOT
ATOM      1  C   UNL     1     115.090 119.864 130.509  1.00  0.00     0.004 C 
ENDROOT
BRANCH   1   2
ATOM      2  C   UNL     1     114.171 121.050 130.883  1.00  0.00     0.004 C 
BRANCH   2   3
ATOM      3  C   UNL     1     114.588 121.730 132.216  1.00  0.00    -0.009 C 
BRANCH   3   4
ATOM      4  C   UNL     1     115.282 123.116 132.032  1.00  0.00     0.000 C 
ATOM      5  C   UNL     1     114.525 124.151 131.185  1.00  0.00     0.004 C 
ENDBRANCH   3   4
BRANCH   3   6
ATOM      6  C   UNL     1     115.346 120.734 133.159  1.00  0.00    -0.014 C 
ATOM      7  C   UNL     1     114.553 120.428 134.441  1.00  0.00     0.007 C 
ATOM      8  C   UNL     1     116.778 121.156 133.516  1.00  0.00     0.007 C 
ENDBRANCH   3   6
ENDBRANCH   2   3
ENDBRANCH   1   2
BRANCH   1   9
ATOM      9  C   UNL     1     115.611 119.908 129.040  1.00  0.00    -0.011 C 
ATOM     10  C   UNL     1     115.315 118.541 128.366  1.00  0.00     0.008 C 
BRANCH   9  11
ATOM     11  C   UNL     1     117.131 120.314 128.918  1.00  0.00    -0.002 C 
ATOM     12  C   UNL     1     117.973 119.914 130.171  1.00  0.00     0.005 C 
ATOM     13  C   UNL     1     117.465 121.839 128.704  1.00  0.00    -0.023 C 
ATOM     14  C   UNL     1     118.732 121.154 130.641  1.00  0.00     0.009 C 
ATOM     15  C   UNL     1     117.885 122.292 130.106  1.00  0.00     0.021 C 
ATOM     16  C   UNL     1     116.329 122.795 128.245  1.00  0.00     0.008 C 
ATOM     17  C   UNL     1     118.650 121.927 127.685  1.00  0.00     0.012 C 
ATOM     18  C   UNL     1     118.423 123.710 130.108  1.00  0.00    -0.067 C 
ATOM     19  C   UNL     1     116.787 124.272 128.214  1.00  0.00     0.009 C 
ATOM     20  C   UNL     1     117.467 124.760 129.534  1.00  0.00     0.021 C 
ATOM     21  C   UNL     1     119.493 124.051 130.861  1.00  0.00    -0.027 C 
ATOM     22  C   UNL     1     118.105 126.203 129.434  1.00  0.00    -0.023 C 
ATOM     23  C   UNL     1     119.998 125.460 130.995  1.00  0.00     0.031 C 
ATOM     24  C   UNL     1     118.908 126.517 130.737  1.00  0.00     0.002 C 
ATOM     25  C   UNL     1     117.019 127.308 129.250  1.00  0.00     0.010 C 
ATOM     26  C   UNL     1     119.069 126.295 128.218  1.00  0.00     0.012 C 
ATOM     27  C   UNL     1     117.988 126.669 131.970  1.00  0.00     0.036 C 
ATOM     28  C   UNL     1     116.116 127.500 130.477  1.00  0.00     0.032 C 
ATOM     29  C   UNL     1     116.936 127.767 131.747  1.00  0.00     0.114 C 
BRANCH  29  30
ATOM     30  O   UNL     1     116.068 127.814 132.846  1.00  0.00    -0.393 OA
ATOM     31  H   UNL     1     116.546 128.305 133.567  1.00  0.00     0.210 HD
ENDBRANCH  29  30
ENDBRANCH   9  11
ENDBRANCH   1   9
TORSDOF 7
ENDMDL
MODEL 2
REMARK VINA RESULT:    -6.964      2.539      6.449
REMARK INTER + INTRA:         -12.634
REMARK INTER:                  -9.585
REMARK INTRA:                  -3.049
REMARK UNBOUND:                -3.024
REMARK SMILES CC[C@@H](CC[C@H](C)[C@@H]1CC[C@H]2C3=CC[C@@H]4C[C@H](O)CC[C@]4(C)[C@H]3CC[C@@]21C)C(C)C
REMARK SMILES IDX 5 1 4 2 3 3 2 4 1 5 28 6 29 7 30 8 6 9 7 10 8 11 9 12 26 13
REMARK SMILES IDX 10 14 11 15 25 16 27 17 12 18 24 19 23 20 13 21 21 22 14 23
REMARK SMILES IDX 15 24 20 25 22 26 16 27 19 28 17 29 18 30
REMARK H PARENT 18 31
REMARK Flexibility Score: inf
ROOT
ATOM      1  C   UNL     1     121.468 123.745 129.103  1.00  0.00     0.004 C 
ENDROOT
BRANCH   1   2
ATOM      2  C   UNL     1     120.913 124.301 127.771  1.00  0.00     0.004 C 
BRANCH   2   3
ATOM      3  C   UNL     1     119.463 123.825 127.484  1.00  0.00    -0.009 C 
BRANCH   3   4
ATOM      4  C   UNL     1     119.370 122.668 126.440  1.00  0.00     0.000 C 
ATOM      5  C   UNL     1     120.605 121.764 126.311  1.00  0.00     0.004 C 
ENDBRANCH   3   4
BRANCH   3   6
ATOM      6  C   UNL     1     118.502 125.033 127.216  1.00  0.00    -0.014 C 
ATOM      7  C   UNL     1     118.977 126.320 127.913  1.00  0.00     0.007 C 
ATOM      8  C   UNL     1     117.029 124.767 127.555  1.00  0.00     0.007 C 
ENDBRANCH   3   6
ENDBRANCH   2   3
ENDBRANCH   1   2
BRANCH   1   9
ATOM      9  C   UNL     1     120.514 123.951 130.319  1.00  0.00    -0.011 C 
ATOM     10  C   UNL     1     121.256 124.787 131.397  1.00  0.00     0.008 C 
BRANCH   9  11
ATOM     11  C   UNL     1     119.934 122.607 130.906  1.00  0.00    -0.002 C 
ATOM     12  C   UNL     1     120.334 121.350 130.068  1.00  0.00     0.005 C 
ATOM     13  C   UNL     1     118.368 122.487 131.049  1.00  0.00    -0.023 C 
ATOM     14  C   UNL     1     119.058 120.573 129.750  1.00  0.00     0.009 C 
ATOM     15  C   UNL     1     117.983 121.638 129.833  1.00  0.00     0.021 C 
ATOM     16  C   UNL     1     117.512 123.782 130.982  1.00  0.00     0.008 C 
ATOM     17  C   UNL     1     118.069 121.745 132.394  1.00  0.00     0.012 C 
ATOM     18  C   UNL     1     116.518 121.245 129.855  1.00  0.00    -0.067 C 
ATOM     19  C   UNL     1     115.995 123.479 131.002  1.00  0.00     0.009 C 
ATOM     20  C   UNL     1     115.539 122.420 129.947  1.00  0.00     0.021 C 
ATOM     21  C   UNL     1     116.120 120.009 129.479  1.00  0.00    -0.027 C 
ATOM     22  C   UNL     1     114.031 121.970 130.096  1.00  0.00    -0.023 C 
ATOM     23  C   UNL     1     114.679 119.600 129.368  1.00  0.00     0.031 C 
ATOM     24  C   UNL     1     113.733 120.788 129.118  1.00  0.00     0.002 C 
ATOM     25  C   UNL     1     113.043 123.134 129.774  1.00  0.00     0.010 C 
ATOM     26  C   UNL     1     113.738 121.504 131.550  1.00  0.00     0.012 C 
ATOM     27  C   UNL     1     113.782 121.227 127.636  1.00  0.00     0.036 C 
ATOM     28  C   UNL     1     113.049 123.561 128.299  1.00  0.00     0.032 C 
ATOM     29  C   UNL     1     112.793 122.372 127.363  1.00  0.00     0.114 C 
BRANCH  29  30
ATOM     30  O   UNL     1     112.930 122.800 126.036  1.00  0.00    -0.393 OA
ATOM     31  H   UNL     1     112.273 123.536 125.904  1.00  0.00     0.210 HD
ENDBRANCH  29  30
ENDBRANCH   9  11
ENDBRANCH   1   9
TORSDOF 7
ENDMDL
MODEL 3
REMARK VINA RESULT:    -6.725      2.558      4.978
REMARK INTER + INTRA:         -12.304
REMARK INTER:                  -9.439
REMARK INTRA:                  -2.865
REMARK UNBOUND:                -3.024
REMARK SMILES CC[C@@H](CC[C@H](C)[C@@H]1CC[C@H]2C3=CC[C@@H]4C[C@H](O)CC[C@]4(C)[C@H]3CC[C@@]21C)C(C)C
REMARK SMILES IDX 5 1 4 2 3 3 2 4 1 5 28 6 29 7 30 8 6 9 7 10 8 11 9 12 26 13
REMARK SMILES IDX 10 14 11 15 25 16 27 17 12 18 24 19 23 20 13 21 21 22 14 23
REMARK SMILES IDX 15 24 20 25 22 26 16 27 19 28 17 29 18 30
REMARK H PARENT 18 31
REMARK Flexibility Score: inf
ROOT
ATOM      1  C   UNL     1     114.152 120.028 130.824  1.00  0.00     0.004 C 
ENDROOT
BRANCH   1   2
ATOM      2  C   UNL     1     115.493 119.653 130.151  1.00  0.00     0.004 C 
BRANCH   2   3
ATOM      3  C   UNL     1     115.486 119.915 128.620  1.00  0.00    -0.009 C 
BRANCH   3   4
ATOM      4  C   UNL     1     114.136 119.561 127.922  1.00  0.00     0.000 C 
ATOM      5  C   UNL     1     113.534 120.641 127.011  1.00  0.00     0.004 C 
ENDBRANCH   3   4
BRANCH   3   6
ATOM      6  C   UNL     1     116.761 119.323 127.928  1.00  0.00    -0.014 C 
ATOM      7  C   UNL     1     116.985 117.844 128.289  1.00  0.00     0.007 C 
ATOM      8  C   UNL     1     118.049 120.122 128.170  1.00  0.00     0.007 C 
ENDBRANCH   3   6
ENDBRANCH   2   3
ENDBRANCH   1   2
BRANCH   1   9
ATOM      9  C   UNL     1     114.291 121.082 131.965  1.00  0.00    -0.011 C 
ATOM     10  C   UNL     1     113.210 120.795 133.041  1.00  0.00     0.008 C 
BRANCH   9  11
ATOM     11  C   UNL     1     114.244 122.575 131.458  1.00  0.00    -0.002 C 
ATOM     12  C   UNL     1     113.386 122.756 130.165  1.00  0.00     0.005 C 
ATOM     13  C   UNL     1     115.613 123.273 131.109  1.00  0.00    -0.023 C 
ATOM     14  C   UNL     1     114.236 123.506 129.141  1.00  0.00     0.009 C 
ATOM     15  C   UNL     1     115.652 123.192 129.579  1.00  0.00     0.021 C 
ATOM     16  C   UNL     1     116.930 122.631 131.626  1.00  0.00     0.008 C 
ATOM     17  C   UNL     1     115.534 124.753 131.611  1.00  0.00     0.012 C 
ATOM     18  C   UNL     1     116.821 123.965 128.998  1.00  0.00    -0.067 C 
ATOM     19  C   UNL     1     118.184 123.358 131.084  1.00  0.00     0.009 C 
ATOM     20  C   UNL     1     118.194 123.548 129.533  1.00  0.00     0.021 C 
ATOM     21  C   UNL     1     116.683 124.698 127.871  1.00  0.00    -0.027 C 
ATOM     22  C   UNL     1     119.375 124.457 129.004  1.00  0.00    -0.023 C 
ATOM     23  C   UNL     1     117.828 125.387 127.185  1.00  0.00     0.031 C 
ATOM     24  C   UNL     1     119.189 124.728 127.477  1.00  0.00     0.002 C 
ATOM     25  C   UNL     1     120.767 123.783 129.215  1.00  0.00     0.010 C 
ATOM     26  C   UNL     1     119.402 125.817 129.756  1.00  0.00     0.012 C 
ATOM     27  C   UNL     1     119.375 123.451 126.627  1.00  0.00     0.036 C 
ATOM     28  C   UNL     1     120.986 122.531 128.353  1.00  0.00     0.032 C 
ATOM     29  C   UNL     1     120.756 122.821 126.864  1.00  0.00     0.114 C 
BRANCH  29  30
ATOM     30  O   UNL     1     120.853 121.622 126.147  1.00  0.00    -0.393 OA
ATOM     31  H   UNL     1     119.923 121.298 126.004  1.00  0.00     0.210 HD
ENDBRANCH  29  30
ENDBRANCH   9  11
ENDBRANCH   1   9
TORSDOF 7
ENDMDL
MODEL 4
REMARK VINA RESULT:    -6.631      3.114      6.509
REMARK INTER + INTRA:         -12.175
REMARK INTER:                  -9.287
REMARK INTRA:                  -2.888
REMARK UNBOUND:                -3.024
REMARK SMILES CC[C@@H](CC[C@H](C)[C@@H]1CC[C@H]2C3=CC[C@@H]4C[C@H](O)CC[C@]4(C)[C@H]3CC[C@@]21C)C(C)C
REMARK SMILES IDX 5 1 4 2 3 3 2 4 1 5 28 6 29 7 30 8 6 9 7 10 8 11 9 12 26 13
REMARK SMILES IDX 10 14 11 15 25 16 27 17 12 18 24 19 23 20 13 21 21 22 14 23
REMARK SMILES IDX 15 24 20 25 22 26 16 27 19 28 17 29 18 30
REMARK H PARENT 18 31
REMARK Flexibility Score: inf
ROOT
ATOM      1  C   UNL     1     115.085 124.740 129.230  1.00  0.00     0.004 C 
ENDROOT
BRANCH   1   2
ATOM      2  C   UNL     1     113.919 123.736 129.077  1.00  0.00     0.004 C 
BRANCH   2   3
ATOM      3  C   UNL     1     114.270 122.325 129.625  1.00  0.00    -0.009 C 
BRANCH   3   4
ATOM      4  C   UNL     1     114.285 121.208 128.536  1.00  0.00     0.000 C 
ATOM      5  C   UNL     1     114.468 119.768 129.038  1.00  0.00     0.004 C 
ENDBRANCH   3   4
BRANCH   3   6
ATOM      6  C   UNL     1     113.440 121.984 130.909  1.00  0.00    -0.014 C 
ATOM      7  C   UNL     1     112.420 123.083 131.253  1.00  0.00     0.007 C 
ATOM      8  C   UNL     1     114.285 121.647 132.146  1.00  0.00     0.007 C 
ENDBRANCH   3   6
ENDBRANCH   2   3
ENDBRANCH   1   2
BRANCH   1   9
ATOM      9  C   UNL     1     116.118 124.344 130.329  1.00  0.00    -0.011 C 
ATOM     10  C   UNL     1     116.024 125.369 131.491  1.00  0.00     0.008 C 
BRANCH   9  11
ATOM     11  C   UNL     1     117.592 124.192 129.788  1.00  0.00    -0.002 C 
ATOM     12  C   UNL     1     117.789 124.806 128.365  1.00  0.00     0.005 C 
ATOM     13  C   UNL     1     118.177 122.734 129.660  1.00  0.00    -0.023 C 
ATOM     14  C   UNL     1     118.440 123.742 127.483  1.00  0.00     0.009 C 
ATOM     15  C   UNL     1     118.040 122.447 128.161  1.00  0.00     0.021 C 
ATOM     16  C   UNL     1     117.461 121.575 130.406  1.00  0.00     0.008 C 
ATOM     17  C   UNL     1     119.676 122.782 130.108  1.00  0.00     0.012 C 
ATOM     18  C   UNL     1     118.706 121.142 127.769  1.00  0.00    -0.067 C 
ATOM     19  C   UNL     1     118.077 120.197 130.068  1.00  0.00     0.009 C 
ATOM     20  C   UNL     1     118.211 119.913 128.537  1.00  0.00     0.021 C 
ATOM     21  C   UNL     1     119.407 121.033 126.618  1.00  0.00    -0.027 C 
ATOM     22  C   UNL     1     119.013 118.594 128.196  1.00  0.00    -0.023 C 
ATOM     23  C   UNL     1     119.988 119.740 126.120  1.00  0.00     0.031 C 
ATOM     24  C   UNL     1     119.244 118.502 126.653  1.00  0.00     0.002 C 
ATOM     25  C   UNL     1     118.249 117.313 128.654  1.00  0.00     0.010 C 
ATOM     26  C   UNL     1     120.394 118.589 128.910  1.00  0.00     0.012 C 
ATOM     27  C   UNL     1     117.927 118.275 125.875  1.00  0.00     0.036 C 
ATOM     28  C   UNL     1     116.956 117.050 127.869  1.00  0.00     0.032 C 
ATOM     29  C   UNL     1     117.209 117.004 126.357  1.00  0.00     0.114 C 
BRANCH  29  30
ATOM     30  O   UNL     1     115.981 116.882 125.694  1.00  0.00    -0.393 OA
ATOM     31  H   UNL     1     115.717 115.925 125.755  1.00  0.00     0.210 HD
ENDBRANCH  29  30
ENDBRANCH   9  11
ENDBRANCH   1   9
TORSDOF 7
ENDMDL
MODEL 5
REMARK VINA RESULT:    -6.614      2.124      3.945
REMARK INTER + INTRA:         -12.151
REMARK INTER:                  -9.469
REMARK INTRA:                  -2.682
REMARK UNBOUND:                -3.024
REMARK SMILES CC[C@@H](CC[C@H](C)[C@@H]1CC[C@H]2C3=CC[C@@H]4C[C@H](O)CC[C@]4(C)[C@H]3CC[C@@]21C)C(C)C
REMARK SMILES IDX 5 1 4 2 3 3 2 4 1 5 28 6 29 7 30 8 6 9 7 10 8 11 9 12 26 13
REMARK SMILES IDX 10 14 11 15 25 16 27 17 12 18 24 19 23 20 13 21 21 22 14 23
REMARK SMILES IDX 15 24 20 25 22 26 16 27 19 28 17 29 18 30
REMARK H PARENT 18 31
REMARK Flexibility Score: inf
ROOT
ATOM      1  C   UNL     1     113.922 122.221 132.160  1.00  0.00     0.004 C 
ENDROOT
BRANCH   1   2
ATOM      2  C   UNL     1     113.219 122.855 130.936  1.00  0.00     0.004 C 
BRANCH   2   3
ATOM      3  C   UNL     1     114.219 123.262 129.819  1.00  0.00    -0.009 C 
BRANCH   3   4
ATOM      4  C   UNL     1     115.190 124.414 130.226  1.00  0.00     0.000 C 
ATOM      5  C   UNL     1     115.603 125.386 129.110  1.00  0.00     0.004 C 
ENDBRANCH   3   4
BRANCH   3   6
ATOM      6  C   UNL     1     113.496 123.465 128.444  1.00  0.00    -0.014 C 
ATOM      7  C   UNL     1     112.032 123.905 128.616  1.00  0.00     0.007 C 
ATOM      8  C   UNL     1     113.573 122.259 127.498  1.00  0.00     0.007 C 
ENDBRANCH   3   6
ENDBRANCH   2   3
ENDBRANCH   1   2
BRANCH   1   9
ATOM      9  C   UNL     1     114.344 120.736 131.945  1.00  0.00    -0.011 C 
ATOM     10  C   UNL     1     113.407 119.827 132.785  1.00  0.00     0.008 C 
BRANCH   9  11
ATOM     11  C   UNL     1     115.867 120.459 132.247  1.00  0.00    -0.002 C 
ATOM     12  C   UNL     1     116.402 121.257 133.480  1.00  0.00     0.005 C 
ATOM     13  C   UNL     1     116.908 120.777 131.107  1.00  0.00    -0.023 C 
ATOM     14  C   UNL     1     117.670 121.992 133.048  1.00  0.00     0.009 C 
ATOM     15  C   UNL     1     117.492 122.123 131.549  1.00  0.00     0.021 C 
ATOM     16  C   UNL     1     116.389 120.968 129.655  1.00  0.00     0.008 C 
ATOM     17  C   UNL     1     117.987 119.643 131.119  1.00  0.00     0.012 C 
ATOM     18  C   UNL     1     118.657 122.551 130.677  1.00  0.00    -0.067 C 
ATOM     19  C   UNL     1     117.513 121.406 128.687  1.00  0.00     0.009 C 
ATOM     20  C   UNL     1     118.340 122.637 129.181  1.00  0.00     0.021 C 
ATOM     21  C   UNL     1     119.754 123.133 131.211  1.00  0.00    -0.027 C 
ATOM     22  C   UNL     1     119.605 122.961 128.289  1.00  0.00    -0.023 C 
ATOM     23  C   UNL     1     120.885 123.683 130.389  1.00  0.00     0.031 C 
ATOM     24  C   UNL     1     120.454 124.084 128.966  1.00  0.00     0.002 C 
ATOM     25  C   UNL     1     119.201 123.446 126.862  1.00  0.00     0.010 C 
ATOM     26  C   UNL     1     120.493 121.698 128.114  1.00  0.00     0.012 C 
ATOM     27  C   UNL     1     119.724 125.447 128.977  1.00  0.00     0.036 C 
ATOM     28  C   UNL     1     118.506 124.815 126.846  1.00  0.00     0.032 C 
ATOM     29  C   UNL     1     119.347 125.886 127.553  1.00  0.00     0.114 C 
BRANCH  29  30
ATOM     30  O   UNL     1     118.610 127.077 127.612  1.00  0.00    -0.393 OA
ATOM     31  H   UNL     1     118.854 127.523 128.467  1.00  0.00     0.210 HD
ENDBRANCH  29  30
ENDBRANCH   9  11
ENDBRANCH   1   9
TORSDOF 7
ENDMDL
MODEL 6
REMARK VINA RESULT:    -6.612      2.479      6.627
REMARK INTER + INTRA:         -12.148
REMARK INTER:                  -9.410
REMARK INTRA:                  -2.737
REMARK UNBOUND:                -3.024
REMARK SMILES CC[C@@H](CC[C@H](C)[C@@H]1CC[C@H]2C3=CC[C@@H]4C[C@H](O)CC[C@]4(C)[C@H]3CC[C@@]21C)C(C)C
REMARK SMILES IDX 5 1 4 2 3 3 2 4 1 5 28 6 29 7 30 8 6 9 7 10 8 11 9 12 26 13
REMARK SMILES IDX 10 14 11 15 25 16 27 17 12 18 24 19 23 20 13 21 21 22 14 23
REMARK SMILES IDX 15 24 20 25 22 26 16 27 19 28 17 29 18 30
REMARK H PARENT 18 31
REMARK Flexibility Score: inf
ROOT
ATOM      1  C   UNL     1     119.780 125.523 128.339  1.00  0.00     0.004 C 
ENDROOT
BRANCH   1   2
ATOM      2  C   UNL     1     119.082 124.561 127.350  1.00  0.00     0.004 C 
BRANCH   2   3
ATOM      3  C   UNL     1     119.725 123.146 127.340  1.00  0.00    -0.009 C 
BRANCH   3   4
ATOM      4  C   UNL     1     119.655 122.428 125.956  1.00  0.00     0.000 C 
ATOM      5  C   UNL     1     120.838 121.516 125.599  1.00  0.00     0.004 C 
ENDBRANCH   3   4
BRANCH   3   6
ATOM      6  C   UNL     1     119.240 122.285 128.555  1.00  0.00    -0.014 C 
ATOM      7  C   UNL     1     120.414 121.739 129.387  1.00  0.00     0.007 C 
ATOM      8  C   UNL     1     118.282 121.143 128.188  1.00  0.00     0.007 C 
ENDBRANCH   3   6
ENDBRANCH   2   3
ENDBRANCH   1   2
BRANCH   1   9
ATOM      9  C   UNL     1     118.828 126.589 128.961  1.00  0.00    -0.011 C 
ATOM     10  C   UNL     1     119.562 127.956 128.988  1.00  0.00     0.008 C 
BRANCH   9  11
ATOM     11  C   UNL     1     118.267 126.187 130.380  1.00  0.00    -0.002 C 
ATOM     12  C   UNL     1     119.292 125.379 131.237  1.00  0.00     0.005 C 
ATOM     13  C   UNL     1     116.956 125.313 130.427  1.00  0.00    -0.023 C 
ATOM     14  C   UNL     1     118.595 124.111 131.729  1.00  0.00     0.009 C 
ATOM     15  C   UNL     1     117.499 123.907 130.703  1.00  0.00     0.021 C 
ATOM     16  C   UNL     1     116.079 125.213 129.148  1.00  0.00     0.008 C 
ATOM     17  C   UNL     1     116.077 125.839 131.610  1.00  0.00     0.012 C 
ATOM     18  C   UNL     1     116.386 122.909 130.962  1.00  0.00    -0.067 C 
ATOM     19  C   UNL     1     114.911 124.214 129.320  1.00  0.00     0.009 C 
ATOM     20  C   UNL     1     115.343 122.807 129.846  1.00  0.00     0.021 C 
ATOM     21  C   UNL     1     116.506 121.962 131.919  1.00  0.00    -0.027 C 
ATOM     22  C   UNL     1     114.132 121.855 130.202  1.00  0.00    -0.023 C 
ATOM     23  C   UNL     1     115.491 120.877 132.143  1.00  0.00     0.031 C 
ATOM     24  C   UNL     1     114.668 120.554 130.883  1.00  0.00     0.002 C 
ATOM     25  C   UNL     1     113.321 121.445 128.934  1.00  0.00     0.010 C 
ATOM     26  C   UNL     1     113.146 122.559 131.175  1.00  0.00     0.012 C 
ATOM     27  C   UNL     1     115.480 119.672 129.907  1.00  0.00     0.036 C 
ATOM     28  C   UNL     1     114.098 120.539 127.968  1.00  0.00     0.032 C 
ATOM     29  C   UNL     1     114.643 119.292 128.675  1.00  0.00     0.114 C 
BRANCH  29  30
ATOM     30  O   UNL     1     115.439 118.570 127.775  1.00  0.00    -0.393 OA
ATOM     31  H   UNL     1     116.266 118.315 128.265  1.00  0.00     0.210 HD
ENDBRANCH  29  30
ENDBRANCH   9  11
ENDBRANCH   1   9
TORSDOF 7
ENDMDL
MODEL 7
REMARK VINA RESULT:    -6.570      1.778      3.960
REMARK INTER + INTRA:         -12.090
REMARK INTER:                  -9.250
REMARK INTRA:                  -2.839
REMARK UNBOUND:                -3.024
REMARK SMILES CC[C@@H](CC[C@H](C)[C@@H]1CC[C@H]2C3=CC[C@@H]4C[C@H](O)CC[C@]4(C)[C@H]3CC[C@@]21C)C(C)C
REMARK SMILES IDX 5 1 4 2 3 3 2 4 1 5 28 6 29 7 30 8 6 9 7 10 8 11 9 12 26 13
REMARK SMILES IDX 10 14 11 15 25 16 27 17 12 18 24 19 23 20 13 21 21 22 14 23
REMARK SMILES IDX 15 24 20 25 22 26 16 27 19 28 17 29 18 30
REMARK H PARENT 18 31
REMARK Flexibility Score: inf
ROOT
ATOM      1  C   UNL     1     117.467 120.064 133.186  1.00  0.00     0.004 C 
ENDROOT
BRANCH   1   2
ATOM      2  C   UNL     1     118.583 120.965 133.764  1.00  0.00     0.004 C 
BRANCH   2   3
ATOM      3  C   UNL     1     119.400 121.687 132.658  1.00  0.00    -0.009 C 
BRANCH   3   4
ATOM      4  C   UNL     1     120.418 120.764 131.917  1.00  0.00     0.000 C 
ATOM      5  C   UNL     1     120.609 121.025 130.416  1.00  0.00     0.004 C 
ENDBRANCH   3   4
BRANCH   3   6
ATOM      6  C   UNL     1     119.992 123.044 133.171  1.00  0.00    -0.014 C 
ATOM      7  C   UNL     1     119.753 124.196 132.180  1.00  0.00     0.007 C 
ATOM      8  C   UNL     1     121.475 122.987 133.561  1.00  0.00     0.007 C 
ENDBRANCH   3   6
ENDBRANCH   2   3
ENDBRANCH   1   2
BRANCH   1   9
ATOM      9  C   UNL     1     116.105 120.796 132.986  1.00  0.00    -0.011 C 
ATOM     10  C   UNL     1     115.002 120.010 133.745  1.00  0.00     0.008 C 
BRANCH   9  11
ATOM     11  C   UNL     1     115.729 121.033 131.472  1.00  0.00    -0.002 C 
ATOM     12  C   UNL     1     116.754 120.395 130.480  1.00  0.00     0.005 C 
ATOM     13  C   UNL     1     115.596 122.524 130.977  1.00  0.00    -0.023 C 
ATOM     14  C   UNL     1     117.180 121.476 129.488  1.00  0.00     0.009 C 
ATOM     15  C   UNL     1     116.926 122.759 130.254  1.00  0.00     0.021 C 
ATOM     16  C   UNL     1     115.456 123.652 132.037  1.00  0.00     0.008 C 
ATOM     17  C   UNL     1     114.380 122.591 129.995  1.00  0.00     0.012 C 
ATOM     18  C   UNL     1     116.955 124.095 129.536  1.00  0.00    -0.067 C 
ATOM     19  C   UNL     1     115.473 125.059 131.395  1.00  0.00     0.009 C 
ATOM     20  C   UNL     1     116.676 125.308 130.429  1.00  0.00     0.021 C 
ATOM     21  C   UNL     1     117.515 124.220 128.312  1.00  0.00    -0.027 C 
ATOM     22  C   UNL     1     116.587 126.669 129.629  1.00  0.00    -0.023 C 
ATOM     23  C   UNL     1     117.677 125.535 127.605  1.00  0.00     0.031 C 
ATOM     24  C   UNL     1     117.734 126.734 128.569  1.00  0.00     0.002 C 
ATOM     25  C   UNL     1     116.719 127.907 130.570  1.00  0.00     0.010 C 
ATOM     26  C   UNL     1     115.222 126.789 128.896  1.00  0.00     0.012 C 
ATOM     27  C   UNL     1     119.131 126.848 129.223  1.00  0.00     0.036 C 
ATOM     28  C   UNL     1     118.111 128.059 131.201  1.00  0.00     0.032 C 
ATOM     29  C   UNL     1     119.217 128.079 130.138  1.00  0.00     0.114 C 
BRANCH  29  30
ATOM     30  O   UNL     1     120.463 128.099 130.779  1.00  0.00    -0.393 OA
ATOM     31  H   UNL     1     120.961 127.299 130.461  1.00  0.00     0.210 HD
ENDBRANCH  29  30
ENDBRANCH   9  11
ENDBRANCH   1   9
TORSDOF 7
ENDMDL
MODEL 8
REMARK VINA RESULT:    -6.531      2.338      4.074
REMARK INTER + INTRA:         -12.036
REMARK INTER:                  -9.238
REMARK INTRA:                  -2.798
REMARK UNBOUND:                -3.024
REMARK SMILES CC[C@@H](CC[C@H](C)[C@@H]1CC[C@H]2C3=CC[C@@H]4C[C@H](O)CC[C@]4(C)[C@H]3CC[C@@]21C)C(C)C
REMARK SMILES IDX 5 1 4 2 3 3 2 4 1 5 28 6 29 7 30 8 6 9 7 10 8 11 9 12 26 13
REMARK SMILES IDX 10 14 11 15 25 16 27 17 12 18 24 19 23 20 13 21 21 22 14 23
REMARK SMILES IDX 15 24 20 25 22 26 16 27 19 28 17 29 18 30
REMARK H PARENT 18 31
REMARK Flexibility Score: inf
ROOT
ATOM      1  C   UNL     1     113.751 121.198 130.897  1.00  0.00     0.004 C 
ENDROOT
BRANCH   1   2
ATOM      2  C   UNL     1     115.170 120.676 131.219  1.00  0.00     0.004 C 
BRANCH   2   3
ATOM      3  C   UNL     1     115.686 121.162 132.601  1.00  0.00    -0.009 C 
BRANCH   3   4
ATOM      4  C   UNL     1     117.221 121.442 132.642  1.00  0.00     0.000 C 
ATOM      5  C   UNL     1     118.008 121.125 131.362  1.00  0.00     0.004 C 
ENDBRANCH   3   4
BRANCH   3   6
ATOM      6  C   UNL     1     115.149 120.263 133.765  1.00  0.00    -0.014 C 
ATOM      7  C   UNL     1     114.147 121.009 134.663  1.00  0.00     0.007 C 
ATOM      8  C   UNL     1     116.240 119.612 134.626  1.00  0.00     0.007 C 
ENDBRANCH   3   6
ENDBRANCH   2   3
ENDBRANCH   1   2
BRANCH   1   9
ATOM      9  C   UNL     1     113.579 122.733 131.112  1.00  0.00    -0.011 C 
ATOM     10  C   UNL     1     112.119 123.013 131.556  1.00  0.00     0.008 C 
BRANCH   9  11
ATOM     11  C   UNL     1     113.996 123.599 129.861  1.00  0.00    -0.002 C 
ATOM     12  C   UNL     1     114.085 122.766 128.542  1.00  0.00     0.005 C 
ATOM     13  C   UNL     1     115.374 124.361 129.925  1.00  0.00    -0.023 C 
ATOM     14  C   UNL     1     115.448 123.039 127.907  1.00  0.00     0.009 C 
ATOM     15  C   UNL     1     116.294 123.464 129.090  1.00  0.00     0.021 C 
ATOM     16  C   UNL     1     116.061 124.546 131.307  1.00  0.00     0.008 C 
ATOM     17  C   UNL     1     115.173 125.765 129.263  1.00  0.00     0.012 C 
ATOM     18  C   UNL     1     117.655 124.096 128.867  1.00  0.00    -0.067 C 
ATOM     19  C   UNL     1     117.462 125.189 131.180  1.00  0.00     0.009 C 
ATOM     20  C   UNL     1     118.400 124.483 130.149  1.00  0.00     0.021 C 
ATOM     21  C   UNL     1     118.283 124.001 127.674  1.00  0.00    -0.027 C 
ATOM     22  C   UNL     1     119.755 125.252 129.879  1.00  0.00    -0.023 C 
ATOM     23  C   UNL     1     119.678 124.503 127.429  1.00  0.00     0.031 C 
ATOM     24  C   UNL     1     120.530 124.563 128.710  1.00  0.00     0.002 C 
ATOM     25  C   UNL     1     120.677 125.265 131.138  1.00  0.00     0.010 C 
ATOM     26  C   UNL     1     119.479 126.733 129.493  1.00  0.00     0.012 C 
ATOM     27  C   UNL     1     121.043 123.156 129.096  1.00  0.00     0.036 C 
ATOM     28  C   UNL     1     121.227 123.882 131.517  1.00  0.00     0.032 C 
ATOM     29  C   UNL     1     121.947 123.216 130.337  1.00  0.00     0.114 C 
BRANCH  29  30
ATOM     30  O   UNL     1     122.318 121.916 130.707  1.00  0.00    -0.393 OA
ATOM     31  H   UNL     1     121.751 121.668 131.486  1.00  0.00     0.210 HD
ENDBRANCH  29  30
ENDBRANCH   9  11
ENDBRANCH   1   9
TORSDOF 7
ENDMDL
MODEL 9
REMARK VINA RESULT:    -6.514      2.060      4.994
REMARK INTER + INTRA:         -12.013
REMARK INTER:                  -9.299
REMARK INTRA:                  -2.714
REMARK UNBOUND:                -3.024
REMARK SMILES CC[C@@H](CC[C@H](C)[C@@H]1CC[C@H]2C3=CC[C@@H]4C[C@H](O)CC[C@]4(C)[C@H]3CC[C@@]21C)C(C)C
REMARK SMILES IDX 5 1 4 2 3 3 2 4 1 5 28 6 29 7 30 8 6 9 7 10 8 11 9 12 26 13
REMARK SMILES IDX 10 14 11 15 25 16 27 17 12 18 24 19 23 20 13 21 21 22 14 23
REMARK SMILES IDX 15 24 20 25 22 26 16 27 19 28 17 29 18 30
REMARK H PARENT 18 31
REMARK Flexibility Score: inf
ROOT
ATOM      1  C   UNL     1     117.190 118.874 127.358  1.00  0.00     0.004 C 
ENDROOT
BRANCH   1   2
ATOM      2  C   UNL     1     118.553 119.522 127.697  1.00  0.00     0.004 C 
BRANCH   2   3
ATOM      3  C   UNL     1     118.852 120.773 126.825  1.00  0.00    -0.009 C 
BRANCH   3   4
ATOM      4  C   UNL     1     119.972 120.550 125.761  1.00  0.00     0.000 C 
ATOM      5  C   UNL     1     119.514 120.441 124.299  1.00  0.00     0.004 C 
ENDBRANCH   3   4
BRANCH   3   6
ATOM      6  C   UNL     1     119.022 122.059 127.702  1.00  0.00    -0.014 C 
ATOM      7  C   UNL     1     119.296 123.312 126.852  1.00  0.00     0.007 C 
ATOM      8  C   UNL     1     120.072 121.941 128.815  1.00  0.00     0.007 C 
ENDBRANCH   3   6
ENDBRANCH   2   3
ENDBRANCH   1   2
BRANCH   1   9
ATOM      9  C   UNL     1     116.426 118.325 128.601  1.00  0.00    -0.011 C 
ATOM     10  C   UNL     1     116.043 116.845 128.334  1.00  0.00     0.008 C 
BRANCH   9  11
ATOM     11  C   UNL     1     115.178 119.196 129.015  1.00  0.00    -0.002 C 
ATOM     12  C   UNL     1     114.277 119.591 127.801  1.00  0.00     0.005 C 
ATOM     13  C   UNL     1     115.452 120.564 129.748  1.00  0.00    -0.023 C 
ATOM     14  C   UNL     1     114.068 121.104 127.846  1.00  0.00     0.009 C 
ATOM     15  C   UNL     1     115.274 121.591 128.624  1.00  0.00     0.021 C 
ATOM     16  C   UNL     1     116.857 120.812 130.363  1.00  0.00     0.008 C 
ATOM     17  C   UNL     1     114.368 120.731 130.864  1.00  0.00     0.012 C 
ATOM     18  C   UNL     1     115.325 123.016 129.142  1.00  0.00    -0.067 C 
ATOM     19  C   UNL     1     117.003 122.247 130.922  1.00  0.00     0.009 C 
ATOM     20  C   UNL     1     116.598 123.372 129.916  1.00  0.00     0.021 C 
ATOM     21  C   UNL     1     114.489 123.964 128.663  1.00  0.00    -0.027 C 
ATOM     22  C   UNL     1     116.563 124.820 130.549  1.00  0.00    -0.023 C 
ATOM     23  C   UNL     1     114.570 125.413 129.050  1.00  0.00     0.031 C 
ATOM     24  C   UNL     1     115.976 125.834 129.514  1.00  0.00     0.002 C 
ATOM     25  C   UNL     1     117.986 125.309 130.960  1.00  0.00     0.010 C 
ATOM     26  C   UNL     1     115.680 124.841 131.827  1.00  0.00     0.012 C 
ATOM     27  C   UNL     1     116.914 126.046 128.304  1.00  0.00     0.036 C 
ATOM     28  C   UNL     1     118.923 125.561 129.770  1.00  0.00     0.032 C 
ATOM     29  C   UNL     1     118.302 126.528 128.754  1.00  0.00     0.114 C 
BRANCH  29  30
ATOM     30  O   UNL     1     119.148 126.623 127.641  1.00  0.00    -0.393 OA
ATOM     31  H   UNL     1     119.888 127.238 127.895  1.00  0.00     0.210 HD
ENDBRANCH  29  30
ENDBRANCH   9  11
ENDBRANCH   1   9
TORSDOF 7
ENDMDL
