MODEL 1
REMARK VINA RESULT:     0.326      0.000      0.000
REMARK INTER + INTRA:           0.340
REMARK INTER:                   0.373
REMARK INTRA:                  -0.033
REMARK UNBOUND:                -0.033
REMARK SMILES CC(C)[C@@H]([NH3+])C(=O)[O-]
REMARK SMILES IDX 4 1 5 2 6 6 7 7 8 8 2 9 1 10 3 11
REMARK H PARENT 5 3 5 4 5 5
REMARK Flexibility Score: inf
ROOT
ATOM      1  C   UNL     1      13.825  52.806  -8.011  1.00  0.00     0.230 C 
ENDROOT
BRANCH   1   2
ATOM      2  N   UNL     1      14.130  51.986  -6.828  1.00  0.00    -0.350 N 
ATOM      3  H   UNL     1      14.381  51.014  -7.116  1.00  0.00     0.345 HD
ATOM      4  H   UNL     1      13.286  51.916  -6.211  1.00  0.00     0.345 HD
ATOM      5  H   UNL     1      14.917  52.403  -6.281  1.00  0.00     0.345 HD
ENDBRANCH   1   2
BRANCH   1   6
ATOM      6  C   UNL     1      12.634  52.225  -8.732  1.00  0.00     0.099 C 
ATOM      7  O   UNL     1      11.640  52.948  -9.008  1.00  0.00    -0.544 OA
ATOM      8  O   UNL     1      12.633  50.887  -9.105  1.00  0.00    -0.544 OA
ENDBRANCH   1   6
BRANCH   1   9
ATOM      9  C   UNL     1      13.574  54.298  -7.634  1.00  0.00     0.047 C 
ATOM     10  C   UNL     1      14.867  55.125  -7.743  1.00  0.00     0.014 C 
ATOM     11  C   UNL     1      13.002  54.443  -6.215  1.00  0.00     0.014 C 
ENDBRANCH   1   9
TORSDOF 3
ENDMDL
MODEL 2
REMARK VINA RESULT:     0.750     12.137     12.955
REMARK INTER + INTRA:           0.827
REMARK INTER:                   0.864
REMARK INTRA:                  -0.038
REMARK UNBOUND:                -0.033
REMARK SMILES CC(C)[C@@H]([NH3+])C(=O)[O-]
REMARK SMILES IDX 4 1 5 2 6 6 7 7 8 8 2 9 1 10 3 11
REMARK H PARENT 5 3 5 4 5 5
REMARK Flexibility Score: inf
ROOT
ATOM      1  C   UNL     1      21.493  44.081 -13.295  1.00  0.00     0.230 C 
ENDROOT
BRANCH   1   2
ATOM      2  N   UNL     1      22.767  43.880 -12.587  1.00  0.00    -0.350 N 
ATOM      3  H   UNL     1      23.500  44.516 -12.974  1.00  0.00     0.345 HD
ATOM      4  H   UNL     1      23.106  42.899 -12.725  1.00  0.00     0.345 HD
ATOM      5  H   UNL     1      22.654  44.059 -11.563  1.00  0.00     0.345 HD
ENDBRANCH   1   2
BRANCH   1   6
ATOM      6  C   UNL     1      20.666  42.822 -13.207  1.00  0.00     0.099 C 
ATOM      7  O   UNL     1      19.410  42.887 -13.140  1.00  0.00    -0.544 OA
ATOM      8  O   UNL     1      21.288  41.580 -13.209  1.00  0.00    -0.544 OA
ENDBRANCH   1   6
BRANCH   1   9
ATOM      9  C   UNL     1      20.704  45.304 -12.737  1.00  0.00     0.047 C 
ATOM     10  C   UNL     1      20.177  46.194 -13.878  1.00  0.00     0.014 C 
ATOM     11  C   UNL     1      21.563  46.158 -11.790  1.00  0.00     0.014 C 
ENDBRANCH   1   9
TORSDOF 3
ENDMDL
MODEL 3
REMARK VINA RESULT:     0.907     11.857     12.874
REMARK INTER + INTRA:           1.006
REMARK INTER:                   1.058
REMARK INTRA:                  -0.053
REMARK UNBOUND:                -0.033
REMARK SMILES CC(C)[C@@H]([NH3+])C(=O)[O-]
REMARK SMILES IDX 4 1 5 2 6 6 7 7 8 8 2 9 1 10 3 11
REMARK H PARENT 5 3 5 4 5 5
REMARK Flexibility Score: inf
ROOT
ATOM      1  C   UNL     1      21.046  44.770 -12.472  1.00  0.00     0.230 C 
ENDROOT
BRANCH   1   2
ATOM      2  N   UNL     1      22.403  44.558 -11.943  1.00  0.00    -0.350 N 
ATOM      3  H   UNL     1      22.960  43.968 -12.600  1.00  0.00     0.345 HD
ATOM      4  H   UNL     1      22.358  44.045 -11.031  1.00  0.00     0.345 HD
ATOM      5  H   UNL     1      22.889  45.472 -11.794  1.00  0.00     0.345 HD
ENDBRANCH   1   2
BRANCH   1   6
ATOM      6  C   UNL     1      20.954  46.147 -13.082  1.00  0.00     0.099 C 
ATOM      7  O   UNL     1      20.141  46.378 -14.016  1.00  0.00    -0.544 OA
ATOM      8  O   UNL     1      21.762  47.172 -12.608  1.00  0.00    -0.544 OA
ENDBRANCH   1   6
BRANCH   1   9
ATOM      9  C   UNL     1      20.650  43.675 -13.509  1.00  0.00     0.047 C 
ATOM     10  C   UNL     1      19.306  43.021 -13.141  1.00  0.00     0.014 C 
ATOM     11  C   UNL     1      21.724  42.582 -13.629  1.00  0.00     0.014 C 
ENDBRANCH   1   9
TORSDOF 3
ENDMDL
MODEL 4
REMARK VINA RESULT:     1.001      2.274      3.283
REMARK INTER + INTRA:           1.115
REMARK INTER:                   1.185
REMARK INTRA:                  -0.071
REMARK UNBOUND:                -0.033
REMARK SMILES CC(C)[C@@H]([NH3+])C(=O)[O-]
REMARK SMILES IDX 4 1 5 2 6 6 7 7 8 8 2 9 1 10 3 11
REMARK H PARENT 5 3 5 4 5 5
REMARK Flexibility Score: inf
ROOT
ATOM      1  C   UNL     1      13.342  53.002  -7.195  1.00  0.00     0.230 C 
ENDROOT
BRANCH   1   2
ATOM      2  N   UNL     1      14.509  52.227  -6.747  1.00  0.00    -0.350 N 
ATOM      3  H   UNL     1      15.059  51.892  -7.570  1.00  0.00     0.345 HD
ATOM      4  H   UNL     1      14.197  51.377  -6.220  1.00  0.00     0.345 HD
ATOM      5  H   UNL     1      15.122  52.804  -6.127  1.00  0.00     0.345 HD
ENDBRANCH   1   2
BRANCH   1   6
ATOM      6  C   UNL     1      13.631  54.476  -7.047  1.00  0.00     0.099 C 
ATOM      7  O   UNL     1      13.158  55.124  -6.075  1.00  0.00    -0.544 OA
ATOM      8  O   UNL     1      14.428  55.125  -7.981  1.00  0.00    -0.544 OA
ENDBRANCH   1   6
BRANCH   1   9
ATOM      9  C   UNL     1      12.944  52.658  -8.663  1.00  0.00     0.047 C 
ATOM     10  C   UNL     1      11.587  53.283  -9.033  1.00  0.00     0.014 C 
ATOM     11  C   UNL     1      12.880  51.140  -8.899  1.00  0.00     0.014 C 
ENDBRANCH   1   9
TORSDOF 3
ENDMDL
MODEL 5
REMARK VINA RESULT:     1.428     12.401     13.370
REMARK INTER + INTRA:           1.604
REMARK INTER:                   1.049
REMARK INTRA:                   0.555
REMARK UNBOUND:                -0.033
REMARK SMILES CC(C)[C@@H]([NH3+])C(=O)[O-]
REMARK SMILES IDX 4 1 5 2 6 6 7 7 8 8 2 9 1 10 3 11
REMARK H PARENT 5 3 5 4 5 5
REMARK Flexibility Score: inf
ROOT
ATOM      1  C   UNL     1      20.244  43.702 -13.654  1.00  0.00     0.230 C 
ENDROOT
BRANCH   1   2
ATOM      2  N   UNL     1      19.254  43.047 -12.786  1.00  0.00    -0.350 N 
ATOM      3  H   UNL     1      19.520  42.050 -12.621  1.00  0.00     0.345 HD
ATOM      4  H   UNL     1      18.315  43.042 -13.250  1.00  0.00     0.345 HD
ATOM      5  H   UNL     1      19.176  43.545 -11.870  1.00  0.00     0.345 HD
ENDBRANCH   1   2
BRANCH   1   6
ATOM      6  C   UNL     1      20.493  45.106 -13.161  1.00  0.00     0.099 C 
ATOM      7  O   UNL     1      20.320  46.091 -13.928  1.00  0.00    -0.544 OA
ATOM      8  O   UNL     1      20.908  45.321 -11.853  1.00  0.00    -0.544 OA
ENDBRANCH   1   6
BRANCH   1   9
ATOM      9  C   UNL     1      21.576  42.895 -13.729  1.00  0.00     0.047 C 
ATOM     10  C   UNL     1      21.412  41.492 -13.116  1.00  0.00     0.014 C 
ATOM     11  C   UNL     1      22.729  43.622 -13.018  1.00  0.00     0.014 C 
ENDBRANCH   1   9
TORSDOF 3
ENDMDL
MODEL 6
REMARK VINA RESULT:     1.475     21.775     22.608
REMARK INTER + INTRA:           1.657
REMARK INTER:                   1.705
REMARK INTRA:                  -0.048
REMARK UNBOUND:                -0.033
REMARK SMILES CC(C)[C@@H]([NH3+])C(=O)[O-]
REMARK SMILES IDX 4 1 5 2 6 6 7 7 8 8 2 9 1 10 3 11
REMARK H PARENT 5 3 5 4 5 5
REMARK Flexibility Score: inf
ROOT
ATOM      1  C   UNL     1      27.413  36.324  -7.703  1.00  0.00     0.230 C 
ENDROOT
BRANCH   1   2
ATOM      2  N   UNL     1      26.518  35.193  -7.991  1.00  0.00    -0.350 N 
ATOM      3  H   UNL     1      27.054  34.296  -7.986  1.00  0.00     0.345 HD
ATOM      4  H   UNL     1      26.101  35.297  -8.946  1.00  0.00     0.345 HD
ATOM      5  H   UNL     1      25.746  35.143  -7.288  1.00  0.00     0.345 HD
ENDBRANCH   1   2
BRANCH   1   6
ATOM      6  C   UNL     1      28.054  36.126  -6.352  1.00  0.00     0.099 C 
ATOM      7  O   UNL     1      27.620  36.743  -5.343  1.00  0.00    -0.544 OA
ATOM      8  O   UNL     1      29.125  35.252  -6.212  1.00  0.00    -0.544 OA
ENDBRANCH   1   6
BRANCH   1   9
ATOM      9  C   UNL     1      28.495  36.506  -8.811  1.00  0.00     0.047 C 
ATOM     10  C   UNL     1      28.366  37.878  -9.495  1.00  0.00     0.014 C 
ATOM     11  C   UNL     1      28.415  35.402  -9.878  1.00  0.00     0.014 C 
ENDBRANCH   1   9
TORSDOF 3
ENDMDL
MODEL 7
REMARK VINA RESULT:     1.583     11.803     12.403
REMARK INTER + INTRA:           1.781
REMARK INTER:                   1.248
REMARK INTRA:                   0.533
REMARK UNBOUND:                -0.033
REMARK SMILES CC(C)[C@@H]([NH3+])C(=O)[O-]
REMARK SMILES IDX 4 1 5 2 6 6 7 7 8 8 2 9 1 10 3 11
REMARK H PARENT 5 3 5 4 5 5
REMARK Flexibility Score: inf
ROOT
ATOM      1  C   UNL     1      20.294  45.394 -12.957  1.00  0.00     0.230 C 
ENDROOT
BRANCH   1   2
ATOM      2  N   UNL     1      20.446  46.213 -14.170  1.00  0.00    -0.350 N 
ATOM      3  H   UNL     1      19.801  45.873 -14.919  1.00  0.00     0.345 HD
ATOM      4  H   UNL     1      21.421  46.127 -14.542  1.00  0.00     0.345 HD
ATOM      5  H   UNL     1      20.247  47.218 -13.966  1.00  0.00     0.345 HD
ENDBRANCH   1   2
BRANCH   1   6
ATOM      6  C   UNL     1      20.386  43.933 -13.321  1.00  0.00     0.099 C 
ATOM      7  O   UNL     1      19.461  43.137 -13.006  1.00  0.00    -0.544 OA
ATOM      8  O   UNL     1      21.491  43.459 -14.016  1.00  0.00    -0.544 OA
ENDBRANCH   1   6
BRANCH   1   9
ATOM      9  C   UNL     1      21.349  45.764 -11.870  1.00  0.00     0.047 C 
ATOM     10  C   UNL     1      22.039  47.101 -12.197  1.00  0.00     0.014 C 
ATOM     11  C   UNL     1      22.418  44.671 -11.712  1.00  0.00     0.014 C 
ENDBRANCH   1   9
TORSDOF 3
ENDMDL
MODEL 8
REMARK VINA RESULT:     1.803      2.626      3.428
REMARK INTER + INTRA:           2.034
REMARK INTER:                   1.792
REMARK INTRA:                   0.242
REMARK UNBOUND:                -0.033
REMARK SMILES CC(C)[C@@H]([NH3+])C(=O)[O-]
REMARK SMILES IDX 4 1 5 2 6 6 7 7 8 8 2 9 1 10 3 11
REMARK H PARENT 5 3 5 4 5 5
REMARK Flexibility Score: inf
ROOT
ATOM      1  C   UNL     1      13.015  54.367  -7.229  1.00  0.00     0.230 C 
ENDROOT
BRANCH   1   2
ATOM      2  N   UNL     1      12.512  54.590  -5.864  1.00  0.00    -0.350 N 
ATOM      3  H   UNL     1      11.859  55.406  -5.848  1.00  0.00     0.345 HD
ATOM      4  H   UNL     1      13.306  54.818  -5.220  1.00  0.00     0.345 HD
ATOM      5  H   UNL     1      12.019  53.740  -5.508  1.00  0.00     0.345 HD
ENDBRANCH   1   2
BRANCH   1   6
ATOM      6  C   UNL     1      14.498  54.644  -7.269  1.00  0.00     0.099 C 
ATOM      7  O   UNL     1      15.029  55.124  -8.306  1.00  0.00    -0.544 OA
ATOM      8  O   UNL     1      15.285  54.378  -6.157  1.00  0.00    -0.544 OA
ENDBRANCH   1   6
BRANCH   1   9
ATOM      9  C   UNL     1      12.705  52.926  -7.735  1.00  0.00     0.047 C 
ATOM     10  C   UNL     1      14.000  52.132  -7.983  1.00  0.00     0.014 C 
ATOM     11  C   UNL     1      11.867  52.937  -9.024  1.00  0.00     0.014 C 
ENDBRANCH   1   9
TORSDOF 3
ENDMDL
MODEL 9
REMARK VINA RESULT:     1.842     12.583     13.197
REMARK INTER + INTRA:           2.078
REMARK INTER:                   2.137
REMARK INTRA:                  -0.059
REMARK UNBOUND:                -0.033
REMARK SMILES CC(C)[C@@H]([NH3+])C(=O)[O-]
REMARK SMILES IDX 4 1 5 2 6 6 7 7 8 8 2 9 1 10 3 11
REMARK H PARENT 5 3 5 4 5 5
REMARK Flexibility Score: inf
ROOT
ATOM      1  C   UNL     1      20.565  43.740 -12.719  1.00  0.00     0.230 C 
ENDROOT
BRANCH   1   2
ATOM      2  N   UNL     1      19.222  43.400 -13.214  1.00  0.00    -0.350 N 
ATOM      3  H   UNL     1      18.523  44.096 -12.872  1.00  0.00     0.345 HD
ATOM      4  H   UNL     1      18.930  42.464 -12.848  1.00  0.00     0.345 HD
ATOM      5  H   UNL     1      19.209  43.374 -14.259  1.00  0.00     0.345 HD
ENDBRANCH   1   2
BRANCH   1   6
ATOM      6  C   UNL     1      21.557  42.716 -13.211  1.00  0.00     0.099 C 
ATOM      7  O   UNL     1      22.704  43.071 -13.593  1.00  0.00    -0.544 OA
ATOM      8  O   UNL     1      21.212  41.371 -13.238  1.00  0.00    -0.544 OA
ENDBRANCH   1   6
BRANCH   1   9
ATOM      9  C   UNL     1      20.993  45.178 -13.143  1.00  0.00     0.047 C 
ATOM     10  C   UNL     1      21.440  46.008 -11.926  1.00  0.00     0.014 C 
ATOM     11  C   UNL     1      19.863  45.923 -13.871  1.00  0.00     0.014 C 
ENDBRANCH   1   9
TORSDOF 3
ENDMDL
