MODEL 1
REMARK VINA RESULT:    -5.215      0.000      0.000
REMARK INTER + INTRA:         -10.895
REMARK INTER:                  -9.178
REMARK INTRA:                  -1.717
REMARK UNBOUND:                -1.717
REMARK SMILES CCCCCCCCCCCCCCC(=O)[O-]
REMARK SMILES IDX 9 1 10 2 11 3 12 4 13 5 14 6 15 7 16 8 17 9 8 10 7 11 6 12
REMARK SMILES IDX 5 13 4 14 3 15 2 16 1 17
REMARK H PARENT
REMARK Flexibility Score: inf
ROOT
ATOM      1  C   UNL     1       4.811   7.363   9.866  1.00  0.00     0.000 C 
ENDROOT
BRANCH   1   2
ATOM      2  C   UNL     1       4.150   6.744  11.109  1.00  0.00     0.000 C 
BRANCH   2   3
ATOM      3  C   UNL     1       3.873   7.782  12.208  1.00  0.00     0.000 C 
BRANCH   3   4
ATOM      4  C   UNL     1       4.982   7.827  13.275  1.00  0.00     0.000 C 
BRANCH   4   5
ATOM      5  C   UNL     1       5.593   6.443  13.549  1.00  0.00     0.006 C 
BRANCH   5   6
ATOM      6  C   UNL     1       6.209   6.336  14.949  1.00  0.00     0.053 C 
BRANCH   6   7
ATOM      7  C   UNL     1       5.137   6.334  15.993  1.00  0.00     0.041 C 
ATOM      8  O   UNL     1       4.525   5.270  16.271  1.00  0.00    -0.550 OA
ATOM      9  O   UNL     1       4.849   7.497  16.695  1.00  0.00    -0.550 OA
ENDBRANCH   6   7
ENDBRANCH   5   6
ENDBRANCH   4   5
ENDBRANCH   3   4
ENDBRANCH   2   3
ENDBRANCH   1   2
BRANCH   1  10
ATOM     10  C   UNL     1       4.387   8.822   9.636  1.00  0.00     0.000 C 
BRANCH  10  11
ATOM     11  C   UNL     1       5.584   9.755   9.377  1.00  0.00    -0.000 C 
BRANCH  11  12
ATOM     12  C   UNL     1       6.365  10.087  10.659  1.00  0.00    -0.000 C 
BRANCH  12  13
ATOM     13  C   UNL     1       7.855   9.719  10.553  1.00  0.00    -0.000 C 
BRANCH  13  14
ATOM     14  C   UNL     1       8.238   8.540  11.464  1.00  0.00    -0.000 C 
BRANCH  14  15
ATOM     15  C   UNL     1       7.920   7.176  10.826  1.00  0.00    -0.000 C 
BRANCH  15  16
ATOM     16  C   UNL     1       9.001   6.123  11.121  1.00  0.00    -0.003 C 
ATOM     17  C   UNL     1       9.694   5.614   9.857  1.00  0.00     0.004 C 
ENDBRANCH  15  16
ENDBRANCH  14  15
ENDBRANCH  13  14
ENDBRANCH  12  13
ENDBRANCH  11  12
ENDBRANCH  10  11
ENDBRANCH   1  10
TORSDOF 13
ENDMDL
MODEL 2
REMARK VINA RESULT:    -5.136      1.167      1.396
REMARK INTER + INTRA:         -10.756
REMARK INTER:                  -9.033
REMARK INTRA:                  -1.723
REMARK UNBOUND:                -1.717
REMARK SMILES CCCCCCCCCCCCCCC(=O)[O-]
REMARK SMILES IDX 9 1 10 2 11 3 12 4 13 5 14 6 15 7 16 8 17 9 8 10 7 11 6 12
REMARK SMILES IDX 5 13 4 14 3 15 2 16 1 17
REMARK H PARENT
REMARK Flexibility Score: inf
ROOT
ATOM      1  C   UNL     1       4.575   7.415  10.004  1.00  0.00     0.000 C 
ENDROOT
BRANCH   1   2
ATOM      2  C   UNL     1       3.320   7.146  10.851  1.00  0.00     0.000 C 
BRANCH   2   3
ATOM      3  C   UNL     1       3.097   8.216  11.931  1.00  0.00     0.000 C 
BRANCH   3   4
ATOM      4  C   UNL     1       3.529   7.745  13.332  1.00  0.00     0.000 C 
BRANCH   4   5
ATOM      5  C   UNL     1       5.052   7.809  13.531  1.00  0.00     0.006 C 
BRANCH   5   6
ATOM      6  C   UNL     1       5.704   6.421  13.550  1.00  0.00     0.053 C 
BRANCH   6   7
ATOM      7  C   UNL     1       6.605   6.283  14.736  1.00  0.00     0.041 C 
ATOM      8  O   UNL     1       6.134   6.350  15.901  1.00  0.00    -0.550 OA
ATOM      9  O   UNL     1       7.959   6.030  14.554  1.00  0.00    -0.550 OA
ENDBRANCH   6   7
ENDBRANCH   5   6
ENDBRANCH   4   5
ENDBRANCH   3   4
ENDBRANCH   2   3
ENDBRANCH   1   2
BRANCH   1  10
ATOM     10  C   UNL     1       4.430   8.658   9.112  1.00  0.00     0.000 C 
BRANCH  10  11
ATOM     11  C   UNL     1       5.613   9.632   9.251  1.00  0.00    -0.000 C 
BRANCH  11  12
ATOM     12  C   UNL     1       6.192   9.659  10.676  1.00  0.00    -0.000 C 
BRANCH  12  13
ATOM     13  C   UNL     1       7.729   9.602  10.689  1.00  0.00    -0.000 C 
BRANCH  13  14
ATOM     14  C   UNL     1       8.268   8.392  11.470  1.00  0.00    -0.000 C 
BRANCH  14  15
ATOM     15  C   UNL     1       7.956   7.054  10.776  1.00  0.00    -0.000 C 
BRANCH  15  16
ATOM     16  C   UNL     1       9.062   6.009  10.988  1.00  0.00    -0.003 C 
ATOM     17  C   UNL     1       9.757   5.607   9.687  1.00  0.00     0.004 C 
ENDBRANCH  15  16
ENDBRANCH  14  15
ENDBRANCH  13  14
ENDBRANCH  12  13
ENDBRANCH  11  12
ENDBRANCH  10  11
ENDBRANCH   1  10
TORSDOF 13
ENDMDL
MODEL 3
REMARK VINA RESULT:    -5.103      0.881      1.398
REMARK INTER + INTRA:         -10.698
REMARK INTER:                  -8.926
REMARK INTRA:                  -1.772
REMARK UNBOUND:                -1.717
REMARK SMILES CCCCCCCCCCCCCCC(=O)[O-]
REMARK SMILES IDX 9 1 10 2 11 3 12 4 13 5 14 6 15 7 16 8 17 9 8 10 7 11 6 12
REMARK SMILES IDX 5 13 4 14 3 15 2 16 1 17
REMARK H PARENT
REMARK Flexibility Score: inf
ROOT
ATOM      1  C   UNL     1       4.248   6.797  11.401  1.00  0.00     0.000 C 
ENDROOT
BRANCH   1   2
ATOM      2  C   UNL     1       3.994   7.776  12.559  1.00  0.00     0.000 C 
BRANCH   2   3
ATOM      3  C   UNL     1       5.090   7.715  13.634  1.00  0.00     0.000 C 
BRANCH   3   4
ATOM      4  C   UNL     1       5.899   6.406  13.584  1.00  0.00     0.000 C 
BRANCH   4   5
ATOM      5  C   UNL     1       5.824   5.616  14.901  1.00  0.00     0.006 C 
BRANCH   5   6
ATOM      6  C   UNL     1       5.637   6.523  16.123  1.00  0.00     0.053 C 
BRANCH   6   7
ATOM      7  C   UNL     1       4.431   6.106  16.904  1.00  0.00     0.041 C 
ATOM      8  O   UNL     1       4.563   5.548  18.024  1.00  0.00    -0.550 OA
ATOM      9  O   UNL     1       3.160   6.379  16.416  1.00  0.00    -0.550 OA
ENDBRANCH   6   7
ENDBRANCH   5   6
ENDBRANCH   4   5
ENDBRANCH   3   4
ENDBRANCH   2   3
ENDBRANCH   1   2
BRANCH   1  10
ATOM     10  C   UNL     1       4.140   7.470  10.023  1.00  0.00     0.000 C 
BRANCH  10  11
ATOM     11  C   UNL     1       4.780   8.869   9.994  1.00  0.00    -0.000 C 
BRANCH  11  12
ATOM     12  C   UNL     1       6.274   8.829   9.630  1.00  0.00    -0.000 C 
BRANCH  12  13
ATOM     13  C   UNL     1       7.172   9.350  10.765  1.00  0.00    -0.000 C 
BRANCH  13  14
ATOM     14  C   UNL     1       8.233   8.324  11.197  1.00  0.00    -0.000 C 
BRANCH  14  15
ATOM     15  C   UNL     1       7.915   6.902  10.700  1.00  0.00    -0.000 C 
BRANCH  15  16
ATOM     16  C   UNL     1       9.102   5.941  10.871  1.00  0.00    -0.003 C 
ATOM     17  C   UNL     1       9.830   5.659   9.557  1.00  0.00     0.004 C 
ENDBRANCH  15  16
ENDBRANCH  14  15
ENDBRANCH  13  14
ENDBRANCH  12  13
ENDBRANCH  11  12
ENDBRANCH  10  11
ENDBRANCH   1  10
TORSDOF 13
ENDMDL
MODEL 4
REMARK VINA RESULT:    -4.999      1.229      3.417
REMARK INTER + INTRA:         -10.514
REMARK INTER:                  -8.686
REMARK INTRA:                  -1.828
REMARK UNBOUND:                -1.717
REMARK SMILES CCCCCCCCCCCCCCC(=O)[O-]
REMARK SMILES IDX 9 1 10 2 11 3 12 4 13 5 14 6 15 7 16 8 17 9 8 10 7 11 6 12
REMARK SMILES IDX 5 13 4 14 3 15 2 16 1 17
REMARK H PARENT
REMARK Flexibility Score: inf
ROOT
ATOM      1  C   UNL     1       8.090   6.700  11.851  1.00  0.00     0.000 C 
ENDROOT
BRANCH   1   2
ATOM      2  C   UNL     1       7.525   7.296  13.151  1.00  0.00     0.000 C 
BRANCH   2   3
ATOM      3  C   UNL     1       7.476   6.272  14.297  1.00  0.00     0.000 C 
BRANCH   3   4
ATOM      4  C   UNL     1       6.095   5.609  14.441  1.00  0.00     0.000 C 
BRANCH   4   5
ATOM      5  C   UNL     1       5.104   6.477  15.234  1.00  0.00     0.006 C 
BRANCH   5   6
ATOM      6  C   UNL     1       5.336   6.405  16.748  1.00  0.00     0.053 C 
BRANCH   6   7
ATOM      7  C   UNL     1       4.164   5.770  17.427  1.00  0.00     0.041 C 
ATOM      8  O   UNL     1       3.868   4.570  17.189  1.00  0.00    -0.550 OA
ATOM      9  O   UNL     1       3.428   6.489  18.359  1.00  0.00    -0.550 OA
ENDBRANCH   6   7
ENDBRANCH   5   6
ENDBRANCH   4   5
ENDBRANCH   3   4
ENDBRANCH   2   3
ENDBRANCH   1   2
BRANCH   1  10
ATOM     10  C   UNL     1       8.221   7.745  10.731  1.00  0.00     0.000 C 
BRANCH  10  11
ATOM     11  C   UNL     1       8.197   9.189  11.261  1.00  0.00    -0.000 C 
BRANCH  11  12
ATOM     12  C   UNL     1       7.037  10.015  10.679  1.00  0.00    -0.000 C 
BRANCH  12  13
ATOM     13  C   UNL     1       6.400   9.349   9.447  1.00  0.00    -0.000 C 
BRANCH  13  14
ATOM     14  C   UNL     1       4.929   8.962   9.679  1.00  0.00    -0.000 C 
BRANCH  14  15
ATOM     15  C   UNL     1       4.718   7.438   9.705  1.00  0.00    -0.000 C 
BRANCH  15  16
ATOM     16  C   UNL     1       4.363   6.918  11.107  1.00  0.00    -0.003 C 
ATOM     17  C   UNL     1       4.055   8.042  12.096  1.00  0.00     0.004 C 
ENDBRANCH  15  16
ENDBRANCH  14  15
ENDBRANCH  13  14
ENDBRANCH  12  13
ENDBRANCH  11  12
ENDBRANCH  10  11
ENDBRANCH   1  10
TORSDOF 13
ENDMDL
MODEL 5
REMARK VINA RESULT:    -4.949      2.730      5.999
REMARK INTER + INTRA:         -10.427
REMARK INTER:                  -8.631
REMARK INTRA:                  -1.796
REMARK UNBOUND:                -1.717
REMARK SMILES CCCCCCCCCCCCCCC(=O)[O-]
REMARK SMILES IDX 9 1 10 2 11 3 12 4 13 5 14 6 15 7 16 8 17 9 8 10 7 11 6 12
REMARK SMILES IDX 5 13 4 14 3 15 2 16 1 17
REMARK H PARENT
REMARK Flexibility Score: inf
ROOT
ATOM      1  C   UNL     1       7.958   7.276  13.023  1.00  0.00     0.000 C 
ENDROOT
BRANCH   1   2
ATOM      2  C   UNL     1       8.463   6.372  11.886  1.00  0.00     0.000 C 
BRANCH   2   3
ATOM      3  C   UNL     1       8.137   6.937  10.495  1.00  0.00     0.000 C 
BRANCH   3   4
ATOM      4  C   UNL     1       7.715   8.416  10.538  1.00  0.00     0.000 C 
BRANCH   4   5
ATOM      5  C   UNL     1       6.278   8.635  10.039  1.00  0.00     0.006 C 
BRANCH   5   6
ATOM      6  C   UNL     1       5.518   7.319   9.833  1.00  0.00     0.053 C 
BRANCH   6   7
ATOM      7  C   UNL     1       4.042   7.555   9.874  1.00  0.00     0.041 C 
ATOM      8  O   UNL     1       3.531   8.488   9.201  1.00  0.00    -0.550 OA
ATOM      9  O   UNL     1       3.224   6.714  10.617  1.00  0.00    -0.550 OA
ENDBRANCH   6   7
ENDBRANCH   5   6
ENDBRANCH   4   5
ENDBRANCH   3   4
ENDBRANCH   2   3
ENDBRANCH   1   2
BRANCH   1  10
ATOM     10  C   UNL     1       7.014   6.540  13.988  1.00  0.00     0.000 C 
BRANCH  10  11
ATOM     11  C   UNL     1       5.559   6.513  13.489  1.00  0.00    -0.000 C 
BRANCH  11  12
ATOM     12  C   UNL     1       4.897   7.901  13.516  1.00  0.00    -0.000 C 
BRANCH  12  13
ATOM     13  C   UNL     1       3.713   7.970  14.495  1.00  0.00    -0.000 C 
BRANCH  13  14
ATOM     14  C   UNL     1       4.115   8.527  15.871  1.00  0.00    -0.000 C 
BRANCH  14  15
ATOM     15  C   UNL     1       4.215   7.430  16.945  1.00  0.00    -0.000 C 
BRANCH  15  16
ATOM     16  C   UNL     1       3.425   6.166  16.569  1.00  0.00    -0.003 C 
ATOM     17  C   UNL     1       3.860   4.935  17.365  1.00  0.00     0.004 C 
ENDBRANCH  15  16
ENDBRANCH  14  15
ENDBRANCH  13  14
ENDBRANCH  12  13
ENDBRANCH  11  12
ENDBRANCH  10  11
ENDBRANCH   1  10
TORSDOF 13
ENDMDL
MODEL 6
REMARK VINA RESULT:    -4.944      2.644      4.698
REMARK INTER + INTRA:         -10.419
REMARK INTER:                  -8.454
REMARK INTRA:                  -1.965
REMARK UNBOUND:                -1.717
REMARK SMILES CCCCCCCCCCCCCCC(=O)[O-]
REMARK SMILES IDX 9 1 10 2 11 3 12 4 13 5 14 6 15 7 16 8 17 9 8 10 7 11 6 12
REMARK SMILES IDX 5 13 4 14 3 15 2 16 1 17
REMARK H PARENT
REMARK Flexibility Score: inf
ROOT
ATOM      1  C   UNL     1       4.366   7.181  10.364  1.00  0.00     0.000 C 
ENDROOT
BRANCH   1   2
ATOM      2  C   UNL     1       4.320   8.224   9.235  1.00  0.00     0.000 C 
BRANCH   2   3
ATOM      3  C   UNL     1       5.270   9.406   9.485  1.00  0.00     0.000 C 
BRANCH   3   4
ATOM      4  C   UNL     1       6.155   9.205  10.728  1.00  0.00     0.000 C 
BRANCH   4   5
ATOM      5  C   UNL     1       7.605   8.844  10.368  1.00  0.00     0.006 C 
BRANCH   5   6
ATOM      6  C   UNL     1       8.265   7.938  11.414  1.00  0.00     0.053 C 
BRANCH   6   7
ATOM      7  C   UNL     1       8.430   6.552  10.875  1.00  0.00     0.041 C 
ATOM      8  O   UNL     1       9.296   5.780  11.364  1.00  0.00    -0.550 OA
ATOM      9  O   UNL     1       7.594   6.096   9.864  1.00  0.00    -0.550 OA
ENDBRANCH   6   7
ENDBRANCH   5   6
ENDBRANCH   4   5
ENDBRANCH   3   4
ENDBRANCH   2   3
ENDBRANCH   1   2
BRANCH   1  10
ATOM     10  C   UNL     1       2.995   6.966  11.025  1.00  0.00     0.000 C 
BRANCH  10  11
ATOM     11  C   UNL     1       2.393   8.269  11.581  1.00  0.00    -0.000 C 
BRANCH  11  12
ATOM     12  C   UNL     1       3.159   8.801  12.803  1.00  0.00    -0.000 C 
BRANCH  12  13
ATOM     13  C   UNL     1       2.943   7.936  14.057  1.00  0.00    -0.000 C 
BRANCH  13  14
ATOM     14  C   UNL     1       4.248   7.682  14.831  1.00  0.00    -0.000 C 
BRANCH  14  15
ATOM     15  C   UNL     1       5.450   7.448  13.900  1.00  0.00    -0.000 C 
BRANCH  15  16
ATOM     16  C   UNL     1       6.035   6.034  14.039  1.00  0.00    -0.003 C 
ATOM     17  C   UNL     1       7.507   6.038  14.448  1.00  0.00     0.004 C 
ENDBRANCH  15  16
ENDBRANCH  14  15
ENDBRANCH  13  14
ENDBRANCH  12  13
ENDBRANCH  11  12
ENDBRANCH  10  11
ENDBRANCH   1  10
TORSDOF 13
ENDMDL
MODEL 7
REMARK VINA RESULT:    -4.839      2.617      5.372
REMARK INTER + INTRA:         -10.232
REMARK INTER:                  -8.533
REMARK INTRA:                  -1.700
REMARK UNBOUND:                -1.717
REMARK SMILES CCCCCCCCCCCCCCC(=O)[O-]
REMARK SMILES IDX 9 1 10 2 11 3 12 4 13 5 14 6 15 7 16 8 17 9 8 10 7 11 6 12
REMARK SMILES IDX 5 13 4 14 3 15 2 16 1 17
REMARK H PARENT
REMARK Flexibility Score: inf
ROOT
ATOM      1  C   UNL     1       3.805   7.937   9.907  1.00  0.00     0.000 C 
ENDROOT
BRANCH   1   2
ATOM      2  C   UNL     1       4.938   8.784   9.301  1.00  0.00     0.000 C 
BRANCH   2   3
ATOM      3  C   UNL     1       5.222  10.057  10.114  1.00  0.00     0.000 C 
BRANCH   3   4
ATOM      4  C   UNL     1       6.659  10.101  10.665  1.00  0.00     0.000 C 
BRANCH   4   5
ATOM      5  C   UNL     1       7.536   8.965  10.115  1.00  0.00     0.006 C 
BRANCH   5   6
ATOM      6  C   UNL     1       8.055   8.033  11.217  1.00  0.00     0.053 C 
BRANCH   6   7
ATOM      7  C   UNL     1       8.336   6.672  10.662  1.00  0.00     0.041 C 
ATOM      8  O   UNL     1       7.519   6.128   9.874  1.00  0.00    -0.550 OA
ATOM      9  O   UNL     1       9.524   6.026  10.976  1.00  0.00    -0.550 OA
ENDBRANCH   6   7
ENDBRANCH   5   6
ENDBRANCH   4   5
ENDBRANCH   3   4
ENDBRANCH   2   3
ENDBRANCH   1   2
BRANCH   1  10
ATOM     10  C   UNL     1       4.314   6.938  10.958  1.00  0.00     0.000 C 
BRANCH  10  11
ATOM     11  C   UNL     1       3.925   7.335  12.393  1.00  0.00    -0.000 C 
BRANCH  11  12
ATOM     12  C   UNL     1       5.149   7.593  13.288  1.00  0.00    -0.000 C 
BRANCH  12  13
ATOM     13  C   UNL     1       5.827   6.292  13.749  1.00  0.00    -0.000 C 
BRANCH  13  14
ATOM     14  C   UNL     1       5.921   6.186  15.281  1.00  0.00    -0.000 C 
BRANCH  14  15
ATOM     15  C   UNL     1       4.914   7.103  15.998  1.00  0.00    -0.000 C 
BRANCH  15  16
ATOM     16  C   UNL     1       3.697   6.334  16.536  1.00  0.00    -0.003 C 
ATOM     17  C   UNL     1       4.061   4.950  17.075  1.00  0.00     0.004 C 
ENDBRANCH  15  16
ENDBRANCH  14  15
ENDBRANCH  13  14
ENDBRANCH  12  13
ENDBRANCH  11  12
ENDBRANCH  10  11
ENDBRANCH   1  10
TORSDOF 13
ENDMDL
MODEL 8
REMARK VINA RESULT:    -4.756      1.549      3.866
REMARK INTER + INTRA:         -10.088
REMARK INTER:                  -8.561
REMARK INTRA:                  -1.527
REMARK UNBOUND:                -1.717
REMARK SMILES CCCCCCCCCCCCCCC(=O)[O-]
REMARK SMILES IDX 9 1 10 2 11 3 12 4 13 5 14 6 15 7 16 8 17 9 8 10 7 11 6 12
REMARK SMILES IDX 5 13 4 14 3 15 2 16 1 17
REMARK H PARENT
REMARK Flexibility Score: inf
ROOT
ATOM      1  C   UNL     1       7.661   7.156  13.204  1.00  0.00     0.000 C 
ENDROOT
BRANCH   1   2
ATOM      2  C   UNL     1       7.362   5.973  14.140  1.00  0.00     0.000 C 
BRANCH   2   3
ATOM      3  C   UNL     1       5.869   5.857  14.486  1.00  0.00     0.000 C 
BRANCH   3   4
ATOM      4  C   UNL     1       5.193   7.228  14.666  1.00  0.00     0.000 C 
BRANCH   4   5
ATOM      5  C   UNL     1       3.865   7.135  15.436  1.00  0.00     0.006 C 
BRANCH   5   6
ATOM      6  C   UNL     1       4.068   7.050  16.953  1.00  0.00     0.053 C 
BRANCH   6   7
ATOM      7  C   UNL     1       3.434   5.808  17.497  1.00  0.00     0.041 C 
ATOM      8  O   UNL     1       3.672   4.692  16.968  1.00  0.00    -0.550 OA
ATOM      9  O   UNL     1       2.619   5.879  18.619  1.00  0.00    -0.550 OA
ENDBRANCH   6   7
ENDBRANCH   5   6
ENDBRANCH   4   5
ENDBRANCH   3   4
ENDBRANCH   2   3
ENDBRANCH   1   2
BRANCH   1  10
ATOM     10  C   UNL     1       8.266   6.710  11.864  1.00  0.00     0.000 C 
BRANCH  10  11
ATOM     11  C   UNL     1       8.153   7.790  10.773  1.00  0.00    -0.000 C 
BRANCH  11  12
ATOM     12  C   UNL     1       6.911   8.680  10.947  1.00  0.00    -0.000 C 
BRANCH  12  13
ATOM     13  C   UNL     1       6.031   8.718   9.685  1.00  0.00    -0.000 C 
BRANCH  13  14
ATOM     14  C   UNL     1       5.084   7.510   9.590  1.00  0.00    -0.000 C 
BRANCH  14  15
ATOM     15  C   UNL     1       4.678   6.968  10.971  1.00  0.00    -0.000 C 
BRANCH  15  16
ATOM     16  C   UNL     1       3.206   6.528  11.021  1.00  0.00    -0.003 C 
ATOM     17  C   UNL     1       2.285   7.603  11.596  1.00  0.00     0.004 C 
ENDBRANCH  15  16
ENDBRANCH  14  15
ENDBRANCH  13  14
ENDBRANCH  12  13
ENDBRANCH  11  12
ENDBRANCH  10  11
ENDBRANCH   1  10
TORSDOF 13
ENDMDL
MODEL 9
REMARK VINA RESULT:    -4.625      1.731      2.720
REMARK INTER + INTRA:          -9.857
REMARK INTER:                  -8.350
REMARK INTRA:                  -1.507
REMARK UNBOUND:                -1.717
REMARK SMILES CCCCCCCCCCCCCCC(=O)[O-]
REMARK SMILES IDX 9 1 10 2 11 3 12 4 13 5 14 6 15 7 16 8 17 9 8 10 7 11 6 12
REMARK SMILES IDX 5 13 4 14 3 15 2 16 1 17
REMARK H PARENT
REMARK Flexibility Score: inf
ROOT
ATOM      1  C   UNL     1       4.240   6.940  11.940  1.00  0.00     0.000 C 
ENDROOT
BRANCH   1   2
ATOM      2  C   UNL     1       4.130   8.210  12.800  1.00  0.00     0.000 C 
BRANCH   2   3
ATOM      3  C   UNL     1       3.560   7.928  14.200  1.00  0.00     0.000 C 
BRANCH   3   4
ATOM      4  C   UNL     1       4.610   8.097  15.313  1.00  0.00     0.000 C 
BRANCH   4   5
ATOM      5  C   UNL     1       4.024   7.865  16.715  1.00  0.00     0.006 C 
BRANCH   5   6
ATOM      6  C   UNL     1       2.840   6.890  16.706  1.00  0.00     0.053 C 
BRANCH   6   7
ATOM      7  C   UNL     1       3.229   5.590  17.335  1.00  0.00     0.041 C 
ATOM      8  O   UNL     1       2.645   5.189  18.375  1.00  0.00    -0.550 OA
ATOM      9  O   UNL     1       4.204   4.797  16.744  1.00  0.00    -0.550 OA
ENDBRANCH   6   7
ENDBRANCH   5   6
ENDBRANCH   4   5
ENDBRANCH   3   4
ENDBRANCH   2   3
ENDBRANCH   1   2
BRANCH   1  10
ATOM     10  C   UNL     1       3.722   7.150  10.508  1.00  0.00     0.000 C 
BRANCH  10  11
ATOM     11  C   UNL     1       4.821   7.630   9.544  1.00  0.00    -0.000 C 
BRANCH  11  12
ATOM     12  C   UNL     1       6.221   7.139   9.950  1.00  0.00    -0.000 C 
BRANCH  12  13
ATOM     13  C   UNL     1       7.228   8.291  10.107  1.00  0.00    -0.000 C 
BRANCH  13  14
ATOM     14  C   UNL     1       7.889   8.312  11.496  1.00  0.00    -0.000 C 
BRANCH  14  15
ATOM     15  C   UNL     1       7.890   6.929  12.169  1.00  0.00    -0.000 C 
BRANCH  15  16
ATOM     16  C   UNL     1       7.534   7.002  13.663  1.00  0.00    -0.003 C 
ATOM     17  C   UNL     1       7.813   5.694  14.404  1.00  0.00     0.004 C 
ENDBRANCH  15  16
ENDBRANCH  14  15
ENDBRANCH  13  14
ENDBRANCH  12  13
ENDBRANCH  11  12
ENDBRANCH  10  11
ENDBRANCH   1  10
TORSDOF 13
ENDMDL
