MODEL 1
REMARK VINA RESULT:    -5.720      0.000      0.000
REMARK INTER + INTRA:          -6.525
REMARK INTER:                  -6.389
REMARK INTRA:                  -0.136
REMARK UNBOUND:                -0.136
REMARK SMILES COc1cc2ccc(=O)oc2cc1OC
REMARK SMILES IDX 3 1 13 2 12 3 11 4 5 5 4 6 6 7 7 8 8 9 9 10 10 11 2 12 1 13
REMARK SMILES IDX 14 14 15 15
REMARK H PARENT
REMARK Flexibility Score: inf
ROOT
ATOM      1  C   UNL     1       7.221  10.970   5.718  1.00  0.00     0.161 A 
ATOM      2  C   UNL     1       7.868  11.054   6.964  1.00  0.00     0.164 A 
ATOM      3  C   UNL     1       7.121  10.914   8.151  1.00  0.00     0.098 A 
ATOM      4  C   UNL     1       5.743  10.691   8.097  1.00  0.00     0.142 A 
ATOM      5  C   UNL     1       5.095  10.607   6.848  1.00  0.00     0.022 A 
ATOM      6  C   UNL     1       5.831  10.746   5.665  1.00  0.00     0.062 A 
ATOM      7  C   UNL     1       3.713  10.384   6.827  1.00  0.00     0.019 A 
ATOM      8  C   UNL     1       3.023  10.253   8.031  1.00  0.00     0.094 A 
ATOM      9  C   UNL     1       3.733  10.348   9.232  1.00  0.00     0.336 A 
ATOM     10  O   UNL     1       3.129  10.232  10.330  1.00  0.00    -0.246 OA
ATOM     11  O   UNL     1       5.047  10.561   9.224  1.00  0.00    -0.423 OA
ENDROOT
BRANCH   1  12
ATOM     12  O   UNL     1       7.997  11.114   4.557  1.00  0.00    -0.493 OA
ATOM     13  C   UNL     1       8.248  12.353   3.901  1.00  0.00     0.278 C 
ENDBRANCH   1  12
BRANCH   2  14
ATOM     14  O   UNL     1       9.253  11.277   6.980  1.00  0.00    -0.493 OA
ATOM     15  C   UNL     1       9.869  12.504   7.360  1.00  0.00     0.278 C 
ENDBRANCH   2  14
TORSDOF 2
ENDMDL
MODEL 2
REMARK VINA RESULT:    -5.335      1.254      2.596
REMARK INTER + INTRA:          -6.095
REMARK INTER:                  -5.982
REMARK INTRA:                  -0.113
REMARK UNBOUND:                -0.136
REMARK SMILES COc1cc2ccc(=O)oc2cc1OC
REMARK SMILES IDX 3 1 13 2 12 3 11 4 5 5 4 6 6 7 7 8 8 9 9 10 10 11 2 12 1 13
REMARK SMILES IDX 14 14 15 15
REMARK H PARENT
REMARK Flexibility Score: inf
ROOT
ATOM      1  C   UNL     1       8.146  11.247   6.587  1.00  0.00     0.161 A 
ATOM      2  C   UNL     1       7.488  11.276   5.345  1.00  0.00     0.164 A 
ATOM      3  C   UNL     1       6.103  11.022   5.282  1.00  0.00     0.098 A 
ATOM      4  C   UNL     1       5.381  10.744   6.445  1.00  0.00     0.142 A 
ATOM      5  C   UNL     1       6.041  10.716   7.690  1.00  0.00     0.022 A 
ATOM      6  C   UNL     1       7.417  10.966   7.759  1.00  0.00     0.062 A 
ATOM      7  C   UNL     1       5.291  10.433   8.837  1.00  0.00     0.019 A 
ATOM      8  C   UNL     1       3.923  10.191   8.717  1.00  0.00     0.094 A 
ATOM      9  C   UNL     1       3.336  10.235   7.448  1.00  0.00     0.336 A 
ATOM     10  O   UNL     1       2.103  10.019   7.318  1.00  0.00    -0.246 OA
ATOM     11  O   UNL     1       4.074  10.506   6.374  1.00  0.00    -0.423 OA
ENDROOT
BRANCH   1  12
ATOM     12  O   UNL     1       9.526  11.504   6.613  1.00  0.00    -0.493 OA
ATOM     13  C   UNL     1      10.125  12.645   7.221  1.00  0.00     0.278 C 
ENDBRANCH   1  12
BRANCH   2  14
ATOM     14  O   UNL     1       8.245  11.559   4.198  1.00  0.00    -0.493 OA
ATOM     15  C   UNL     1       8.516  12.870   3.713  1.00  0.00     0.278 C 
ENDBRANCH   2  14
TORSDOF 2
ENDMDL
MODEL 3
REMARK VINA RESULT:    -5.187      1.100      2.561
REMARK INTER + INTRA:          -5.930
REMARK INTER:                  -5.817
REMARK INTRA:                  -0.113
REMARK UNBOUND:                -0.136
REMARK SMILES COc1cc2ccc(=O)oc2cc1OC
REMARK SMILES IDX 3 1 13 2 12 3 11 4 5 5 4 6 6 7 7 8 8 9 9 10 10 11 2 12 1 13
REMARK SMILES IDX 14 14 15 15
REMARK H PARENT
REMARK Flexibility Score: inf
ROOT
ATOM      1  C   UNL     1       7.642  11.120   7.117  1.00  0.00     0.161 A 
ATOM      2  C   UNL     1       6.892  10.826   5.966  1.00  0.00     0.164 A 
ATOM      3  C   UNL     1       5.492  10.694   6.058  1.00  0.00     0.098 A 
ATOM      4  C   UNL     1       4.845  10.855   7.285  1.00  0.00     0.142 A 
ATOM      5  C   UNL     1       5.598  11.150   8.440  1.00  0.00     0.022 A 
ATOM      6  C   UNL     1       6.989  11.282   8.355  1.00  0.00     0.062 A 
ATOM      7  C   UNL     1       4.921  11.305   9.655  1.00  0.00     0.019 A 
ATOM      8  C   UNL     1       3.534  11.164   9.689  1.00  0.00     0.094 A 
ATOM      9  C   UNL     1       2.855  10.870   8.503  1.00  0.00     0.336 A 
ATOM     10  O   UNL     1       1.603  10.738   8.512  1.00  0.00    -0.246 OA
ATOM     11  O   UNL     1       3.523  10.728   7.361  1.00  0.00    -0.423 OA
ENDROOT
BRANCH   1  12
ATOM     12  O   UNL     1       9.035  11.245   6.989  1.00  0.00    -0.493 OA
ATOM     13  C   UNL     1       9.779  12.405   7.347  1.00  0.00     0.278 C 
ENDBRANCH   1  12
BRANCH   2  14
ATOM     14  O   UNL     1       7.574  10.672   4.749  1.00  0.00    -0.493 OA
ATOM     15  C   UNL     1       7.873  11.735   3.850  1.00  0.00     0.278 C 
ENDBRANCH   2  14
TORSDOF 2
ENDMDL
MODEL 4
REMARK VINA RESULT:    -4.985      1.556      5.532
REMARK INTER + INTRA:          -5.703
REMARK INTER:                  -5.585
REMARK INTRA:                  -0.118
REMARK UNBOUND:                -0.136
REMARK SMILES COc1cc2ccc(=O)oc2cc1OC
REMARK SMILES IDX 3 1 13 2 12 3 11 4 5 5 4 6 6 7 7 8 8 9 9 10 10 11 2 12 1 13
REMARK SMILES IDX 14 14 15 15
REMARK H PARENT
REMARK Flexibility Score: inf
ROOT
ATOM      1  C   UNL     1       4.693  11.271   8.905  1.00  0.00     0.161 A 
ATOM      2  C   UNL     1       4.697  10.382   7.816  1.00  0.00     0.164 A 
ATOM      3  C   UNL     1       5.839  10.286   6.995  1.00  0.00     0.098 A 
ATOM      4  C   UNL     1       6.967  11.066   7.259  1.00  0.00     0.142 A 
ATOM      5  C   UNL     1       6.963  11.957   8.351  1.00  0.00     0.022 A 
ATOM      6  C   UNL     1       5.831  12.059   9.169  1.00  0.00     0.062 A 
ATOM      7  C   UNL     1       8.107  12.727   8.588  1.00  0.00     0.019 A 
ATOM      8  C   UNL     1       9.210  12.591   7.744  1.00  0.00     0.094 A 
ATOM      9  C   UNL     1       9.141  11.687   6.680  1.00  0.00     0.336 A 
ATOM     10  O   UNL     1      10.125  11.550   5.908  1.00  0.00    -0.246 OA
ATOM     11  O   UNL     1       8.039  10.968   6.477  1.00  0.00    -0.423 OA
ENDROOT
BRANCH   1  12
ATOM     12  O   UNL     1       3.539  11.341   9.701  1.00  0.00    -0.493 OA
ATOM     13  C   UNL     1       2.522  12.329   9.565  1.00  0.00     0.278 C 
ENDBRANCH   1  12
BRANCH   2  14
ATOM     14  O   UNL     1       3.547   9.612   7.582  1.00  0.00    -0.493 OA
ATOM     15  C   UNL     1       3.346   8.290   8.071  1.00  0.00     0.278 C 
ENDBRANCH   2  14
TORSDOF 2
ENDMDL
MODEL 5
REMARK VINA RESULT:    -4.881      1.270      5.648
REMARK INTER + INTRA:          -5.588
REMARK INTER:                  -5.588
REMARK INTRA:                   0.000
REMARK UNBOUND:                -0.136
REMARK SMILES COc1cc2ccc(=O)oc2cc1OC
REMARK SMILES IDX 3 1 13 2 12 3 11 4 5 5 4 6 6 7 7 8 8 9 9 10 10 11 2 12 1 13
REMARK SMILES IDX 14 14 15 15
REMARK H PARENT
REMARK Flexibility Score: inf
ROOT
ATOM      1  C   UNL     1       6.010  10.589   8.051  1.00  0.00     0.161 A 
ATOM      2  C   UNL     1       5.308  10.264   6.878  1.00  0.00     0.164 A 
ATOM      3  C   UNL     1       5.818  10.659   5.625  1.00  0.00     0.098 A 
ATOM      4  C   UNL     1       7.018  11.370   5.542  1.00  0.00     0.142 A 
ATOM      5  C   UNL     1       7.722  11.696   6.719  1.00  0.00     0.022 A 
ATOM      6  C   UNL     1       7.219  11.307   7.967  1.00  0.00     0.062 A 
ATOM      7  C   UNL     1       8.919  12.410   6.603  1.00  0.00     0.019 A 
ATOM      8  C   UNL     1       9.379  12.775   5.338  1.00  0.00     0.094 A 
ATOM      9  C   UNL     1       8.627  12.417   4.215  1.00  0.00     0.336 A 
ATOM     10  O   UNL     1       9.024  12.737   3.065  1.00  0.00    -0.246 OA
ATOM     11  O   UNL     1       7.490  11.738   4.354  1.00  0.00    -0.423 OA
ENDROOT
BRANCH   1  12
ATOM     12  O   UNL     1       5.472  10.180   9.282  1.00  0.00    -0.493 OA
ATOM     13  C   UNL     1       4.473  10.892  10.004  1.00  0.00     0.278 C 
ENDBRANCH   1  12
BRANCH   2  14
ATOM     14  O   UNL     1       4.107   9.547   6.998  1.00  0.00    -0.493 OA
ATOM     15  C   UNL     1       2.811  10.139   7.008  1.00  0.00     0.278 C 
ENDBRANCH   2  14
TORSDOF 2
ENDMDL
MODEL 6
REMARK VINA RESULT:    -4.858      1.707      5.220
REMARK INTER + INTRA:          -5.562
REMARK INTER:                  -5.514
REMARK INTRA:                  -0.048
REMARK UNBOUND:                -0.136
REMARK SMILES COc1cc2ccc(=O)oc2cc1OC
REMARK SMILES IDX 3 1 13 2 12 3 11 4 5 5 4 6 6 7 7 8 8 9 9 10 10 11 2 12 1 13
REMARK SMILES IDX 14 14 15 15
REMARK H PARENT
REMARK Flexibility Score: inf
ROOT
ATOM      1  C   UNL     1       4.518  10.871   7.395  1.00  0.00     0.161 A 
ATOM      2  C   UNL     1       5.146  11.860   8.172  1.00  0.00     0.164 A 
ATOM      3  C   UNL     1       6.300  12.506   7.682  1.00  0.00     0.098 A 
ATOM      4  C   UNL     1       6.821  12.171   6.430  1.00  0.00     0.142 A 
ATOM      5  C   UNL     1       6.190  11.179   5.652  1.00  0.00     0.022 A 
ATOM      6  C   UNL     1       5.045  10.533   6.132  1.00  0.00     0.062 A 
ATOM      7  C   UNL     1       6.737  10.865   4.402  1.00  0.00     0.019 A 
ATOM      8  C   UNL     1       7.880  11.536   3.967  1.00  0.00     0.094 A 
ATOM      9  C   UNL     1       8.451  12.508   4.795  1.00  0.00     0.336 A 
ATOM     10  O   UNL     1       9.482  13.125   4.420  1.00  0.00    -0.246 OA
ATOM     11  O   UNL     1       7.910  12.787   5.978  1.00  0.00    -0.423 OA
ENDROOT
BRANCH   1  12
ATOM     12  O   UNL     1       3.372  10.248   7.913  1.00  0.00    -0.493 OA
ATOM     13  C   UNL     1       3.348   8.942   8.480  1.00  0.00     0.278 C 
ENDBRANCH   1  12
BRANCH   2  14
ATOM     14  O   UNL     1       4.595  12.172   9.424  1.00  0.00    -0.493 OA
ATOM     15  C   UNL     1       3.481  13.036   9.623  1.00  0.00     0.278 C 
ENDBRANCH   2  14
TORSDOF 2
ENDMDL
MODEL 7
REMARK VINA RESULT:    -3.845     18.099     19.834
REMARK INTER + INTRA:          -4.431
REMARK INTER:                  -4.476
REMARK INTRA:                   0.045
REMARK UNBOUND:                -0.136
REMARK SMILES COc1cc2ccc(=O)oc2cc1OC
REMARK SMILES IDX 3 1 13 2 12 3 11 4 5 5 4 6 6 7 7 8 8 9 9 10 10 11 2 12 1 13
REMARK SMILES IDX 14 14 15 15
REMARK H PARENT
REMARK Flexibility Score: inf
ROOT
ATOM      1  C   UNL     1      -8.110   9.022  -6.880  1.00  0.00     0.161 A 
ATOM      2  C   UNL     1      -8.313  10.191  -6.126  1.00  0.00     0.164 A 
ATOM      3  C   UNL     1      -7.329  11.200  -6.121  1.00  0.00     0.098 A 
ATOM      4  C   UNL     1      -6.155  11.047  -6.862  1.00  0.00     0.142 A 
ATOM      5  C   UNL     1      -5.951   9.875  -7.618  1.00  0.00     0.022 A 
ATOM      6  C   UNL     1      -6.925   8.868  -7.626  1.00  0.00     0.062 A 
ATOM      7  C   UNL     1      -4.764   9.750  -8.349  1.00  0.00     0.019 A 
ATOM      8  C   UNL     1      -3.825  10.780  -8.308  1.00  0.00     0.094 A 
ATOM      9  C   UNL     1      -4.095  11.913  -7.535  1.00  0.00     0.336 A 
ATOM     10  O   UNL     1      -3.260  12.853  -7.485  1.00  0.00    -0.246 OA
ATOM     11  O   UNL     1      -5.232  12.006  -6.850  1.00  0.00    -0.423 OA
ENDROOT
BRANCH   1  12
ATOM     12  O   UNL     1      -9.111   8.038  -6.862  1.00  0.00    -0.493 OA
ATOM     13  C   UNL     1      -9.363   7.161  -5.769  1.00  0.00     0.278 C 
ENDBRANCH   1  12
BRANCH   2  14
ATOM     14  O   UNL     1      -9.505  10.312  -5.395  1.00  0.00    -0.493 OA
ATOM     15  C   UNL     1     -10.125  11.549  -5.061  1.00  0.00     0.278 C 
ENDBRANCH   2  14
TORSDOF 2
ENDMDL
MODEL 8
REMARK VINA RESULT:    -3.549     18.028     19.490
REMARK INTER + INTRA:          -4.099
REMARK INTER:                  -4.431
REMARK INTRA:                   0.331
REMARK UNBOUND:                -0.136
REMARK SMILES COc1cc2ccc(=O)oc2cc1OC
REMARK SMILES IDX 3 1 13 2 12 3 11 4 5 5 4 6 6 7 7 8 8 9 9 10 10 11 2 12 1 13
REMARK SMILES IDX 14 14 15 15
REMARK H PARENT
REMARK Flexibility Score: inf
ROOT
ATOM      1  C   UNL     1      -5.872  11.184  -6.779  1.00  0.00     0.161 A 
ATOM      2  C   UNL     1      -5.470  10.142  -7.632  1.00  0.00     0.164 A 
ATOM      3  C   UNL     1      -6.292   9.007  -7.786  1.00  0.00     0.098 A 
ATOM      4  C   UNL     1      -7.505   8.914  -7.099  1.00  0.00     0.142 A 
ATOM      5  C   UNL     1      -7.908   9.959  -6.244  1.00  0.00     0.022 A 
ATOM      6  C   UNL     1      -7.095  11.088  -6.085  1.00  0.00     0.062 A 
ATOM      7  C   UNL     1      -9.127   9.835  -5.568  1.00  0.00     0.019 A 
ATOM      8  C   UNL     1      -9.902   8.692  -5.759  1.00  0.00     0.094 A 
ATOM      9  C   UNL     1      -9.437   7.695  -6.622  1.00  0.00     0.336 A 
ATOM     10  O   UNL     1     -10.121   6.655  -6.808  1.00  0.00    -0.246 OA
ATOM     11  O   UNL     1      -8.273   7.838  -7.252  1.00  0.00    -0.423 OA
ENDROOT
BRANCH   1  12
ATOM     12  O   UNL     1      -5.028  12.299  -6.648  1.00  0.00    -0.493 OA
ATOM     13  C   UNL     1      -4.881  13.066  -5.458  1.00  0.00     0.278 C 
ENDBRANCH   1  12
BRANCH   2  14
ATOM     14  O   UNL     1      -4.246  10.270  -8.307  1.00  0.00    -0.493 OA
ATOM     15  C   UNL     1      -3.888  11.379  -9.125  1.00  0.00     0.278 C 
ENDBRANCH   2  14
TORSDOF 2
ENDMDL
MODEL 9
REMARK VINA RESULT:    -2.873     18.497     20.056
REMARK INTER + INTRA:          -3.345
REMARK INTER:                  -3.358
REMARK INTRA:                   0.014
REMARK UNBOUND:                -0.136
REMARK SMILES COc1cc2ccc(=O)oc2cc1OC
REMARK SMILES IDX 3 1 13 2 12 3 11 4 5 5 4 6 6 7 7 8 8 9 9 10 10 11 2 12 1 13
REMARK SMILES IDX 14 14 15 15
REMARK H PARENT
REMARK Flexibility Score: inf
ROOT
ATOM      1  C   UNL     1      -8.463  10.197  -6.093  1.00  0.00     0.161 A 
ATOM      2  C   UNL     1      -8.267   9.032  -6.855  1.00  0.00     0.164 A 
ATOM      3  C   UNL     1      -7.094   8.887  -7.622  1.00  0.00     0.098 A 
ATOM      4  C   UNL     1      -6.124   9.892  -7.629  1.00  0.00     0.142 A 
ATOM      5  C   UNL     1      -6.321  11.060  -6.864  1.00  0.00     0.022 A 
ATOM      6  C   UNL     1      -7.485  11.211  -6.101  1.00  0.00     0.062 A 
ATOM      7  C   UNL     1      -5.332  12.050  -6.893  1.00  0.00     0.019 A 
ATOM      8  C   UNL     1      -4.190  11.854  -7.669  1.00  0.00     0.094 A 
ATOM      9  C   UNL     1      -4.064  10.670  -8.402  1.00  0.00     0.336 A 
ATOM     10  O   UNL     1      -3.041  10.475  -9.109  1.00  0.00    -0.246 OA
ATOM     11  O   UNL     1      -5.020   9.745  -8.357  1.00  0.00    -0.423 OA
ENDROOT
BRANCH   1  12
ATOM     12  O   UNL     1      -9.643  10.307  -5.340  1.00  0.00    -0.493 OA
ATOM     13  C   UNL     1     -10.125  11.518  -4.766  1.00  0.00     0.278 C 
ENDBRANCH   1  12
BRANCH   2  14
ATOM     14  O   UNL     1      -9.261   8.042  -6.824  1.00  0.00    -0.493 OA
ATOM     15  C   UNL     1      -9.446   7.116  -5.757  1.00  0.00     0.278 C 
ENDBRANCH   2  14
TORSDOF 2
ENDMDL
