MODEL 1
REMARK VINA RESULT:    -5.865      0.000      0.000
REMARK INTER + INTRA:          -6.379
REMARK INTER:                  -6.379
REMARK INTRA:                   0.000
REMARK UNBOUND:                 0.000
REMARK SMILES Cc1cc(O)c2c(c1)C(=O)c1cc(O)cc(O)c1C2=O
REMARK SMILES IDX 1 1 2 2 8 3 7 4 6 5 4 6 3 7 19 8 20 9 18 10 11 11 9 12 10 13
REMARK SMILES IDX 12 14 13 15 15 16 16 17 5 18 17 20 14 22
REMARK H PARENT 5 19 17 21 14 23
REMARK Flexibility Score: inf
ROOT
ATOM      1  C   UNL     1     -12.700  19.665   1.058  1.00  0.00     0.044 C 
ATOM      2  C   UNL     1     -11.583  18.681   1.241  1.00  0.00    -0.047 A 
ATOM      3  C   UNL     1     -11.536  17.517   0.467  1.00  0.00     0.016 A 
ATOM      4  C   UNL     1     -10.510  16.575   0.652  1.00  0.00     0.038 A 
ATOM      5  C   UNL     1      -9.513  16.803   1.627  1.00  0.00     0.076 A 
ATOM      6  C   UNL     1      -9.615  17.942   2.465  1.00  0.00     0.127 A 
ATOM      7  C   UNL     1     -10.633  18.875   2.250  1.00  0.00     0.050 A 
ATOM      8  C   UNL     1      -8.365  15.863   1.691  1.00  0.00     0.201 C 
ATOM      9  O   UNL     1      -7.238  16.275   2.078  1.00  0.00    -0.288 OA
ATOM     10  C   UNL     1      -8.498  14.495   1.125  1.00  0.00     0.076 A 
ATOM     11  C   UNL     1      -9.498  14.270   0.152  1.00  0.00     0.041 A 
ATOM     12  C   UNL     1     -10.471  15.341  -0.169  1.00  0.00     0.194 C 
ATOM     13  O   UNL     1     -11.283  15.191  -1.123  1.00  0.00    -0.289 OA
ATOM     14  C   UNL     1      -9.566  13.030  -0.505  1.00  0.00     0.059 A 
ATOM     15  C   UNL     1      -8.666  12.011  -0.195  1.00  0.00     0.120 A 
ATOM     16  C   UNL     1      -7.702  12.215   0.796  1.00  0.00     0.093 A 
ATOM     17  C   UNL     1      -7.625  13.432   1.479  1.00  0.00     0.131 A 
ENDROOT
BRANCH   6  18
ATOM     18  O   UNL     1      -8.752  18.167   3.541  1.00  0.00    -0.507 OA
ATOM     19  H   UNL     1      -7.997  18.839   3.520  1.00  0.00     0.293 HD
ENDBRANCH   6  18
BRANCH  17  20
ATOM     20  O   UNL     1      -6.698  13.531   2.519  1.00  0.00    -0.507 OA
ATOM     21  H   UNL     1      -5.701  13.605   2.373  1.00  0.00     0.293 HD
ENDBRANCH  17  20
BRANCH  15  22
ATOM     22  O   UNL     1      -8.745  10.795  -0.869  1.00  0.00    -0.508 OA
ATOM     23  H   UNL     1      -9.290  10.022  -0.505  1.00  0.00     0.293 HD
ENDBRANCH  15  22
TORSDOF 3
ENDMDL
MODEL 2
REMARK VINA RESULT:    -5.828      2.524      6.261
REMARK INTER + INTRA:          -6.339
REMARK INTER:                  -6.339
REMARK INTRA:                   0.000
REMARK UNBOUND:                 0.000
REMARK SMILES Cc1cc(O)c2c(c1)C(=O)c1cc(O)cc(O)c1C2=O
REMARK SMILES IDX 1 1 2 2 8 3 7 4 6 5 4 6 3 7 19 8 20 9 18 10 11 11 9 12 10 13
REMARK SMILES IDX 12 14 13 15 15 16 16 17 5 18 17 20 14 22
REMARK H PARENT 5 19 17 21 14 23
REMARK Flexibility Score: inf
ROOT
ATOM      1  C   UNL     1      -7.652  14.129   1.391  1.00  0.00     0.044 C 
ATOM      2  C   UNL     1      -8.150  15.543   1.450  1.00  0.00    -0.047 A 
ATOM      3  C   UNL     1      -9.447  15.850   1.027  1.00  0.00     0.016 A 
ATOM      4  C   UNL     1      -9.913  17.175   1.051  1.00  0.00     0.038 A 
ATOM      5  C   UNL     1      -9.066  18.210   1.507  1.00  0.00     0.076 A 
ATOM      6  C   UNL     1      -7.725  17.904   1.853  1.00  0.00     0.127 A 
ATOM      7  C   UNL     1      -7.290  16.575   1.840  1.00  0.00     0.050 A 
ATOM      8  C   UNL     1      -9.640  19.572   1.659  1.00  0.00     0.201 C 
ATOM      9  O   UNL     1      -9.183  20.350   2.538  1.00  0.00    -0.288 OA
ATOM     10  C   UNL     1     -10.867  19.944   0.907  1.00  0.00     0.076 A 
ATOM     11  C   UNL     1     -11.711  18.907   0.451  1.00  0.00     0.041 A 
ATOM     12  C   UNL     1     -11.287  17.493   0.596  1.00  0.00     0.194 C 
ATOM     13  O   UNL     1     -12.088  16.562   0.306  1.00  0.00    -0.289 OA
ATOM     14  C   UNL     1     -12.946  19.220  -0.141  1.00  0.00     0.059 A 
ATOM     15  C   UNL     1     -13.341  20.548  -0.298  1.00  0.00     0.120 A 
ATOM     16  C   UNL     1     -12.492  21.578   0.114  1.00  0.00     0.093 A 
ATOM     17  C   UNL     1     -11.249  21.294   0.688  1.00  0.00     0.131 A 
ENDROOT
BRANCH   6  18
ATOM     18  O   UNL     1      -6.787  18.885   2.179  1.00  0.00    -0.507 OA
ATOM     19  H   UNL     1      -5.788  18.752   2.096  1.00  0.00     0.293 HD
ENDBRANCH   6  18
BRANCH  17  20
ATOM     20  O   UNL     1     -10.417  22.374   0.991  1.00  0.00    -0.507 OA
ATOM     21  H   UNL     1     -10.116  23.056   0.308  1.00  0.00     0.293 HD
ENDBRANCH  17  20
BRANCH  15  22
ATOM     22  O   UNL     1     -14.576  20.833  -0.877  1.00  0.00    -0.508 OA
ATOM     23  H   UNL     1     -15.445  20.544  -0.441  1.00  0.00     0.293 HD
ENDBRANCH  15  22
TORSDOF 3
ENDMDL
MODEL 3
REMARK VINA RESULT:    -5.451      1.419      6.267
REMARK INTER + INTRA:          -5.929
REMARK INTER:                  -5.929
REMARK INTRA:                   0.000
REMARK UNBOUND:                 0.000
REMARK SMILES Cc1cc(O)c2c(c1)C(=O)c1cc(O)cc(O)c1C2=O
REMARK SMILES IDX 1 1 2 2 8 3 7 4 6 5 4 6 3 7 19 8 20 9 18 10 11 11 9 12 10 13
REMARK SMILES IDX 12 14 13 15 15 16 16 17 5 18 17 20 14 22
REMARK H PARENT 5 19 17 21 14 23
REMARK Flexibility Score: inf
ROOT
ATOM      1  C   UNL     1      -6.122  10.913   2.769  1.00  0.00     0.044 C 
ATOM      2  C   UNL     1      -7.131  11.762   2.055  1.00  0.00    -0.047 A 
ATOM      3  C   UNL     1      -7.101  13.154   2.188  1.00  0.00     0.016 A 
ATOM      4  C   UNL     1      -8.060  13.956   1.547  1.00  0.00     0.038 A 
ATOM      5  C   UNL     1      -9.066  13.355   0.758  1.00  0.00     0.076 A 
ATOM      6  C   UNL     1      -9.142  11.940   0.697  1.00  0.00     0.127 A 
ATOM      7  C   UNL     1      -8.165  11.163   1.327  1.00  0.00     0.050 A 
ATOM      8  C   UNL     1      -9.969  14.239  -0.022  1.00  0.00     0.201 C 
ATOM      9  O   UNL     1     -10.456  13.833  -1.112  1.00  0.00    -0.288 OA
ATOM     10  C   UNL     1     -10.145  15.658   0.383  1.00  0.00     0.076 A 
ATOM     11  C   UNL     1      -9.138  16.256   1.174  1.00  0.00     0.041 A 
ATOM     12  C   UNL     1      -8.024  15.430   1.700  1.00  0.00     0.194 C 
ATOM     13  O   UNL     1      -7.059  15.980   2.298  1.00  0.00    -0.289 OA
ATOM     14  C   UNL     1      -9.200  17.629   1.463  1.00  0.00     0.059 A 
ATOM     15  C   UNL     1     -10.255  18.408   0.988  1.00  0.00     0.120 A 
ATOM     16  C   UNL     1     -11.274  17.813   0.240  1.00  0.00     0.093 A 
ATOM     17  C   UNL     1     -11.247  16.444  -0.044  1.00  0.00     0.131 A 
ENDROOT
BRANCH   6  18
ATOM     18  O   UNL     1     -10.184  11.267   0.055  1.00  0.00    -0.507 OA
ATOM     19  H   UNL     1     -10.955  11.736  -0.401  1.00  0.00     0.293 HD
ENDBRANCH   6  18
BRANCH  17  20
ATOM     20  O   UNL     1     -12.345  15.903  -0.717  1.00  0.00    -0.507 OA
ATOM     21  H   UNL     1     -12.272  15.397  -1.588  1.00  0.00     0.293 HD
ENDBRANCH  17  20
BRANCH  15  22
ATOM     22  O   UNL     1     -10.287  19.770   1.276  1.00  0.00    -0.508 OA
ATOM     23  H   UNL     1      -9.466  20.261   1.611  1.00  0.00     0.293 HD
ENDBRANCH  15  22
TORSDOF 3
ENDMDL
MODEL 4
REMARK VINA RESULT:    -5.419      1.622      3.928
REMARK INTER + INTRA:          -5.894
REMARK INTER:                  -5.894
REMARK INTRA:                   0.000
REMARK UNBOUND:                 0.000
REMARK SMILES Cc1cc(O)c2c(c1)C(=O)c1cc(O)cc(O)c1C2=O
REMARK SMILES IDX 1 1 2 2 8 3 7 4 6 5 4 6 3 7 19 8 20 9 18 10 11 11 9 12 10 13
REMARK SMILES IDX 12 14 13 15 15 16 16 17 5 18 17 20 14 22
REMARK H PARENT 5 19 17 21 14 23
REMARK Flexibility Score: inf
ROOT
ATOM      1  C   UNL     1     -11.363  22.706   0.879  1.00  0.00     0.044 C 
ATOM      2  C   UNL     1     -11.327  21.212   0.751  1.00  0.00    -0.047 A 
ATOM      3  C   UNL     1     -10.311  20.477   1.370  1.00  0.00     0.016 A 
ATOM      4  C   UNL     1     -10.252  19.080   1.232  1.00  0.00     0.038 A 
ATOM      5  C   UNL     1     -11.227  18.408   0.461  1.00  0.00     0.076 A 
ATOM      6  C   UNL     1     -12.202  19.167  -0.234  1.00  0.00     0.127 A 
ATOM      7  C   UNL     1     -12.253  20.554  -0.065  1.00  0.00     0.050 A 
ATOM      8  C   UNL     1     -11.220  16.922   0.459  1.00  0.00     0.201 C 
ATOM      9  O   UNL     1     -12.300  16.291   0.308  1.00  0.00    -0.288 OA
ATOM     10  C   UNL     1      -9.979  16.189   0.821  1.00  0.00     0.076 A 
ATOM     11  C   UNL     1      -9.005  16.865   1.591  1.00  0.00     0.041 A 
ATOM     12  C   UNL     1      -9.169  18.309   1.887  1.00  0.00     0.194 C 
ATOM     13  O   UNL     1      -8.371  18.885   2.676  1.00  0.00    -0.289 OA
ATOM     14  C   UNL     1      -7.884  16.166   2.068  1.00  0.00     0.059 A 
ATOM     15  C   UNL     1      -7.714  14.813   1.777  1.00  0.00     0.120 A 
ATOM     16  C   UNL     1      -8.652  14.151   0.982  1.00  0.00     0.093 A 
ATOM     17  C   UNL     1      -9.767  14.828   0.477  1.00  0.00     0.131 A 
ENDROOT
BRANCH   6  18
ATOM     18  O   UNL     1     -13.113  18.594  -1.125  1.00  0.00    -0.507 OA
ATOM     19  H   UNL     1     -12.928  17.745  -1.643  1.00  0.00     0.293 HD
ENDBRANCH   6  18
BRANCH  17  20
ATOM     20  O   UNL     1     -10.613  14.126  -0.384  1.00  0.00    -0.507 OA
ATOM     21  H   UNL     1     -11.130  13.302  -0.110  1.00  0.00     0.293 HD
ENDBRANCH  17  20
BRANCH  15  22
ATOM     22  O   UNL     1      -6.600  14.138   2.273  1.00  0.00    -0.508 OA
ATOM     23  H   UNL     1      -5.678  14.558   2.261  1.00  0.00     0.293 HD
ENDBRANCH  15  22
TORSDOF 3
ENDMDL
MODEL 5
REMARK VINA RESULT:    -5.338      1.814      5.432
REMARK INTER + INTRA:          -5.806
REMARK INTER:                  -5.806
REMARK INTRA:                   0.000
REMARK UNBOUND:                 0.000
REMARK SMILES Cc1cc(O)c2c(c1)C(=O)c1cc(O)cc(O)c1C2=O
REMARK SMILES IDX 1 1 2 2 8 3 7 4 6 5 4 6 3 7 19 8 20 9 18 10 11 11 9 12 10 13
REMARK SMILES IDX 12 14 13 15 15 16 16 17 5 18 17 20 14 22
REMARK H PARENT 5 19 17 21 14 23
REMARK Flexibility Score: inf
ROOT
ATOM      1  C   UNL     1      -9.391   9.875  -0.184  1.00  0.00     0.044 C 
ATOM      2  C   UNL     1      -9.057  11.261   0.282  1.00  0.00    -0.047 A 
ATOM      3  C   UNL     1      -9.758  12.361  -0.222  1.00  0.00     0.016 A 
ATOM      4  C   UNL     1      -9.433  13.666   0.186  1.00  0.00     0.038 A 
ATOM      5  C   UNL     1      -8.388  13.872   1.115  1.00  0.00     0.076 A 
ATOM      6  C   UNL     1      -7.626  12.761   1.555  1.00  0.00     0.127 A 
ATOM      7  C   UNL     1      -7.981  11.470   1.151  1.00  0.00     0.050 A 
ATOM      8  C   UNL     1      -8.172  15.247   1.635  1.00  0.00     0.201 C 
ATOM      9  O   UNL     1      -7.711  15.412   2.796  1.00  0.00    -0.288 OA
ATOM     10  C   UNL     1      -8.671  16.415   0.863  1.00  0.00     0.076 A 
ATOM     11  C   UNL     1      -9.715  16.205  -0.066  1.00  0.00     0.041 A 
ATOM     12  C   UNL     1     -10.177  14.827  -0.357  1.00  0.00     0.194 C 
ATOM     13  O   UNL     1     -11.189  14.643  -1.088  1.00  0.00    -0.289 OA
ATOM     14  C   UNL     1     -10.306  17.303  -0.713  1.00  0.00     0.059 A 
ATOM     15  C   UNL     1      -9.862  18.600  -0.458  1.00  0.00     0.120 A 
ATOM     16  C   UNL     1      -8.803  18.810   0.429  1.00  0.00     0.093 A 
ATOM     17  C   UNL     1      -8.184  17.733   1.070  1.00  0.00     0.131 A 
ENDROOT
BRANCH   6  18
ATOM     18  O   UNL     1      -6.493  12.894   2.361  1.00  0.00    -0.507 OA
ATOM     19  H   UNL     1      -6.256  12.249   3.103  1.00  0.00     0.293 HD
ENDBRANCH   6  18
BRANCH  17  20
ATOM     20  O   UNL     1      -7.074  18.011   1.872  1.00  0.00    -0.507 OA
ATOM     21  H   UNL     1      -6.150  18.186   1.504  1.00  0.00     0.293 HD
ENDBRANCH  17  20
BRANCH  15  22
ATOM     22  O   UNL     1     -10.473  19.674  -1.102  1.00  0.00    -0.508 OA
ATOM     23  H   UNL     1      -9.958  20.516  -1.334  1.00  0.00     0.293 HD
ENDBRANCH  15  22
TORSDOF 3
ENDMDL
MODEL 6
REMARK VINA RESULT:    -5.324      1.915      3.819
REMARK INTER + INTRA:          -5.791
REMARK INTER:                  -5.791
REMARK INTRA:                   0.000
REMARK UNBOUND:                 0.000
REMARK SMILES Cc1cc(O)c2c(c1)C(=O)c1cc(O)cc(O)c1C2=O
REMARK SMILES IDX 1 1 2 2 8 3 7 4 6 5 4 6 3 7 19 8 20 9 18 10 11 11 9 12 10 13
REMARK SMILES IDX 12 14 13 15 15 16 16 17 5 18 17 20 14 22
REMARK H PARENT 5 19 17 21 14 23
REMARK Flexibility Score: inf
ROOT
ATOM      1  C   UNL     1      -6.688  20.369   3.725  1.00  0.00     0.044 C 
ATOM      2  C   UNL     1      -7.752  19.597   3.003  1.00  0.00    -0.047 A 
ATOM      3  C   UNL     1      -7.539  18.259   2.657  1.00  0.00     0.016 A 
ATOM      4  C   UNL     1      -8.519  17.536   1.956  1.00  0.00     0.038 A 
ATOM      5  C   UNL     1      -9.732  18.163   1.595  1.00  0.00     0.076 A 
ATOM      6  C   UNL     1      -9.906  19.543   1.874  1.00  0.00     0.127 A 
ATOM      7  C   UNL     1      -8.926  20.236   2.590  1.00  0.00     0.050 A 
ATOM      8  C   UNL     1     -10.801  17.329   0.988  1.00  0.00     0.201 C 
ATOM      9  O   UNL     1     -12.011  17.632   1.169  1.00  0.00    -0.288 OA
ATOM     10  C   UNL     1     -10.450  16.042   0.333  1.00  0.00     0.076 A 
ATOM     11  C   UNL     1      -9.235  15.418   0.694  1.00  0.00     0.041 A 
ATOM     12  C   UNL     1      -8.282  16.120   1.588  1.00  0.00     0.194 C 
ATOM     13  O   UNL     1      -7.257  15.519   2.013  1.00  0.00    -0.289 OA
ATOM     14  C   UNL     1      -8.933  14.138   0.202  1.00  0.00     0.059 A 
ATOM     15  C   UNL     1      -9.816  13.481  -0.655  1.00  0.00     0.120 A 
ATOM     16  C   UNL     1     -11.000  14.110  -1.048  1.00  0.00     0.093 A 
ATOM     17  C   UNL     1     -11.315  15.392  -0.588  1.00  0.00     0.131 A 
ENDROOT
BRANCH   6  18
ATOM     18  O   UNL     1     -11.014  20.269   1.429  1.00  0.00    -0.507 OA
ATOM     19  H   UNL     1     -11.622  19.959   0.684  1.00  0.00     0.293 HD
ENDBRANCH   6  18
BRANCH  17  20
ATOM     20  O   UNL     1     -12.469  15.994  -1.094  1.00  0.00    -0.507 OA
ATOM     21  H   UNL     1     -12.941  16.765  -0.643  1.00  0.00     0.293 HD
ENDBRANCH  17  20
BRANCH  15  22
ATOM     22  O   UNL     1      -9.501  12.205  -1.120  1.00  0.00    -0.508 OA
ATOM     23  H   UNL     1      -8.912  11.577  -0.586  1.00  0.00     0.293 HD
ENDBRANCH  15  22
TORSDOF 3
ENDMDL
MODEL 7
REMARK VINA RESULT:    -4.675      2.571      4.741
REMARK INTER + INTRA:          -5.085
REMARK INTER:                  -5.085
REMARK INTRA:                   0.000
REMARK UNBOUND:                 0.000
REMARK SMILES Cc1cc(O)c2c(c1)C(=O)c1cc(O)cc(O)c1C2=O
REMARK SMILES IDX 1 1 2 2 8 3 7 4 6 5 4 6 3 7 19 8 20 9 18 10 11 11 9 12 10 13
REMARK SMILES IDX 12 14 13 15 15 16 16 17 5 18 17 20 14 22
REMARK H PARENT 5 19 17 21 14 23
REMARK Flexibility Score: inf
ROOT
ATOM      1  C   UNL     1      -7.334  20.371   3.745  1.00  0.00     0.044 C 
ATOM      2  C   UNL     1      -7.922  19.362   2.804  1.00  0.00    -0.047 A 
ATOM      3  C   UNL     1      -9.236  19.506   2.348  1.00  0.00     0.016 A 
ATOM      4  C   UNL     1      -9.805  18.551   1.489  1.00  0.00     0.038 A 
ATOM      5  C   UNL     1      -9.045  17.432   1.079  1.00  0.00     0.076 A 
ATOM      6  C   UNL     1      -7.744  17.248   1.613  1.00  0.00     0.127 A 
ATOM      7  C   UNL     1      -7.191  18.222   2.450  1.00  0.00     0.050 A 
ATOM      8  C   UNL     1      -9.626  16.525   0.057  1.00  0.00     0.201 C 
ATOM      9  O   UNL     1      -8.866  15.907  -0.737  1.00  0.00    -0.288 OA
ATOM     10  C   UNL     1     -11.097  16.492  -0.151  1.00  0.00     0.076 A 
ATOM     11  C   UNL     1     -11.855  17.612   0.262  1.00  0.00     0.041 A 
ATOM     12  C   UNL     1     -11.201  18.708   1.016  1.00  0.00     0.194 C 
ATOM     13  O   UNL     1     -11.841  19.763   1.277  1.00  0.00    -0.289 OA
ATOM     14  C   UNL     1     -13.225  17.678  -0.040  1.00  0.00     0.059 A 
ATOM     15  C   UNL     1     -13.850  16.641  -0.732  1.00  0.00     0.120 A 
ATOM     16  C   UNL     1     -13.115  15.514  -1.107  1.00  0.00     0.093 A 
ATOM     17  C   UNL     1     -11.754  15.414  -0.801  1.00  0.00     0.131 A 
ENDROOT
BRANCH   6  18
ATOM     18  O   UNL     1      -6.983  16.103   1.368  1.00  0.00    -0.507 OA
ATOM     19  H   UNL     1      -6.405  15.656   2.067  1.00  0.00     0.293 HD
ENDBRANCH   6  18
BRANCH  17  20
ATOM     20  O   UNL     1     -11.106  14.220  -1.125  1.00  0.00    -0.507 OA
ATOM     21  H   UNL     1     -11.560  13.317  -1.114  1.00  0.00     0.293 HD
ENDBRANCH  17  20
BRANCH  15  22
ATOM     22  O   UNL     1     -15.208  16.736  -1.032  1.00  0.00    -0.508 OA
ATOM     23  H   UNL     1     -15.918  16.595  -0.323  1.00  0.00     0.293 HD
ENDBRANCH  15  22
TORSDOF 3
ENDMDL
MODEL 8
REMARK VINA RESULT:    -4.649      3.959      6.251
REMARK INTER + INTRA:          -5.056
REMARK INTER:                  -5.056
REMARK INTRA:                   0.000
REMARK UNBOUND:                 0.000
REMARK SMILES Cc1cc(O)c2c(c1)C(=O)c1cc(O)cc(O)c1C2=O
REMARK SMILES IDX 1 1 2 2 8 3 7 4 6 5 4 6 3 7 19 8 20 9 18 10 11 11 9 12 10 13
REMARK SMILES IDX 12 14 13 15 15 16 16 17 5 18 17 20 14 22
REMARK H PARENT 5 19 17 21 14 23
REMARK Flexibility Score: inf
ROOT
ATOM      1  C   UNL     1     -12.358  16.489   0.031  1.00  0.00     0.044 C 
ATOM      2  C   UNL     1     -11.178  17.169   0.660  1.00  0.00    -0.047 A 
ATOM      3  C   UNL     1     -11.059  17.229   2.052  1.00  0.00     0.016 A 
ATOM      4  C   UNL     1      -9.973  17.889   2.650  1.00  0.00     0.038 A 
ATOM      5  C   UNL     1      -8.988  18.498   1.841  1.00  0.00     0.076 A 
ATOM      6  C   UNL     1      -9.159  18.507   0.433  1.00  0.00     0.127 A 
ATOM      7  C   UNL     1     -10.238  17.827  -0.140  1.00  0.00     0.050 A 
ATOM      8  C   UNL     1      -7.780  19.054   2.503  1.00  0.00     0.201 C 
ATOM      9  O   UNL     1      -6.681  19.075   1.887  1.00  0.00    -0.288 OA
ATOM     10  C   UNL     1      -7.827  19.410   3.946  1.00  0.00     0.076 A 
ATOM     11  C   UNL     1      -8.815  18.801   4.752  1.00  0.00     0.041 A 
ATOM     12  C   UNL     1      -9.858  17.953   4.127  1.00  0.00     0.194 C 
ATOM     13  O   UNL     1     -10.664  17.308   4.852  1.00  0.00    -0.289 OA
ATOM     14  C   UNL     1      -8.806  19.005   6.142  1.00  0.00     0.059 A 
ATOM     15  C   UNL     1      -7.839  19.817   6.733  1.00  0.00     0.120 A 
ATOM     16  C   UNL     1      -6.885  20.455   5.936  1.00  0.00     0.093 A 
ATOM     17  C   UNL     1      -6.884  20.285   4.548  1.00  0.00     0.131 A 
ENDROOT
BRANCH   6  18
ATOM     18  O   UNL     1      -8.307  19.204  -0.426  1.00  0.00    -0.507 OA
ATOM     19  H   UNL     1      -8.598  19.576  -1.320  1.00  0.00     0.293 HD
ENDBRANCH   6  18
BRANCH  17  20
ATOM     20  O   UNL     1      -5.959  21.025   3.808  1.00  0.00    -0.507 OA
ATOM     21  H   UNL     1      -5.572  21.905   4.118  1.00  0.00     0.293 HD
ENDBRANCH  17  20
BRANCH  15  22
ATOM     22  O   UNL     1      -7.843  19.994   8.116  1.00  0.00    -0.508 OA
ATOM     23  H   UNL     1      -8.423  19.425   8.721  1.00  0.00     0.293 HD
ENDBRANCH  15  22
TORSDOF 3
ENDMDL
MODEL 9
REMARK VINA RESULT:    -4.490      3.373      6.516
REMARK INTER + INTRA:          -4.883
REMARK INTER:                  -4.883
REMARK INTRA:                   0.000
REMARK UNBOUND:                 0.000
REMARK SMILES Cc1cc(O)c2c(c1)C(=O)c1cc(O)cc(O)c1C2=O
REMARK SMILES IDX 1 1 2 2 8 3 7 4 6 5 4 6 3 7 19 8 20 9 18 10 11 11 9 12 10 13
REMARK SMILES IDX 12 14 13 15 15 16 16 17 5 18 17 20 14 22
REMARK H PARENT 5 19 17 21 14 23
REMARK Flexibility Score: inf
ROOT
ATOM      1  C   UNL     1      -6.713  20.255   3.572  1.00  0.00     0.044 C 
ATOM      2  C   UNL     1      -7.772  19.667   2.687  1.00  0.00    -0.047 A 
ATOM      3  C   UNL     1      -8.804  20.471   2.194  1.00  0.00     0.016 A 
ATOM      4  C   UNL     1      -9.816  19.924   1.388  1.00  0.00     0.038 A 
ATOM      5  C   UNL     1      -9.794  18.548   1.070  1.00  0.00     0.076 A 
ATOM      6  C   UNL     1      -8.793  17.722   1.643  1.00  0.00     0.127 A 
ATOM      7  C   UNL     1      -7.785  18.293   2.425  1.00  0.00     0.050 A 
ATOM      8  C   UNL     1     -10.793  18.035   0.097  1.00  0.00     0.201 C 
ATOM      9  O   UNL     1     -10.506  17.052  -0.637  1.00  0.00    -0.288 OA
ATOM     10  C   UNL     1     -12.048  18.794  -0.140  1.00  0.00     0.076 A 
ATOM     11  C   UNL     1     -12.068  20.170   0.181  1.00  0.00     0.041 A 
ATOM     12  C   UNL     1     -10.910  20.782   0.875  1.00  0.00     0.194 C 
ATOM     13  O   UNL     1     -10.869  22.031   1.052  1.00  0.00    -0.289 OA
ATOM     14  C   UNL     1     -13.187  20.950  -0.155  1.00  0.00     0.059 A 
ATOM     15  C   UNL     1     -14.288  20.376  -0.790  1.00  0.00     0.120 A 
ATOM     16  C   UNL     1     -14.290  19.008  -1.073  1.00  0.00     0.093 A 
ATOM     17  C   UNL     1     -13.198  18.205  -0.731  1.00  0.00     0.131 A 
ENDROOT
BRANCH   6  18
ATOM     18  O   UNL     1      -8.782  16.333   1.491  1.00  0.00    -0.507 OA
ATOM     19  H   UNL     1      -9.509  15.727   1.844  1.00  0.00     0.293 HD
ENDBRANCH   6  18
BRANCH  17  20
ATOM     20  O   UNL     1     -13.309  16.832  -0.962  1.00  0.00    -0.507 OA
ATOM     21  H   UNL     1     -14.173  16.318  -0.867  1.00  0.00     0.293 HD
ENDBRANCH  17  20
BRANCH  15  22
ATOM     22  O   UNL     1     -15.380  21.173  -1.125  1.00  0.00    -0.508 OA
ATOM     23  H   UNL     1     -16.311  20.969  -0.778  1.00  0.00     0.293 HD
ENDBRANCH  15  22
TORSDOF 3
ENDMDL
