MODEL 1
REMARK VINA RESULT:    -4.034      0.000      0.000
REMARK INTER + INTRA:          -5.330
REMARK INTER:                  -5.213
REMARK INTRA:                  -0.117
REMARK UNBOUND:                -0.117
REMARK SMILES CCCCCCC(=O)[O-]
REMARK SMILES IDX 5 1 6 2 7 3 8 4 9 5 4 6 3 7 2 8 1 9
REMARK H PARENT
REMARK Flexibility Score: inf
ROOT
ATOM      1  C   UNL     1       9.318   7.901  79.693  1.00  0.00     0.006 C 
ENDROOT
BRANCH   1   2
ATOM      2  C   UNL     1       9.013   6.687  78.802  1.00  0.00     0.053 C 
BRANCH   2   3
ATOM      3  C   UNL     1       9.072   5.402  79.571  1.00  0.00     0.041 C 
ATOM      4  O   UNL     1       8.023   4.903  80.054  1.00  0.00    -0.550 OA
ATOM      5  O   UNL     1      10.293   4.774  79.780  1.00  0.00    -0.550 OA
ENDBRANCH   2   3
ENDBRANCH   1   2
BRANCH   1   6
ATOM      6  C   UNL     1       8.099   8.799  79.986  1.00  0.00     0.000 C 
BRANCH   6   7
ATOM      7  C   UNL     1       6.953   8.116  80.759  1.00  0.00    -0.000 C 
BRANCH   7   8
ATOM      8  C   UNL     1       6.201   9.028  81.743  1.00  0.00    -0.003 C 
ATOM      9  C   UNL     1       4.858   8.448  82.185  1.00  0.00     0.004 C 
ENDBRANCH   7   8
ENDBRANCH   6   7
ENDBRANCH   1   6
TORSDOF 5
ENDMDL
MODEL 2
REMARK VINA RESULT:    -3.890      1.377      2.250
REMARK INTER + INTRA:          -5.144
REMARK INTER:                  -4.992
REMARK INTRA:                  -0.152
REMARK UNBOUND:                -0.117
REMARK SMILES CCCCCCC(=O)[O-]
REMARK SMILES IDX 5 1 6 2 7 3 8 4 9 5 4 6 3 7 2 8 1 9
REMARK H PARENT
REMARK Flexibility Score: inf
ROOT
ATOM      1  C   UNL     1       6.749   7.675  80.668  1.00  0.00     0.006 C 
ENDROOT
BRANCH   1   2
ATOM      2  C   UNL     1       8.011   8.030  79.867  1.00  0.00     0.053 C 
BRANCH   2   3
ATOM      3  C   UNL     1       8.781   6.809  79.468  1.00  0.00     0.041 C 
ATOM      4  O   UNL     1       8.288   5.663  79.640  1.00  0.00    -0.550 OA
ATOM      5  O   UNL     1      10.059   6.936  78.937  1.00  0.00    -0.550 OA
ENDBRANCH   2   3
ENDBRANCH   1   2
BRANCH   1   6
ATOM      6  C   UNL     1       6.355   8.718  81.732  1.00  0.00     0.000 C 
BRANCH   6   7
ATOM      7  C   UNL     1       4.888   8.653  82.202  1.00  0.00    -0.000 C 
BRANCH   7   8
ATOM      8  C   UNL     1       4.213  10.018  82.413  1.00  0.00    -0.003 C 
ATOM      9  C   UNL     1       4.820  11.123  81.549  1.00  0.00     0.004 C 
ENDBRANCH   7   8
ENDBRANCH   6   7
ENDBRANCH   1   6
TORSDOF 5
ENDMDL
MODEL 3
REMARK VINA RESULT:    -3.857      3.571      5.366
REMARK INTER + INTRA:          -5.102
REMARK INTER:                  -4.980
REMARK INTRA:                  -0.122
REMARK UNBOUND:                -0.117
REMARK SMILES CCCCCCC(=O)[O-]
REMARK SMILES IDX 5 1 6 2 7 3 8 4 9 5 4 6 3 7 2 8 1 9
REMARK H PARENT
REMARK Flexibility Score: inf
ROOT
ATOM      1  C   UNL     1       6.951   8.686  81.292  1.00  0.00     0.006 C 
ENDROOT
BRANCH   1   2
ATOM      2  C   UNL     1       5.572   8.803  81.960  1.00  0.00     0.053 C 
BRANCH   2   3
ATOM      3  C   UNL     1       5.024  10.194  81.867  1.00  0.00     0.041 C 
ATOM      4  O   UNL     1       4.091  10.561  82.629  1.00  0.00    -0.550 OA
ATOM      5  O   UNL     1       5.522  11.076  80.916  1.00  0.00    -0.550 OA
ENDBRANCH   2   3
ENDBRANCH   1   2
BRANCH   1   6
ATOM      6  C   UNL     1       7.121   7.444  80.395  1.00  0.00     0.000 C 
BRANCH   6   7
ATOM      7  C   UNL     1       8.076   7.626  79.198  1.00  0.00    -0.000 C 
BRANCH   7   8
ATOM      8  C   UNL     1       9.235   6.617  79.135  1.00  0.00    -0.003 C 
ATOM      9  C   UNL     1       8.838   5.221  79.614  1.00  0.00     0.004 C 
ENDBRANCH   7   8
ENDBRANCH   6   7
ENDBRANCH   1   6
TORSDOF 5
ENDMDL
MODEL 4
REMARK VINA RESULT:    -3.853      1.490      2.677
REMARK INTER + INTRA:          -5.097
REMARK INTER:                  -4.887
REMARK INTRA:                  -0.209
REMARK UNBOUND:                -0.117
REMARK SMILES CCCCCCC(=O)[O-]
REMARK SMILES IDX 5 1 6 2 7 3 8 4 9 5 4 6 3 7 2 8 1 9
REMARK H PARENT
REMARK Flexibility Score: inf
ROOT
ATOM      1  C   UNL     1       6.762   6.869  79.764  1.00  0.00     0.006 C 
ENDROOT
BRANCH   1   2
ATOM      2  C   UNL     1       7.466   5.521  79.984  1.00  0.00     0.053 C 
BRANCH   2   3
ATOM      3  C   UNL     1       8.865   5.528  79.448  1.00  0.00     0.041 C 
ATOM      4  O   UNL     1       9.694   4.659  79.825  1.00  0.00    -0.550 OA
ATOM      5  O   UNL     1       9.263   6.517  78.556  1.00  0.00    -0.550 OA
ENDBRANCH   2   3
ENDBRANCH   1   2
BRANCH   1   6
ATOM      6  C   UNL     1       7.227   7.993  80.712  1.00  0.00     0.000 C 
BRANCH   6   7
ATOM      7  C   UNL     1       7.254   9.404  80.092  1.00  0.00    -0.000 C 
BRANCH   7   8
ATOM      8  C   UNL     1       8.644   9.894  79.653  1.00  0.00    -0.003 C 
ATOM      9  C   UNL     1       9.782   9.219  80.418  1.00  0.00     0.004 C 
ENDBRANCH   7   8
ENDBRANCH   6   7
ENDBRANCH   1   6
TORSDOF 5
ENDMDL
MODEL 5
REMARK VINA RESULT:    -3.754      1.876      2.577
REMARK INTER + INTRA:          -4.968
REMARK INTER:                  -4.823
REMARK INTRA:                  -0.146
REMARK UNBOUND:                -0.117
REMARK SMILES CCCCCCC(=O)[O-]
REMARK SMILES IDX 5 1 6 2 7 3 8 4 9 5 4 6 3 7 2 8 1 9
REMARK H PARENT
REMARK Flexibility Score: inf
ROOT
ATOM      1  C   UNL     1       8.577   5.792  79.686  1.00  0.00     0.006 C 
ENDROOT
BRANCH   1   2
ATOM      2  C   UNL     1       9.125   6.841  78.706  1.00  0.00     0.053 C 
BRANCH   2   3
ATOM      3  C   UNL     1      10.280   7.598  79.287  1.00  0.00     0.041 C 
ATOM      4  O   UNL     1      11.420   7.069  79.347  1.00  0.00    -0.550 OA
ATOM      5  O   UNL     1      10.088   8.878  79.792  1.00  0.00    -0.550 OA
ENDBRANCH   2   3
ENDBRANCH   1   2
BRANCH   1   6
ATOM      6  C   UNL     1       7.046   5.822  79.862  1.00  0.00     0.000 C 
BRANCH   6   7
ATOM      7  C   UNL     1       6.423   7.231  79.933  1.00  0.00    -0.000 C 
BRANCH   7   8
ATOM      8  C   UNL     1       6.938   8.111  81.083  1.00  0.00    -0.003 C 
ATOM      9  C   UNL     1       5.815   8.816  81.843  1.00  0.00     0.004 C 
ENDBRANCH   7   8
ENDBRANCH   6   7
ENDBRANCH   1   6
TORSDOF 5
ENDMDL
MODEL 6
REMARK VINA RESULT:    -3.714      3.991      5.895
REMARK INTER + INTRA:          -4.917
REMARK INTER:                  -4.850
REMARK INTRA:                  -0.067
REMARK UNBOUND:                -0.117
REMARK SMILES CCCCCCC(=O)[O-]
REMARK SMILES IDX 5 1 6 2 7 3 8 4 9 5 4 6 3 7 2 8 1 9
REMARK H PARENT
REMARK Flexibility Score: inf
ROOT
ATOM      1  C   UNL     1       5.580   8.477  81.869  1.00  0.00     0.006 C 
ENDROOT
BRANCH   1   2
ATOM      2  C   UNL     1       5.190   9.885  82.345  1.00  0.00     0.053 C 
BRANCH   2   3
ATOM      3  C   UNL     1       3.716  10.006  82.581  1.00  0.00     0.041 C 
ATOM      4  O   UNL     1       3.081  10.997  82.135  1.00  0.00    -0.550 OA
ATOM      5  O   UNL     1       3.049   9.039  83.323  1.00  0.00    -0.550 OA
ENDBRANCH   2   3
ENDBRANCH   1   2
BRANCH   1   6
ATOM      6  C   UNL     1       6.870   8.424  81.027  1.00  0.00     0.000 C 
BRANCH   6   7
ATOM      7  C   UNL     1       6.974   7.226  80.062  1.00  0.00    -0.000 C 
BRANCH   7   8
ATOM      8  C   UNL     1       8.408   6.830  79.672  1.00  0.00    -0.003 C 
ATOM      9  C   UNL     1       8.637   5.319  79.700  1.00  0.00     0.004 C 
ENDBRANCH   7   8
ENDBRANCH   6   7
ENDBRANCH   1   6
TORSDOF 5
ENDMDL
MODEL 7
REMARK VINA RESULT:    -3.630      7.886      9.033
REMARK INTER + INTRA:          -4.808
REMARK INTER:                  -4.662
REMARK INTRA:                  -0.146
REMARK UNBOUND:                -0.117
REMARK SMILES CCCCCCC(=O)[O-]
REMARK SMILES IDX 5 1 6 2 7 3 8 4 9 5 4 6 3 7 2 8 1 9
REMARK H PARENT
REMARK Flexibility Score: inf
ROOT
ATOM      1  C   UNL     1       2.693   5.429  85.555  1.00  0.00     0.006 C 
ENDROOT
BRANCH   1   2
ATOM      2  C   UNL     1       1.818   4.847  86.676  1.00  0.00     0.053 C 
BRANCH   2   3
ATOM      3  C   UNL     1       2.334   3.526  87.158  1.00  0.00     0.041 C 
ATOM      4  O   UNL     1       3.368   3.023  86.646  1.00  0.00    -0.550 OA
ATOM      5  O   UNL     1       1.652   2.834  88.152  1.00  0.00    -0.550 OA
ENDBRANCH   2   3
ENDBRANCH   1   2
BRANCH   1   6
ATOM      6  C   UNL     1       2.627   6.964  85.427  1.00  0.00     0.000 C 
BRANCH   6   7
ATOM      7  C   UNL     1       2.004   7.696  86.633  1.00  0.00    -0.000 C 
BRANCH   7   8
ATOM      8  C   UNL     1       2.738   8.976  87.065  1.00  0.00    -0.003 C 
ATOM      9  C   UNL     1       2.392   9.410  88.489  1.00  0.00     0.004 C 
ENDBRANCH   7   8
ENDBRANCH   6   7
ENDBRANCH   1   6
TORSDOF 5
ENDMDL
MODEL 8
REMARK VINA RESULT:    -3.573      8.141      9.505
REMARK INTER + INTRA:          -4.734
REMARK INTER:                  -4.549
REMARK INTRA:                  -0.185
REMARK UNBOUND:                -0.117
REMARK SMILES CCCCCCC(=O)[O-]
REMARK SMILES IDX 5 1 6 2 7 3 8 4 9 5 4 6 3 7 2 8 1 9
REMARK H PARENT
REMARK Flexibility Score: inf
ROOT
ATOM      1  C   UNL     1       2.793   6.803  85.581  1.00  0.00     0.006 C 
ENDROOT
BRANCH   1   2
ATOM      2  C   UNL     1       1.938   7.580  86.593  1.00  0.00     0.053 C 
BRANCH   2   3
ATOM      3  C   UNL     1       2.565   8.888  86.967  1.00  0.00     0.041 C 
ATOM      4  O   UNL     1       2.675   9.216  88.177  1.00  0.00    -0.550 OA
ATOM      5  O   UNL     1       2.998   9.759  85.975  1.00  0.00    -0.550 OA
ENDBRANCH   2   3
ENDBRANCH   1   2
BRANCH   1   6
ATOM      6  C   UNL     1       2.604   5.274  85.627  1.00  0.00     0.000 C 
BRANCH   6   7
ATOM      7  C   UNL     1       1.645   4.765  86.722  1.00  0.00    -0.000 C 
BRANCH   7   8
ATOM      8  C   UNL     1       2.111   3.495  87.453  1.00  0.00    -0.003 C 
ATOM      9  C   UNL     1       3.361   2.874  86.831  1.00  0.00     0.004 C 
ENDBRANCH   7   8
ENDBRANCH   6   7
ENDBRANCH   1   6
TORSDOF 5
ENDMDL
MODEL 9
REMARK VINA RESULT:    -3.442      4.359      6.054
REMARK INTER + INTRA:          -4.565
REMARK INTER:                  -4.460
REMARK INTRA:                  -0.105
REMARK UNBOUND:                -0.117
REMARK SMILES CCCCCCC(=O)[O-]
REMARK SMILES IDX 5 1 6 2 7 3 8 4 9 5 4 6 3 7 2 8 1 9
REMARK H PARENT
REMARK Flexibility Score: inf
ROOT
ATOM      1  C   UNL     1       5.305   8.716  82.077  1.00  0.00     0.006 C 
ENDROOT
BRANCH   1   2
ATOM      2  C   UNL     1       4.601  10.081  82.124  1.00  0.00     0.053 C 
BRANCH   2   3
ATOM      3  C   UNL     1       3.434  10.075  83.063  1.00  0.00     0.041 C 
ATOM      4  O   UNL     1       2.282   9.790  82.642  1.00  0.00    -0.550 OA
ATOM      5  O   UNL     1       3.613  10.418  84.397  1.00  0.00    -0.550 OA
ENDBRANCH   2   3
ENDBRANCH   1   2
BRANCH   1   6
ATOM      6  C   UNL     1       6.668   8.726  81.357  1.00  0.00     0.000 C 
BRANCH   6   7
ATOM      7  C   UNL     1       6.920   7.532  80.415  1.00  0.00    -0.000 C 
BRANCH   7   8
ATOM      8  C   UNL     1       8.346   7.443  79.847  1.00  0.00    -0.003 C 
ATOM      9  C   UNL     1       9.112   8.762  79.950  1.00  0.00     0.004 C 
ENDBRANCH   7   8
ENDBRANCH   6   7
ENDBRANCH   1   6
TORSDOF 5
ENDMDL
