MODEL 1
REMARK VINA RESULT:    -4.121      0.000      0.000
REMARK INTER + INTRA:          -7.457
REMARK INTER:                  -6.049
REMARK INTRA:                  -1.408
REMARK UNBOUND:                -1.408
REMARK SMILES O=c1c(O[C@H]2O[C@H](CO)[C@H](O)[C@@H](O)[C@@H]2O)c(-c2ccc(O)c(O)c2)oc2cc(O)cc(O)c12
REMARK SMILES IDX 4 1 3 2 16 3 25 4 2 5 26 6 1 7 33 8 27 9 31 10 28 11 30 12
REMARK SMILES IDX 17 13 18 14 19 15 20 16 24 17 22 18 21 19 23 21 32 23 29 25
REMARK SMILES IDX 5 27 14 28 6 29 12 30 7 31 10 32 15 33 13 35 8 37 9 38 11 40
REMARK H PARENT 21 20 23 22 32 24 29 26 15 34 13 36 9 39 11 41
REMARK Flexibility Score: inf
ROOT
ATOM      1  O   UNL     1      20.905  34.469  44.727  1.00  0.00    -0.454 OA
ENDROOT
BRANCH   1   2
ATOM      2  C   UNL     1      21.950  33.849  44.009  1.00  0.00     0.214 A 
ATOM      3  C   UNL     1      21.631  33.264  42.767  1.00  0.00     0.180 A 
ATOM      4  O   UNL     1      22.581  32.726  42.015  1.00  0.00    -0.452 OA
ATOM      5  C   UNL     1      23.302  33.816  44.431  1.00  0.00     0.239 A 
ATOM      6  C   UNL     1      23.852  32.655  42.383  1.00  0.00     0.146 A 
ATOM      7  O   UNL     1      23.647  34.417  45.480  1.00  0.00    -0.285 OA
ATOM      8  C   UNL     1      24.273  33.156  43.639  1.00  0.00     0.111 A 
ATOM      9  C   UNL     1      24.771  32.084  41.498  1.00  0.00     0.094 A 
ATOM     10  C   UNL     1      25.646  33.007  44.002  1.00  0.00     0.134 A 
ATOM     11  C   UNL     1      26.119  32.005  41.836  1.00  0.00     0.123 A 
ATOM     12  C   UNL     1      26.552  32.468  43.081  1.00  0.00     0.093 A 
BRANCH   3  13
ATOM     13  C   UNL     1      20.251  33.269  42.236  1.00  0.00     0.025 A 
ATOM     14  C   UNL     1      19.323  32.285  42.611  1.00  0.00     0.016 A 
ATOM     15  C   UNL     1      18.022  32.310  42.102  1.00  0.00     0.051 A 
ATOM     16  C   UNL     1      17.636  33.303  41.197  1.00  0.00     0.157 A 
ATOM     17  C   UNL     1      19.871  34.251  41.308  1.00  0.00     0.062 A 
ATOM     18  C   UNL     1      18.566  34.278  40.793  1.00  0.00     0.158 A 
BRANCH  16  19
ATOM     19  O   UNL     1      16.331  33.305  40.706  1.00  0.00    -0.504 OA
ATOM     20  H   UNL     1      16.110  33.612  39.767  1.00  0.00     0.293 HD
ENDBRANCH  16  19
BRANCH  18  21
ATOM     21  O   UNL     1      18.191  35.266  39.884  1.00  0.00    -0.504 OA
ATOM     22  H   UNL     1      18.879  35.845  39.416  1.00  0.00     0.293 HD
ENDBRANCH  18  21
ENDBRANCH   3  13
BRANCH  10  23
ATOM     23  O   UNL     1      26.157  33.336  45.261  1.00  0.00    -0.507 OA
ATOM     24  H   UNL     1      26.949  32.884  45.692  1.00  0.00     0.293 HD
ENDBRANCH  10  23
BRANCH  11  25
ATOM     25  O   UNL     1      27.023  31.455  40.930  1.00  0.00    -0.508 OA
ATOM     26  H   UNL     1      27.933  31.872  40.768  1.00  0.00     0.293 HD
ENDBRANCH  11  25
ENDBRANCH   1   2
BRANCH   1  27
ATOM     27  C   UNL     1      20.277  35.735  44.487  1.00  0.00     0.339 C 
ATOM     28  C   UNL     1      21.141  36.920  44.986  1.00  0.00     0.214 C 
ATOM     29  O   UNL     1      18.983  35.757  45.070  1.00  0.00    -0.332 OA
ATOM     30  C   UNL     1      21.152  37.020  46.527  1.00  0.00     0.180 C 
ATOM     31  C   UNL     1      19.043  35.613  46.480  1.00  0.00     0.179 C 
ATOM     32  C   UNL     1      19.741  36.834  47.123  1.00  0.00     0.177 C 
BRANCH  28  33
ATOM     33  O   UNL     1      20.648  38.111  44.426  1.00  0.00    -0.384 OA
ATOM     34  H   UNL     1      20.920  38.116  43.471  1.00  0.00     0.211 HD
ENDBRANCH  28  33
BRANCH  30  35
ATOM     35  O   UNL     1      22.019  36.042  47.042  1.00  0.00    -0.387 OA
ATOM     36  H   UNL     1      22.682  35.838  46.331  1.00  0.00     0.211 HD
ENDBRANCH  30  35
BRANCH  31  37
ATOM     37  C   UNL     1      17.620  35.432  47.027  1.00  0.00     0.191 C 
BRANCH  37  38
ATOM     38  O   UNL     1      16.726  35.158  45.983  1.00  0.00    -0.394 OA
ATOM     39  H   UNL     1      17.197  35.379  45.138  1.00  0.00     0.210 HD
ENDBRANCH  37  38
ENDBRANCH  31  37
BRANCH  32  40
ATOM     40  O   UNL     1      18.982  38.014  46.992  1.00  0.00    -0.387 OA
ATOM     41  H   UNL     1      19.600  38.789  47.025  1.00  0.00     0.211 HD
ENDBRANCH  32  40
ENDBRANCH   1  27
TORSDOF 12
ENDMDL
MODEL 2
REMARK VINA RESULT:    -4.111      2.235      6.253
REMARK INTER + INTRA:          -7.441
REMARK INTER:                  -6.388
REMARK INTRA:                  -1.054
REMARK UNBOUND:                -1.408
REMARK SMILES O=c1c(O[C@H]2O[C@H](CO)[C@H](O)[C@@H](O)[C@@H]2O)c(-c2ccc(O)c(O)c2)oc2cc(O)cc(O)c12
REMARK SMILES IDX 4 1 3 2 16 3 25 4 2 5 26 6 1 7 33 8 27 9 31 10 28 11 30 12
REMARK SMILES IDX 17 13 18 14 19 15 20 16 24 17 22 18 21 19 23 21 32 23 29 25
REMARK SMILES IDX 5 27 14 28 6 29 12 30 7 31 10 32 15 33 13 35 8 37 9 38 11 40
REMARK H PARENT 21 20 23 22 32 24 29 26 15 34 13 36 9 39 11 41
REMARK Flexibility Score: inf
ROOT
ATOM      1  O   UNL     1      20.673  33.697  43.806  1.00  0.00    -0.454 OA
ENDROOT
BRANCH   1   2
ATOM      2  C   UNL     1      19.435  33.871  43.150  1.00  0.00     0.214 A 
ATOM      3  C   UNL     1      19.407  33.698  41.752  1.00  0.00     0.180 A 
ATOM      4  O   UNL     1      18.263  33.783  41.088  1.00  0.00    -0.452 OA
ATOM      5  C   UNL     1      18.215  34.163  43.808  1.00  0.00     0.239 A 
ATOM      6  C   UNL     1      17.105  34.075  41.662  1.00  0.00     0.146 A 
ATOM      7  O   UNL     1      18.177  34.222  45.063  1.00  0.00    -0.285 OA
ATOM      8  C   UNL     1      17.028  34.330  43.053  1.00  0.00     0.111 A 
ATOM      9  C   UNL     1      15.958  34.117  40.865  1.00  0.00     0.094 A 
ATOM     10  C   UNL     1      15.763  34.691  43.607  1.00  0.00     0.134 A 
ATOM     11  C   UNL     1      14.717  34.403  41.428  1.00  0.00     0.123 A 
ATOM     12  C   UNL     1      14.624  34.685  42.793  1.00  0.00     0.093 A 
BRANCH   3  13
ATOM     13  C   UNL     1      20.628  33.370  40.983  1.00  0.00     0.025 A 
ATOM     14  C   UNL     1      21.381  32.221  41.270  1.00  0.00     0.016 A 
ATOM     15  C   UNL     1      22.528  31.925  40.529  1.00  0.00     0.051 A 
ATOM     16  C   UNL     1      22.950  32.782  39.508  1.00  0.00     0.157 A 
ATOM     17  C   UNL     1      21.066  34.243  39.976  1.00  0.00     0.062 A 
ATOM     18  C   UNL     1      22.219  33.951  39.232  1.00  0.00     0.158 A 
BRANCH  16  19
ATOM     19  O   UNL     1      24.099  32.462  38.784  1.00  0.00    -0.504 OA
ATOM     20  H   UNL     1      25.027  32.685  39.121  1.00  0.00     0.293 HD
ENDBRANCH  16  19
BRANCH  18  21
ATOM     21  O   UNL     1      22.639  34.815  38.222  1.00  0.00    -0.504 OA
ATOM     22  H   UNL     1      23.606  35.107  38.141  1.00  0.00     0.293 HD
ENDBRANCH  18  21
ENDBRANCH   3  13
BRANCH  10  23
ATOM     23  O   UNL     1      15.582  35.095  44.933  1.00  0.00    -0.507 OA
ATOM     24  H   UNL     1      15.865  35.991  45.300  1.00  0.00     0.293 HD
ENDBRANCH  10  23
BRANCH  11  25
ATOM     25  O   UNL     1      13.582  34.415  40.621  1.00  0.00    -0.508 OA
ATOM     26  H   UNL     1      13.521  35.006  39.800  1.00  0.00     0.293 HD
ENDBRANCH  11  25
ENDBRANCH   1   2
BRANCH   1  27
ATOM     27  C   UNL     1      21.782  34.602  43.889  1.00  0.00     0.339 C 
ATOM     28  C   UNL     1      23.075  33.899  44.373  1.00  0.00     0.214 C 
ATOM     29  O   UNL     1      21.451  35.705  44.719  1.00  0.00    -0.332 OA
ATOM     30  C   UNL     1      23.019  33.554  45.877  1.00  0.00     0.180 C 
ATOM     31  C   UNL     1      21.183  35.294  46.050  1.00  0.00     0.179 C 
ATOM     32  C   UNL     1      22.459  34.724  46.713  1.00  0.00     0.177 C 
BRANCH  28  33
ATOM     33  O   UNL     1      24.174  34.734  44.108  1.00  0.00    -0.384 OA
ATOM     34  H   UNL     1      24.309  35.300  44.913  1.00  0.00     0.211 HD
ENDBRANCH  28  33
BRANCH  30  35
ATOM     35  O   UNL     1      22.215  32.415  46.054  1.00  0.00    -0.387 OA
ATOM     36  H   UNL     1      21.586  32.615  46.795  1.00  0.00     0.211 HD
ENDBRANCH  30  35
BRANCH  31  37
ATOM     37  C   UNL     1      20.629  36.488  46.841  1.00  0.00     0.191 C 
BRANCH  37  38
ATOM     38  O   UNL     1      21.298  37.666  46.481  1.00  0.00    -0.394 OA
ATOM     39  H   UNL     1      21.016  38.364  47.128  1.00  0.00     0.210 HD
ENDBRANCH  37  38
ENDBRANCH  31  37
BRANCH  32  40
ATOM     40  O   UNL     1      23.443  35.711  46.915  1.00  0.00    -0.387 OA
ATOM     41  H   UNL     1      23.988  35.453  47.702  1.00  0.00     0.211 HD
ENDBRANCH  32  40
ENDBRANCH   1  27
TORSDOF 12
ENDMDL
MODEL 3
REMARK VINA RESULT:    -4.015      1.322      2.396
REMARK INTER + INTRA:          -7.301
REMARK INTER:                  -5.881
REMARK INTRA:                  -1.420
REMARK UNBOUND:                -1.408
REMARK SMILES O=c1c(O[C@H]2O[C@H](CO)[C@H](O)[C@@H](O)[C@@H]2O)c(-c2ccc(O)c(O)c2)oc2cc(O)cc(O)c12
REMARK SMILES IDX 4 1 3 2 16 3 25 4 2 5 26 6 1 7 33 8 27 9 31 10 28 11 30 12
REMARK SMILES IDX 17 13 18 14 19 15 20 16 24 17 22 18 21 19 23 21 32 23 29 25
REMARK SMILES IDX 5 27 14 28 6 29 12 30 7 31 10 32 15 33 13 35 8 37 9 38 11 40
REMARK H PARENT 21 20 23 22 32 24 29 26 15 34 13 36 9 39 11 41
REMARK Flexibility Score: inf
ROOT
ATOM      1  O   UNL     1      21.520  34.245  43.837  1.00  0.00    -0.454 OA
ENDROOT
BRANCH   1   2
ATOM      2  C   UNL     1      22.465  33.561  43.042  1.00  0.00     0.214 A 
ATOM      3  C   UNL     1      22.021  33.027  41.816  1.00  0.00     0.180 A 
ATOM      4  O   UNL     1      22.875  32.432  40.995  1.00  0.00    -0.452 OA
ATOM      5  C   UNL     1      23.834  33.416  43.373  1.00  0.00     0.239 A 
ATOM      6  C   UNL     1      24.158  32.256  41.276  1.00  0.00     0.146 A 
ATOM      7  O   UNL     1      24.292  33.967  44.406  1.00  0.00    -0.285 OA
ATOM      8  C   UNL     1      24.698  32.698  42.509  1.00  0.00     0.111 A 
ATOM      9  C   UNL     1      24.970  31.633  40.326  1.00  0.00     0.094 A 
ATOM     10  C   UNL     1      26.074  32.436  42.780  1.00  0.00     0.134 A 
ATOM     11  C   UNL     1      26.327  31.443  40.572  1.00  0.00     0.123 A 
ATOM     12  C   UNL     1      26.874  31.846  41.792  1.00  0.00     0.093 A 
BRANCH   3  13
ATOM     13  C   UNL     1      20.614  33.149  41.376  1.00  0.00     0.025 A 
ATOM     14  C   UNL     1      19.673  32.147  41.661  1.00  0.00     0.016 A 
ATOM     15  C   UNL     1      18.347  32.284  41.243  1.00  0.00     0.051 A 
ATOM     16  C   UNL     1      17.948  33.410  40.517  1.00  0.00     0.157 A 
ATOM     17  C   UNL     1      20.218  34.268  40.626  1.00  0.00     0.062 A 
ATOM     18  C   UNL     1      18.888  34.407  40.202  1.00  0.00     0.158 A 
BRANCH  16  19
ATOM     19  O   UNL     1      16.618  33.521  40.113  1.00  0.00    -0.504 OA
ATOM     20  H   UNL     1      16.354  33.990  39.255  1.00  0.00     0.293 HD
ENDBRANCH  16  19
BRANCH  18  21
ATOM     21  O   UNL     1      18.500  35.528  39.471  1.00  0.00    -0.504 OA
ATOM     22  H   UNL     1      18.829  35.686  38.526  1.00  0.00     0.293 HD
ENDBRANCH  18  21
ENDBRANCH   3  13
BRANCH  10  23
ATOM     23  O   UNL     1      26.690  32.700  44.007  1.00  0.00    -0.507 OA
ATOM     24  H   UNL     1      27.688  32.733  44.149  1.00  0.00     0.293 HD
ENDBRANCH  10  23
BRANCH  11  25
ATOM     25  O   UNL     1      27.125  30.842  39.600  1.00  0.00    -0.508 OA
ATOM     26  H   UNL     1      27.948  30.304  39.848  1.00  0.00     0.293 HD
ENDBRANCH  11  25
ENDBRANCH   1   2
BRANCH   1  27
ATOM     27  C   UNL     1      20.902  33.825  45.061  1.00  0.00     0.339 C 
ATOM     28  C   UNL     1      19.368  33.663  44.914  1.00  0.00     0.214 C 
ATOM     29  O   UNL     1      21.229  34.727  46.107  1.00  0.00    -0.332 OA
ATOM     30  C   UNL     1      18.648  35.025  44.813  1.00  0.00     0.180 C 
ATOM     31  C   UNL     1      20.733  36.030  45.848  1.00  0.00     0.179 C 
ATOM     32  C   UNL     1      19.187  36.036  45.848  1.00  0.00     0.177 C 
BRANCH  28  33
ATOM     33  O   UNL     1      18.880  32.936  46.014  1.00  0.00    -0.384 OA
ATOM     34  H   UNL     1      18.341  33.566  46.562  1.00  0.00     0.211 HD
ENDBRANCH  28  33
BRANCH  30  35
ATOM     35  O   UNL     1      18.817  35.535  43.515  1.00  0.00    -0.387 OA
ATOM     36  H   UNL     1      19.791  35.521  43.323  1.00  0.00     0.211 HD
ENDBRANCH  30  35
BRANCH  31  37
ATOM     37  C   UNL     1      21.294  36.998  46.898  1.00  0.00     0.191 C 
BRANCH  37  38
ATOM     38  O   UNL     1      22.612  37.355  46.581  1.00  0.00    -0.394 OA
ATOM     39  H   UNL     1      22.606  38.327  46.384  1.00  0.00     0.210 HD
ENDBRANCH  37  38
ENDBRANCH  31  37
BRANCH  32  40
ATOM     40  O   UNL     1      18.651  35.779  47.125  1.00  0.00    -0.387 OA
ATOM     41  H   UNL     1      17.883  35.160  47.023  1.00  0.00     0.211 HD
ENDBRANCH  32  40
ENDBRANCH   1  27
TORSDOF 12
ENDMDL
MODEL 4
REMARK VINA RESULT:    -4.015      2.429      8.144
REMARK INTER + INTRA:          -7.301
REMARK INTER:                  -5.793
REMARK INTRA:                  -1.508
REMARK UNBOUND:                -1.408
REMARK SMILES O=c1c(O[C@H]2O[C@H](CO)[C@H](O)[C@@H](O)[C@@H]2O)c(-c2ccc(O)c(O)c2)oc2cc(O)cc(O)c12
REMARK SMILES IDX 4 1 3 2 16 3 25 4 2 5 26 6 1 7 33 8 27 9 31 10 28 11 30 12
REMARK SMILES IDX 17 13 18 14 19 15 20 16 24 17 22 18 21 19 23 21 32 23 29 25
REMARK SMILES IDX 5 27 14 28 6 29 12 30 7 31 10 32 15 33 13 35 8 37 9 38 11 40
REMARK H PARENT 21 20 23 22 32 24 29 26 15 34 13 36 9 39 11 41
REMARK Flexibility Score: inf
ROOT
ATOM      1  O   UNL     1      19.813  33.453  42.993  1.00  0.00    -0.454 OA
ENDROOT
BRANCH   1   2
ATOM      2  C   UNL     1      18.488  33.664  43.435  1.00  0.00     0.214 A 
ATOM      3  C   UNL     1      18.282  34.629  44.441  1.00  0.00     0.180 A 
ATOM      4  O   UNL     1      17.056  34.920  44.850  1.00  0.00    -0.452 OA
ATOM      5  C   UNL     1      17.353  33.005  42.903  1.00  0.00     0.239 A 
ATOM      6  C   UNL     1      15.970  34.312  44.395  1.00  0.00     0.146 A 
ATOM      7  O   UNL     1      17.482  32.216  41.934  1.00  0.00    -0.285 OA
ATOM      8  C   UNL     1      16.066  33.283  43.427  1.00  0.00     0.111 A 
ATOM      9  C   UNL     1      14.725  34.716  44.885  1.00  0.00     0.094 A 
ATOM     10  C   UNL     1      14.867  32.628  43.012  1.00  0.00     0.134 A 
ATOM     11  C   UNL     1      13.556  34.117  44.422  1.00  0.00     0.123 A 
ATOM     12  C   UNL     1      13.631  33.081  43.488  1.00  0.00     0.093 A 
BRANCH   3  13
ATOM     13  C   UNL     1      19.406  35.382  45.039  1.00  0.00     0.025 A 
ATOM     14  C   UNL     1      19.542  36.765  44.840  1.00  0.00     0.016 A 
ATOM     15  C   UNL     1      20.607  37.461  45.418  1.00  0.00     0.051 A 
ATOM     16  C   UNL     1      21.561  36.783  46.184  1.00  0.00     0.157 A 
ATOM     17  C   UNL     1      20.377  34.699  45.787  1.00  0.00     0.062 A 
ATOM     18  C   UNL     1      21.449  35.393  46.366  1.00  0.00     0.158 A 
BRANCH  16  19
ATOM     19  O   UNL     1      22.613  37.502  46.750  1.00  0.00    -0.504 OA
ATOM     20  H   UNL     1      22.638  38.514  46.742  1.00  0.00     0.293 HD
ENDBRANCH  16  19
BRANCH  18  21
ATOM     21  O   UNL     1      22.401  34.709  47.120  1.00  0.00    -0.504 OA
ATOM     22  H   UNL     1      22.856  35.139  47.917  1.00  0.00     0.293 HD
ENDBRANCH  18  21
ENDBRANCH   3  13
BRANCH  10  23
ATOM     23  O   UNL     1      14.842  31.513  42.169  1.00  0.00    -0.507 OA
ATOM     24  H   UNL     1      15.518  31.333  41.442  1.00  0.00     0.293 HD
ENDBRANCH  10  23
BRANCH  11  25
ATOM     25  O   UNL     1      12.324  34.552  44.904  1.00  0.00    -0.508 OA
ATOM     26  H   UNL     1      11.892  35.405  44.565  1.00  0.00     0.293 HD
ENDBRANCH  11  25
ENDBRANCH   1   2
BRANCH   1  27
ATOM     27  C   UNL     1      20.605  34.259  42.111  1.00  0.00     0.339 C 
ATOM     28  C   UNL     1      20.272  33.995  40.621  1.00  0.00     0.214 C 
ATOM     29  O   UNL     1      21.985  34.061  42.375  1.00  0.00    -0.332 OA
ATOM     30  C   UNL     1      20.810  32.630  40.140  1.00  0.00     0.180 C 
ATOM     31  C   UNL     1      22.375  32.718  42.133  1.00  0.00     0.179 C 
ATOM     32  C   UNL     1      22.252  32.378  40.629  1.00  0.00     0.177 C 
BRANCH  28  33
ATOM     33  O   UNL     1      20.815  35.032  39.842  1.00  0.00    -0.384 OA
ATOM     34  H   UNL     1      20.764  34.740  38.895  1.00  0.00     0.211 HD
ENDBRANCH  28  33
BRANCH  30  35
ATOM     35  O   UNL     1      19.962  31.614  40.612  1.00  0.00    -0.387 OA
ATOM     36  H   UNL     1      19.893  31.727  41.596  1.00  0.00     0.211 HD
ENDBRANCH  30  35
BRANCH  31  37
ATOM     37  C   UNL     1      23.812  32.516  42.634  1.00  0.00     0.191 C 
BRANCH  37  38
ATOM     38  O   UNL     1      24.423  31.453  41.953  1.00  0.00    -0.394 OA
ATOM     39  H   UNL     1      23.755  31.108  41.305  1.00  0.00     0.210 HD
ENDBRANCH  37  38
ENDBRANCH  31  37
BRANCH  32  40
ATOM     40  O   UNL     1      23.179  33.088  39.842  1.00  0.00    -0.387 OA
ATOM     41  H   UNL     1      23.870  32.452  39.524  1.00  0.00     0.211 HD
ENDBRANCH  32  40
ENDBRANCH   1  27
TORSDOF 12
ENDMDL
MODEL 5
REMARK VINA RESULT:    -3.990      2.681      8.336
REMARK INTER + INTRA:          -7.264
REMARK INTER:                  -5.701
REMARK INTRA:                  -1.563
REMARK UNBOUND:                -1.408
REMARK SMILES O=c1c(O[C@H]2O[C@H](CO)[C@H](O)[C@@H](O)[C@@H]2O)c(-c2ccc(O)c(O)c2)oc2cc(O)cc(O)c12
REMARK SMILES IDX 4 1 3 2 16 3 25 4 2 5 26 6 1 7 33 8 27 9 31 10 28 11 30 12
REMARK SMILES IDX 17 13 18 14 19 15 20 16 24 17 22 18 21 19 23 21 32 23 29 25
REMARK SMILES IDX 5 27 14 28 6 29 12 30 7 31 10 32 15 33 13 35 8 37 9 38 11 40
REMARK H PARENT 21 20 23 22 32 24 29 26 15 34 13 36 9 39 11 41
REMARK Flexibility Score: inf
ROOT
ATOM      1  O   UNL     1      18.737  34.317  42.907  1.00  0.00    -0.454 OA
ENDROOT
BRANCH   1   2
ATOM      2  C   UNL     1      17.603  34.313  43.747  1.00  0.00     0.214 A 
ATOM      3  C   UNL     1      17.712  34.961  44.994  1.00  0.00     0.180 A 
ATOM      4  O   UNL     1      16.662  35.049  45.798  1.00  0.00    -0.452 OA
ATOM      5  C   UNL     1      16.352  33.744  43.401  1.00  0.00     0.239 A 
ATOM      6  C   UNL     1      15.482  34.511  45.522  1.00  0.00     0.146 A 
ATOM      7  O   UNL     1      16.183  33.250  42.258  1.00  0.00    -0.285 OA
ATOM      8  C   UNL     1      15.279  33.784  44.323  1.00  0.00     0.111 A 
ATOM      9  C   UNL     1      14.440  34.686  46.436  1.00  0.00     0.094 A 
ATOM     10  C   UNL     1      14.003  33.183  44.104  1.00  0.00     0.134 A 
ATOM     11  C   UNL     1      13.179  34.153  46.179  1.00  0.00     0.123 A 
ATOM     12  C   UNL     1      12.964  33.409  45.016  1.00  0.00     0.093 A 
BRANCH   3  13
ATOM     13  C   UNL     1      18.970  35.602  45.430  1.00  0.00     0.025 A 
ATOM     14  C   UNL     1      19.214  36.964  45.191  1.00  0.00     0.016 A 
ATOM     15  C   UNL     1      20.407  37.554  45.616  1.00  0.00     0.051 A 
ATOM     16  C   UNL     1      21.381  36.789  46.266  1.00  0.00     0.157 A 
ATOM     17  C   UNL     1      19.959  34.830  46.060  1.00  0.00     0.062 A 
ATOM     18  C   UNL     1      21.159  35.419  46.486  1.00  0.00     0.158 A 
BRANCH  16  19
ATOM     19  O   UNL     1      22.562  37.404  46.681  1.00  0.00    -0.504 OA
ATOM     20  H   UNL     1      23.210  36.951  47.313  1.00  0.00     0.293 HD
ENDBRANCH  16  19
BRANCH  18  21
ATOM     21  O   UNL     1      22.129  34.648  47.125  1.00  0.00    -0.504 OA
ATOM     22  H   UNL     1      23.003  34.412  46.671  1.00  0.00     0.293 HD
ENDBRANCH  18  21
ENDBRANCH   3  13
BRANCH  10  23
ATOM     23  O   UNL     1      13.718  32.334  43.030  1.00  0.00    -0.507 OA
ATOM     24  H   UNL     1      12.927  31.709  42.992  1.00  0.00     0.293 HD
ENDBRANCH  10  23
BRANCH  11  25
ATOM     25  O   UNL     1      12.147  34.360  47.090  1.00  0.00    -0.508 OA
ATOM     26  H   UNL     1      11.225  34.655  46.790  1.00  0.00     0.293 HD
ENDBRANCH  11  25
ENDBRANCH   1   2
BRANCH   1  27
ATOM     27  C   UNL     1      19.487  33.203  42.404  1.00  0.00     0.339 C 
ATOM     28  C   UNL     1      20.945  33.196  42.930  1.00  0.00     0.214 C 
ATOM     29  O   UNL     1      19.449  33.189  40.985  1.00  0.00    -0.332 OA
ATOM     30  C   UNL     1      21.804  34.297  42.271  1.00  0.00     0.180 C 
ATOM     31  C   UNL     1      20.056  34.348  40.435  1.00  0.00     0.179 C 
ATOM     32  C   UNL     1      21.570  34.371  40.747  1.00  0.00     0.177 C 
BRANCH  28  33
ATOM     33  O   UNL     1      21.509  31.931  42.689  1.00  0.00    -0.384 OA
ATOM     34  H   UNL     1      21.479  31.782  41.708  1.00  0.00     0.211 HD
ENDBRANCH  28  33
BRANCH  30  35
ATOM     35  O   UNL     1      21.493  35.533  42.861  1.00  0.00    -0.387 OA
ATOM     36  H   UNL     1      22.114  35.653  43.627  1.00  0.00     0.211 HD
ENDBRANCH  30  35
BRANCH  31  37
ATOM     37  C   UNL     1      19.797  34.379  38.922  1.00  0.00     0.191 C 
BRANCH  37  38
ATOM     38  O   UNL     1      20.943  34.809  38.239  1.00  0.00    -0.394 OA
ATOM     39  H   UNL     1      21.529  35.246  38.910  1.00  0.00     0.210 HD
ENDBRANCH  37  38
ENDBRANCH  31  37
BRANCH  32  40
ATOM     40  O   UNL     1      22.268  33.344  40.082  1.00  0.00    -0.387 OA
ATOM     41  H   UNL     1      23.240  33.489  40.216  1.00  0.00     0.211 HD
ENDBRANCH  32  40
ENDBRANCH   1  27
TORSDOF 12
ENDMDL
MODEL 6
REMARK VINA RESULT:    -3.963      2.961      4.111
REMARK INTER + INTRA:          -7.224
REMARK INTER:                  -5.577
REMARK INTRA:                  -1.647
REMARK UNBOUND:                -1.408
REMARK SMILES O=c1c(O[C@H]2O[C@H](CO)[C@H](O)[C@@H](O)[C@@H]2O)c(-c2ccc(O)c(O)c2)oc2cc(O)cc(O)c12
REMARK SMILES IDX 4 1 3 2 16 3 25 4 2 5 26 6 1 7 33 8 27 9 31 10 28 11 30 12
REMARK SMILES IDX 17 13 18 14 19 15 20 16 24 17 22 18 21 19 23 21 32 23 29 25
REMARK SMILES IDX 5 27 14 28 6 29 12 30 7 31 10 32 15 33 13 35 8 37 9 38 11 40
REMARK H PARENT 21 20 23 22 32 24 29 26 15 34 13 36 9 39 11 41
REMARK Flexibility Score: inf
ROOT
ATOM      1  O   UNL     1      20.595  33.364  44.329  1.00  0.00    -0.454 OA
ENDROOT
BRANCH   1   2
ATOM      2  C   UNL     1      20.516  32.009  43.939  1.00  0.00     0.214 A 
ATOM      3  C   UNL     1      19.924  31.722  42.693  1.00  0.00     0.180 A 
ATOM      4  O   UNL     1      19.881  30.476  42.242  1.00  0.00    -0.452 OA
ATOM      5  C   UNL     1      21.033  30.928  44.694  1.00  0.00     0.239 A 
ATOM      6  C   UNL     1      20.332  29.435  42.926  1.00  0.00     0.146 A 
ATOM      7  O   UNL     1      21.660  31.150  45.760  1.00  0.00    -0.285 OA
ATOM      8  C   UNL     1      20.890  29.602  44.217  1.00  0.00     0.111 A 
ATOM      9  C   UNL     1      20.253  28.168  42.342  1.00  0.00     0.094 A 
ATOM     10  C   UNL     1      21.312  28.438  44.929  1.00  0.00     0.134 A 
ATOM     11  C   UNL     1      20.730  27.049  43.017  1.00  0.00     0.123 A 
ATOM     12  C   UNL     1      21.259  27.187  44.303  1.00  0.00     0.093 A 
BRANCH   3  13
ATOM     13  C   UNL     1      19.378  32.788  41.826  1.00  0.00     0.025 A 
ATOM     14  C   UNL     1      18.080  33.286  42.016  1.00  0.00     0.016 A 
ATOM     15  C   UNL     1      17.583  34.298  41.190  1.00  0.00     0.051 A 
ATOM     16  C   UNL     1      18.367  34.811  40.152  1.00  0.00     0.157 A 
ATOM     17  C   UNL     1      20.155  33.286  40.768  1.00  0.00     0.062 A 
ATOM     18  C   UNL     1      19.659  34.300  39.935  1.00  0.00     0.158 A 
BRANCH  16  19
ATOM     19  O   UNL     1      17.847  35.822  39.343  1.00  0.00    -0.504 OA
ATOM     20  H   UNL     1      18.285  36.092  38.472  1.00  0.00     0.293 HD
ENDBRANCH  16  19
BRANCH  18  21
ATOM     21  O   UNL     1      20.443  34.800  38.897  1.00  0.00    -0.504 OA
ATOM     22  H   UNL     1      20.221  35.676  38.439  1.00  0.00     0.293 HD
ENDBRANCH  18  21
ENDBRANCH   3  13
BRANCH  10  23
ATOM     23  O   UNL     1      21.753  28.456  46.255  1.00  0.00    -0.507 OA
ATOM     24  H   UNL     1      22.666  28.150  46.557  1.00  0.00     0.293 HD
ENDBRANCH  10  23
BRANCH  11  25
ATOM     25  O   UNL     1      20.666  25.798  42.407  1.00  0.00    -0.508 OA
ATOM     26  H   UNL     1      20.462  25.700  41.419  1.00  0.00     0.293 HD
ENDBRANCH  11  25
ENDBRANCH   1   2
BRANCH   1  27
ATOM     27  C   UNL     1      21.649  34.308  44.091  1.00  0.00     0.339 C 
ATOM     28  C   UNL     1      22.832  34.121  45.074  1.00  0.00     0.214 C 
ATOM     29  O   UNL     1      21.139  35.631  44.140  1.00  0.00    -0.332 OA
ATOM     30  C   UNL     1      22.483  34.604  46.499  1.00  0.00     0.180 C 
ATOM     31  C   UNL     1      20.618  35.943  45.422  1.00  0.00     0.179 C 
ATOM     32  C   UNL     1      21.746  35.960  46.480  1.00  0.00     0.177 C 
BRANCH  28  33
ATOM     33  O   UNL     1      23.946  34.824  44.583  1.00  0.00    -0.384 OA
ATOM     34  H   UNL     1      23.637  35.742  44.367  1.00  0.00     0.211 HD
ENDBRANCH  28  33
BRANCH  30  35
ATOM     35  O   UNL     1      21.681  33.635  47.125  1.00  0.00    -0.387 OA
ATOM     36  H   UNL     1      20.910  33.464  46.524  1.00  0.00     0.211 HD
ENDBRANCH  30  35
BRANCH  31  37
ATOM     37  C   UNL     1      19.896  37.296  45.354  1.00  0.00     0.191 C 
BRANCH  37  38
ATOM     38  O   UNL     1      20.499  38.125  44.398  1.00  0.00    -0.394 OA
ATOM     39  H   UNL     1      21.250  37.608  44.005  1.00  0.00     0.210 HD
ENDBRANCH  37  38
ENDBRANCH  31  37
BRANCH  32  40
ATOM     40  O   UNL     1      22.652  37.020  46.277  1.00  0.00    -0.387 OA
ATOM     41  H   UNL     1      22.696  37.212  45.305  1.00  0.00     0.211 HD
ENDBRANCH  32  40
ENDBRANCH   1  27
TORSDOF 12
ENDMDL
MODEL 7
REMARK VINA RESULT:    -3.890      2.304      5.849
REMARK INTER + INTRA:          -7.117
REMARK INTER:                  -5.799
REMARK INTRA:                  -1.318
REMARK UNBOUND:                -1.408
REMARK SMILES O=c1c(O[C@H]2O[C@H](CO)[C@H](O)[C@@H](O)[C@@H]2O)c(-c2ccc(O)c(O)c2)oc2cc(O)cc(O)c12
REMARK SMILES IDX 4 1 3 2 16 3 25 4 2 5 26 6 1 7 33 8 27 9 31 10 28 11 30 12
REMARK SMILES IDX 17 13 18 14 19 15 20 16 24 17 22 18 21 19 23 21 32 23 29 25
REMARK SMILES IDX 5 27 14 28 6 29 12 30 7 31 10 32 15 33 13 35 8 37 9 38 11 40
REMARK H PARENT 21 20 23 22 32 24 29 26 15 34 13 36 9 39 11 41
REMARK Flexibility Score: inf
ROOT
ATOM      1  O   UNL     1      20.775  33.918  42.824  1.00  0.00    -0.454 OA
ENDROOT
BRANCH   1   2
ATOM      2  C   UNL     1      19.939  34.153  41.710  1.00  0.00     0.214 A 
ATOM      3  C   UNL     1      18.551  34.224  41.939  1.00  0.00     0.180 A 
ATOM      4  O   UNL     1      17.720  34.507  40.946  1.00  0.00    -0.452 OA
ATOM      5  C   UNL     1      20.406  34.368  40.390  1.00  0.00     0.239 A 
ATOM      6  C   UNL     1      18.114  34.693  39.694  1.00  0.00     0.146 A 
ATOM      7  O   UNL     1      21.641  34.417  40.162  1.00  0.00    -0.285 OA
ATOM      8  C   UNL     1      19.481  34.584  39.340  1.00  0.00     0.111 A 
ATOM      9  C   UNL     1      17.151  35.008  38.732  1.00  0.00     0.094 A 
ATOM     10  C   UNL     1      19.840  34.742  37.967  1.00  0.00     0.134 A 
ATOM     11  C   UNL     1      17.522  35.228  37.408  1.00  0.00     0.123 A 
ATOM     12  C   UNL     1      18.861  35.098  37.032  1.00  0.00     0.093 A 
BRANCH   3  13
ATOM     13  C   UNL     1      17.973  34.035  43.287  1.00  0.00     0.025 A 
ATOM     14  C   UNL     1      17.390  35.104  43.986  1.00  0.00     0.016 A 
ATOM     15  C   UNL     1      16.845  34.904  45.257  1.00  0.00     0.051 A 
ATOM     16  C   UNL     1      16.894  33.642  45.856  1.00  0.00     0.157 A 
ATOM     17  C   UNL     1      18.044  32.774  43.900  1.00  0.00     0.062 A 
ATOM     18  C   UNL     1      17.500  32.571  45.177  1.00  0.00     0.158 A 
BRANCH  16  19
ATOM     19  O   UNL     1      16.341  33.471  47.125  1.00  0.00    -0.504 OA
ATOM     20  H   UNL     1      16.359  32.579  47.604  1.00  0.00     0.293 HD
ENDBRANCH  16  19
BRANCH  18  21
ATOM     21  O   UNL     1      17.561  31.312  45.772  1.00  0.00    -0.504 OA
ATOM     22  H   UNL     1      18.432  30.799  45.842  1.00  0.00     0.293 HD
ENDBRANCH  18  21
ENDBRANCH   3  13
BRANCH  10  23
ATOM     23  O   UNL     1      21.130  34.527  37.471  1.00  0.00    -0.507 OA
ATOM     24  H   UNL     1      21.502  34.965  36.642  1.00  0.00     0.293 HD
ENDBRANCH  10  23
BRANCH  11  25
ATOM     25  O   UNL     1      16.550  35.567  36.469  1.00  0.00    -0.508 OA
ATOM     26  H   UNL     1      16.583  35.211  35.520  1.00  0.00     0.293 HD
ENDBRANCH  11  25
ENDBRANCH   1   2
BRANCH   1  27
ATOM     27  C   UNL     1      21.908  34.674  43.272  1.00  0.00     0.339 C 
ATOM     28  C   UNL     1      22.935  33.792  44.027  1.00  0.00     0.214 C 
ATOM     29  O   UNL     1      21.481  35.768  44.069  1.00  0.00    -0.332 OA
ATOM     30  C   UNL     1      22.431  33.386  45.429  1.00  0.00     0.180 C 
ATOM     31  C   UNL     1      20.815  35.331  45.242  1.00  0.00     0.179 C 
ATOM     32  C   UNL     1      21.791  34.576  46.175  1.00  0.00     0.177 C 
BRANCH  28  33
ATOM     33  O   UNL     1      24.147  34.496  44.133  1.00  0.00    -0.384 OA
ATOM     34  H   UNL     1      23.956  35.440  43.891  1.00  0.00     0.211 HD
ENDBRANCH  28  33
BRANCH  30  35
ATOM     35  O   UNL     1      21.493  32.349  45.292  1.00  0.00    -0.387 OA
ATOM     36  H   UNL     1      21.796  31.605  45.875  1.00  0.00     0.211 HD
ENDBRANCH  30  35
BRANCH  31  37
ATOM     37  C   UNL     1      20.196  36.545  45.949  1.00  0.00     0.191 C 
BRANCH  37  38
ATOM     38  O   UNL     1      21.111  37.607  45.988  1.00  0.00    -0.394 OA
ATOM     39  H   UNL     1      21.711  37.497  45.206  1.00  0.00     0.210 HD
ENDBRANCH  37  38
ENDBRANCH  31  37
BRANCH  32  40
ATOM     40  O   UNL     1      22.781  35.422  46.710  1.00  0.00    -0.387 OA
ATOM     41  H   UNL     1      22.755  35.348  47.699  1.00  0.00     0.211 HD
ENDBRANCH  32  40
ENDBRANCH   1  27
TORSDOF 12
ENDMDL
MODEL 8
REMARK VINA RESULT:    -3.887      2.807      6.174
REMARK INTER + INTRA:          -7.114
REMARK INTER:                  -5.519
REMARK INTRA:                  -1.595
REMARK UNBOUND:                -1.408
REMARK SMILES O=c1c(O[C@H]2O[C@H](CO)[C@H](O)[C@@H](O)[C@@H]2O)c(-c2ccc(O)c(O)c2)oc2cc(O)cc(O)c12
REMARK SMILES IDX 4 1 3 2 16 3 25 4 2 5 26 6 1 7 33 8 27 9 31 10 28 11 30 12
REMARK SMILES IDX 17 13 18 14 19 15 20 16 24 17 22 18 21 19 23 21 32 23 29 25
REMARK SMILES IDX 5 27 14 28 6 29 12 30 7 31 10 32 15 33 13 35 8 37 9 38 11 40
REMARK H PARENT 21 20 23 22 32 24 29 26 15 34 13 36 9 39 11 41
REMARK Flexibility Score: inf
ROOT
ATOM      1  O   UNL     1      17.981  34.172  41.978  1.00  0.00    -0.454 OA
ENDROOT
BRANCH   1   2
ATOM      2  C   UNL     1      19.062  34.338  42.871  1.00  0.00     0.214 A 
ATOM      3  C   UNL     1      20.355  34.043  42.393  1.00  0.00     0.180 A 
ATOM      4  O   UNL     1      21.416  34.242  43.162  1.00  0.00    -0.452 OA
ATOM      5  C   UNL     1      18.939  34.825  44.196  1.00  0.00     0.239 A 
ATOM      6  C   UNL     1      21.342  34.674  44.412  1.00  0.00     0.146 A 
ATOM      7  O   UNL     1      17.819  35.199  44.625  1.00  0.00    -0.285 OA
ATOM      8  C   UNL     1      20.089  34.943  45.014  1.00  0.00     0.111 A 
ATOM      9  C   UNL     1      22.530  34.868  45.121  1.00  0.00     0.094 A 
ATOM     10  C   UNL     1      20.068  35.357  46.380  1.00  0.00     0.134 A 
ATOM     11  C   UNL     1      22.501  35.337  46.432  1.00  0.00     0.123 A 
ATOM     12  C   UNL     1      21.275  35.582  47.054  1.00  0.00     0.093 A 
BRANCH   3  13
ATOM     13  C   UNL     1      20.582  33.551  41.017  1.00  0.00     0.025 A 
ATOM     14  C   UNL     1      20.311  32.219  40.666  1.00  0.00     0.016 A 
ATOM     15  C   UNL     1      20.527  31.774  39.360  1.00  0.00     0.051 A 
ATOM     16  C   UNL     1      21.037  32.645  38.392  1.00  0.00     0.157 A 
ATOM     17  C   UNL     1      21.118  34.418  40.052  1.00  0.00     0.062 A 
ATOM     18  C   UNL     1      21.338  33.974  38.739  1.00  0.00     0.158 A 
BRANCH  16  19
ATOM     19  O   UNL     1      21.242  32.175  37.095  1.00  0.00    -0.504 OA
ATOM     20  H   UNL     1      22.065  32.419  36.559  1.00  0.00     0.293 HD
ENDBRANCH  16  19
BRANCH  18  21
ATOM     21  O   UNL     1      21.855  34.846  37.783  1.00  0.00    -0.504 OA
ATOM     22  H   UNL     1      21.507  34.857  36.831  1.00  0.00     0.293 HD
ENDBRANCH  18  21
ENDBRANCH   3  13
BRANCH  10  23
ATOM     23  O   UNL     1      18.896  35.523  47.124  1.00  0.00    -0.507 OA
ATOM     24  H   UNL     1      18.773  35.204  48.074  1.00  0.00     0.293 HD
ENDBRANCH  10  23
BRANCH  11  25
ATOM     25  O   UNL     1      23.698  35.548  47.113  1.00  0.00    -0.508 OA
ATOM     26  H   UNL     1      23.882  35.110  48.009  1.00  0.00     0.293 HD
ENDBRANCH  11  25
ENDBRANCH   1   2
BRANCH   1  27
ATOM     27  C   UNL     1      17.090  35.164  41.452  1.00  0.00     0.339 C 
ATOM     28  C   UNL     1      15.609  34.713  41.518  1.00  0.00     0.214 C 
ATOM     29  O   UNL     1      17.468  35.506  40.127  1.00  0.00    -0.332 OA
ATOM     30  C   UNL     1      15.289  33.620  40.475  1.00  0.00     0.180 C 
ATOM     31  C   UNL     1      17.372  34.393  39.253  1.00  0.00     0.179 C 
ATOM     32  C   UNL     1      15.899  33.947  39.096  1.00  0.00     0.177 C 
BRANCH  28  33
ATOM     33  O   UNL     1      14.783  35.832  41.316  1.00  0.00    -0.384 OA
ATOM     34  H   UNL     1      14.350  36.033  42.187  1.00  0.00     0.211 HD
ENDBRANCH  28  33
BRANCH  30  35
ATOM     35  O   UNL     1      15.788  32.390  40.937  1.00  0.00    -0.387 OA
ATOM     36  H   UNL     1      16.185  31.925  40.154  1.00  0.00     0.211 HD
ENDBRANCH  30  35
BRANCH  31  37
ATOM     37  C   UNL     1      17.990  34.764  37.898  1.00  0.00     0.191 C 
BRANCH  37  38
ATOM     38  O   UNL     1      17.580  33.860  36.908  1.00  0.00    -0.394 OA
ATOM     39  H   UNL     1      17.840  34.254  36.035  1.00  0.00     0.210 HD
ENDBRANCH  37  38
ENDBRANCH  31  37
BRANCH  32  40
ATOM     40  O   UNL     1      15.121  34.906  38.419  1.00  0.00    -0.387 OA
ATOM     41  H   UNL     1      15.321  35.798  38.802  1.00  0.00     0.211 HD
ENDBRANCH  32  40
ENDBRANCH   1  27
TORSDOF 12
ENDMDL
MODEL 9
REMARK VINA RESULT:    -3.813      2.120      6.626
REMARK INTER + INTRA:          -7.005
REMARK INTER:                  -5.386
REMARK INTRA:                  -1.619
REMARK UNBOUND:                -1.408
REMARK SMILES O=c1c(O[C@H]2O[C@H](CO)[C@H](O)[C@@H](O)[C@@H]2O)c(-c2ccc(O)c(O)c2)oc2cc(O)cc(O)c12
REMARK SMILES IDX 4 1 3 2 16 3 25 4 2 5 26 6 1 7 33 8 27 9 31 10 28 11 30 12
REMARK SMILES IDX 17 13 18 14 19 15 20 16 24 17 22 18 21 19 23 21 32 23 29 25
REMARK SMILES IDX 5 27 14 28 6 29 12 30 7 31 10 32 15 33 13 35 8 37 9 38 11 40
REMARK H PARENT 21 20 23 22 32 24 29 26 15 34 13 36 9 39 11 41
REMARK Flexibility Score: inf
ROOT
ATOM      1  O   UNL     1      23.263  32.637  42.532  1.00  0.00    -0.454 OA
ENDROOT
BRANCH   1   2
ATOM      2  C   UNL     1      22.571  33.615  43.279  1.00  0.00     0.214 A 
ATOM      3  C   UNL     1      21.382  34.135  42.729  1.00  0.00     0.180 A 
ATOM      4  O   UNL     1      20.653  35.007  43.411  1.00  0.00    -0.452 OA
ATOM      5  C   UNL     1      22.966  34.072  44.560  1.00  0.00     0.239 A 
ATOM      6  C   UNL     1      20.998  35.476  44.602  1.00  0.00     0.146 A 
ATOM      7  O   UNL     1      23.961  33.558  45.130  1.00  0.00    -0.285 OA
ATOM      8  C   UNL     1      22.205  35.068  45.220  1.00  0.00     0.111 A 
ATOM      9  C   UNL     1      20.140  36.376  45.238  1.00  0.00     0.094 A 
ATOM     10  C   UNL     1      22.551  35.646  46.479  1.00  0.00     0.134 A 
ATOM     11  C   UNL     1      20.454  36.881  46.497  1.00  0.00     0.123 A 
ATOM     12  C   UNL     1      21.653  36.514  47.112  1.00  0.00     0.093 A 
BRANCH   3  13
ATOM     13  C   UNL     1      20.880  33.701  41.408  1.00  0.00     0.025 A 
ATOM     14  C   UNL     1      20.071  32.561  41.276  1.00  0.00     0.016 A 
ATOM     15  C   UNL     1      19.602  32.169  40.019  1.00  0.00     0.051 A 
ATOM     16  C   UNL     1      19.950  32.896  38.877  1.00  0.00     0.157 A 
ATOM     17  C   UNL     1      21.250  34.415  40.257  1.00  0.00     0.062 A 
ATOM     18  C   UNL     1      20.783  34.023  38.994  1.00  0.00     0.158 A 
BRANCH  16  19
ATOM     19  O   UNL     1      19.467  32.484  37.635  1.00  0.00    -0.504 OA
ATOM     20  H   UNL     1      19.708  32.964  36.778  1.00  0.00     0.293 HD
ENDBRANCH  16  19
BRANCH  18  21
ATOM     21  O   UNL     1      21.143  34.747  37.859  1.00  0.00    -0.504 OA
ATOM     22  H   UNL     1      20.694  34.588  36.964  1.00  0.00     0.293 HD
ENDBRANCH  18  21
ENDBRANCH   3  13
BRANCH  10  23
ATOM     23  O   UNL     1      23.771  35.429  47.125  1.00  0.00    -0.507 OA
ATOM     24  H   UNL     1      24.014  35.807  48.028  1.00  0.00     0.293 HD
ENDBRANCH  10  23
BRANCH  11  25
ATOM     25  O   UNL     1      19.573  37.758  47.125  1.00  0.00    -0.508 OA
ATOM     26  H   UNL     1      19.782  38.746  47.217  1.00  0.00     0.293 HD
ENDBRANCH  11  25
ENDBRANCH   1   2
BRANCH   1  27
ATOM     27  C   UNL     1      23.136  31.210  42.585  1.00  0.00     0.339 C 
ATOM     28  C   UNL     1      23.952  30.593  43.749  1.00  0.00     0.214 C 
ATOM     29  O   UNL     1      23.504  30.640  41.338  1.00  0.00    -0.332 OA
ATOM     30  C   UNL     1      25.471  30.624  43.472  1.00  0.00     0.180 C 
ATOM     31  C   UNL     1      24.864  30.900  41.026  1.00  0.00     0.179 C 
ATOM     32  C   UNL     1      25.799  30.186  42.030  1.00  0.00     0.177 C 
BRANCH  28  33
ATOM     33  O   UNL     1      23.523  29.271  43.955  1.00  0.00    -0.384 OA
ATOM     34  H   UNL     1      22.700  29.146  43.414  1.00  0.00     0.211 HD
ENDBRANCH  28  33
BRANCH  30  35
ATOM     35  O   UNL     1      25.949  31.926  43.695  1.00  0.00    -0.387 OA
ATOM     36  H   UNL     1      26.023  32.364  42.808  1.00  0.00     0.211 HD
ENDBRANCH  30  35
BRANCH  31  37
ATOM     37  C   UNL     1      25.143  30.449  39.586  1.00  0.00     0.191 C 
BRANCH  37  38
ATOM     38  O   UNL     1      24.412  29.291  39.285  1.00  0.00    -0.394 OA
ATOM     39  H   UNL     1      25.066  28.613  38.973  1.00  0.00     0.210 HD
ENDBRANCH  37  38
ENDBRANCH  31  37
BRANCH  32  40
ATOM     40  O   UNL     1      25.744  28.783  41.907  1.00  0.00    -0.387 OA
ATOM     41  H   UNL     1      26.656  28.451  41.706  1.00  0.00     0.211 HD
ENDBRANCH  32  40
ENDBRANCH   1  27
TORSDOF 12
ENDMDL
