MODEL 1
REMARK VINA RESULT:    -1.710      0.000      0.000
REMARK INTER + INTRA:          -2.107
REMARK INTER:                  -2.009
REMARK INTRA:                  -0.097
REMARK UNBOUND:                -0.097
REMARK SMILES CCCCC(=O)[O-]
REMARK SMILES IDX 4 1 5 2 6 3 7 4 3 5 2 6 1 7
REMARK H PARENT
REMARK Flexibility Score: inf
ROOT
ATOM      1  C   UNL     1      23.636  28.978  14.068  1.00  0.00     0.053 C 
ENDROOT
BRANCH   1   2
ATOM      2  C   UNL     1      24.628  29.331  13.002  1.00  0.00     0.041 C 
ATOM      3  O   UNL     1      24.308  30.122  12.076  1.00  0.00    -0.550 OA
ATOM      4  O   UNL     1      25.914  28.810  13.049  1.00  0.00    -0.550 OA
ENDBRANCH   1   2
BRANCH   1   5
ATOM      5  C   UNL     1      24.120  29.399  15.465  1.00  0.00     0.006 C 
BRANCH   5   6
ATOM      6  C   UNL     1      24.278  28.230  16.455  1.00  0.00    -0.003 C 
ATOM      7  C   UNL     1      25.583  27.459  16.261  1.00  0.00     0.004 C 
ENDBRANCH   5   6
ENDBRANCH   1   5
TORSDOF 3
ENDMDL
MODEL 2
REMARK VINA RESULT:    -1.705     26.765     27.488
REMARK INTER + INTRA:          -2.102
REMARK INTER:                  -2.018
REMARK INTRA:                  -0.084
REMARK UNBOUND:                -0.097
REMARK SMILES CCCCC(=O)[O-]
REMARK SMILES IDX 4 1 5 2 6 3 7 4 3 5 2 6 1 7
REMARK H PARENT
REMARK Flexibility Score: inf
ROOT
ATOM      1  C   UNL     1       5.923  12.487  27.197  1.00  0.00     0.053 C 
ENDROOT
BRANCH   1   2
ATOM      2  C   UNL     1       6.411  13.793  26.650  1.00  0.00     0.041 C 
ATOM      3  O   UNL     1       6.360  14.021  25.412  1.00  0.00    -0.550 OA
ATOM      4  O   UNL     1       6.893  14.771  27.510  1.00  0.00    -0.550 OA
ENDBRANCH   1   2
BRANCH   1   5
ATOM      5  C   UNL     1       7.083  11.539  27.541  1.00  0.00     0.006 C 
BRANCH   5   6
ATOM      6  C   UNL     1       7.102  10.241  26.712  1.00  0.00    -0.003 C 
ATOM      7  C   UNL     1       6.053  10.231  25.601  1.00  0.00     0.004 C 
ENDBRANCH   5   6
ENDBRANCH   1   5
TORSDOF 3
ENDMDL
MODEL 3
REMARK VINA RESULT:    -1.655      0.919      1.529
REMARK INTER + INTRA:          -2.043
REMARK INTER:                  -1.933
REMARK INTRA:                  -0.110
REMARK UNBOUND:                -0.097
REMARK SMILES CCCCC(=O)[O-]
REMARK SMILES IDX 4 1 5 2 6 3 7 4 3 5 2 6 1 7
REMARK H PARENT
REMARK Flexibility Score: inf
ROOT
ATOM      1  C   UNL     1      23.832  29.236  14.223  1.00  0.00     0.053 C 
ENDROOT
BRANCH   1   2
ATOM      2  C   UNL     1      24.666  29.330  12.982  1.00  0.00     0.041 C 
ATOM      3  O   UNL     1      25.732  28.668  12.883  1.00  0.00    -0.550 OA
ATOM      4  O   UNL     1      24.249  30.125  11.922  1.00  0.00    -0.550 OA
ENDBRANCH   1   2
BRANCH   1   5
ATOM      5  C   UNL     1      24.628  28.671  15.409  1.00  0.00     0.006 C 
BRANCH   5   6
ATOM      6  C   UNL     1      24.076  27.344  15.963  1.00  0.00    -0.003 C 
ATOM      7  C   UNL     1      24.613  26.121  15.220  1.00  0.00     0.004 C 
ENDBRANCH   5   6
ENDBRANCH   1   5
TORSDOF 3
ENDMDL
MODEL 4
REMARK VINA RESULT:    -1.635      1.004      1.945
REMARK INTER + INTRA:          -2.019
REMARK INTER:                  -1.992
REMARK INTRA:                  -0.028
REMARK UNBOUND:                -0.097
REMARK SMILES CCCCC(=O)[O-]
REMARK SMILES IDX 4 1 5 2 6 3 7 4 3 5 2 6 1 7
REMARK H PARENT
REMARK Flexibility Score: inf
ROOT
ATOM      1  C   UNL     1      23.741  29.459  14.239  1.00  0.00     0.053 C 
ENDROOT
BRANCH   1   2
ATOM      2  C   UNL     1      24.641  29.427  13.041  1.00  0.00     0.041 C 
ATOM      3  O   UNL     1      25.721  28.781  13.075  1.00  0.00    -0.550 OA
ATOM      4  O   UNL     1      24.271  30.086  11.875  1.00  0.00    -0.550 OA
ENDBRANCH   1   2
BRANCH   1   5
ATOM      5  C   UNL     1      24.446  28.935  15.500  1.00  0.00     0.006 C 
BRANCH   5   6
ATOM      6  C   UNL     1      24.241  29.815  16.747  1.00  0.00    -0.003 C 
ATOM      7  C   UNL     1      22.926  29.525  17.468  1.00  0.00     0.004 C 
ENDBRANCH   5   6
ENDBRANCH   1   5
TORSDOF 3
ENDMDL
MODEL 5
REMARK VINA RESULT:    -1.593      1.637      2.701
REMARK INTER + INTRA:          -1.970
REMARK INTER:                  -1.861
REMARK INTRA:                  -0.109
REMARK UNBOUND:                -0.097
REMARK SMILES CCCCC(=O)[O-]
REMARK SMILES IDX 4 1 5 2 6 3 7 4 3 5 2 6 1 7
REMARK H PARENT
REMARK Flexibility Score: inf
ROOT
ATOM      1  C   UNL     1      23.959  29.432  14.212  1.00  0.00     0.053 C 
ENDROOT
BRANCH   1   2
ATOM      2  C   UNL     1      24.706  29.409  12.913  1.00  0.00     0.041 C 
ATOM      3  O   UNL     1      24.253  30.021  11.910  1.00  0.00    -0.550 OA
ATOM      4  O   UNL     1      25.917  28.736  12.819  1.00  0.00    -0.550 OA
ENDBRANCH   1   2
BRANCH   1   5
ATOM      5  C   UNL     1      23.021  28.224  14.358  1.00  0.00     0.006 C 
BRANCH   5   6
ATOM      6  C   UNL     1      21.546  28.531  14.041  1.00  0.00    -0.003 C 
ATOM      7  C   UNL     1      21.157  28.165  12.609  1.00  0.00     0.004 C 
ENDBRANCH   5   6
ENDBRANCH   1   5
TORSDOF 3
ENDMDL
MODEL 6
REMARK VINA RESULT:    -1.590     26.887     27.721
REMARK INTER + INTRA:          -1.967
REMARK INTER:                  -1.885
REMARK INTRA:                  -0.081
REMARK UNBOUND:                -0.097
REMARK SMILES CCCCC(=O)[O-]
REMARK SMILES IDX 4 1 5 2 6 3 7 4 3 5 2 6 1 7
REMARK H PARENT
REMARK Flexibility Score: inf
ROOT
ATOM      1  C   UNL     1       7.408  11.017  28.050  1.00  0.00     0.053 C 
ENDROOT
BRANCH   1   2
ATOM      2  C   UNL     1       8.800  10.571  27.720  1.00  0.00     0.041 C 
ATOM      3  O   UNL     1       9.265  10.750  26.563  1.00  0.00    -0.550 OA
ATOM      4  O   UNL     1       9.594   9.986  28.697  1.00  0.00    -0.550 OA
ENDBRANCH   1   2
BRANCH   1   5
ATOM      5  C   UNL     1       6.605  11.376  26.790  1.00  0.00     0.006 C 
BRANCH   5   6
ATOM      6  C   UNL     1       5.875  12.730  26.874  1.00  0.00    -0.003 C 
ATOM      7  C   UNL     1       6.821  13.899  27.147  1.00  0.00     0.004 C 
ENDBRANCH   5   6
ENDBRANCH   1   5
TORSDOF 3
ENDMDL
MODEL 7
REMARK VINA RESULT:    -1.574      1.305      1.910
REMARK INTER + INTRA:          -1.947
REMARK INTER:                  -1.868
REMARK INTRA:                  -0.080
REMARK UNBOUND:                -0.097
REMARK SMILES CCCCC(=O)[O-]
REMARK SMILES IDX 4 1 5 2 6 3 7 4 3 5 2 6 1 7
REMARK H PARENT
REMARK Flexibility Score: inf
ROOT
ATOM      1  C   UNL     1      24.590  27.583  14.469  1.00  0.00     0.053 C 
ENDROOT
BRANCH   1   2
ATOM      2  C   UNL     1      24.731  28.827  13.646  1.00  0.00     0.041 C 
ATOM      3  O   UNL     1      25.613  28.898  12.750  1.00  0.00    -0.550 OA
ATOM      4  O   UNL     1      23.869  29.897  13.848  1.00  0.00    -0.550 OA
ENDBRANCH   1   2
BRANCH   1   5
ATOM      5  C   UNL     1      25.744  27.424  15.472  1.00  0.00     0.006 C 
BRANCH   5   6
ATOM      6  C   UNL     1      25.310  27.503  16.947  1.00  0.00    -0.003 C 
ATOM      7  C   UNL     1      24.910  28.914  17.374  1.00  0.00     0.004 C 
ENDBRANCH   5   6
ENDBRANCH   1   5
TORSDOF 3
ENDMDL
MODEL 8
REMARK VINA RESULT:    -1.574     27.389     27.858
REMARK INTER + INTRA:          -1.947
REMARK INTER:                  -1.851
REMARK INTRA:                  -0.096
REMARK UNBOUND:                -0.097
REMARK SMILES CCCCC(=O)[O-]
REMARK SMILES IDX 4 1 5 2 6 3 7 4 3 5 2 6 1 7
REMARK H PARENT
REMARK Flexibility Score: inf
ROOT
ATOM      1  C   UNL     1       7.580  10.849  28.000  1.00  0.00     0.053 C 
ENDROOT
BRANCH   1   2
ATOM      2  C   UNL     1       9.013  10.540  27.693  1.00  0.00     0.041 C 
ATOM      3  O   UNL     1       9.879  10.575  28.607  1.00  0.00    -0.550 OA
ATOM      4  O   UNL     1       9.388  10.183  26.404  1.00  0.00    -0.550 OA
ENDBRANCH   1   2
BRANCH   1   5
ATOM      5  C   UNL     1       7.139  12.190  27.393  1.00  0.00     0.006 C 
BRANCH   5   6
ATOM      6  C   UNL     1       5.876  12.100  26.517  1.00  0.00    -0.003 C 
ATOM      7  C   UNL     1       5.877  10.880  25.597  1.00  0.00     0.004 C 
ENDBRANCH   5   6
ENDBRANCH   1   5
TORSDOF 3
ENDMDL
MODEL 9
REMARK VINA RESULT:    -1.317      2.288      2.896
REMARK INTER + INTRA:          -1.646
REMARK INTER:                  -1.543
REMARK INTRA:                  -0.102
REMARK UNBOUND:                -0.097
REMARK SMILES CCCCC(=O)[O-]
REMARK SMILES IDX 4 1 5 2 6 3 7 4 3 5 2 6 1 7
REMARK H PARENT
REMARK Flexibility Score: inf
ROOT
ATOM      1  C   UNL     1      23.333  28.626  12.107  1.00  0.00     0.053 C 
ENDROOT
BRANCH   1   2
ATOM      2  C   UNL     1      24.343  29.158  13.077  1.00  0.00     0.041 C 
ATOM      3  O   UNL     1      23.974  29.856  14.059  1.00  0.00    -0.550 OA
ATOM      4  O   UNL     1      25.689  28.857  12.916  1.00  0.00    -0.550 OA
ENDBRANCH   1   2
BRANCH   1   5
ATOM      5  C   UNL     1      23.499  27.116  11.875  1.00  0.00     0.006 C 
BRANCH   5   6
ATOM      6  C   UNL     1      22.737  26.237  12.884  1.00  0.00    -0.003 C 
ATOM      7  C   UNL     1      23.657  25.580  13.912  1.00  0.00     0.004 C 
ENDBRANCH   5   6
ENDBRANCH   1   5
TORSDOF 3
ENDMDL
