MODEL 1
REMARK VINA RESULT:    -4.440      0.000      0.000
REMARK INTER + INTRA:          -6.074
REMARK INTER:                  -5.998
REMARK INTRA:                  -0.076
REMARK UNBOUND:                -0.076
REMARK SMILES [NH3+]CCCC[C@@H]([NH3+])C(=O)[O-]
REMARK SMILES IDX 4 1 3 2 2 3 1 4 5 8 6 9 7 10 8 14 9 15 10 16
REMARK H PARENT 1 5 1 6 1 7 7 11 7 12 7 13
REMARK Flexibility Score: inf
ROOT
ATOM      1  C   UNL     1     172.315 172.500 207.284  1.00  0.00     0.012 C 
ENDROOT
BRANCH   1   2
ATOM      2  C   UNL     1     172.870 171.072 207.216  1.00  0.00     0.061 C 
BRANCH   2   3
ATOM      3  C   UNL     1     173.481 170.653 208.560  1.00  0.00     0.258 C 
BRANCH   3   4
ATOM      4  N   UNL     1     174.873 170.235 208.394  1.00  0.00    -0.358 N 
ATOM      5  H   UNL     1     175.096 170.187 207.374  1.00  0.00     0.344 HD
ATOM      6  H   UNL     1     175.513 170.927 208.848  1.00  0.00     0.344 HD
ATOM      7  H   UNL     1     175.017 169.289 208.817  1.00  0.00     0.344 HD
ENDBRANCH   3   4
ENDBRANCH   2   3
ENDBRANCH   1   2
BRANCH   1   8
ATOM      8  C   UNL     1     170.801 172.487 207.566  1.00  0.00     0.072 C 
BRANCH   8   9
ATOM      9  C   UNL     1     170.403 173.087 208.933  1.00  0.00     0.227 C 
BRANCH   9  10
ATOM     10  N   UNL     1     169.021 173.587 208.938  1.00  0.00    -0.350 N 
ATOM     11  H   UNL     1     168.997 174.545 208.519  1.00  0.00     0.345 HD
ATOM     12  H   UNL     1     168.415 172.962 208.358  1.00  0.00     0.345 HD
ATOM     13  H   UNL     1     168.635 173.636 209.908  1.00  0.00     0.345 HD
ENDBRANCH   9  10
BRANCH   9  14
ATOM     14  C   UNL     1     170.644 172.112 210.059  1.00  0.00     0.099 C 
ATOM     15  O   UNL     1     170.943 172.517 211.214  1.00  0.00    -0.544 OA
ATOM     16  O   UNL     1     170.485 170.749 209.835  1.00  0.00    -0.544 OA
ENDBRANCH   9  14
ENDBRANCH   8   9
ENDBRANCH   1   8
TORSDOF 7
ENDMDL
MODEL 2
REMARK VINA RESULT:    -4.391      2.330      2.800
REMARK INTER + INTRA:          -6.008
REMARK INTER:                  -5.489
REMARK INTRA:                  -0.519
REMARK UNBOUND:                -0.076
REMARK SMILES [NH3+]CCCC[C@@H]([NH3+])C(=O)[O-]
REMARK SMILES IDX 4 1 3 2 2 3 1 4 5 8 6 9 7 10 8 14 9 15 10 16
REMARK H PARENT 1 5 1 6 1 7 7 11 7 12 7 13
REMARK Flexibility Score: inf
ROOT
ATOM      1  C   UNL     1     171.181 171.151 206.522  1.00  0.00     0.012 C 
ENDROOT
BRANCH   1   2
ATOM      2  C   UNL     1     170.820 172.357 205.647  1.00  0.00     0.061 C 
BRANCH   2   3
ATOM      3  C   UNL     1     172.030 172.827 204.829  1.00  0.00     0.258 C 
BRANCH   3   4
ATOM      4  N   UNL     1     173.036 173.445 205.691  1.00  0.00    -0.358 N 
ATOM      5  H   UNL     1     173.547 174.179 205.150  1.00  0.00     0.344 HD
ATOM      6  H   UNL     1     172.576 173.892 206.517  1.00  0.00     0.344 HD
ATOM      7  H   UNL     1     173.722 172.725 206.016  1.00  0.00     0.344 HD
ENDBRANCH   3   4
ENDBRANCH   2   3
ENDBRANCH   1   2
BRANCH   1   8
ATOM      8  C   UNL     1     170.629 171.323 207.949  1.00  0.00     0.072 C 
BRANCH   8   9
ATOM      9  C   UNL     1     170.789 172.748 208.525  1.00  0.00     0.227 C 
BRANCH   9  10
ATOM     10  N   UNL     1     169.636 173.146 209.346  1.00  0.00    -0.350 N 
ATOM     11  H   UNL     1     169.464 174.171 209.230  1.00  0.00     0.345 HD
ATOM     12  H   UNL     1     168.781 172.633 209.032  1.00  0.00     0.345 HD
ATOM     13  H   UNL     1     169.802 172.948 210.359  1.00  0.00     0.345 HD
ENDBRANCH   9  10
BRANCH   9  14
ATOM     14  C   UNL     1     172.086 172.900 209.279  1.00  0.00     0.099 C 
ATOM     15  O   UNL     1     172.234 172.394 210.423  1.00  0.00    -0.544 OA
ATOM     16  O   UNL     1     173.153 173.564 208.685  1.00  0.00    -0.544 OA
ENDBRANCH   9  14
ENDBRANCH   8   9
ENDBRANCH   1   8
TORSDOF 7
ENDMDL
MODEL 3
REMARK VINA RESULT:    -4.361      2.372      3.137
REMARK INTER + INTRA:          -5.967
REMARK INTER:                  -5.500
REMARK INTRA:                  -0.466
REMARK UNBOUND:                -0.076
REMARK SMILES [NH3+]CCCC[C@@H]([NH3+])C(=O)[O-]
REMARK SMILES IDX 4 1 3 2 2 3 1 4 5 8 6 9 7 10 8 14 9 15 10 16
REMARK H PARENT 1 5 1 6 1 7 7 11 7 12 7 13
REMARK Flexibility Score: inf
ROOT
ATOM      1  C   UNL     1     172.855 171.210 206.729  1.00  0.00     0.012 C 
ENDROOT
BRANCH   1   2
ATOM      2  C   UNL     1     172.156 172.309 205.921  1.00  0.00     0.061 C 
BRANCH   2   3
ATOM      3  C   UNL     1     170.910 171.764 205.210  1.00  0.00     0.258 C 
BRANCH   3   4
ATOM      4  N   UNL     1     170.622 170.395 205.636  1.00  0.00    -0.358 N 
ATOM      5  H   UNL     1     170.281 169.845 204.814  1.00  0.00     0.344 HD
ATOM      6  H   UNL     1     171.490 169.943 206.007  1.00  0.00     0.344 HD
ATOM      7  H   UNL     1     169.881 170.396 206.374  1.00  0.00     0.344 HD
ENDBRANCH   3   4
ENDBRANCH   2   3
ENDBRANCH   1   2
BRANCH   1   8
ATOM      8  C   UNL     1     173.064 171.650 208.189  1.00  0.00     0.072 C 
BRANCH   8   9
ATOM      9  C   UNL     1     172.285 170.809 209.225  1.00  0.00     0.227 C 
BRANCH   9  10
ATOM     10  N   UNL     1     172.621 171.181 210.607  1.00  0.00    -0.350 N 
ATOM     11  H   UNL     1     172.238 172.132 210.814  1.00  0.00     0.345 HD
ATOM     12  H   UNL     1     172.187 170.502 211.274  1.00  0.00     0.345 HD
ATOM     13  H   UNL     1     173.655 171.197 210.757  1.00  0.00     0.345 HD
ENDBRANCH   9  10
BRANCH   9  14
ATOM     14  C   UNL     1     170.797 170.866 208.982  1.00  0.00     0.099 C 
ATOM     15  O   UNL     1     170.178 171.963 209.007  1.00  0.00    -0.544 OA
ATOM     16  O   UNL     1     170.105 169.700 208.675  1.00  0.00    -0.544 OA
ENDBRANCH   9  14
ENDBRANCH   8   9
ENDBRANCH   1   8
TORSDOF 7
ENDMDL
MODEL 4
REMARK VINA RESULT:    -4.349      2.343      4.674
REMARK INTER + INTRA:          -5.951
REMARK INTER:                  -5.745
REMARK INTRA:                  -0.206
REMARK UNBOUND:                -0.076
REMARK SMILES [NH3+]CCCC[C@@H]([NH3+])C(=O)[O-]
REMARK SMILES IDX 4 1 3 2 2 3 1 4 5 8 6 9 7 10 8 14 9 15 10 16
REMARK H PARENT 1 5 1 6 1 7 7 11 7 12 7 13
REMARK Flexibility Score: inf
ROOT
ATOM      1  C   UNL     1     171.065 171.534 209.654  1.00  0.00     0.012 C 
ENDROOT
BRANCH   1   2
ATOM      2  C   UNL     1     170.908 172.959 209.113  1.00  0.00     0.061 C 
BRANCH   2   3
ATOM      3  C   UNL     1     169.590 173.117 208.343  1.00  0.00     0.258 C 
BRANCH   3   4
ATOM      4  N   UNL     1     168.616 173.878 209.125  1.00  0.00    -0.358 N 
ATOM      5  H   UNL     1     168.131 173.234 209.790  1.00  0.00     0.344 HD
ATOM      6  H   UNL     1     169.101 174.627 209.672  1.00  0.00     0.344 HD
ATOM      7  H   UNL     1     167.905 174.310 208.491  1.00  0.00     0.344 HD
ENDBRANCH   3   4
ENDBRANCH   2   3
ENDBRANCH   1   2
BRANCH   1   8
ATOM      8  C   UNL     1     171.669 170.604 208.586  1.00  0.00     0.072 C 
BRANCH   8   9
ATOM      9  C   UNL     1     172.710 171.284 207.667  1.00  0.00     0.227 C 
BRANCH   9  10
ATOM     10  N   UNL     1     174.055 170.716 207.839  1.00  0.00    -0.350 N 
ATOM     11  H   UNL     1     174.532 171.188 208.641  1.00  0.00     0.345 HD
ATOM     12  H   UNL     1     173.986 169.695 208.055  1.00  0.00     0.345 HD
ATOM     13  H   UNL     1     174.637 170.847 206.980  1.00  0.00     0.345 HD
ENDBRANCH   9  10
BRANCH   9  14
ATOM     14  C   UNL     1     172.277 171.257 206.222  1.00  0.00     0.099 C 
ATOM     15  O   UNL     1     173.113 171.410 205.293  1.00  0.00    -0.544 OA
ATOM     16  O   UNL     1     170.946 171.010 205.908  1.00  0.00    -0.544 OA
ENDBRANCH   9  14
ENDBRANCH   8   9
ENDBRANCH   1   8
TORSDOF 7
ENDMDL
MODEL 5
REMARK VINA RESULT:    -4.291      2.212      3.223
REMARK INTER + INTRA:          -5.873
REMARK INTER:                  -5.329
REMARK INTRA:                  -0.544
REMARK UNBOUND:                -0.076
REMARK SMILES [NH3+]CCCC[C@@H]([NH3+])C(=O)[O-]
REMARK SMILES IDX 4 1 3 2 2 3 1 4 5 8 6 9 7 10 8 14 9 15 10 16
REMARK H PARENT 1 5 1 6 1 7 7 11 7 12 7 13
REMARK Flexibility Score: inf
ROOT
ATOM      1  C   UNL     1     171.030 171.568 207.088  1.00  0.00     0.012 C 
ENDROOT
BRANCH   1   2
ATOM      2  C   UNL     1     171.405 171.169 205.656  1.00  0.00     0.061 C 
BRANCH   2   3
ATOM      3  C   UNL     1     172.723 171.827 205.227  1.00  0.00     0.258 C 
BRANCH   3   4
ATOM      4  N   UNL     1     172.908 173.113 205.897  1.00  0.00    -0.358 N 
ATOM      5  H   UNL     1     173.841 173.506 205.633  1.00  0.00     0.344 HD
ATOM      6  H   UNL     1     172.163 173.785 205.599  1.00  0.00     0.344 HD
ATOM      7  H   UNL     1     172.876 172.987 206.934  1.00  0.00     0.344 HD
ENDBRANCH   3   4
ENDBRANCH   2   3
ENDBRANCH   1   2
BRANCH   1   8
ATOM      8  C   UNL     1     171.530 170.519 208.098  1.00  0.00     0.072 C 
BRANCH   8   9
ATOM      9  C   UNL     1     172.625 171.034 209.060  1.00  0.00     0.227 C 
BRANCH   9  10
ATOM     10  N   UNL     1     173.973 170.895 208.490  1.00  0.00    -0.350 N 
ATOM     11  H   UNL     1     174.661 171.396 209.099  1.00  0.00     0.345 HD
ATOM     12  H   UNL     1     174.243 169.885 208.455  1.00  0.00     0.345 HD
ATOM     13  H   UNL     1     174.025 171.298 207.527  1.00  0.00     0.345 HD
ENDBRANCH   9  10
BRANCH   9  14
ATOM     14  C   UNL     1     172.354 172.449 209.504  1.00  0.00     0.099 C 
ATOM     15  O   UNL     1     171.494 172.696 210.391  1.00  0.00    -0.544 OA
ATOM     16  O   UNL     1     173.098 173.494 208.967  1.00  0.00    -0.544 OA
ENDBRANCH   9  14
ENDBRANCH   8   9
ENDBRANCH   1   8
TORSDOF 7
ENDMDL
MODEL 6
REMARK VINA RESULT:    -4.240      2.170      2.647
REMARK INTER + INTRA:          -5.804
REMARK INTER:                  -5.294
REMARK INTRA:                  -0.509
REMARK UNBOUND:                -0.076
REMARK SMILES [NH3+]CCCC[C@@H]([NH3+])C(=O)[O-]
REMARK SMILES IDX 4 1 3 2 2 3 1 4 5 8 6 9 7 10 8 14 9 15 10 16
REMARK H PARENT 1 5 1 6 1 7 7 11 7 12 7 13
REMARK Flexibility Score: inf
ROOT
ATOM      1  C   UNL     1     171.380 172.600 207.164  1.00  0.00     0.012 C 
ENDROOT
BRANCH   1   2
ATOM      2  C   UNL     1     171.058 172.077 205.760  1.00  0.00     0.061 C 
BRANCH   2   3
ATOM      3  C   UNL     1     172.136 171.099 205.274  1.00  0.00     0.258 C 
BRANCH   3   4
ATOM      4  N   UNL     1     173.180 170.929 206.283  1.00  0.00    -0.358 N 
ATOM      5  H   UNL     1     173.963 171.591 206.081  1.00  0.00     0.344 HD
ATOM      6  H   UNL     1     172.798 171.137 207.235  1.00  0.00     0.344 HD
ATOM      7  H   UNL     1     173.549 169.950 206.257  1.00  0.00     0.344 HD
ENDBRANCH   3   4
ENDBRANCH   2   3
ENDBRANCH   1   2
BRANCH   1   8
ATOM      8  C   UNL     1     170.267 172.224 208.159  1.00  0.00     0.072 C 
BRANCH   8   9
ATOM      9  C   UNL     1     170.651 171.101 209.149  1.00  0.00     0.227 C 
BRANCH   9  10
ATOM     10  N   UNL     1     170.501 169.764 208.556  1.00  0.00    -0.350 N 
ATOM     11  H   UNL     1     169.533 169.661 208.173  1.00  0.00     0.345 HD
ATOM     12  H   UNL     1     171.179 169.647 207.768  1.00  0.00     0.345 HD
ATOM     13  H   UNL     1     170.663 169.012 209.263  1.00  0.00     0.345 HD
ENDBRANCH   9  10
BRANCH   9  14
ATOM     14  C   UNL     1     172.036 171.306 209.711  1.00  0.00     0.099 C 
ATOM     15  O   UNL     1     173.012 170.630 209.292  1.00  0.00    -0.544 OA
ATOM     16  O   UNL     1     172.250 172.289 210.670  1.00  0.00    -0.544 OA
ENDBRANCH   9  14
ENDBRANCH   8   9
ENDBRANCH   1   8
TORSDOF 7
ENDMDL
MODEL 7
REMARK VINA RESULT:    -4.229      3.583      5.037
REMARK INTER + INTRA:          -5.788
REMARK INTER:                  -5.574
REMARK INTRA:                  -0.215
REMARK UNBOUND:                -0.076
REMARK SMILES [NH3+]CCCC[C@@H]([NH3+])C(=O)[O-]
REMARK SMILES IDX 4 1 3 2 2 3 1 4 5 8 6 9 7 10 8 14 9 15 10 16
REMARK H PARENT 1 5 1 6 1 7 7 11 7 12 7 13
REMARK Flexibility Score: inf
ROOT
ATOM      1  C   UNL     1     171.254 171.232 207.360  1.00  0.00     0.012 C 
ENDROOT
BRANCH   1   2
ATOM      2  C   UNL     1     170.307 171.564 208.519  1.00  0.00     0.061 C 
BRANCH   2   3
ATOM      3  C   UNL     1     170.330 173.065 208.838  1.00  0.00     0.258 C 
BRANCH   3   4
ATOM      4  N   UNL     1     168.972 173.591 208.978  1.00  0.00    -0.358 N 
ATOM      5  H   UNL     1     168.710 174.099 208.103  1.00  0.00     0.344 HD
ATOM      6  H   UNL     1     168.297 172.806 209.129  1.00  0.00     0.344 HD
ATOM      7  H   UNL     1     168.926 174.257 209.783  1.00  0.00     0.344 HD
ENDBRANCH   3   4
ENDBRANCH   2   3
ENDBRANCH   1   2
BRANCH   1   8
ATOM      8  C   UNL     1     170.807 171.937 206.067  1.00  0.00     0.072 C 
BRANCH   8   9
ATOM      9  C   UNL     1     171.953 172.621 205.286  1.00  0.00     0.227 C 
BRANCH   9  10
ATOM     10  N   UNL     1     172.982 173.170 206.181  1.00  0.00    -0.350 N 
ATOM     11  H   UNL     1     173.085 172.548 207.016  1.00  0.00     0.345 HD
ATOM     12  H   UNL     1     173.902 173.207 205.685  1.00  0.00     0.345 HD
ATOM     13  H   UNL     1     172.730 174.130 206.509  1.00  0.00     0.345 HD
ENDBRANCH   9  10
BRANCH   9  14
ATOM     14  C   UNL     1     172.551 171.697 204.255  1.00  0.00     0.099 C 
ATOM     15  O   UNL     1     173.655 171.963 203.710  1.00  0.00    -0.544 OA
ATOM     16  O   UNL     1     171.902 170.510 203.935  1.00  0.00    -0.544 OA
ENDBRANCH   9  14
ENDBRANCH   8   9
ENDBRANCH   1   8
TORSDOF 7
ENDMDL
MODEL 8
REMARK VINA RESULT:    -4.213      2.168      2.617
REMARK INTER + INTRA:          -5.767
REMARK INTER:                  -5.550
REMARK INTRA:                  -0.217
REMARK UNBOUND:                -0.076
REMARK SMILES [NH3+]CCCC[C@@H]([NH3+])C(=O)[O-]
REMARK SMILES IDX 4 1 3 2 2 3 1 4 5 8 6 9 7 10 8 14 9 15 10 16
REMARK H PARENT 1 5 1 6 1 7 7 11 7 12 7 13
REMARK Flexibility Score: inf
ROOT
ATOM      1  C   UNL     1     172.286 172.329 206.750  1.00  0.00     0.012 C 
ENDROOT
BRANCH   1   2
ATOM      2  C   UNL     1     172.562 171.207 205.742  1.00  0.00     0.061 C 
BRANCH   2   3
ATOM      3  C   UNL     1     171.447 171.123 204.691  1.00  0.00     0.258 C 
BRANCH   3   4
ATOM      4  N   UNL     1     170.980 169.746 204.533  1.00  0.00    -0.358 N 
ATOM      5  H   UNL     1     171.354 169.359 203.637  1.00  0.00     0.344 HD
ATOM      6  H   UNL     1     171.324 169.157 205.326  1.00  0.00     0.344 HD
ATOM      7  H   UNL     1     169.935 169.722 204.503  1.00  0.00     0.344 HD
ENDBRANCH   3   4
ENDBRANCH   2   3
ENDBRANCH   1   2
BRANCH   1   8
ATOM      8  C   UNL     1     170.773 172.537 206.939  1.00  0.00     0.072 C 
BRANCH   8   9
ATOM      9  C   UNL     1     170.322 172.629 208.415  1.00  0.00     0.227 C 
BRANCH   9  10
ATOM     10  N   UNL     1     168.929 173.078 208.542  1.00  0.00    -0.350 N 
ATOM     11  H   UNL     1     168.286 172.292 208.289  1.00  0.00     0.345 HD
ATOM     12  H   UNL     1     168.733 173.355 209.531  1.00  0.00     0.345 HD
ATOM     13  H   UNL     1     168.729 173.889 207.913  1.00  0.00     0.345 HD
ENDBRANCH   9  10
BRANCH   9  14
ATOM     14  C   UNL     1     170.556 171.332 209.148  1.00  0.00     0.099 C 
ATOM     15  O   UNL     1     170.203 170.232 208.647  1.00  0.00    -0.544 OA
ATOM     16  O   UNL     1     171.216 171.344 210.372  1.00  0.00    -0.544 OA
ENDBRANCH   9  14
ENDBRANCH   8   9
ENDBRANCH   1   8
TORSDOF 7
ENDMDL
MODEL 9
REMARK VINA RESULT:    -4.136      2.901      3.477
REMARK INTER + INTRA:          -5.663
REMARK INTER:                  -5.419
REMARK INTRA:                  -0.244
REMARK UNBOUND:                -0.076
REMARK SMILES [NH3+]CCCC[C@@H]([NH3+])C(=O)[O-]
REMARK SMILES IDX 4 1 3 2 2 3 1 4 5 8 6 9 7 10 8 14 9 15 10 16
REMARK H PARENT 1 5 1 6 1 7 7 11 7 12 7 13
REMARK Flexibility Score: inf
ROOT
ATOM      1  C   UNL     1     171.021 172.290 205.920  1.00  0.00     0.012 C 
ENDROOT
BRANCH   1   2
ATOM      2  C   UNL     1     172.180 171.572 205.219  1.00  0.00     0.061 C 
BRANCH   2   3
ATOM      3  C   UNL     1     172.818 172.467 204.148  1.00  0.00     0.258 C 
BRANCH   3   4
ATOM      4  N   UNL     1     172.594 173.881 204.447  1.00  0.00    -0.358 N 
ATOM      5  H   UNL     1     173.316 174.454 203.953  1.00  0.00     0.344 HD
ATOM      6  H   UNL     1     171.646 174.172 204.116  1.00  0.00     0.344 HD
ATOM      7  H   UNL     1     172.676 174.048 205.476  1.00  0.00     0.344 HD
ENDBRANCH   3   4
ENDBRANCH   2   3
ENDBRANCH   1   2
BRANCH   1   8
ATOM      8  C   UNL     1     171.213 172.281 207.447  1.00  0.00     0.072 C 
BRANCH   8   9
ATOM      9  C   UNL     1     172.688 172.336 207.904  1.00  0.00     0.227 C 
BRANCH   9  10
ATOM     10  N   UNL     1     173.049 173.650 208.455  1.00  0.00    -0.350 N 
ATOM     11  H   UNL     1     173.609 174.181 207.748  1.00  0.00     0.345 HD
ATOM     12  H   UNL     1     172.184 174.198 208.665  1.00  0.00     0.345 HD
ATOM     13  H   UNL     1     173.617 173.556 209.327  1.00  0.00     0.345 HD
ENDBRANCH   9  10
BRANCH   9  14
ATOM     14  C   UNL     1     173.013 171.222 208.868  1.00  0.00     0.099 C 
ATOM     15  O   UNL     1     173.897 170.366 208.594  1.00  0.00    -0.544 OA
ATOM     16  O   UNL     1     172.367 171.166 210.097  1.00  0.00    -0.544 OA
ENDBRANCH   9  14
ENDBRANCH   8   9
ENDBRANCH   1   8
TORSDOF 7
ENDMDL
