MODEL 1
REMARK VINA RESULT:    -3.763      0.000      0.000
REMARK INTER + INTRA:          -7.413
REMARK INTER:                  -5.963
REMARK INTRA:                  -1.450
REMARK UNBOUND:                -1.450
REMARK SMILES CCCCCCCCCCCC(=O)[O-]
REMARK SMILES IDX 7 1 8 2 9 3 10 4 11 5 12 6 13 7 14 8 6 9 5 10 4 11 3 12 2 13
REMARK SMILES IDX 1 14
REMARK H PARENT
REMARK Flexibility Score: inf
ROOT
ATOM      1  C   UNL     1      -3.164  -3.623   7.579  1.00  0.00     0.000 C 
ENDROOT
BRANCH   1   2
ATOM      2  C   UNL     1      -3.051  -4.878   8.453  1.00  0.00     0.000 C 
BRANCH   2   3
ATOM      3  C   UNL     1      -4.213  -4.960   9.453  1.00  0.00     0.000 C 
BRANCH   3   4
ATOM      4  C   UNL     1      -5.383  -4.024   9.097  1.00  0.00     0.006 C 
BRANCH   4   5
ATOM      5  C   UNL     1      -6.708  -4.758   8.820  1.00  0.00     0.053 C 
BRANCH   5   6
ATOM      6  C   UNL     1      -6.912  -5.054   7.365  1.00  0.00     0.041 C 
ATOM      7  O   UNL     1      -6.574  -4.213   6.491  1.00  0.00    -0.550 OA
ATOM      8  O   UNL     1      -7.447  -6.274   6.973  1.00  0.00    -0.550 OA
ENDBRANCH   5   6
ENDBRANCH   4   5
ENDBRANCH   3   4
ENDBRANCH   2   3
ENDBRANCH   1   2
BRANCH   1   9
ATOM      9  C   UNL     1      -1.880  -2.790   7.641  1.00  0.00     0.000 C 
BRANCH   9  10
ATOM     10  C   UNL     1      -0.880  -3.392   8.636  1.00  0.00    -0.000 C 
BRANCH  10  11
ATOM     11  C   UNL     1      -0.742  -2.510   9.882  1.00  0.00    -0.000 C 
BRANCH  11  12
ATOM     12  C   UNL     1      -1.023  -3.315  11.160  1.00  0.00    -0.000 C 
BRANCH  12  13
ATOM     13  C   UNL     1      -2.280  -2.829  11.899  1.00  0.00    -0.003 C 
ATOM     14  C   UNL     1      -3.078  -1.801  11.097  1.00  0.00     0.004 C 
ENDBRANCH  12  13
ENDBRANCH  11  12
ENDBRANCH  10  11
ENDBRANCH   9  10
ENDBRANCH   1   9
TORSDOF 10
ENDMDL
MODEL 2
REMARK VINA RESULT:    -3.724      2.259      4.607
REMARK INTER + INTRA:          -7.351
REMARK INTER:                  -6.453
REMARK INTRA:                  -0.899
REMARK UNBOUND:                -1.450
REMARK SMILES CCCCCCCCCCCC(=O)[O-]
REMARK SMILES IDX 7 1 8 2 9 3 10 4 11 5 12 6 13 7 14 8 6 9 5 10 4 11 3 12 2 13
REMARK SMILES IDX 1 14
REMARK H PARENT
REMARK Flexibility Score: inf
ROOT
ATOM      1  C   UNL     1      -8.632  -3.619   9.164  1.00  0.00     0.000 C 
ENDROOT
BRANCH   1   2
ATOM      2  C   UNL     1      -9.391  -2.674   8.223  1.00  0.00     0.000 C 
BRANCH   2   3
ATOM      3  C   UNL     1      -8.419  -1.797   7.423  1.00  0.00     0.000 C 
BRANCH   3   4
ATOM      4  C   UNL     1      -8.445  -2.090   5.911  1.00  0.00     0.006 C 
BRANCH   4   5
ATOM      5  C   UNL     1      -9.002  -3.481   5.555  1.00  0.00     0.053 C 
BRANCH   5   6
ATOM      6  C   UNL     1      -7.922  -4.486   5.292  1.00  0.00     0.041 C 
ATOM      7  O   UNL     1      -8.214  -5.685   5.044  1.00  0.00    -0.550 OA
ATOM      8  O   UNL     1      -6.590  -4.090   5.289  1.00  0.00    -0.550 OA
ENDBRANCH   5   6
ENDBRANCH   4   5
ENDBRANCH   3   4
ENDBRANCH   2   3
ENDBRANCH   1   2
BRANCH   1   9
ATOM      9  C   UNL     1      -7.118  -3.426   9.035  1.00  0.00     0.000 C 
BRANCH   9  10
ATOM     10  C   UNL     1      -6.419  -4.751   8.703  1.00  0.00    -0.000 C 
BRANCH  10  11
ATOM     11  C   UNL     1      -4.931  -4.530   8.406  1.00  0.00    -0.000 C 
BRANCH  11  12
ATOM     12  C   UNL     1      -4.122  -4.412   9.706  1.00  0.00    -0.000 C 
BRANCH  12  13
ATOM     13  C   UNL     1      -2.631  -4.142   9.452  1.00  0.00    -0.003 C 
ATOM     14  C   UNL     1      -1.972  -5.222   8.594  1.00  0.00     0.004 C 
ENDBRANCH  12  13
ENDBRANCH  11  12
ENDBRANCH  10  11
ENDBRANCH   9  10
ENDBRANCH   1   9
TORSDOF 10
ENDMDL
MODEL 3
REMARK VINA RESULT:    -3.705     11.407     13.774
REMARK INTER + INTRA:          -7.321
REMARK INTER:                  -6.312
REMARK INTRA:                  -1.009
REMARK UNBOUND:                -1.450
REMARK SMILES CCCCCCCCCCCC(=O)[O-]
REMARK SMILES IDX 7 1 8 2 9 3 10 4 11 5 12 6 13 7 14 8 6 9 5 10 4 11 3 12 2 13
REMARK SMILES IDX 1 14
REMARK H PARENT
REMARK Flexibility Score: inf
ROOT
ATOM      1  C   UNL     1       6.972   2.567   8.826  1.00  0.00     0.000 C 
ENDROOT
BRANCH   1   2
ATOM      2  C   UNL     1       7.932   3.736   9.080  1.00  0.00     0.000 C 
BRANCH   2   3
ATOM      3  C   UNL     1       9.108   3.709   8.094  1.00  0.00     0.000 C 
BRANCH   3   4
ATOM      4  C   UNL     1       8.847   2.814   6.868  1.00  0.00     0.006 C 
BRANCH   4   5
ATOM      5  C   UNL     1       8.947   3.555   5.522  1.00  0.00     0.053 C 
BRANCH   5   6
ATOM      6  C   UNL     1       7.792   4.480   5.284  1.00  0.00     0.041 C 
ATOM      7  O   UNL     1       6.688   4.030   4.879  1.00  0.00    -0.550 OA
ATOM      8  O   UNL     1       7.927   5.839   5.542  1.00  0.00    -0.550 OA
ENDBRANCH   5   6
ENDBRANCH   4   5
ENDBRANCH   3   4
ENDBRANCH   2   3
ENDBRANCH   1   2
BRANCH   1   9
ATOM      9  C   UNL     1       5.514   3.037   8.846  1.00  0.00     0.000 C 
BRANCH   9  10
ATOM     10  C   UNL     1       5.357   4.380   8.122  1.00  0.00    -0.000 C 
BRANCH  10  11
ATOM     11  C   UNL     1       4.580   5.383   8.983  1.00  0.00    -0.000 C 
BRANCH  11  12
ATOM     12  C   UNL     1       3.504   4.674   9.818  1.00  0.00    -0.000 C 
BRANCH  12  13
ATOM     13  C   UNL     1       2.142   4.626   9.107  1.00  0.00    -0.003 C 
ATOM     14  C   UNL     1       1.967   5.751   8.088  1.00  0.00     0.004 C 
ENDBRANCH  12  13
ENDBRANCH  11  12
ENDBRANCH  10  11
ENDBRANCH   9  10
ENDBRANCH   1   9
TORSDOF 10
ENDMDL
MODEL 4
REMARK VINA RESULT:    -3.646      3.066      5.648
REMARK INTER + INTRA:          -7.227
REMARK INTER:                  -5.567
REMARK INTRA:                  -1.660
REMARK UNBOUND:                -1.450
REMARK SMILES CCCCCCCCCCCC(=O)[O-]
REMARK SMILES IDX 7 1 8 2 9 3 10 4 11 5 12 6 13 7 14 8 6 9 5 10 4 11 3 12 2 13
REMARK SMILES IDX 1 14
REMARK H PARENT
REMARK Flexibility Score: inf
ROOT
ATOM      1  C   UNL     1      -8.763  -3.187   6.231  1.00  0.00     0.000 C 
ENDROOT
BRANCH   1   2
ATOM      2  C   UNL     1      -7.369  -3.790   6.446  1.00  0.00     0.000 C 
BRANCH   2   3
ATOM      3  C   UNL     1      -7.448  -5.074   7.283  1.00  0.00     0.000 C 
BRANCH   3   4
ATOM      4  C   UNL     1      -6.808  -4.927   8.676  1.00  0.00     0.006 C 
BRANCH   4   5
ATOM      5  C   UNL     1      -5.629  -3.938   8.721  1.00  0.00     0.053 C 
BRANCH   5   6
ATOM      6  C   UNL     1      -4.304  -4.607   8.517  1.00  0.00     0.041 C 
ATOM      7  O   UNL     1      -3.713  -5.157   9.483  1.00  0.00    -0.550 OA
ATOM      8  O   UNL     1      -3.736  -4.651   7.250  1.00  0.00    -0.550 OA
ENDBRANCH   5   6
ENDBRANCH   4   5
ENDBRANCH   3   4
ENDBRANCH   2   3
ENDBRANCH   1   2
BRANCH   1   9
ATOM      9  C   UNL     1      -8.775  -1.693   6.569  1.00  0.00     0.000 C 
BRANCH   9  10
ATOM     10  C   UNL     1      -7.444  -1.258   7.196  1.00  0.00    -0.000 C 
BRANCH  10  11
ATOM     11  C   UNL     1      -7.651  -0.736   8.623  1.00  0.00    -0.000 C 
BRANCH  11  12
ATOM     12  C   UNL     1      -9.044  -1.109   9.149  1.00  0.00    -0.000 C 
BRANCH  12  13
ATOM     13  C   UNL     1      -9.006  -2.284  10.139  1.00  0.00    -0.003 C 
ATOM     14  C   UNL     1     -10.037  -3.365   9.814  1.00  0.00     0.004 C 
ENDBRANCH  12  13
ENDBRANCH  11  12
ENDBRANCH  10  11
ENDBRANCH   9  10
ENDBRANCH   1   9
TORSDOF 10
ENDMDL
MODEL 5
REMARK VINA RESULT:    -3.614      1.767      3.070
REMARK INTER + INTRA:          -7.176
REMARK INTER:                  -6.037
REMARK INTRA:                  -1.139
REMARK UNBOUND:                -1.450
REMARK SMILES CCCCCCCCCCCC(=O)[O-]
REMARK SMILES IDX 7 1 8 2 9 3 10 4 11 5 12 6 13 7 14 8 6 9 5 10 4 11 3 12 2 13
REMARK SMILES IDX 1 14
REMARK H PARENT
REMARK Flexibility Score: inf
ROOT
ATOM      1  C   UNL     1      -3.706  -4.488   9.550  1.00  0.00     0.000 C 
ENDROOT
BRANCH   1   2
ATOM      2  C   UNL     1      -5.009  -4.847   8.824  1.00  0.00     0.000 C 
BRANCH   2   3
ATOM      3  C   UNL     1      -6.049  -3.728   8.972  1.00  0.00     0.000 C 
BRANCH   3   4
ATOM      4  C   UNL     1      -7.471  -4.170   8.582  1.00  0.00     0.006 C 
BRANCH   4   5
ATOM      5  C   UNL     1      -7.804  -3.959   7.093  1.00  0.00     0.053 C 
BRANCH   5   6
ATOM      6  C   UNL     1      -7.822  -5.241   6.317  1.00  0.00     0.041 C 
ATOM      7  O   UNL     1      -7.435  -6.314   6.851  1.00  0.00    -0.550 OA
ATOM      8  O   UNL     1      -8.297  -5.256   5.012  1.00  0.00    -0.550 OA
ENDBRANCH   5   6
ENDBRANCH   4   5
ENDBRANCH   3   4
ENDBRANCH   2   3
ENDBRANCH   1   2
BRANCH   1   9
ATOM      9  C   UNL     1      -2.485  -4.993   8.774  1.00  0.00     0.000 C 
BRANCH   9  10
ATOM     10  C   UNL     1      -1.408  -3.906   8.673  1.00  0.00    -0.000 C 
BRANCH  10  11
ATOM     11  C   UNL     1      -2.034  -2.529   8.425  1.00  0.00    -0.000 C 
BRANCH  11  12
ATOM     12  C   UNL     1      -1.875  -2.109   6.957  1.00  0.00    -0.000 C 
BRANCH  12  13
ATOM     13  C   UNL     1      -3.224  -1.845   6.269  1.00  0.00    -0.003 C 
ATOM     14  C   UNL     1      -3.861  -3.117   5.708  1.00  0.00     0.004 C 
ENDBRANCH  12  13
ENDBRANCH  11  12
ENDBRANCH  10  11
ENDBRANCH   9  10
ENDBRANCH   1   9
TORSDOF 10
ENDMDL
MODEL 6
REMARK VINA RESULT:    -3.607      3.257      5.803
REMARK INTER + INTRA:          -7.165
REMARK INTER:                  -6.094
REMARK INTRA:                  -1.071
REMARK UNBOUND:                -1.450
REMARK SMILES CCCCCCCCCCCC(=O)[O-]
REMARK SMILES IDX 7 1 8 2 9 3 10 4 11 5 12 6 13 7 14 8 6 9 5 10 4 11 3 12 2 13
REMARK SMILES IDX 1 14
REMARK H PARENT
REMARK Flexibility Score: inf
ROOT
ATOM      1  C   UNL     1      -7.737  -3.174   7.434  1.00  0.00     0.000 C 
ENDROOT
BRANCH   1   2
ATOM      2  C   UNL     1      -7.435  -4.674   7.337  1.00  0.00     0.000 C 
BRANCH   2   3
ATOM      3  C   UNL     1      -6.674  -5.165   8.576  1.00  0.00     0.000 C 
BRANCH   3   4
ATOM      4  C   UNL     1      -5.594  -4.176   9.052  1.00  0.00     0.006 C 
BRANCH   4   5
ATOM      5  C   UNL     1      -4.250  -4.840   9.401  1.00  0.00     0.053 C 
BRANCH   5   6
ATOM      6  C   UNL     1      -3.264  -4.777   8.274  1.00  0.00     0.041 C 
ATOM      7  O   UNL     1      -2.070  -5.135   8.452  1.00  0.00    -0.550 OA
ATOM      8  O   UNL     1      -3.673  -4.352   7.017  1.00  0.00    -0.550 OA
ENDBRANCH   5   6
ENDBRANCH   4   5
ENDBRANCH   3   4
ENDBRANCH   2   3
ENDBRANCH   1   2
BRANCH   1   9
ATOM      9  C   UNL     1      -9.247  -2.915   7.452  1.00  0.00     0.000 C 
BRANCH   9  10
ATOM     10  C   UNL     1      -9.795  -2.949   8.885  1.00  0.00    -0.000 C 
BRANCH  10  11
ATOM     11  C   UNL     1      -8.795  -2.335   9.872  1.00  0.00    -0.000 C 
BRANCH  11  12
ATOM     12  C   UNL     1      -9.344  -1.031  10.470  1.00  0.00    -0.000 C 
BRANCH  12  13
ATOM     13  C   UNL     1      -8.930   0.209   9.663  1.00  0.00    -0.003 C 
ATOM     14  C   UNL     1      -7.487   0.136   9.164  1.00  0.00     0.004 C 
ENDBRANCH  12  13
ENDBRANCH  11  12
ENDBRANCH  10  11
ENDBRANCH   9  10
ENDBRANCH   1   9
TORSDOF 10
ENDMDL
MODEL 7
REMARK VINA RESULT:    -3.533     10.510     12.599
REMARK INTER + INTRA:          -7.049
REMARK INTER:                  -5.505
REMARK INTRA:                  -1.544
REMARK UNBOUND:                -1.450
REMARK SMILES CCCCCCCCCCCC(=O)[O-]
REMARK SMILES IDX 7 1 8 2 9 3 10 4 11 5 12 6 13 7 14 8 6 9 5 10 4 11 3 12 2 13
REMARK SMILES IDX 1 14
REMARK H PARENT
REMARK Flexibility Score: inf
ROOT
ATOM      1  C   UNL     1       4.614   3.234   6.219  1.00  0.00     0.000 C 
ENDROOT
BRANCH   1   2
ATOM      2  C   UNL     1       4.959   2.384   7.448  1.00  0.00     0.000 C 
BRANCH   2   3
ATOM      3  C   UNL     1       5.414   3.266   8.619  1.00  0.00     0.000 C 
BRANCH   3   4
ATOM      4  C   UNL     1       5.423   4.767   8.277  1.00  0.00     0.006 C 
BRANCH   4   5
ATOM      5  C   UNL     1       6.821   5.410   8.326  1.00  0.00     0.053 C 
BRANCH   5   6
ATOM      6  C   UNL     1       7.549   5.313   7.019  1.00  0.00     0.041 C 
ATOM      7  O   UNL     1       7.485   6.253   6.184  1.00  0.00    -0.550 OA
ATOM      8  O   UNL     1       8.325   4.196   6.738  1.00  0.00    -0.550 OA
ENDBRANCH   5   6
ENDBRANCH   4   5
ENDBRANCH   3   4
ENDBRANCH   2   3
ENDBRANCH   1   2
BRANCH   1   9
ATOM      9  C   UNL     1       3.176   2.978   5.758  1.00  0.00     0.000 C 
BRANCH   9  10
ATOM     10  C   UNL     1       2.395   2.174   6.805  1.00  0.00    -0.000 C 
BRANCH  10  11
ATOM     11  C   UNL     1       1.319   3.037   7.474  1.00  0.00    -0.000 C 
BRANCH  11  12
ATOM     12  C   UNL     1       1.596   3.194   8.977  1.00  0.00    -0.000 C 
BRANCH  12  13
ATOM     13  C   UNL     1       1.911   4.646   9.371  1.00  0.00    -0.003 C 
ATOM     14  C   UNL     1       1.924   5.595   8.172  1.00  0.00     0.004 C 
ENDBRANCH  12  13
ENDBRANCH  11  12
ENDBRANCH  10  11
ENDBRANCH   9  10
ENDBRANCH   1   9
TORSDOF 10
ENDMDL
MODEL 8
REMARK VINA RESULT:    -3.521      1.533      2.764
REMARK INTER + INTRA:          -7.030
REMARK INTER:                  -6.159
REMARK INTRA:                  -0.871
REMARK UNBOUND:                -1.450
REMARK SMILES CCCCCCCCCCCC(=O)[O-]
REMARK SMILES IDX 7 1 8 2 9 3 10 4 11 5 12 6 13 7 14 8 6 9 5 10 4 11 3 12 2 13
REMARK SMILES IDX 1 14
REMARK H PARENT
REMARK Flexibility Score: inf
ROOT
ATOM      1  C   UNL     1      -5.105  -3.306   9.112  1.00  0.00     0.000 C 
ENDROOT
BRANCH   1   2
ATOM      2  C   UNL     1      -6.575  -3.558   8.757  1.00  0.00     0.000 C 
BRANCH   2   3
ATOM      3  C   UNL     1      -6.875  -5.062   8.684  1.00  0.00     0.000 C 
BRANCH   3   4
ATOM      4  C   UNL     1      -7.439  -5.500   7.320  1.00  0.00     0.006 C 
BRANCH   4   5
ATOM      5  C   UNL     1      -7.371  -4.409   6.236  1.00  0.00     0.053 C 
BRANCH   5   6
ATOM      6  C   UNL     1      -8.388  -4.606   5.153  1.00  0.00     0.041 C 
ATOM      7  O   UNL     1      -9.326  -3.779   5.002  1.00  0.00    -0.550 OA
ATOM      8  O   UNL     1      -8.281  -5.688   4.289  1.00  0.00    -0.550 OA
ENDBRANCH   5   6
ENDBRANCH   4   5
ENDBRANCH   3   4
ENDBRANCH   2   3
ENDBRANCH   1   2
BRANCH   1   9
ATOM      9  C   UNL     1      -4.334  -4.625   9.238  1.00  0.00     0.000 C 
BRANCH   9  10
ATOM     10  C   UNL     1      -3.272  -4.750   8.139  1.00  0.00    -0.000 C 
BRANCH  10  11
ATOM     11  C   UNL     1      -1.863  -4.830   8.740  1.00  0.00    -0.000 C 
BRANCH  11  12
ATOM     12  C   UNL     1      -1.400  -3.453   9.240  1.00  0.00    -0.000 C 
BRANCH  12  13
ATOM     13  C   UNL     1      -1.096  -3.443  10.746  1.00  0.00    -0.003 C 
ATOM     14  C   UNL     1      -2.151  -2.689  11.557  1.00  0.00     0.004 C 
ENDBRANCH  12  13
ENDBRANCH  11  12
ENDBRANCH  10  11
ENDBRANCH   9  10
ENDBRANCH   1   9
TORSDOF 10
ENDMDL
MODEL 9
REMARK VINA RESULT:    -3.486     11.753     13.054
REMARK INTER + INTRA:          -6.975
REMARK INTER:                  -5.791
REMARK INTRA:                  -1.184
REMARK UNBOUND:                -1.450
REMARK SMILES CCCCCCCCCCCC(=O)[O-]
REMARK SMILES IDX 7 1 8 2 9 3 10 4 11 5 12 6 13 7 14 8 6 9 5 10 4 11 3 12 2 13
REMARK SMILES IDX 1 14
REMARK H PARENT
REMARK Flexibility Score: inf
ROOT
ATOM      1  C   UNL     1       8.007   3.867   9.133  1.00  0.00     0.000 C 
ENDROOT
BRANCH   1   2
ATOM      2  C   UNL     1       7.802   4.810   7.941  1.00  0.00     0.000 C 
BRANCH   2   3
ATOM      3  C   UNL     1       6.454   5.537   8.039  1.00  0.00     0.000 C 
BRANCH   3   4
ATOM      4  C   UNL     1       5.345   4.672   8.665  1.00  0.00     0.006 C 
BRANCH   4   5
ATOM      5  C   UNL     1       4.032   5.433   8.926  1.00  0.00     0.053 C 
BRANCH   5   6
ATOM      6  C   UNL     1       3.037   5.267   7.818  1.00  0.00     0.041 C 
ATOM      7  O   UNL     1       1.856   5.683   7.955  1.00  0.00    -0.550 OA
ATOM      8  O   UNL     1       3.424   4.680   6.620  1.00  0.00    -0.550 OA
ENDBRANCH   5   6
ENDBRANCH   4   5
ENDBRANCH   3   4
ENDBRANCH   2   3
ENDBRANCH   1   2
BRANCH   1   9
ATOM      9  C   UNL     1       9.259   3.003   8.944  1.00  0.00     0.000 C 
BRANCH   9  10
ATOM     10  C   UNL     1       8.981   1.541   9.316  1.00  0.00    -0.000 C 
BRANCH  10  11
ATOM     11  C   UNL     1       7.643   1.068   8.736  1.00  0.00    -0.000 C 
BRANCH  11  12
ATOM     12  C   UNL     1       7.849   0.353   7.392  1.00  0.00    -0.000 C 
BRANCH  12  13
ATOM     13  C   UNL     1       7.522   1.252   6.189  1.00  0.00    -0.003 C 
ATOM     14  C   UNL     1       6.141   1.899   6.293  1.00  0.00     0.004 C 
ENDBRANCH  12  13
ENDBRANCH  11  12
ENDBRANCH  10  11
ENDBRANCH   9  10
ENDBRANCH   1   9
TORSDOF 10
ENDMDL
