MODEL 1
REMARK VINA RESULT:    -5.441      0.000      0.000
REMARK INTER + INTRA:          -6.502
REMARK INTER:                  -6.395
REMARK INTRA:                  -0.106
REMARK UNBOUND:                -0.106
REMARK SMILES O=c1c(O)c(-c2ccc(O)c(O)c2)oc2cc(O)ccc12
REMARK SMILES IDX 5 1 3 2 2 3 1 4 21 5 15 6 14 7 16 8 17 9 19 10 20 11 6 12
REMARK SMILES IDX 7 13 8 14 9 15 13 16 11 17 10 18 12 20 4 22 18 24
REMARK H PARENT 10 19 12 21 4 23 18 25
REMARK Flexibility Score: inf
ROOT
ATOM      1  C   UNL     1      45.196  15.791  -3.385  1.00  0.00     0.180 A 
ATOM      2  C   UNL     1      44.592  14.584  -2.974  1.00  0.00     0.208 A 
ATOM      3  C   UNL     1      45.392  13.439  -2.836  1.00  0.00     0.235 A 
ATOM      4  O   UNL     1      44.877  12.351  -2.460  1.00  0.00    -0.285 OA
ATOM      5  C   UNL     1      46.764  13.516  -3.126  1.00  0.00     0.069 A 
ATOM      6  C   UNL     1      47.288  14.756  -3.553  1.00  0.00     0.142 A 
ATOM      7  O   UNL     1      46.498  15.818  -3.664  1.00  0.00    -0.452 OA
ATOM      8  C   UNL     1      48.648  14.871  -3.862  1.00  0.00     0.094 A 
ATOM      9  C   UNL     1      49.495  13.760  -3.746  1.00  0.00     0.119 A 
ATOM     10  C   UNL     1      48.978  12.532  -3.321  1.00  0.00     0.047 A 
ATOM     11  C   UNL     1      47.620  12.406  -3.011  1.00  0.00     0.020 A 
ENDROOT
BRANCH   1  12
ATOM     12  C   UNL     1      44.424  17.044  -3.537  1.00  0.00     0.025 A 
ATOM     13  C   UNL     1      44.464  17.737  -4.756  1.00  0.00     0.016 A 
ATOM     14  C   UNL     1      43.760  18.933  -4.916  1.00  0.00     0.051 A 
ATOM     15  C   UNL     1      43.018  19.462  -3.853  1.00  0.00     0.157 A 
ATOM     16  C   UNL     1      43.694  17.590  -2.465  1.00  0.00     0.062 A 
ATOM     17  C   UNL     1      42.989  18.789  -2.621  1.00  0.00     0.158 A 
BRANCH  15  18
ATOM     18  O   UNL     1      42.314  20.655  -4.015  1.00  0.00    -0.504 OA
ATOM     19  H   UNL     1      42.678  21.536  -3.671  1.00  0.00     0.293 HD
ENDBRANCH  15  18
BRANCH  17  20
ATOM     20  O   UNL     1      42.271  19.298  -1.538  1.00  0.00    -0.504 OA
ATOM     21  H   UNL     1      42.371  18.922  -0.602  1.00  0.00     0.293 HD
ENDBRANCH  17  20
ENDBRANCH   1  12
BRANCH   2  22
ATOM     22  O   UNL     1      43.216  14.525  -2.740  1.00  0.00    -0.502 OA
ATOM     23  H   UNL     1      42.552  14.293  -3.468  1.00  0.00     0.293 HD
ENDBRANCH   2  22
BRANCH   9  24
ATOM     24  O   UNL     1      50.850  13.867  -4.050  1.00  0.00    -0.508 OA
ATOM     25  H   UNL     1      51.561  13.817  -3.330  1.00  0.00     0.293 HD
ENDBRANCH   9  24
TORSDOF 5
ENDMDL
MODEL 2
REMARK VINA RESULT:    -5.385      1.102      1.342
REMARK INTER + INTRA:          -6.436
REMARK INTER:                  -6.365
REMARK INTRA:                  -0.071
REMARK UNBOUND:                -0.106
REMARK SMILES O=c1c(O)c(-c2ccc(O)c(O)c2)oc2cc(O)ccc12
REMARK SMILES IDX 5 1 3 2 2 3 1 4 21 5 15 6 14 7 16 8 17 9 19 10 20 11 6 12
REMARK SMILES IDX 7 13 8 14 9 15 13 16 11 17 10 18 12 20 4 22 18 24
REMARK H PARENT 10 19 12 21 4 23 18 25
REMARK Flexibility Score: inf
ROOT
ATOM      1  C   UNL     1      45.965  16.002  -3.824  1.00  0.00     0.180 A 
ATOM      2  C   UNL     1      45.706  14.653  -3.504  1.00  0.00     0.208 A 
ATOM      3  C   UNL     1      46.772  13.740  -3.504  1.00  0.00     0.235 A 
ATOM      4  O   UNL     1      46.566  12.531  -3.211  1.00  0.00    -0.285 OA
ATOM      5  C   UNL     1      48.061  14.184  -3.839  1.00  0.00     0.069 A 
ATOM      6  C   UNL     1      48.235  15.546  -4.169  1.00  0.00     0.142 A 
ATOM      7  O   UNL     1      47.200  16.379  -4.149  1.00  0.00    -0.452 OA
ATOM      8  C   UNL     1      49.501  16.025  -4.518  1.00  0.00     0.094 A 
ATOM      9  C   UNL     1      50.603  15.159  -4.538  1.00  0.00     0.119 A 
ATOM     10  C   UNL     1      50.434  13.810  -4.209  1.00  0.00     0.047 A 
ATOM     11  C   UNL     1      49.172  13.321  -3.861  1.00  0.00     0.020 A 
ENDROOT
BRANCH   1  12
ATOM     12  C   UNL     1      44.898  17.028  -3.829  1.00  0.00     0.025 A 
ATOM     13  C   UNL     1      44.729  17.843  -4.959  1.00  0.00     0.016 A 
ATOM     14  C   UNL     1      43.742  18.831  -4.978  1.00  0.00     0.051 A 
ATOM     15  C   UNL     1      42.920  19.031  -3.861  1.00  0.00     0.157 A 
ATOM     16  C   UNL     1      44.085  17.245  -2.702  1.00  0.00     0.062 A 
ATOM     17  C   UNL     1      43.097  18.236  -2.717  1.00  0.00     0.158 A 
BRANCH  15  18
ATOM     18  O   UNL     1      41.934  20.016  -3.883  1.00  0.00    -0.504 OA
ATOM     19  H   UNL     1      41.714  20.528  -4.730  1.00  0.00     0.293 HD
ENDBRANCH  15  18
BRANCH  17  20
ATOM     20  O   UNL     1      42.304  18.419  -1.583  1.00  0.00    -0.504 OA
ATOM     21  H   UNL     1      42.436  17.872  -0.740  1.00  0.00     0.293 HD
ENDBRANCH  17  20
ENDBRANCH   1  12
BRANCH   2  22
ATOM     22  O   UNL     1      44.404  14.230  -3.224  1.00  0.00    -0.502 OA
ATOM     23  H   UNL     1      43.666  14.876  -2.974  1.00  0.00     0.293 HD
ENDBRANCH   2  22
BRANCH   9  24
ATOM     24  O   UNL     1      51.868  15.628  -4.884  1.00  0.00    -0.508 OA
ATOM     25  H   UNL     1      52.037  16.611  -5.068  1.00  0.00     0.293 HD
ENDBRANCH   9  24
TORSDOF 5
ENDMDL
MODEL 3
REMARK VINA RESULT:    -5.379      1.899      6.868
REMARK INTER + INTRA:          -6.428
REMARK INTER:                  -6.856
REMARK INTRA:                   0.427
REMARK UNBOUND:                -0.106
REMARK SMILES O=c1c(O)c(-c2ccc(O)c(O)c2)oc2cc(O)ccc12
REMARK SMILES IDX 5 1 3 2 2 3 1 4 21 5 15 6 14 7 16 8 17 9 19 10 20 11 6 12
REMARK SMILES IDX 7 13 8 14 9 15 13 16 11 17 10 18 12 20 4 22 18 24
REMARK H PARENT 10 19 12 21 4 23 18 25
REMARK Flexibility Score: inf
ROOT
ATOM      1  C   UNL     1      46.167  16.467  -4.133  1.00  0.00     0.180 A 
ATOM      2  C   UNL     1      45.834  17.456  -5.081  1.00  0.00     0.208 A 
ATOM      3  C   UNL     1      44.566  18.055  -5.017  1.00  0.00     0.235 A 
ATOM      4  O   UNL     1      44.248  18.949  -5.848  1.00  0.00    -0.285 OA
ATOM      5  C   UNL     1      43.657  17.644  -4.029  1.00  0.00     0.069 A 
ATOM      6  C   UNL     1      44.059  16.631  -3.131  1.00  0.00     0.142 A 
ATOM      7  O   UNL     1      45.271  16.096  -3.220  1.00  0.00    -0.452 OA
ATOM      8  C   UNL     1      43.179  16.186  -2.139  1.00  0.00     0.094 A 
ATOM      9  C   UNL     1      41.898  16.745  -2.029  1.00  0.00     0.119 A 
ATOM     10  C   UNL     1      41.499  17.750  -2.916  1.00  0.00     0.047 A 
ATOM     11  C   UNL     1      42.370  18.200  -3.913  1.00  0.00     0.020 A 
ENDROOT
BRANCH   1  12
ATOM     12  C   UNL     1      47.490  15.802  -4.123  1.00  0.00     0.025 A 
ATOM     13  C   UNL     1      48.573  16.409  -4.776  1.00  0.00     0.016 A 
ATOM     14  C   UNL     1      49.825  15.790  -4.797  1.00  0.00     0.051 A 
ATOM     15  C   UNL     1      50.009  14.547  -4.179  1.00  0.00     0.157 A 
ATOM     16  C   UNL     1      47.673  14.543  -3.521  1.00  0.00     0.062 A 
ATOM     17  C   UNL     1      48.925  13.919  -3.542  1.00  0.00     0.158 A 
BRANCH  15  18
ATOM     18  O   UNL     1      51.260  13.931  -4.199  1.00  0.00    -0.504 OA
ATOM     19  H   UNL     1      51.812  13.824  -3.356  1.00  0.00     0.293 HD
ENDBRANCH  15  18
BRANCH  17  20
ATOM     20  O   UNL     1      49.072  12.674  -2.930  1.00  0.00    -0.504 OA
ATOM     21  H   UNL     1      49.028  12.561  -1.924  1.00  0.00     0.293 HD
ENDBRANCH  17  20
ENDBRANCH   1  12
BRANCH   2  22
ATOM     22  O   UNL     1      46.740  17.810  -6.084  1.00  0.00    -0.502 OA
ATOM     23  H   UNL     1      47.364  18.602  -5.995  1.00  0.00     0.293 HD
ENDBRANCH   2  22
BRANCH   9  24
ATOM     24  O   UNL     1      41.016  16.309  -1.043  1.00  0.00    -0.508 OA
ATOM     25  H   UNL     1      40.037  16.139  -1.245  1.00  0.00     0.293 HD
ENDBRANCH   9  24
TORSDOF 5
ENDMDL
MODEL 4
REMARK VINA RESULT:    -5.367      2.044      3.141
REMARK INTER + INTRA:          -6.415
REMARK INTER:                  -6.141
REMARK INTRA:                  -0.274
REMARK UNBOUND:                -0.106
REMARK SMILES O=c1c(O)c(-c2ccc(O)c(O)c2)oc2cc(O)ccc12
REMARK SMILES IDX 5 1 3 2 2 3 1 4 21 5 15 6 14 7 16 8 17 9 19 10 20 11 6 12
REMARK SMILES IDX 7 13 8 14 9 15 13 16 11 17 10 18 12 20 4 22 18 24
REMARK H PARENT 10 19 12 21 4 23 18 25
REMARK Flexibility Score: inf
ROOT
ATOM      1  C   UNL     1      44.905  15.806  -3.400  1.00  0.00     0.180 A 
ATOM      2  C   UNL     1      45.567  16.738  -4.226  1.00  0.00     0.208 A 
ATOM      3  C   UNL     1      46.900  16.493  -4.590  1.00  0.00     0.235 A 
ATOM      4  O   UNL     1      47.510  17.307  -5.336  1.00  0.00    -0.285 OA
ATOM      5  C   UNL     1      47.546  15.341  -4.112  1.00  0.00     0.069 A 
ATOM      6  C   UNL     1      46.822  14.469  -3.271  1.00  0.00     0.142 A 
ATOM      7  O   UNL     1      45.558  14.733  -2.956  1.00  0.00    -0.452 OA
ATOM      8  C   UNL     1      47.433  13.317  -2.765  1.00  0.00     0.094 A 
ATOM      9  C   UNL     1      48.764  13.022  -3.093  1.00  0.00     0.119 A 
ATOM     10  C   UNL     1      49.482  13.884  -3.927  1.00  0.00     0.047 A 
ATOM     11  C   UNL     1      48.881  15.039  -4.436  1.00  0.00     0.020 A 
ENDROOT
BRANCH   1  12
ATOM     12  C   UNL     1      43.495  15.984  -2.986  1.00  0.00     0.025 A 
ATOM     13  C   UNL     1      42.482  15.296  -3.671  1.00  0.00     0.016 A 
ATOM     14  C   UNL     1      41.143  15.464  -3.312  1.00  0.00     0.051 A 
ATOM     15  C   UNL     1      40.795  16.336  -2.273  1.00  0.00     0.157 A 
ATOM     16  C   UNL     1      43.140  16.875  -1.957  1.00  0.00     0.062 A 
ATOM     17  C   UNL     1      41.799  17.048  -1.596  1.00  0.00     0.158 A 
BRANCH  15  18
ATOM     18  O   UNL     1      39.458  16.502  -1.915  1.00  0.00    -0.504 OA
ATOM     19  H   UNL     1      39.180  17.152  -1.188  1.00  0.00     0.293 HD
ENDBRANCH  15  18
BRANCH  17  20
ATOM     20  O   UNL     1      41.484  17.934  -0.566  1.00  0.00    -0.504 OA
ATOM     21  H   UNL     1      40.617  17.869  -0.046  1.00  0.00     0.293 HD
ENDBRANCH  17  20
ENDBRANCH   1  12
BRANCH   2  22
ATOM     22  O   UNL     1      44.915  17.900  -4.646  1.00  0.00    -0.502 OA
ATOM     23  H   UNL     1      45.041  18.790  -4.181  1.00  0.00     0.293 HD
ENDBRANCH   2  22
BRANCH   9  24
ATOM     24  O   UNL     1      49.379  11.876  -2.594  1.00  0.00    -0.508 OA
ATOM     25  H   UNL     1      50.014  11.916  -1.805  1.00  0.00     0.293 HD
ENDBRANCH   9  24
TORSDOF 5
ENDMDL
MODEL 5
REMARK VINA RESULT:    -5.263      1.902      2.620
REMARK INTER + INTRA:          -6.292
REMARK INTER:                  -6.260
REMARK INTRA:                  -0.032
REMARK UNBOUND:                -0.106
REMARK SMILES O=c1c(O)c(-c2ccc(O)c(O)c2)oc2cc(O)ccc12
REMARK SMILES IDX 5 1 3 2 2 3 1 4 21 5 15 6 14 7 16 8 17 9 19 10 20 11 6 12
REMARK SMILES IDX 7 13 8 14 9 15 13 16 11 17 10 18 12 20 4 22 18 24
REMARK H PARENT 10 19 12 21 4 23 18 25
REMARK Flexibility Score: inf
ROOT
ATOM      1  C   UNL     1      45.183  15.296  -3.279  1.00  0.00     0.180 A 
ATOM      2  C   UNL     1      45.653  15.187  -4.605  1.00  0.00     0.208 A 
ATOM      3  C   UNL     1      46.691  14.284  -4.883  1.00  0.00     0.235 A 
ATOM      4  O   UNL     1      47.121  14.162  -6.062  1.00  0.00    -0.285 OA
ATOM      5  C   UNL     1      47.246  13.527  -3.839  1.00  0.00     0.069 A 
ATOM      6  C   UNL     1      46.735  13.710  -2.535  1.00  0.00     0.142 A 
ATOM      7  O   UNL     1      45.746  14.570  -2.316  1.00  0.00    -0.452 OA
ATOM      8  C   UNL     1      47.269  12.983  -1.466  1.00  0.00     0.094 A 
ATOM      9  C   UNL     1      48.309  12.068  -1.684  1.00  0.00     0.119 A 
ATOM     10  C   UNL     1      48.815  11.884  -2.975  1.00  0.00     0.047 A 
ATOM     11  C   UNL     1      48.290  12.608  -4.050  1.00  0.00     0.020 A 
ENDROOT
BRANCH   1  12
ATOM     12  C   UNL     1      44.080  16.212  -2.909  1.00  0.00     0.025 A 
ATOM     13  C   UNL     1      44.190  17.579  -3.204  1.00  0.00     0.016 A 
ATOM     14  C   UNL     1      43.171  18.465  -2.846  1.00  0.00     0.051 A 
ATOM     15  C   UNL     1      42.035  18.000  -2.172  1.00  0.00     0.157 A 
ATOM     16  C   UNL     1      42.947  15.751  -2.213  1.00  0.00     0.062 A 
ATOM     17  C   UNL     1      41.926  16.636  -1.851  1.00  0.00     0.158 A 
BRANCH  15  18
ATOM     18  O   UNL     1      41.018  18.885  -1.816  1.00  0.00    -0.504 OA
ATOM     19  H   UNL     1      40.575  18.846  -0.905  1.00  0.00     0.293 HD
ENDBRANCH  15  18
BRANCH  17  20
ATOM     20  O   UNL     1      40.814  16.144  -1.167  1.00  0.00    -0.504 OA
ATOM     21  H   UNL     1      40.016  15.750  -1.651  1.00  0.00     0.293 HD
ENDBRANCH  17  20
ENDBRANCH   1  12
BRANCH   2  22
ATOM     22  O   UNL     1      45.115  15.988  -5.614  1.00  0.00    -0.502 OA
ATOM     23  H   UNL     1      45.062  16.996  -5.536  1.00  0.00     0.293 HD
ENDBRANCH   2  22
BRANCH   9  24
ATOM     24  O   UNL     1      48.845  11.340  -0.625  1.00  0.00    -0.508 OA
ATOM     25  H   UNL     1      48.489  11.436   0.319  1.00  0.00     0.293 HD
ENDBRANCH   9  24
TORSDOF 5
ENDMDL
MODEL 6
REMARK VINA RESULT:    -5.169      2.508      7.008
REMARK INTER + INTRA:          -6.182
REMARK INTER:                  -5.872
REMARK INTRA:                  -0.310
REMARK UNBOUND:                -0.106
REMARK SMILES O=c1c(O)c(-c2ccc(O)c(O)c2)oc2cc(O)ccc12
REMARK SMILES IDX 5 1 3 2 2 3 1 4 21 5 15 6 14 7 16 8 17 9 19 10 20 11 6 12
REMARK SMILES IDX 7 13 8 14 9 15 13 16 11 17 10 18 12 20 4 22 18 24
REMARK H PARENT 10 19 12 21 4 23 18 25
REMARK Flexibility Score: inf
ROOT
ATOM      1  C   UNL     1      43.511  17.579  -3.807  1.00  0.00     0.180 A 
ATOM      2  C   UNL     1      42.402  16.867  -4.309  1.00  0.00     0.208 A 
ATOM      3  C   UNL     1      41.116  17.219  -3.869  1.00  0.00     0.235 A 
ATOM      4  O   UNL     1      40.108  16.603  -4.311  1.00  0.00    -0.285 OA
ATOM      5  C   UNL     1      40.966  18.252  -2.931  1.00  0.00     0.069 A 
ATOM      6  C   UNL     1      42.128  18.902  -2.460  1.00  0.00     0.142 A 
ATOM      7  O   UNL     1      43.326  18.544  -2.908  1.00  0.00    -0.452 OA
ATOM      8  C   UNL     1      42.021  19.929  -1.517  1.00  0.00     0.094 A 
ATOM      9  C   UNL     1      40.763  20.321  -1.038  1.00  0.00     0.119 A 
ATOM     10  C   UNL     1      39.611  19.680  -1.505  1.00  0.00     0.047 A 
ATOM     11  C   UNL     1      39.707  18.651  -2.446  1.00  0.00     0.020 A 
ENDROOT
BRANCH   1  12
ATOM     12  C   UNL     1      44.897  17.281  -4.235  1.00  0.00     0.025 A 
ATOM     13  C   UNL     1      45.391  17.849  -5.419  1.00  0.00     0.016 A 
ATOM     14  C   UNL     1      46.688  17.565  -5.854  1.00  0.00     0.051 A 
ATOM     15  C   UNL     1      47.504  16.697  -5.119  1.00  0.00     0.157 A 
ATOM     16  C   UNL     1      45.712  16.393  -3.511  1.00  0.00     0.062 A 
ATOM     17  C   UNL     1      47.011  16.104  -3.944  1.00  0.00     0.158 A 
BRANCH  15  18
ATOM     18  O   UNL     1      48.799  16.416  -5.553  1.00  0.00    -0.504 OA
ATOM     19  H   UNL     1      49.503  16.053  -4.920  1.00  0.00     0.293 HD
ENDBRANCH  15  18
BRANCH  17  20
ATOM     20  O   UNL     1      47.794  15.223  -3.198  1.00  0.00    -0.504 OA
ATOM     21  H   UNL     1      47.557  14.243  -3.099  1.00  0.00     0.293 HD
ENDBRANCH  17  20
ENDBRANCH   1  12
BRANCH   2  22
ATOM     22  O   UNL     1      42.586  15.811  -5.204  1.00  0.00    -0.502 OA
ATOM     23  H   UNL     1      43.352  15.155  -5.118  1.00  0.00     0.293 HD
ENDBRANCH   2  22
BRANCH   9  24
ATOM     24  O   UNL     1      40.648  21.344  -0.100  1.00  0.00    -0.508 OA
ATOM     25  H   UNL     1      40.225  21.186   0.807  1.00  0.00     0.293 HD
ENDBRANCH   9  24
TORSDOF 5
ENDMDL
MODEL 7
REMARK VINA RESULT:    -4.983      1.616      7.112
REMARK INTER + INTRA:          -5.963
REMARK INTER:                  -6.251
REMARK INTRA:                   0.288
REMARK UNBOUND:                -0.106
REMARK SMILES O=c1c(O)c(-c2ccc(O)c(O)c2)oc2cc(O)ccc12
REMARK SMILES IDX 5 1 3 2 2 3 1 4 21 5 15 6 14 7 16 8 17 9 19 10 20 11 6 12
REMARK SMILES IDX 7 13 8 14 9 15 13 16 11 17 10 18 12 20 4 22 18 24
REMARK H PARENT 10 19 12 21 4 23 18 25
REMARK Flexibility Score: inf
ROOT
ATOM      1  C   UNL     1      45.672  15.733  -3.487  1.00  0.00     0.180 A 
ATOM      2  C   UNL     1      45.887  16.581  -4.594  1.00  0.00     0.208 A 
ATOM      3  C   UNL     1      44.988  17.634  -4.825  1.00  0.00     0.235 A 
ATOM      4  O   UNL     1      45.165  18.412  -5.803  1.00  0.00    -0.285 OA
ATOM      5  C   UNL     1      43.892  17.808  -3.965  1.00  0.00     0.069 A 
ATOM      6  C   UNL     1      43.734  16.904  -2.892  1.00  0.00     0.142 A 
ATOM      7  O   UNL     1      44.612  15.924  -2.704  1.00  0.00    -0.452 OA
ATOM      8  C   UNL     1      42.649  17.036  -2.019  1.00  0.00     0.094 A 
ATOM      9  C   UNL     1      41.718  18.068  -2.203  1.00  0.00     0.119 A 
ATOM     10  C   UNL     1      41.874  18.966  -3.263  1.00  0.00     0.047 A 
ATOM     11  C   UNL     1      42.954  18.841  -4.143  1.00  0.00     0.020 A 
ENDROOT
BRANCH   1  12
ATOM     12  C   UNL     1      46.584  14.612  -3.167  1.00  0.00     0.025 A 
ATOM     13  C   UNL     1      46.107  13.527  -2.417  1.00  0.00     0.016 A 
ATOM     14  C   UNL     1      46.954  12.467  -2.085  1.00  0.00     0.051 A 
ATOM     15  C   UNL     1      48.297  12.485  -2.484  1.00  0.00     0.157 A 
ATOM     16  C   UNL     1      47.938  14.637  -3.548  1.00  0.00     0.062 A 
ATOM     17  C   UNL     1      48.790  13.578  -3.216  1.00  0.00     0.158 A 
BRANCH  15  18
ATOM     18  O   UNL     1      49.141  11.426  -2.154  1.00  0.00    -0.504 OA
ATOM     19  H   UNL     1      49.082  10.961  -1.255  1.00  0.00     0.293 HD
ENDBRANCH  15  18
BRANCH  17  20
ATOM     20  O   UNL     1      50.126  13.633  -3.616  1.00  0.00    -0.504 OA
ATOM     21  H   UNL     1      50.821  12.988  -3.261  1.00  0.00     0.293 HD
ENDBRANCH  17  20
ENDBRANCH   1  12
BRANCH   2  22
ATOM     22  O   UNL     1      46.958  16.354  -5.462  1.00  0.00    -0.502 OA
ATOM     23  H   UNL     1      46.874  15.773  -6.286  1.00  0.00     0.293 HD
ENDBRANCH   2  22
BRANCH   9  24
ATOM     24  O   UNL     1      40.635  18.207  -1.337  1.00  0.00    -0.508 OA
ATOM     25  H   UNL     1      40.612  18.933  -0.631  1.00  0.00     0.293 HD
ENDBRANCH   9  24
TORSDOF 5
ENDMDL
MODEL 8
REMARK VINA RESULT:    -4.981      1.782      6.238
REMARK INTER + INTRA:          -5.961
REMARK INTER:                  -6.117
REMARK INTRA:                   0.156
REMARK UNBOUND:                -0.106
REMARK SMILES O=c1c(O)c(-c2ccc(O)c(O)c2)oc2cc(O)ccc12
REMARK SMILES IDX 5 1 3 2 2 3 1 4 21 5 15 6 14 7 16 8 17 9 19 10 20 11 6 12
REMARK SMILES IDX 7 13 8 14 9 15 13 16 11 17 10 18 12 20 4 22 18 24
REMARK H PARENT 10 19 12 21 4 23 18 25
REMARK Flexibility Score: inf
ROOT
ATOM      1  C   UNL     1      46.101  15.876  -3.807  1.00  0.00     0.180 A 
ATOM      2  C   UNL     1      45.531  14.604  -3.588  1.00  0.00     0.208 A 
ATOM      3  C   UNL     1      44.210  14.525  -3.123  1.00  0.00     0.235 A 
ATOM      4  O   UNL     1      43.675  13.399  -2.929  1.00  0.00    -0.285 OA
ATOM      5  C   UNL     1      43.495  15.707  -2.869  1.00  0.00     0.069 A 
ATOM      6  C   UNL     1      44.143  16.941  -3.093  1.00  0.00     0.142 A 
ATOM      7  O   UNL     1      45.393  16.972  -3.542  1.00  0.00    -0.452 OA
ATOM      8  C   UNL     1      43.469  18.141  -2.842  1.00  0.00     0.094 A 
ATOM      9  C   UNL     1      42.148  18.124  -2.373  1.00  0.00     0.119 A 
ATOM     10  C   UNL     1      41.503  16.902  -2.154  1.00  0.00     0.047 A 
ATOM     11  C   UNL     1      42.169  15.697  -2.399  1.00  0.00     0.020 A 
ENDROOT
BRANCH   1  12
ATOM     12  C   UNL     1      47.482  16.042  -4.314  1.00  0.00     0.025 A 
ATOM     13  C   UNL     1      47.744  17.006  -5.299  1.00  0.00     0.016 A 
ATOM     14  C   UNL     1      49.036  17.167  -5.807  1.00  0.00     0.051 A 
ATOM     15  C   UNL     1      50.081  16.355  -5.349  1.00  0.00     0.157 A 
ATOM     16  C   UNL     1      48.530  15.215  -3.871  1.00  0.00     0.062 A 
ATOM     17  C   UNL     1      49.824  15.371  -4.379  1.00  0.00     0.158 A 
BRANCH  15  18
ATOM     18  O   UNL     1      51.370  16.518  -5.855  1.00  0.00    -0.504 OA
ATOM     19  H   UNL     1      51.650  17.371  -6.325  1.00  0.00     0.293 HD
ENDBRANCH  15  18
BRANCH  17  20
ATOM     20  O   UNL     1      50.840  14.537  -3.912  1.00  0.00    -0.504 OA
ATOM     21  H   UNL     1      51.362  14.745  -3.069  1.00  0.00     0.293 HD
ENDBRANCH  17  20
ENDBRANCH   1  12
BRANCH   2  22
ATOM     22  O   UNL     1      46.283  13.446  -3.802  1.00  0.00    -0.502 OA
ATOM     23  H   UNL     1      46.600  13.168  -4.722  1.00  0.00     0.293 HD
ENDBRANCH   2  22
BRANCH   9  24
ATOM     24  O   UNL     1      41.469  19.314  -2.122  1.00  0.00    -0.508 OA
ATOM     25  H   UNL     1      41.925  20.214  -2.218  1.00  0.00     0.293 HD
ENDBRANCH   9  24
TORSDOF 5
ENDMDL
MODEL 9
REMARK VINA RESULT:    -4.933      2.148      7.218
REMARK INTER + INTRA:          -5.904
REMARK INTER:                  -5.619
REMARK INTRA:                  -0.285
REMARK UNBOUND:                -0.106
REMARK SMILES O=c1c(O)c(-c2ccc(O)c(O)c2)oc2cc(O)ccc12
REMARK SMILES IDX 5 1 3 2 2 3 1 4 21 5 15 6 14 7 16 8 17 9 19 10 20 11 6 12
REMARK SMILES IDX 7 13 8 14 9 15 13 16 11 17 10 18 12 20 4 22 18 24
REMARK H PARENT 10 19 12 21 4 23 18 25
REMARK Flexibility Score: inf
ROOT
ATOM      1  C   UNL     1      43.992  16.534  -3.328  1.00  0.00     0.180 A 
ATOM      2  C   UNL     1      44.456  17.262  -4.444  1.00  0.00     0.208 A 
ATOM      3  C   UNL     1      44.069  18.604  -4.586  1.00  0.00     0.235 A 
ATOM      4  O   UNL     1      44.480  19.278  -5.569  1.00  0.00    -0.285 OA
ATOM      5  C   UNL     1      43.219  19.182  -3.629  1.00  0.00     0.069 A 
ATOM      6  C   UNL     1      42.780  18.380  -2.553  1.00  0.00     0.142 A 
ATOM      7  O   UNL     1      43.176  17.116  -2.452  1.00  0.00    -0.452 OA
ATOM      8  C   UNL     1      41.924  18.916  -1.586  1.00  0.00     0.094 A 
ATOM      9  C   UNL     1      41.502  20.250  -1.677  1.00  0.00     0.119 A 
ATOM     10  C   UNL     1      41.938  21.046  -2.741  1.00  0.00     0.047 A 
ATOM     11  C   UNL     1      42.792  20.520  -3.714  1.00  0.00     0.020 A 
ENDROOT
BRANCH   1  12
ATOM     12  C   UNL     1      44.369  15.121  -3.099  1.00  0.00     0.025 A 
ATOM     13  C   UNL     1      43.427  14.108  -3.332  1.00  0.00     0.016 A 
ATOM     14  C   UNL     1      43.754  12.770  -3.103  1.00  0.00     0.051 A 
ATOM     15  C   UNL     1      45.023  12.425  -2.622  1.00  0.00     0.157 A 
ATOM     16  C   UNL     1      45.636  14.773  -2.596  1.00  0.00     0.062 A 
ATOM     17  C   UNL     1      45.967  13.434  -2.363  1.00  0.00     0.158 A 
BRANCH  15  18
ATOM     18  O   UNL     1      45.349  11.089  -2.396  1.00  0.00    -0.504 OA
ATOM     19  H   UNL     1      45.638  10.761  -1.481  1.00  0.00     0.293 HD
ENDBRANCH  15  18
BRANCH  17  20
ATOM     20  O   UNL     1      47.235  13.125  -1.870  1.00  0.00    -0.504 OA
ATOM     21  H   UNL     1      47.954  12.714  -2.454  1.00  0.00     0.293 HD
ENDBRANCH  17  20
ENDBRANCH   1  12
BRANCH   2  22
ATOM     22  O   UNL     1      45.261  16.646  -5.406  1.00  0.00    -0.502 OA
ATOM     23  H   UNL     1      46.203  16.959  -5.604  1.00  0.00     0.293 HD
ENDBRANCH   2  22
BRANCH   9  24
ATOM     24  O   UNL     1      40.650  20.791  -0.717  1.00  0.00    -0.508 OA
ATOM     25  H   UNL     1      39.699  20.460  -0.605  1.00  0.00     0.293 HD
ENDBRANCH   9  24
TORSDOF 5
ENDMDL
