MODEL 1
REMARK VINA RESULT:    -5.039      0.000      0.000
REMARK INTER + INTRA:          -8.908
REMARK INTER:                  -7.985
REMARK INTRA:                  -0.923
REMARK UNBOUND:                -0.923
REMARK SMILES C=CCCCCCCCCCCC
REMARK SMILES IDX 7 1 8 2 9 3 10 4 11 5 12 6 13 7 6 8 5 9 4 10 3 11 2 12 1 13
REMARK H PARENT
REMARK Flexibility Score: inf
ROOT
ATOM      1  C   UNL     1       4.450   7.521  12.680  1.00  0.00     0.000 C 
ENDROOT
BRANCH   1   2
ATOM      2  C   UNL     1       5.058   8.481  11.644  1.00  0.00     0.000 C 
BRANCH   2   3
ATOM      3  C   UNL     1       4.010   9.405  11.001  1.00  0.00    -0.000 C 
BRANCH   3   4
ATOM      4  C   UNL     1       3.959  10.813  11.632  1.00  0.00    -0.000 C 
BRANCH   4   5
ATOM      5  C   UNL     1       2.665  11.044  12.433  1.00  0.00    -0.000 C 
BRANCH   5   6
ATOM      6  C   UNL     1       2.692  12.355  13.233  1.00  0.00    -0.003 C 
ATOM      7  C   UNL     1       4.028  13.087  13.124  1.00  0.00     0.004 C 
ENDBRANCH   5   6
ENDBRANCH   4   5
ENDBRANCH   3   4
ENDBRANCH   2   3
ENDBRANCH   1   2
BRANCH   1   8
ATOM      8  C   UNL     1       4.718   6.044  12.349  1.00  0.00     0.000 C 
BRANCH   8   9
ATOM      9  C   UNL     1       5.778   5.415  13.269  1.00  0.00     0.000 C 
BRANCH   9  10
ATOM     10  C   UNL     1       7.095   5.120  12.535  1.00  0.00     0.004 C 
BRANCH  10  11
ATOM     11  C   UNL     1       7.986   6.363  12.392  1.00  0.00     0.027 C 
BRANCH  11  12
ATOM     12  C   UNL     1       7.994   7.173  13.658  1.00  0.00    -0.035 C 
ATOM     13  C   UNL     1       8.040   8.509  13.638  1.00  0.00     0.004 C 
ENDBRANCH  11  12
ENDBRANCH  10  11
ENDBRANCH   9  10
ENDBRANCH   8   9
ENDBRANCH   1   8
TORSDOF 10
ENDMDL
MODEL 2
REMARK VINA RESULT:    -5.013      0.978      5.954
REMARK INTER + INTRA:          -8.867
REMARK INTER:                  -7.944
REMARK INTRA:                  -0.923
REMARK UNBOUND:                -0.923
REMARK SMILES C=CCCCCCCCCCCC
REMARK SMILES IDX 7 1 8 2 9 3 10 4 11 5 12 6 13 7 6 8 5 9 4 10 3 11 2 12 1 13
REMARK H PARENT
REMARK Flexibility Score: inf
ROOT
ATOM      1  C   UNL     1       4.494   7.368  12.789  1.00  0.00     0.000 C 
ENDROOT
BRANCH   1   2
ATOM      2  C   UNL     1       4.461   6.022  12.045  1.00  0.00     0.000 C 
BRANCH   2   3
ATOM      3  C   UNL     1       5.088   4.876  12.857  1.00  0.00    -0.000 C 
BRANCH   3   4
ATOM      4  C   UNL     1       6.403   5.269  13.563  1.00  0.00    -0.000 C 
BRANCH   4   5
ATOM      5  C   UNL     1       7.557   5.482  12.567  1.00  0.00    -0.000 C 
BRANCH   5   6
ATOM      6  C   UNL     1       8.223   6.857  12.720  1.00  0.00    -0.003 C 
ATOM      7  C   UNL     1       7.910   7.520  14.060  1.00  0.00     0.004 C 
ENDBRANCH   5   6
ENDBRANCH   4   5
ENDBRANCH   3   4
ENDBRANCH   2   3
ENDBRANCH   1   2
BRANCH   1   8
ATOM      8  C   UNL     1       5.156   8.485  11.966  1.00  0.00     0.000 C 
BRANCH   8   9
ATOM      9  C   UNL     1       4.196   9.108  10.937  1.00  0.00     0.000 C 
BRANCH   9  10
ATOM     10  C   UNL     1       3.723  10.511  11.348  1.00  0.00     0.004 C 
BRANCH  10  11
ATOM     11  C   UNL     1       2.198  10.674  11.258  1.00  0.00     0.027 C 
BRANCH  11  12
ATOM     12  C   UNL     1       1.577  10.735  12.627  1.00  0.00    -0.035 C 
ATOM     13  C   UNL     1       1.907  11.686  13.506  1.00  0.00     0.004 C 
ENDBRANCH  11  12
ENDBRANCH  10  11
ENDBRANCH   9  10
ENDBRANCH   8   9
ENDBRANCH   1   8
TORSDOF 10
ENDMDL
MODEL 3
REMARK VINA RESULT:    -5.000      0.543      6.174
REMARK INTER + INTRA:          -8.845
REMARK INTER:                  -8.075
REMARK INTRA:                  -0.770
REMARK UNBOUND:                -0.923
REMARK SMILES C=CCCCCCCCCCCC
REMARK SMILES IDX 7 1 8 2 9 3 10 4 11 5 12 6 13 7 6 8 5 9 4 10 3 11 2 12 1 13
REMARK H PARENT
REMARK Flexibility Score: inf
ROOT
ATOM      1  C   UNL     1       5.034   8.528  11.666  1.00  0.00     0.000 C 
ENDROOT
BRANCH   1   2
ATOM      2  C   UNL     1       4.475   7.537  12.700  1.00  0.00     0.000 C 
BRANCH   2   3
ATOM      3  C   UNL     1       4.881   6.082  12.410  1.00  0.00    -0.000 C 
BRANCH   3   4
ATOM      4  C   UNL     1       5.937   5.529  13.390  1.00  0.00    -0.000 C 
BRANCH   4   5
ATOM      5  C   UNL     1       7.263   5.192  12.686  1.00  0.00    -0.000 C 
BRANCH   5   6
ATOM      6  C   UNL     1       8.042   6.447  12.263  1.00  0.00    -0.003 C 
ATOM      7  C   UNL     1       8.186   7.463  13.395  1.00  0.00     0.004 C 
ENDBRANCH   5   6
ENDBRANCH   4   5
ENDBRANCH   3   4
ENDBRANCH   2   3
ENDBRANCH   1   2
BRANCH   1   8
ATOM      8  C   UNL     1       3.932   9.345  10.970  1.00  0.00     0.000 C 
BRANCH   8   9
ATOM      9  C   UNL     1       3.630  10.668  11.696  1.00  0.00     0.000 C 
BRANCH   9  10
ATOM     10  C   UNL     1       2.199  10.721  12.251  1.00  0.00     0.004 C 
BRANCH  10  11
ATOM     11  C   UNL     1       2.054  11.694  13.430  1.00  0.00     0.027 C 
BRANCH  11  12
ATOM     12  C   UNL     1       2.908  12.916  13.234  1.00  0.00    -0.035 C 
ATOM     13  C   UNL     1       3.520  13.518  14.258  1.00  0.00     0.004 C 
ENDBRANCH  11  12
ENDBRANCH  10  11
ENDBRANCH   9  10
ENDBRANCH   8   9
ENDBRANCH   1   8
TORSDOF 10
ENDMDL
MODEL 4
REMARK VINA RESULT:    -4.925      0.751      1.537
REMARK INTER + INTRA:          -8.728
REMARK INTER:                  -7.859
REMARK INTRA:                  -0.868
REMARK UNBOUND:                -0.923
REMARK SMILES C=CCCCCCCCCCCC
REMARK SMILES IDX 7 1 8 2 9 3 10 4 11 5 12 6 13 7 6 8 5 9 4 10 3 11 2 12 1 13
REMARK H PARENT
REMARK Flexibility Score: inf
ROOT
ATOM      1  C   UNL     1       5.138   8.624  11.505  1.00  0.00     0.000 C 
ENDROOT
BRANCH   1   2
ATOM      2  C   UNL     1       4.234   9.757  10.991  1.00  0.00     0.000 C 
BRANCH   2   3
ATOM      3  C   UNL     1       3.115  10.122  11.981  1.00  0.00    -0.000 C 
BRANCH   3   4
ATOM      4  C   UNL     1       2.694  11.606  11.916  1.00  0.00    -0.000 C 
BRANCH   4   5
ATOM      5  C   UNL     1       3.897  12.543  11.710  1.00  0.00    -0.000 C 
BRANCH   5   6
ATOM      6  C   UNL     1       4.024  13.594  12.823  1.00  0.00    -0.003 C 
ATOM      7  C   UNL     1       3.257  13.211  14.088  1.00  0.00     0.004 C 
ENDBRANCH   5   6
ENDBRANCH   4   5
ENDBRANCH   3   4
ENDBRANCH   2   3
ENDBRANCH   1   2
BRANCH   1   8
ATOM      8  C   UNL     1       4.436   7.727  12.538  1.00  0.00     0.000 C 
BRANCH   8   9
ATOM      9  C   UNL     1       4.754   6.235  12.337  1.00  0.00     0.000 C 
BRANCH   9  10
ATOM     10  C   UNL     1       5.856   5.735  13.284  1.00  0.00     0.004 C 
BRANCH  10  11
ATOM     11  C   UNL     1       7.218   5.595  12.588  1.00  0.00     0.027 C 
BRANCH  11  12
ATOM     12  C   UNL     1       8.068   6.816  12.807  1.00  0.00    -0.035 C 
ATOM     13  C   UNL     1       7.930   7.582  13.893  1.00  0.00     0.004 C 
ENDBRANCH  11  12
ENDBRANCH  10  11
ENDBRANCH   9  10
ENDBRANCH   8   9
ENDBRANCH   1   8
TORSDOF 10
ENDMDL
MODEL 5
REMARK VINA RESULT:    -4.843      0.999      1.467
REMARK INTER + INTRA:          -8.598
REMARK INTER:                  -7.716
REMARK INTRA:                  -0.882
REMARK UNBOUND:                -0.923
REMARK SMILES C=CCCCCCCCCCCC
REMARK SMILES IDX 7 1 8 2 9 3 10 4 11 5 12 6 13 7 6 8 5 9 4 10 3 11 2 12 1 13
REMARK H PARENT
REMARK Flexibility Score: inf
ROOT
ATOM      1  C   UNL     1       4.480   7.661  11.555  1.00  0.00     0.000 C 
ENDROOT
BRANCH   1   2
ATOM      2  C   UNL     1       4.979   9.113  11.624  1.00  0.00     0.000 C 
BRANCH   2   3
ATOM      3  C   UNL     1       3.916  10.131  11.177  1.00  0.00    -0.000 C 
BRANCH   3   4
ATOM      4  C   UNL     1       4.054  11.508  11.860  1.00  0.00    -0.000 C 
BRANCH   4   5
ATOM      5  C   UNL     1       2.811  11.872  12.691  1.00  0.00    -0.000 C 
BRANCH   5   6
ATOM      6  C   UNL     1       1.722  10.790  12.629  1.00  0.00    -0.003 C 
ATOM      7  C   UNL     1       0.318  11.352  12.847  1.00  0.00     0.004 C 
ENDBRANCH   5   6
ENDBRANCH   4   5
ENDBRANCH   3   4
ENDBRANCH   2   3
ENDBRANCH   1   2
BRANCH   1   8
ATOM      8  C   UNL     1       4.650   6.910  12.886  1.00  0.00     0.000 C 
BRANCH   8   9
ATOM      9  C   UNL     1       5.273   5.516  12.702  1.00  0.00     0.000 C 
BRANCH   9  10
ATOM     10  C   UNL     1       6.716   5.442  13.225  1.00  0.00     0.004 C 
BRANCH  10  11
ATOM     11  C   UNL     1       7.706   6.222  12.348  1.00  0.00     0.027 C 
BRANCH  11  12
ATOM     12  C   UNL     1       8.336   7.353  13.113  1.00  0.00    -0.035 C 
ATOM     13  C   UNL     1       7.796   7.825  14.241  1.00  0.00     0.004 C 
ENDBRANCH  11  12
ENDBRANCH  10  11
ENDBRANCH   9  10
ENDBRANCH   8   9
ENDBRANCH   1   8
TORSDOF 10
ENDMDL
MODEL 6
REMARK VINA RESULT:    -4.796      0.820      2.268
REMARK INTER + INTRA:          -8.523
REMARK INTER:                  -7.687
REMARK INTRA:                  -0.836
REMARK UNBOUND:                -0.923
REMARK SMILES C=CCCCCCCCCCCC
REMARK SMILES IDX 7 1 8 2 9 3 10 4 11 5 12 6 13 7 6 8 5 9 4 10 3 11 2 12 1 13
REMARK H PARENT
REMARK Flexibility Score: inf
ROOT
ATOM      1  C   UNL     1       6.279   8.268  11.471  1.00  0.00     0.000 C 
ENDROOT
BRANCH   1   2
ATOM      2  C   UNL     1       4.762   8.360  11.711  1.00  0.00     0.000 C 
BRANCH   2   3
ATOM      3  C   UNL     1       4.111   9.535  10.963  1.00  0.00    -0.000 C 
BRANCH   3   4
ATOM      4  C   UNL     1       3.142  10.361  11.835  1.00  0.00    -0.000 C 
BRANCH   4   5
ATOM      5  C   UNL     1       3.424  11.872  11.744  1.00  0.00    -0.000 C 
BRANCH   5   6
ATOM      6  C   UNL     1       2.956  12.636  12.992  1.00  0.00    -0.003 C 
ATOM      7  C   UNL     1       4.043  13.539  13.574  1.00  0.00     0.004 C 
ENDBRANCH   5   6
ENDBRANCH   4   5
ENDBRANCH   3   4
ENDBRANCH   2   3
ENDBRANCH   1   2
BRANCH   1   8
ATOM      8  C   UNL     1       7.099   8.591  12.731  1.00  0.00     0.000 C 
BRANCH   8   9
ATOM      9  C   UNL     1       7.888   7.376  13.249  1.00  0.00     0.000 C 
BRANCH   9  10
ATOM     10  C   UNL     1       7.810   6.174  12.296  1.00  0.00     0.004 C 
BRANCH  10  11
ATOM     11  C   UNL     1       7.395   4.877  13.007  1.00  0.00     0.027 C 
BRANCH  11  12
ATOM     12  C   UNL     1       5.966   4.945  13.470  1.00  0.00    -0.035 C 
ATOM     13  C   UNL     1       4.945   4.880  12.611  1.00  0.00     0.004 C 
ENDBRANCH  11  12
ENDBRANCH  10  11
ENDBRANCH   9  10
ENDBRANCH   8   9
ENDBRANCH   1   8
TORSDOF 10
ENDMDL
MODEL 7
REMARK VINA RESULT:    -4.532      0.913      5.361
REMARK INTER + INTRA:          -8.105
REMARK INTER:                  -7.422
REMARK INTRA:                  -0.683
REMARK UNBOUND:                -0.923
REMARK SMILES C=CCCCCCCCCCCC
REMARK SMILES IDX 7 1 8 2 9 3 10 4 11 5 12 6 13 7 6 8 5 9 4 10 3 11 2 12 1 13
REMARK H PARENT
REMARK Flexibility Score: inf
ROOT
ATOM      1  C   UNL     1       4.542   5.370  12.655  1.00  0.00     0.000 C 
ENDROOT
BRANCH   1   2
ATOM      2  C   UNL     1       5.776   4.875  13.429  1.00  0.00     0.000 C 
BRANCH   2   3
ATOM      3  C   UNL     1       7.066   4.933  12.593  1.00  0.00    -0.000 C 
BRANCH   3   4
ATOM      4  C   UNL     1       7.824   6.272  12.720  1.00  0.00    -0.000 C 
BRANCH   4   5
ATOM      5  C   UNL     1       7.451   7.031  14.005  1.00  0.00    -0.000 C 
BRANCH   5   6
ATOM      6  C   UNL     1       8.216   8.355  14.152  1.00  0.00    -0.003 C 
ATOM      7  C   UNL     1       9.677   8.245  13.718  1.00  0.00     0.004 C 
ENDBRANCH   5   6
ENDBRANCH   4   5
ENDBRANCH   3   4
ENDBRANCH   2   3
ENDBRANCH   1   2
BRANCH   1   8
ATOM      8  C   UNL     1       4.369   6.896  12.727  1.00  0.00     0.000 C 
BRANCH   8   9
ATOM      9  C   UNL     1       4.659   7.587  11.383  1.00  0.00     0.000 C 
BRANCH   9  10
ATOM     10  C   UNL     1       4.951   9.087  11.544  1.00  0.00     0.004 C 
BRANCH  10  11
ATOM     11  C   UNL     1       3.816   9.973  11.009  1.00  0.00     0.027 C 
BRANCH  11  12
ATOM     12  C   UNL     1       3.522  11.106  11.953  1.00  0.00    -0.035 C 
ATOM     13  C   UNL     1       3.834  12.370  11.652  1.00  0.00     0.004 C 
ENDBRANCH  11  12
ENDBRANCH  10  11
ENDBRANCH   9  10
ENDBRANCH   8   9
ENDBRANCH   1   8
TORSDOF 10
ENDMDL
MODEL 8
REMARK VINA RESULT:    -4.284      1.133      6.373
REMARK INTER + INTRA:          -7.712
REMARK INTER:                  -7.027
REMARK INTRA:                  -0.685
REMARK UNBOUND:                -0.923
REMARK SMILES C=CCCCCCCCCCCC
REMARK SMILES IDX 7 1 8 2 9 3 10 4 11 5 12 6 13 7 6 8 5 9 4 10 3 11 2 12 1 13
REMARK H PARENT
REMARK Flexibility Score: inf
ROOT
ATOM      1  C   UNL     1       3.689   9.378  11.488  1.00  0.00     0.000 C 
ENDROOT
BRANCH   1   2
ATOM      2  C   UNL     1       4.617   8.216  11.880  1.00  0.00     0.000 C 
BRANCH   2   3
ATOM      3  C   UNL     1       6.088   8.645  12.007  1.00  0.00    -0.000 C 
BRANCH   3   4
ATOM      4  C   UNL     1       7.055   7.469  12.258  1.00  0.00    -0.000 C 
BRANCH   4   5
ATOM      5  C   UNL     1       6.801   6.786  13.613  1.00  0.00    -0.000 C 
BRANCH   5   6
ATOM      6  C   UNL     1       6.628   5.265  13.485  1.00  0.00    -0.003 C 
ATOM      7  C   UNL     1       5.337   4.875  12.767  1.00  0.00     0.004 C 
ENDBRANCH   5   6
ENDBRANCH   4   5
ENDBRANCH   3   4
ENDBRANCH   2   3
ENDBRANCH   1   2
BRANCH   1   8
ATOM      8  C   UNL     1       4.451  10.566  10.878  1.00  0.00     0.000 C 
BRANCH   8   9
ATOM      9  C   UNL     1       3.730  11.907  11.100  1.00  0.00     0.000 C 
BRANCH   9  10
ATOM     10  C   UNL     1       4.013  12.503  12.487  1.00  0.00     0.004 C 
BRANCH  10  11
ATOM     11  C   UNL     1       2.736  12.709  13.317  1.00  0.00     0.027 C 
BRANCH  11  12
ATOM     12  C   UNL     1       1.960  11.427  13.446  1.00  0.00    -0.035 C 
ATOM     13  C   UNL     1       0.689  11.332  13.045  1.00  0.00     0.004 C 
ENDBRANCH  11  12
ENDBRANCH  10  11
ENDBRANCH   9  10
ENDBRANCH   8   9
ENDBRANCH   1   8
TORSDOF 10
ENDMDL
