MODEL 1
REMARK VINA RESULT:    -3.314      0.000      0.000
REMARK INTER + INTRA:          -3.523
REMARK INTER:                  -3.507
REMARK INTRA:                  -0.016
REMARK UNBOUND:                -0.016
REMARK SMILES O=C([O-])c1cccnc1
REMARK SMILES IDX 4 1 5 2 9 3 6 4 8 5 7 6 2 7 1 8 3 9
REMARK H PARENT
REMARK Flexibility Score: inf
ROOT
ATOM      1  C   UNL     1     -44.470 -14.494  -2.775  1.00  0.00     0.016 A 
ATOM      2  C   UNL     1     -43.916 -15.785  -2.774  1.00  0.00     0.013 A 
ATOM      3  C   UNL     1     -43.597 -13.393  -2.770  1.00  0.00     0.120 A 
ATOM      4  C   UNL     1     -42.529 -15.953  -2.767  1.00  0.00     0.021 A 
ATOM      5  N   UNL     1     -42.251 -13.584  -2.763  1.00  0.00    -0.264 NA
ATOM      6  C   UNL     1     -41.704 -14.827  -2.762  1.00  0.00     0.111 A 
ENDROOT
BRANCH   1   7
ATOM      7  C   UNL     1     -45.935 -14.295  -2.783  1.00  0.00     0.073 C 
ATOM      8  O   UNL     1     -46.569 -14.158  -1.703  1.00  0.00    -0.545 OA
ATOM      9  O   UNL     1     -46.634 -14.256  -3.984  1.00  0.00    -0.545 OA
ENDBRANCH   1   7
TORSDOF 1
ENDMDL
MODEL 2
REMARK VINA RESULT:    -3.239      0.866      1.626
REMARK INTER + INTRA:          -3.444
REMARK INTER:                  -3.427
REMARK INTRA:                  -0.017
REMARK UNBOUND:                -0.016
REMARK SMILES O=C([O-])c1cccnc1
REMARK SMILES IDX 4 1 5 2 9 3 6 4 8 5 7 6 2 7 1 8 3 9
REMARK H PARENT
REMARK Flexibility Score: inf
ROOT
ATOM      1  C   UNL     1     -44.374 -14.458  -2.792  1.00  0.00     0.016 A 
ATOM      2  C   UNL     1     -43.659 -13.249  -2.729  1.00  0.00     0.013 A 
ATOM      3  C   UNL     1     -43.651 -15.663  -2.775  1.00  0.00     0.120 A 
ATOM      4  C   UNL     1     -42.264 -13.263  -2.654  1.00  0.00     0.021 A 
ATOM      5  N   UNL     1     -42.293 -15.648  -2.702  1.00  0.00    -0.264 NA
ATOM      6  C   UNL     1     -41.592 -14.486  -2.640  1.00  0.00     0.111 A 
ENDROOT
BRANCH   1   7
ATOM      7  C   UNL     1     -45.850 -14.465  -2.872  1.00  0.00     0.073 C 
ATOM      8  O   UNL     1     -46.548 -14.153  -1.870  1.00  0.00    -0.545 OA
ATOM      9  O   UNL     1     -46.489 -14.815  -4.056  1.00  0.00    -0.545 OA
ENDBRANCH   1   7
TORSDOF 1
ENDMDL
MODEL 3
REMARK VINA RESULT:    -3.198      2.218      2.664
REMARK INTER + INTRA:          -3.401
REMARK INTER:                  -3.385
REMARK INTRA:                  -0.016
REMARK UNBOUND:                -0.016
REMARK SMILES O=C([O-])c1cccnc1
REMARK SMILES IDX 4 1 5 2 9 3 6 4 8 5 7 6 2 7 1 8 3 9
REMARK H PARENT
REMARK Flexibility Score: inf
ROOT
ATOM      1  C   UNL     1     -42.505 -15.366  -1.965  1.00  0.00     0.016 A 
ATOM      2  C   UNL     1     -42.759 -16.308  -2.977  1.00  0.00     0.013 A 
ATOM      3  C   UNL     1     -41.272 -14.693  -1.974  1.00  0.00     0.120 A 
ATOM      4  C   UNL     1     -41.798 -16.557  -3.960  1.00  0.00     0.021 A 
ATOM      5  N   UNL     1     -40.353 -14.955  -2.941  1.00  0.00    -0.264 NA
ATOM      6  C   UNL     1     -40.588 -15.863  -3.925  1.00  0.00     0.111 A 
ENDROOT
BRANCH   1   7
ATOM      7  C   UNL     1     -43.509 -15.088  -0.917  1.00  0.00     0.073 C 
ATOM      8  O   UNL     1     -43.346 -15.516   0.257  1.00  0.00    -0.545 OA
ATOM      9  O   UNL     1     -44.649 -14.348  -1.212  1.00  0.00    -0.545 OA
ENDBRANCH   1   7
TORSDOF 1
ENDMDL
MODEL 4
REMARK VINA RESULT:    -3.112      2.660      3.136
REMARK INTER + INTRA:          -3.310
REMARK INTER:                  -3.292
REMARK INTRA:                  -0.019
REMARK UNBOUND:                -0.016
REMARK SMILES O=C([O-])c1cccnc1
REMARK SMILES IDX 4 1 5 2 9 3 6 4 8 5 7 6 2 7 1 8 3 9
REMARK H PARENT
REMARK Flexibility Score: inf
ROOT
ATOM      1  C   UNL     1     -45.147 -13.420  -1.526  1.00  0.00     0.016 A 
ATOM      2  C   UNL     1     -43.944 -12.852  -1.979  1.00  0.00     0.013 A 
ATOM      3  C   UNL     1     -45.880 -14.227  -2.412  1.00  0.00     0.120 A 
ATOM      4  C   UNL     1     -43.502 -13.093  -3.282  1.00  0.00     0.021 A 
ATOM      5  N   UNL     1     -45.428 -14.446  -3.676  1.00  0.00    -0.264 NA
ATOM      6  C   UNL     1     -44.266 -13.902  -4.125  1.00  0.00     0.111 A 
ENDROOT
BRANCH   1   7
ATOM      7  C   UNL     1     -45.632 -13.177  -0.151  1.00  0.00     0.073 C 
ATOM      8  O   UNL     1     -45.753 -12.002   0.288  1.00  0.00    -0.545 OA
ATOM      9  O   UNL     1     -45.962 -14.243   0.678  1.00  0.00    -0.545 OA
ENDBRANCH   1   7
TORSDOF 1
ENDMDL
MODEL 5
REMARK VINA RESULT:    -3.108      2.909      3.816
REMARK INTER + INTRA:          -3.305
REMARK INTER:                  -3.287
REMARK INTRA:                  -0.019
REMARK UNBOUND:                -0.016
REMARK SMILES O=C([O-])c1cccnc1
REMARK SMILES IDX 4 1 5 2 9 3 6 4 8 5 7 6 2 7 1 8 3 9
REMARK H PARENT
REMARK Flexibility Score: inf
ROOT
ATOM      1  C   UNL     1     -43.494 -14.958  -2.472  1.00  0.00     0.016 A 
ATOM      2  C   UNL     1     -44.582 -14.712  -3.327  1.00  0.00     0.013 A 
ATOM      3  C   UNL     1     -43.664 -14.735  -1.095  1.00  0.00     0.120 A 
ATOM      4  C   UNL     1     -45.795 -14.255  -2.805  1.00  0.00     0.021 A 
ATOM      5  N   UNL     1     -44.854 -14.290  -0.613  1.00  0.00    -0.264 NA
ATOM      6  C   UNL     1     -45.913 -14.049  -1.430  1.00  0.00     0.111 A 
ENDROOT
BRANCH   1   7
ATOM      7  C   UNL     1     -42.203 -15.442  -3.005  1.00  0.00     0.073 C 
ATOM      8  O   UNL     1     -42.158 -16.451  -3.758  1.00  0.00    -0.545 OA
ATOM      9  O   UNL     1     -41.019 -14.787  -2.684  1.00  0.00    -0.545 OA
ENDBRANCH   1   7
TORSDOF 1
ENDMDL
MODEL 6
REMARK VINA RESULT:    -3.102      1.353      1.378
REMARK INTER + INTRA:          -3.300
REMARK INTER:                  -3.276
REMARK INTRA:                  -0.023
REMARK UNBOUND:                -0.016
REMARK SMILES O=C([O-])c1cccnc1
REMARK SMILES IDX 4 1 5 2 9 3 6 4 8 5 7 6 2 7 1 8 3 9
REMARK H PARENT
REMARK Flexibility Score: inf
ROOT
ATOM      1  C   UNL     1     -44.024 -14.425  -2.164  1.00  0.00     0.016 A 
ATOM      2  C   UNL     1     -43.761 -14.861  -0.854  1.00  0.00     0.013 A 
ATOM      3  C   UNL     1     -42.935 -14.129  -3.001  1.00  0.00     0.120 A 
ATOM      4  C   UNL     1     -42.443 -14.991  -0.410  1.00  0.00     0.021 A 
ATOM      5  N   UNL     1     -41.662 -14.265  -2.544  1.00  0.00    -0.264 NA
ATOM      6  C   UNL     1     -41.395 -14.686  -1.280  1.00  0.00     0.111 A 
ENDROOT
BRANCH   1   7
ATOM      7  C   UNL     1     -45.412 -14.280  -2.653  1.00  0.00     0.073 C 
ATOM      8  O   UNL     1     -46.371 -14.186  -1.841  1.00  0.00    -0.545 OA
ATOM      9  O   UNL     1     -45.678 -14.245  -4.017  1.00  0.00    -0.545 OA
ENDBRANCH   1   7
TORSDOF 1
ENDMDL
MODEL 7
REMARK VINA RESULT:    -3.073      3.186      3.971
REMARK INTER + INTRA:          -3.269
REMARK INTER:                  -3.251
REMARK INTRA:                  -0.018
REMARK UNBOUND:                -0.016
REMARK SMILES O=C([O-])c1cccnc1
REMARK SMILES IDX 4 1 5 2 9 3 6 4 8 5 7 6 2 7 1 8 3 9
REMARK H PARENT
REMARK Flexibility Score: inf
ROOT
ATOM      1  C   UNL     1     -42.298 -14.447  -1.740  1.00  0.00     0.016 A 
ATOM      2  C   UNL     1     -43.275 -15.455  -1.811  1.00  0.00     0.013 A 
ATOM      3  C   UNL     1     -42.431 -13.330  -2.583  1.00  0.00     0.120 A 
ATOM      4  C   UNL     1     -44.344 -15.335  -2.701  1.00  0.00     0.021 A 
ATOM      5  N   UNL     1     -43.481 -13.237  -3.441  1.00  0.00    -0.264 NA
ATOM      6  C   UNL     1     -44.431 -14.205  -3.517  1.00  0.00     0.111 A 
ENDROOT
BRANCH   1   7
ATOM      7  C   UNL     1     -41.159 -14.556  -0.804  1.00  0.00     0.073 C 
ATOM      8  O   UNL     1     -39.975 -14.567  -1.234  1.00  0.00    -0.545 OA
ATOM      9  O   UNL     1     -41.380 -14.647   0.565  1.00  0.00    -0.545 OA
ENDBRANCH   1   7
TORSDOF 1
ENDMDL
MODEL 8
REMARK VINA RESULT:    -3.067      2.955      3.768
REMARK INTER + INTRA:          -3.262
REMARK INTER:                  -3.243
REMARK INTRA:                  -0.019
REMARK UNBOUND:                -0.016
REMARK SMILES O=C([O-])c1cccnc1
REMARK SMILES IDX 4 1 5 2 9 3 6 4 8 5 7 6 2 7 1 8 3 9
REMARK H PARENT
REMARK Flexibility Score: inf
ROOT
ATOM      1  C   UNL     1     -43.507 -14.134  -2.622  1.00  0.00     0.016 A 
ATOM      2  C   UNL     1     -44.405 -14.154  -1.542  1.00  0.00     0.013 A 
ATOM      3  C   UNL     1     -44.030 -14.169  -3.926  1.00  0.00     0.120 A 
ATOM      4  C   UNL     1     -45.781 -14.209  -1.774  1.00  0.00     0.021 A 
ATOM      5  N   UNL     1     -45.374 -14.223  -4.125  1.00  0.00    -0.264 NA
ATOM      6  C   UNL     1     -46.252 -14.243  -3.088  1.00  0.00     0.111 A 
ENDROOT
BRANCH   1   7
ATOM      7  C   UNL     1     -42.047 -14.076  -2.397  1.00  0.00     0.073 C 
ATOM      8  O   UNL     1     -41.549 -13.198  -1.642  1.00  0.00    -0.545 OA
ATOM      9  O   UNL     1     -41.202 -14.990  -3.016  1.00  0.00    -0.545 OA
ENDBRANCH   1   7
TORSDOF 1
ENDMDL
MODEL 9
REMARK VINA RESULT:    -3.066      3.340      4.006
REMARK INTER + INTRA:          -3.261
REMARK INTER:                  -3.241
REMARK INTRA:                  -0.020
REMARK UNBOUND:                -0.016
REMARK SMILES O=C([O-])c1cccnc1
REMARK SMILES IDX 4 1 5 2 9 3 6 4 8 5 7 6 2 7 1 8 3 9
REMARK H PARENT
REMARK Flexibility Score: inf
ROOT
ATOM      1  C   UNL     1     -41.305 -14.433  -2.238  1.00  0.00     0.016 A 
ATOM      2  C   UNL     1     -42.474 -15.193  -2.419  1.00  0.00     0.013 A 
ATOM      3  C   UNL     1     -40.176 -14.752  -3.011  1.00  0.00     0.120 A 
ATOM      4  C   UNL     1     -42.495 -16.236  -3.348  1.00  0.00     0.021 A 
ATOM      5  N   UNL     1     -40.223 -15.772  -3.907  1.00  0.00    -0.264 NA
ATOM      6  C   UNL     1     -41.347 -16.514  -4.091  1.00  0.00     0.111 A 
ENDROOT
BRANCH   1   7
ATOM      7  C   UNL     1     -41.263 -13.325  -1.260  1.00  0.00     0.073 C 
ATOM      8  O   UNL     1     -40.678 -12.245  -1.541  1.00  0.00    -0.545 OA
ATOM      9  O   UNL     1     -41.869 -13.460  -0.017  1.00  0.00    -0.545 OA
ENDBRANCH   1   7
TORSDOF 1
ENDMDL
