MODEL 1
REMARK VINA RESULT:    -7.576      0.000      0.000
REMARK INTER + INTRA:          -9.519
REMARK INTER:                  -9.126
REMARK INTRA:                  -0.393
REMARK UNBOUND:                -0.393
REMARK SMILES Oc1cc(O)c2c(c1)O[C@@H](c1ccc(O)c(O)c1)[C@@H](O)C2
REMARK SMILES IDX 21 1 19 2 10 3 9 4 7 5 8 6 2 7 3 8 4 9 6 10 20 11 11 13
REMARK SMILES IDX 18 14 12 15 16 16 13 17 14 18 17 19 15 21 5 23 1 25
REMARK H PARENT 20 12 17 20 15 22 5 24 1 26
REMARK Flexibility Score: inf
ROOT
ATOM      1  C   UNL     1     -24.749 -10.762   2.386  1.00  0.00     0.079 C 
ATOM      2  C   UNL     1     -25.042 -11.712   3.567  1.00  0.00     0.164 C 
ATOM      3  C   UNL     1     -26.516 -12.164   3.536  1.00  0.00     0.232 C 
ATOM      4  O   UNL     1     -26.825 -12.756   2.275  1.00  0.00    -0.482 OA
ATOM      5  C   UNL     1     -26.330 -12.242   1.071  1.00  0.00     0.131 A 
ATOM      6  C   UNL     1     -26.840 -12.731  -0.134  1.00  0.00     0.093 A 
ATOM      7  C   UNL     1     -26.374 -12.228  -1.353  1.00  0.00     0.122 A 
ATOM      8  C   UNL     1     -25.401 -11.227  -1.364  1.00  0.00     0.092 A 
ATOM      9  C   UNL     1     -24.877 -10.726  -0.167  1.00  0.00     0.126 A 
ATOM     10  C   UNL     1     -25.314 -11.260   1.069  1.00  0.00     0.039 A 
ENDROOT
BRANCH   2  11
ATOM     11  O   UNL     1     -24.159 -12.810   3.562  1.00  0.00    -0.389 OA
ATOM     12  H   UNL     1     -24.224 -13.260   4.443  1.00  0.00     0.211 HD
ENDBRANCH   2  11
BRANCH   3  13
ATOM     13  C   UNL     1     -26.825 -13.121   4.665  1.00  0.00    -0.001 A 
ATOM     14  C   UNL     1     -27.258 -14.427   4.376  1.00  0.00     0.057 A 
ATOM     15  C   UNL     1     -26.747 -12.708   6.006  1.00  0.00     0.012 A 
ATOM     16  C   UNL     1     -27.582 -15.316   5.412  1.00  0.00     0.157 A 
ATOM     17  C   UNL     1     -27.069 -13.593   7.038  1.00  0.00     0.050 A 
ATOM     18  C   UNL     1     -27.484 -14.897   6.748  1.00  0.00     0.157 A 
BRANCH  16  19
ATOM     19  O   UNL     1     -28.002 -16.612   5.115  1.00  0.00    -0.504 OA
ATOM     20  H   UNL     1     -28.642 -16.801   4.352  1.00  0.00     0.293 HD
ENDBRANCH  16  19
BRANCH  18  21
ATOM     21  O   UNL     1     -27.798 -15.758   7.800  1.00  0.00    -0.504 OA
ATOM     22  H   UNL     1     -28.492 -15.524   8.498  1.00  0.00     0.293 HD
ENDBRANCH  18  21
ENDBRANCH   3  13
BRANCH   9  23
ATOM     23  O   UNL     1     -23.936  -9.697  -0.242  1.00  0.00    -0.507 OA
ATOM     24  H   UNL     1     -24.184  -8.727  -0.384  1.00  0.00     0.293 HD
ENDBRANCH   9  23
BRANCH   7  25
ATOM     25  O   UNL     1     -26.878 -12.711  -2.559  1.00  0.00    -0.508 OA
ATOM     26  H   UNL     1     -27.857 -12.951  -2.666  1.00  0.00     0.293 HD
ENDBRANCH   7  25
TORSDOF 6
ENDMDL
MODEL 2
REMARK VINA RESULT:    -7.539      2.959      7.494
REMARK INTER + INTRA:          -9.474
REMARK INTER:                  -9.339
REMARK INTRA:                  -0.135
REMARK UNBOUND:                -0.393
REMARK SMILES Oc1cc(O)c2c(c1)O[C@@H](c1ccc(O)c(O)c1)[C@@H](O)C2
REMARK SMILES IDX 21 1 19 2 10 3 9 4 7 5 8 6 2 7 3 8 4 9 6 10 20 11 11 13
REMARK SMILES IDX 18 14 12 15 16 16 13 17 14 18 17 19 15 21 5 23 1 25
REMARK H PARENT 20 12 17 20 15 22 5 24 1 26
REMARK Flexibility Score: inf
ROOT
ATOM      1  C   UNL     1     -27.182 -16.679   1.872  1.00  0.00     0.079 C 
ATOM      2  C   UNL     1     -26.602 -15.654   0.875  1.00  0.00     0.164 C 
ATOM      3  C   UNL     1     -27.737 -14.828   0.235  1.00  0.00     0.232 C 
ATOM      4  O   UNL     1     -28.530 -14.210   1.248  1.00  0.00    -0.482 OA
ATOM      5  C   UNL     1     -28.864 -14.870   2.436  1.00  0.00     0.131 A 
ATOM      6  C   UNL     1     -29.814 -14.296   3.284  1.00  0.00     0.093 A 
ATOM      7  C   UNL     1     -30.179 -14.937   4.473  1.00  0.00     0.122 A 
ATOM      8  C   UNL     1     -29.594 -16.160   4.808  1.00  0.00     0.092 A 
ATOM      9  C   UNL     1     -28.638 -16.749   3.972  1.00  0.00     0.126 A 
ATOM     10  C   UNL     1     -28.235 -16.086   2.788  1.00  0.00     0.039 A 
ENDROOT
BRANCH   2  11
ATOM     11  O   UNL     1     -25.646 -14.829   1.499  1.00  0.00    -0.389 OA
ATOM     12  H   UNL     1     -25.286 -14.205   0.818  1.00  0.00     0.211 HD
ENDBRANCH   2  11
BRANCH   3  13
ATOM     13  C   UNL     1     -27.196 -13.793  -0.724  1.00  0.00    -0.001 A 
ATOM     14  C   UNL     1     -27.060 -14.105  -2.087  1.00  0.00     0.057 A 
ATOM     15  C   UNL     1     -26.765 -12.536  -0.264  1.00  0.00     0.012 A 
ATOM     16  C   UNL     1     -26.528 -13.167  -2.984  1.00  0.00     0.157 A 
ATOM     17  C   UNL     1     -26.235 -11.601  -1.157  1.00  0.00     0.050 A 
ATOM     18  C   UNL     1     -26.116 -11.909  -2.516  1.00  0.00     0.157 A 
BRANCH  16  19
ATOM     19  O   UNL     1     -26.405 -13.484  -4.337  1.00  0.00    -0.504 OA
ATOM     20  H   UNL     1     -26.082 -12.802  -5.014  1.00  0.00     0.293 HD
ENDBRANCH  16  19
BRANCH  18  21
ATOM     21  O   UNL     1     -25.584 -10.955  -3.384  1.00  0.00    -0.504 OA
ATOM     22  H   UNL     1     -24.588 -10.804  -3.472  1.00  0.00     0.293 HD
ENDBRANCH  18  21
ENDBRANCH   3  13
BRANCH   9  23
ATOM     23  O   UNL     1     -28.121 -17.992   4.341  1.00  0.00    -0.507 OA
ATOM     24  H   UNL     1     -27.201 -18.314   4.071  1.00  0.00     0.293 HD
ENDBRANCH   9  23
BRANCH   7  25
ATOM     25  O   UNL     1     -31.126 -14.371   5.323  1.00  0.00    -0.508 OA
ATOM     26  H   UNL     1     -30.853 -13.874   6.163  1.00  0.00     0.293 HD
ENDBRANCH   7  25
TORSDOF 6
ENDMDL
MODEL 3
REMARK VINA RESULT:    -7.457      2.566      3.254
REMARK INTER + INTRA:          -9.375
REMARK INTER:                  -9.049
REMARK INTRA:                  -0.327
REMARK UNBOUND:                -0.393
REMARK SMILES Oc1cc(O)c2c(c1)O[C@@H](c1ccc(O)c(O)c1)[C@@H](O)C2
REMARK SMILES IDX 21 1 19 2 10 3 9 4 7 5 8 6 2 7 3 8 4 9 6 10 20 11 11 13
REMARK SMILES IDX 18 14 12 15 16 16 13 17 14 18 17 19 15 21 5 23 1 25
REMARK H PARENT 20 12 17 20 15 22 5 24 1 26
REMARK Flexibility Score: inf
ROOT
ATOM      1  C   UNL     1     -26.612 -11.726   0.193  1.00  0.00     0.079 C 
ATOM      2  C   UNL     1     -26.716 -12.832   1.265  1.00  0.00     0.164 C 
ATOM      3  C   UNL     1     -27.739 -13.902   0.831  1.00  0.00     0.232 C 
ATOM      4  O   UNL     1     -27.396 -14.421  -0.454  1.00  0.00    -0.482 OA
ATOM      5  C   UNL     1     -26.911 -13.604  -1.481  1.00  0.00     0.131 A 
ATOM      6  C   UNL     1     -26.801 -14.131  -2.770  1.00  0.00     0.093 A 
ATOM      7  C   UNL     1     -26.332 -13.335  -3.820  1.00  0.00     0.122 A 
ATOM      8  C   UNL     1     -25.979 -12.006  -3.579  1.00  0.00     0.092 A 
ATOM      9  C   UNL     1     -26.081 -11.461  -2.294  1.00  0.00     0.126 A 
ATOM     10  C   UNL     1     -26.516 -12.272  -1.219  1.00  0.00     0.039 A 
ENDROOT
BRANCH   2  11
ATOM     11  O   UNL     1     -25.452 -13.396   1.530  1.00  0.00    -0.389 OA
ATOM     12  H   UNL     1     -25.594 -14.298   1.918  1.00  0.00     0.211 HD
ENDBRANCH   2  11
BRANCH   3  13
ATOM     13  C   UNL     1     -27.839 -15.016   1.847  1.00  0.00    -0.001 A 
ATOM     14  C   UNL     1     -27.215 -16.250   1.596  1.00  0.00     0.057 A 
ATOM     15  C   UNL     1     -28.601 -14.861   3.018  1.00  0.00     0.012 A 
ATOM     16  C   UNL     1     -27.328 -17.306   2.513  1.00  0.00     0.157 A 
ATOM     17  C   UNL     1     -28.713 -15.911   3.933  1.00  0.00     0.050 A 
ATOM     18  C   UNL     1     -28.079 -17.133   3.688  1.00  0.00     0.157 A 
BRANCH  16  19
ATOM     19  O   UNL     1     -26.699 -18.524   2.259  1.00  0.00    -0.504 OA
ATOM     20  H   UNL     1     -25.807 -18.570   1.781  1.00  0.00     0.293 HD
ENDBRANCH  16  19
BRANCH  18  21
ATOM     21  O   UNL     1     -28.208 -18.163   4.620  1.00  0.00    -0.504 OA
ATOM     22  H   UNL     1     -28.745 -18.054   5.470  1.00  0.00     0.293 HD
ENDBRANCH  18  21
ENDBRANCH   3  13
BRANCH   9  23
ATOM     23  O   UNL     1     -25.752 -10.114  -2.124  1.00  0.00    -0.507 OA
ATOM     24  H   UNL     1     -26.440  -9.374  -2.092  1.00  0.00     0.293 HD
ENDBRANCH   9  23
BRANCH   7  25
ATOM     25  O   UNL     1     -26.219 -13.854  -5.108  1.00  0.00    -0.508 OA
ATOM     26  H   UNL     1     -26.061 -14.841  -5.269  1.00  0.00     0.293 HD
ENDBRANCH   7  25
TORSDOF 6
ENDMDL
MODEL 4
REMARK VINA RESULT:    -7.385      2.996      7.416
REMARK INTER + INTRA:          -9.288
REMARK INTER:                  -9.033
REMARK INTRA:                  -0.256
REMARK UNBOUND:                -0.393
REMARK SMILES Oc1cc(O)c2c(c1)O[C@@H](c1ccc(O)c(O)c1)[C@@H](O)C2
REMARK SMILES IDX 21 1 19 2 10 3 9 4 7 5 8 6 2 7 3 8 4 9 6 10 20 11 11 13
REMARK SMILES IDX 18 14 12 15 16 16 13 17 14 18 17 19 15 21 5 23 1 25
REMARK H PARENT 20 12 17 20 15 22 5 24 1 26
REMARK Flexibility Score: inf
ROOT
ATOM      1  C   UNL     1     -29.195 -13.039   2.621  1.00  0.00     0.079 C 
ATOM      2  C   UNL     1     -28.820 -12.787   1.145  1.00  0.00     0.164 C 
ATOM      3  C   UNL     1     -27.395 -13.303   0.859  1.00  0.00     0.232 C 
ATOM      4  O   UNL     1     -27.286 -14.680   1.219  1.00  0.00    -0.482 OA
ATOM      5  C   UNL     1     -27.892 -15.197   2.370  1.00  0.00     0.131 A 
ATOM      6  C   UNL     1     -27.571 -16.494   2.779  1.00  0.00     0.093 A 
ATOM      7  C   UNL     1     -28.151 -17.035   3.931  1.00  0.00     0.122 A 
ATOM      8  C   UNL     1     -29.049 -16.271   4.679  1.00  0.00     0.092 A 
ATOM      9  C   UNL     1     -29.385 -14.971   4.284  1.00  0.00     0.126 A 
ATOM     10  C   UNL     1     -28.833 -14.433   3.096  1.00  0.00     0.039 A 
ENDROOT
BRANCH   2  11
ATOM     11  O   UNL     1     -29.768 -13.368   0.279  1.00  0.00    -0.389 OA
ATOM     12  H   UNL     1     -29.738 -14.351   0.406  1.00  0.00     0.211 HD
ENDBRANCH   2  11
BRANCH   3  13
ATOM     13  C   UNL     1     -27.011 -13.099  -0.588  1.00  0.00    -0.001 A 
ATOM     14  C   UNL     1     -27.177 -14.146  -1.511  1.00  0.00     0.057 A 
ATOM     15  C   UNL     1     -26.430 -11.894  -1.020  1.00  0.00     0.012 A 
ATOM     16  C   UNL     1     -26.794 -13.984  -2.850  1.00  0.00     0.157 A 
ATOM     17  C   UNL     1     -26.049 -11.731  -2.354  1.00  0.00     0.050 A 
ATOM     18  C   UNL     1     -26.230 -12.770  -3.273  1.00  0.00     0.157 A 
BRANCH  16  19
ATOM     19  O   UNL     1     -26.971 -15.027  -3.760  1.00  0.00    -0.504 OA
ATOM     20  H   UNL     1     -26.294 -15.213  -4.491  1.00  0.00     0.293 HD
ENDBRANCH  16  19
BRANCH  18  21
ATOM     21  O   UNL     1     -25.840 -12.578  -4.599  1.00  0.00    -0.504 OA
ATOM     22  H   UNL     1     -24.896 -12.312  -4.849  1.00  0.00     0.293 HD
ENDBRANCH  18  21
ENDBRANCH   3  13
BRANCH   9  23
ATOM     23  O   UNL     1     -30.256 -14.242   5.096  1.00  0.00    -0.507 OA
ATOM     24  H   UNL     1     -30.136 -14.147   6.095  1.00  0.00     0.293 HD
ENDBRANCH   9  23
BRANCH   7  25
ATOM     25  O   UNL     1     -27.836 -18.327   4.345  1.00  0.00    -0.508 OA
ATOM     26  H   UNL     1     -26.977 -18.528   4.845  1.00  0.00     0.293 HD
ENDBRANCH   7  25
TORSDOF 6
ENDMDL
MODEL 5
REMARK VINA RESULT:    -7.332      1.864      7.433
REMARK INTER + INTRA:          -9.225
REMARK INTER:                  -8.838
REMARK INTRA:                  -0.386
REMARK UNBOUND:                -0.393
REMARK SMILES Oc1cc(O)c2c(c1)O[C@@H](c1ccc(O)c(O)c1)[C@@H](O)C2
REMARK SMILES IDX 21 1 19 2 10 3 9 4 7 5 8 6 2 7 3 8 4 9 6 10 20 11 11 13
REMARK SMILES IDX 18 14 12 15 16 16 13 17 14 18 17 19 15 21 5 23 1 25
REMARK H PARENT 20 12 17 20 15 22 5 24 1 26
REMARK Flexibility Score: inf
ROOT
ATOM      1  C   UNL     1     -27.729 -16.562   1.962  1.00  0.00     0.079 C 
ATOM      2  C   UNL     1     -27.133 -15.783   0.770  1.00  0.00     0.164 C 
ATOM      3  C   UNL     1     -27.652 -14.330   0.767  1.00  0.00     0.232 C 
ATOM      4  O   UNL     1     -27.373 -13.703   2.019  1.00  0.00    -0.482 OA
ATOM      5  C   UNL     1     -27.500 -14.383   3.235  1.00  0.00     0.131 A 
ATOM      6  C   UNL     1     -27.422 -13.658   4.427  1.00  0.00     0.093 A 
ATOM      7  C   UNL     1     -27.557 -14.307   5.658  1.00  0.00     0.122 A 
ATOM      8  C   UNL     1     -27.778 -15.685   5.695  1.00  0.00     0.092 A 
ATOM      9  C   UNL     1     -27.856 -16.429   4.512  1.00  0.00     0.126 A 
ATOM     10  C   UNL     1     -27.679 -15.785   3.264  1.00  0.00     0.039 A 
ENDROOT
BRANCH   2  11
ATOM     11  O   UNL     1     -25.726 -15.833   0.788  1.00  0.00    -0.389 OA
ATOM     12  H   UNL     1     -25.437 -16.562   0.180  1.00  0.00     0.211 HD
ENDBRANCH   2  11
BRANCH   3  13
ATOM     13  C   UNL     1     -27.061 -13.533  -0.372  1.00  0.00    -0.001 A 
ATOM     14  C   UNL     1     -26.342 -12.356  -0.103  1.00  0.00     0.057 A 
ATOM     15  C   UNL     1     -27.270 -13.916  -1.709  1.00  0.00     0.012 A 
ATOM     16  C   UNL     1     -25.816 -11.586  -1.152  1.00  0.00     0.157 A 
ATOM     17  C   UNL     1     -26.746 -13.150  -2.753  1.00  0.00     0.050 A 
ATOM     18  C   UNL     1     -26.018 -11.988  -2.482  1.00  0.00     0.157 A 
BRANCH  16  19
ATOM     19  O   UNL     1     -25.097 -10.424  -0.874  1.00  0.00    -0.504 OA
ATOM     20  H   UNL     1     -25.314  -9.845  -0.072  1.00  0.00     0.293 HD
ENDBRANCH  16  19
BRANCH  18  21
ATOM     21  O   UNL     1     -25.506 -11.244  -3.546  1.00  0.00    -0.504 OA
ATOM     22  H   UNL     1     -25.319 -10.253  -3.468  1.00  0.00     0.293 HD
ENDBRANCH  18  21
ENDBRANCH   3  13
BRANCH   9  23
ATOM     23  O   UNL     1     -28.119 -17.797   4.612  1.00  0.00    -0.507 OA
ATOM     24  H   UNL     1     -28.738 -18.194   5.306  1.00  0.00     0.293 HD
ENDBRANCH   9  23
BRANCH   7  25
ATOM     25  O   UNL     1     -27.481 -13.591   6.851  1.00  0.00    -0.508 OA
ATOM     26  H   UNL     1     -27.470 -14.059   7.750  1.00  0.00     0.293 HD
ENDBRANCH   7  25
TORSDOF 6
ENDMDL
MODEL 6
REMARK VINA RESULT:    -7.330      5.140      6.645
REMARK INTER + INTRA:          -9.223
REMARK INTER:                  -8.888
REMARK INTRA:                  -0.336
REMARK UNBOUND:                -0.393
REMARK SMILES Oc1cc(O)c2c(c1)O[C@@H](c1ccc(O)c(O)c1)[C@@H](O)C2
REMARK SMILES IDX 21 1 19 2 10 3 9 4 7 5 8 6 2 7 3 8 4 9 6 10 20 11 11 13
REMARK SMILES IDX 18 14 12 15 16 16 13 17 14 18 17 19 15 21 5 23 1 25
REMARK H PARENT 20 12 17 20 15 22 5 24 1 26
REMARK Flexibility Score: inf
ROOT
ATOM      1  C   UNL     1     -31.799 -12.034   1.241  1.00  0.00     0.079 C 
ATOM      2  C   UNL     1     -30.418 -12.389   1.834  1.00  0.00     0.164 C 
ATOM      3  C   UNL     1     -29.503 -11.148   1.835  1.00  0.00     0.232 C 
ATOM      4  O   UNL     1     -30.131 -10.070   2.529  1.00  0.00    -0.482 OA
ATOM      5  C   UNL     1     -31.499  -9.806   2.408  1.00  0.00     0.131 A 
ATOM      6  C   UNL     1     -32.008  -8.617   2.937  1.00  0.00     0.093 A 
ATOM      7  C   UNL     1     -33.370  -8.318   2.821  1.00  0.00     0.122 A 
ATOM      8  C   UNL     1     -34.221  -9.209   2.166  1.00  0.00     0.092 A 
ATOM      9  C   UNL     1     -33.731 -10.406   1.631  1.00  0.00     0.126 A 
ATOM     10  C   UNL     1     -32.362 -10.734   1.782  1.00  0.00     0.039 A 
ENDROOT
BRANCH   2  11
ATOM     11  O   UNL     1     -30.551 -12.940   3.124  1.00  0.00    -0.389 OA
ATOM     12  H   UNL     1     -30.124 -12.318   3.768  1.00  0.00     0.211 HD
ENDBRANCH   2  11
BRANCH   3  13
ATOM     13  C   UNL     1     -28.152 -11.456   2.440  1.00  0.00    -0.001 A 
ATOM     14  C   UNL     1     -27.411 -12.554   1.973  1.00  0.00     0.057 A 
ATOM     15  C   UNL     1     -27.649 -10.697   3.511  1.00  0.00     0.012 A 
ATOM     16  C   UNL     1     -26.172 -12.875   2.548  1.00  0.00     0.157 A 
ATOM     17  C   UNL     1     -26.414 -11.014   4.083  1.00  0.00     0.050 A 
ATOM     18  C   UNL     1     -25.671 -12.099   3.606  1.00  0.00     0.157 A 
BRANCH  16  19
ATOM     19  O   UNL     1     -25.439 -13.962   2.071  1.00  0.00    -0.504 OA
ATOM     20  H   UNL     1     -25.173 -14.728   2.678  1.00  0.00     0.293 HD
ENDBRANCH  16  19
BRANCH  18  21
ATOM     21  O   UNL     1     -24.442 -12.391   4.196  1.00  0.00    -0.504 OA
ATOM     22  H   UNL     1     -23.833 -13.117   3.840  1.00  0.00     0.293 HD
ENDBRANCH  18  21
ENDBRANCH   3  13
BRANCH   9  23
ATOM     23  O   UNL     1     -34.624 -11.237   0.952  1.00  0.00    -0.507 OA
ATOM     24  H   UNL     1     -35.128 -11.993   1.397  1.00  0.00     0.293 HD
ENDBRANCH   9  23
BRANCH   7  25
ATOM     25  O   UNL     1     -33.884  -7.135   3.346  1.00  0.00    -0.508 OA
ATOM     26  H   UNL     1     -33.288  -6.338   3.540  1.00  0.00     0.293 HD
ENDBRANCH   7  25
TORSDOF 6
ENDMDL
MODEL 7
REMARK VINA RESULT:    -7.319      2.401      3.653
REMARK INTER + INTRA:          -9.209
REMARK INTER:                  -9.259
REMARK INTRA:                   0.049
REMARK UNBOUND:                -0.393
REMARK SMILES Oc1cc(O)c2c(c1)O[C@@H](c1ccc(O)c(O)c1)[C@@H](O)C2
REMARK SMILES IDX 21 1 19 2 10 3 9 4 7 5 8 6 2 7 3 8 4 9 6 10 20 11 11 13
REMARK SMILES IDX 18 14 12 15 16 16 13 17 14 18 17 19 15 21 5 23 1 25
REMARK H PARENT 20 12 17 20 15 22 5 24 1 26
REMARK Flexibility Score: inf
ROOT
ATOM      1  C   UNL     1     -27.556 -14.371  -1.301  1.00  0.00     0.079 C 
ATOM      2  C   UNL     1     -28.315 -14.875  -0.055  1.00  0.00     0.164 C 
ATOM      3  C   UNL     1     -27.388 -14.859   1.178  1.00  0.00     0.232 C 
ATOM      4  O   UNL     1     -26.840 -13.555   1.367  1.00  0.00    -0.482 OA
ATOM      5  C   UNL     1     -26.423 -12.761   0.292  1.00  0.00     0.131 A 
ATOM      6  C   UNL     1     -25.701 -11.594   0.554  1.00  0.00     0.093 A 
ATOM      7  C   UNL     1     -25.260 -10.786  -0.500  1.00  0.00     0.122 A 
ATOM      8  C   UNL     1     -25.536 -11.153  -1.818  1.00  0.00     0.092 A 
ATOM      9  C   UNL     1     -26.260 -12.318  -2.100  1.00  0.00     0.126 A 
ATOM     10  C   UNL     1     -26.745 -13.118  -1.037  1.00  0.00     0.039 A 
ENDROOT
BRANCH   2  11
ATOM     11  O   UNL     1     -29.484 -14.120   0.162  1.00  0.00    -0.389 OA
ATOM     12  H   UNL     1     -29.851 -14.370   1.049  1.00  0.00     0.211 HD
ENDBRANCH   2  11
BRANCH   3  13
ATOM     13  C   UNL     1     -28.114 -15.317   2.422  1.00  0.00    -0.001 A 
ATOM     14  C   UNL     1     -27.872 -16.601   2.940  1.00  0.00     0.057 A 
ATOM     15  C   UNL     1     -29.078 -14.501   3.039  1.00  0.00     0.012 A 
ATOM     16  C   UNL     1     -28.563 -17.054   4.074  1.00  0.00     0.157 A 
ATOM     17  C   UNL     1     -29.765 -14.951   4.169  1.00  0.00     0.050 A 
ATOM     18  C   UNL     1     -29.512 -16.224   4.692  1.00  0.00     0.157 A 
BRANCH  16  19
ATOM     19  O   UNL     1     -28.309 -18.327   4.585  1.00  0.00    -0.504 OA
ATOM     20  H   UNL     1     -28.052 -19.099   3.982  1.00  0.00     0.293 HD
ENDBRANCH  16  19
BRANCH  18  21
ATOM     21  O   UNL     1     -30.213 -16.645   5.822  1.00  0.00    -0.504 OA
ATOM     22  H   UNL     1     -30.871 -16.044   6.302  1.00  0.00     0.293 HD
ENDBRANCH  18  21
ENDBRANCH   3  13
BRANCH   9  23
ATOM     23  O   UNL     1     -26.469 -12.654  -3.439  1.00  0.00    -0.507 OA
ATOM     24  H   UNL     1     -25.720 -12.888  -4.076  1.00  0.00     0.293 HD
ENDBRANCH   9  23
BRANCH   7  25
ATOM     25  O   UNL     1     -24.540  -9.620  -0.247  1.00  0.00    -0.508 OA
ATOM     26  H   UNL     1     -24.524  -8.854  -0.909  1.00  0.00     0.293 HD
ENDBRANCH   7  25
TORSDOF 6
ENDMDL
MODEL 8
REMARK VINA RESULT:    -7.287      1.808      2.695
REMARK INTER + INTRA:          -9.170
REMARK INTER:                  -8.919
REMARK INTRA:                  -0.251
REMARK UNBOUND:                -0.393
REMARK SMILES Oc1cc(O)c2c(c1)O[C@@H](c1ccc(O)c(O)c1)[C@@H](O)C2
REMARK SMILES IDX 21 1 19 2 10 3 9 4 7 5 8 6 2 7 3 8 4 9 6 10 20 11 11 13
REMARK SMILES IDX 18 14 12 15 16 16 13 17 14 18 17 19 15 21 5 23 1 25
REMARK H PARENT 20 12 17 20 15 22 5 24 1 26
REMARK Flexibility Score: inf
ROOT
ATOM      1  C   UNL     1     -28.874 -11.112   1.307  1.00  0.00     0.079 C 
ATOM      2  C   UNL     1     -28.933 -11.845   2.664  1.00  0.00     0.164 C 
ATOM      3  C   UNL     1     -27.849 -12.940   2.727  1.00  0.00     0.232 C 
ATOM      4  O   UNL     1     -26.563 -12.378   2.470  1.00  0.00    -0.482 OA
ATOM      5  C   UNL     1     -26.363 -11.393   1.497  1.00  0.00     0.131 A 
ATOM      6  C   UNL     1     -25.057 -11.042   1.146  1.00  0.00     0.093 A 
ATOM      7  C   UNL     1     -24.826 -10.069   0.168  1.00  0.00     0.122 A 
ATOM      8  C   UNL     1     -25.906  -9.452  -0.465  1.00  0.00     0.092 A 
ATOM      9  C   UNL     1     -27.222  -9.788  -0.126  1.00  0.00     0.126 A 
ATOM     10  C   UNL     1     -27.463 -10.742   0.892  1.00  0.00     0.039 A 
ENDROOT
BRANCH   2  11
ATOM     11  O   UNL     1     -28.818 -10.935   3.733  1.00  0.00    -0.389 OA
ATOM     12  H   UNL     1     -27.860 -10.701   3.835  1.00  0.00     0.211 HD
ENDBRANCH   2  11
BRANCH   3  13
ATOM     13  C   UNL     1     -27.861 -13.656   4.058  1.00  0.00    -0.001 A 
ATOM     14  C   UNL     1     -28.770 -14.705   4.281  1.00  0.00     0.057 A 
ATOM     15  C   UNL     1     -27.018 -13.248   5.107  1.00  0.00     0.012 A 
ATOM     16  C   UNL     1     -28.817 -15.355   5.523  1.00  0.00     0.157 A 
ATOM     17  C   UNL     1     -27.064 -13.896   6.344  1.00  0.00     0.050 A 
ATOM     18  C   UNL     1     -27.958 -14.950   6.557  1.00  0.00     0.157 A 
BRANCH  16  19
ATOM     19  O   UNL     1     -29.716 -16.401   5.731  1.00  0.00    -0.504 OA
ATOM     20  H   UNL     1     -30.654 -16.378   5.347  1.00  0.00     0.293 HD
ENDBRANCH  16  19
BRANCH  18  21
ATOM     21  O   UNL     1     -27.981 -15.579   7.802  1.00  0.00    -0.504 OA
ATOM     22  H   UNL     1     -28.302 -15.106   8.637  1.00  0.00     0.293 HD
ENDBRANCH  18  21
ENDBRANCH   3  13
BRANCH   9  23
ATOM     23  O   UNL     1     -28.259  -9.167  -0.824  1.00  0.00    -0.507 OA
ATOM     24  H   UNL     1     -28.147  -8.299  -1.330  1.00  0.00     0.293 HD
ENDBRANCH   9  23
BRANCH   7  25
ATOM     25  O   UNL     1     -23.526  -9.714  -0.187  1.00  0.00    -0.508 OA
ATOM     26  H   UNL     1     -22.721 -10.141   0.256  1.00  0.00     0.293 HD
ENDBRANCH   7  25
TORSDOF 6
ENDMDL
MODEL 9
REMARK VINA RESULT:    -7.284      1.316      6.889
REMARK INTER + INTRA:          -9.167
REMARK INTER:                  -8.867
REMARK INTRA:                  -0.300
REMARK UNBOUND:                -0.393
REMARK SMILES Oc1cc(O)c2c(c1)O[C@@H](c1ccc(O)c(O)c1)[C@@H](O)C2
REMARK SMILES IDX 21 1 19 2 10 3 9 4 7 5 8 6 2 7 3 8 4 9 6 10 20 11 11 13
REMARK SMILES IDX 18 14 12 15 16 16 13 17 14 18 17 19 15 21 5 23 1 25
REMARK H PARENT 20 12 17 20 15 22 5 24 1 26
REMARK Flexibility Score: inf
ROOT
ATOM      1  C   UNL     1     -26.089 -12.700   5.262  1.00  0.00     0.079 C 
ATOM      2  C   UNL     1     -25.948 -12.024   3.882  1.00  0.00     0.164 C 
ATOM      3  C   UNL     1     -25.863 -13.089   2.770  1.00  0.00     0.232 C 
ATOM      4  O   UNL     1     -26.991 -13.961   2.834  1.00  0.00    -0.482 OA
ATOM      5  C   UNL     1     -27.520 -14.405   4.052  1.00  0.00     0.131 A 
ATOM      6  C   UNL     1     -28.480 -15.420   4.043  1.00  0.00     0.093 A 
ATOM      7  C   UNL     1     -29.018 -15.893   5.244  1.00  0.00     0.122 A 
ATOM      8  C   UNL     1     -28.586 -15.354   6.457  1.00  0.00     0.092 A 
ATOM      9  C   UNL     1     -27.627 -14.335   6.486  1.00  0.00     0.126 A 
ATOM     10  C   UNL     1     -27.109 -13.823   5.272  1.00  0.00     0.039 A 
ENDROOT
BRANCH   2  11
ATOM     11  O   UNL     1     -27.002 -11.117   3.656  1.00  0.00    -0.389 OA
ATOM     12  H   UNL     1     -27.725 -11.600   3.176  1.00  0.00     0.211 HD
ENDBRANCH   2  11
BRANCH   3  13
ATOM     13  C   UNL     1     -25.757 -12.456   1.402  1.00  0.00    -0.001 A 
ATOM     14  C   UNL     1     -24.848 -11.406   1.187  1.00  0.00     0.057 A 
ATOM     15  C   UNL     1     -26.599 -12.859   0.351  1.00  0.00     0.012 A 
ATOM     16  C   UNL     1     -24.762 -10.784  -0.068  1.00  0.00     0.157 A 
ATOM     17  C   UNL     1     -26.512 -12.241  -0.900  1.00  0.00     0.050 A 
ATOM     18  C   UNL     1     -25.597 -11.206  -1.115  1.00  0.00     0.157 A 
BRANCH  16  19
ATOM     19  O   UNL     1     -23.851  -9.748  -0.275  1.00  0.00    -0.504 OA
ATOM     20  H   UNL     1     -23.974  -9.075  -1.022  1.00  0.00     0.293 HD
ENDBRANCH  16  19
BRANCH  18  21
ATOM     21  O   UNL     1     -25.533 -10.609  -2.375  1.00  0.00    -0.504 OA
ATOM     22  H   UNL     1     -26.320 -10.117  -2.777  1.00  0.00     0.293 HD
ENDBRANCH  18  21
ENDBRANCH   3  13
BRANCH   9  23
ATOM     23  O   UNL     1     -27.206 -13.865   7.732  1.00  0.00    -0.507 OA
ATOM     24  H   UNL     1     -26.530 -14.347   8.309  1.00  0.00     0.293 HD
ENDBRANCH   9  23
BRANCH   7  25
ATOM     25  O   UNL     1     -29.975 -16.905   5.244  1.00  0.00    -0.508 OA
ATOM     26  H   UNL     1     -30.728 -16.921   4.566  1.00  0.00     0.293 HD
ENDBRANCH   7  25
TORSDOF 6
ENDMDL
