MODEL 1
REMARK VINA RESULT:    -2.954      0.000      0.000
REMARK INTER + INTRA:          -3.822
REMARK INTER:                  -4.162
REMARK INTRA:                   0.340
REMARK UNBOUND:                 0.340
REMARK SMILES CC1=CCC(=C(C)C)C(=O)CC(C)=CCC1
REMARK SMILES IDX 12 1 14 2 13 3 15 4 16 5 2 6 1 7 3 8 11 10 9 11 10 12 5 13
REMARK SMILES IDX 6 14 7 15 8 16 4 17
REMARK H PARENT
REMARK Flexibility Score: 60.00
ROOT
ATOM      1  C   UNL     1       5.297   3.118  -6.720  1.00  0.00    -0.070 C 
ATOM      2  C   UNL     1       6.097   4.208  -6.766  1.00  0.00    -0.027 C 
ATOM      3  C   UNL     1       4.139   3.127  -5.755  1.00  0.00     0.039 C 
ENDROOT
BRANCH   2   4
ATOM      4  C   UNL     1       7.334   4.346  -7.624  1.00  0.00     0.032 C 
BRANCH   4   5
ATOM      5  C   UNL     1       8.510   3.539  -7.056  1.00  0.00     0.034 C 
BRANCH   5   6
ATOM      6  C   UNL     1       9.286   2.768  -8.115  1.00  0.00    -0.077 C 
ATOM      7  C   UNL     1      10.007   3.539  -9.193  1.00  0.00     0.039 C 
ATOM      8  C   UNL     1       9.349   1.417  -8.156  1.00  0.00    -0.023 CG0
ATOM      9  G   UNL     1       8.755   0.482  -7.130  1.00  0.00     0.000 G0
ENDBRANCH   5   6
ENDBRANCH   4   5
ENDBRANCH   2   4
BRANCH   1  10
ATOM     10  C   UNL     1       5.513   1.899  -7.597  1.00  0.00     0.111 C 
BRANCH  10  11
ATOM     11  C   UNL     1       6.194   0.796  -6.837  1.00  0.00     0.163 C 
ATOM     12  O   UNL     1       5.810   0.523  -5.667  1.00  0.00    -0.294 OA
BRANCH  11  13
ATOM     13  C   UNL     1       7.323   0.034  -7.429  1.00  0.00    -0.002 C 
ATOM     14  C   UNL     1       7.081  -1.038  -8.231  1.00  0.00    -0.069 C 
ATOM     15  C   UNL     1       5.673  -1.542  -8.459  1.00  0.00     0.039 C 
ATOM     16  C   UNL     1       8.213  -1.786  -8.896  1.00  0.00     0.039 C 
BRANCH  13  17
ATOM     17  C   UNL     1       8.753   0.468  -7.122  1.00  0.00     0.066 CG0
ATOM     18  G   UNL     1       9.336   1.414  -8.145  1.00  0.00     0.000 G0
ENDBRANCH  13  17
ENDBRANCH  11  13
ENDBRANCH  10  11
ENDBRANCH   1  10
TORSDOF 0
ENDMDL
MODEL 2
REMARK VINA RESULT:    -2.652      1.630      3.949
REMARK INTER + INTRA:          -3.397
REMARK INTER:                  -4.038
REMARK INTRA:                   0.641
REMARK UNBOUND:                 0.340
REMARK SMILES CC1=CCC(=C(C)C)C(=O)CC(C)=CCC1
REMARK SMILES IDX 12 1 14 2 13 3 15 4 16 5 2 6 1 7 3 8 11 10 9 11 10 12 5 13
REMARK SMILES IDX 6 14 7 15 8 16 4 17
REMARK H PARENT
REMARK Flexibility Score: 60.00
ROOT
ATOM      1  C   UNL     1       6.474  -0.479  -6.760  1.00  0.00    -0.070 C 
ATOM      2  C   UNL     1       7.741  -0.814  -6.424  1.00  0.00    -0.027 C 
ATOM      3  C   UNL     1       5.617  -1.523  -7.430  1.00  0.00     0.039 C 
ENDROOT
BRANCH   2   4
ATOM      4  C   UNL     1       8.755   0.121  -5.807  1.00  0.00     0.032 C 
BRANCH   4   5
ATOM      5  C   UNL     1       9.913   0.416  -6.771  1.00  0.00     0.034 C 
BRANCH   5   6
ATOM      6  C   UNL     1       9.470   0.600  -8.215  1.00  0.00    -0.077 C 
ATOM      7  C   UNL     1       9.819  -0.466  -9.225  1.00  0.00     0.039 C 
ATOM      8  C   UNL     1       8.793   1.686  -8.654  1.00  0.00    -0.023 CG0
ATOM      9  G   UNL     1       8.296   2.817  -7.785  1.00  0.00     0.000 G0
ENDBRANCH   5   6
ENDBRANCH   4   5
ENDBRANCH   2   4
BRANCH   1  10
ATOM     10  C   UNL     1       5.884   0.892  -6.489  1.00  0.00     0.111 C 
BRANCH  10  11
ATOM     11  C   UNL     1       5.898   1.745  -7.726  1.00  0.00     0.163 C 
ATOM     12  O   UNL     1       5.191   1.411  -8.715  1.00  0.00    -0.294 OA
BRANCH  11  13
ATOM     13  C   UNL     1       6.743   2.963  -7.813  1.00  0.00    -0.002 C 
ATOM     14  C   UNL     1       6.167   4.190  -7.932  1.00  0.00    -0.069 C 
ATOM     15  C   UNL     1       4.669   4.340  -8.078  1.00  0.00     0.039 C 
ATOM     16  C   UNL     1       7.006   5.447  -7.956  1.00  0.00     0.039 C 
BRANCH  13  17
ATOM     17  C   UNL     1       8.261   2.818  -7.772  1.00  0.00     0.066 CG0
ATOM     18  G   UNL     1       8.791   1.702  -8.640  1.00  0.00     0.000 G0
ENDBRANCH  13  17
ENDBRANCH  11  13
ENDBRANCH  10  11
ENDBRANCH   1  10
TORSDOF 0
ENDMDL
MODEL 3
REMARK VINA RESULT:    -2.623      1.588      3.806
REMARK INTER + INTRA:          -3.356
REMARK INTER:                  -3.676
REMARK INTRA:                   0.320
REMARK UNBOUND:                 0.340
REMARK SMILES CC1=CCC(=C(C)C)C(=O)CC(C)=CCC1
REMARK SMILES IDX 12 1 14 2 13 3 15 4 16 5 2 6 1 7 3 8 11 10 9 11 10 12 5 13
REMARK SMILES IDX 6 14 7 15 8 16 4 17
REMARK H PARENT
REMARK Flexibility Score: 60.00
ROOT
ATOM      1  C   UNL     1       5.234   2.252  -6.389  1.00  0.00    -0.070 C 
ATOM      2  C   UNL     1       5.625   1.017  -5.998  1.00  0.00    -0.027 C 
ATOM      3  C   UNL     1       4.276   3.007  -5.502  1.00  0.00     0.039 C 
ENDROOT
BRANCH   2   4
ATOM      4  C   UNL     1       6.526   0.097  -6.789  1.00  0.00     0.032 C 
BRANCH   4   5
ATOM      5  C   UNL     1       8.000   0.274  -6.397  1.00  0.00     0.034 C 
BRANCH   5   6
ATOM      6  C   UNL     1       8.921   0.515  -7.584  1.00  0.00    -0.077 C 
ATOM      7  C   UNL     1       9.301  -0.654  -8.459  1.00  0.00     0.039 C 
ATOM      8  C   UNL     1       9.440   1.727  -7.891  1.00  0.00    -0.023 CG0
ATOM      9  G   UNL     1       9.122   3.020  -7.179  1.00  0.00     0.000 G0
ENDBRANCH   5   6
ENDBRANCH   4   5
ENDBRANCH   2   4
BRANCH   1  10
ATOM     10  C   UNL     1       5.720   2.904  -7.669  1.00  0.00     0.111 C 
BRANCH  10  11
ATOM     11  C   UNL     1       6.725   3.984  -7.382  1.00  0.00     0.163 C 
ATOM     12  O   UNL     1       6.379   4.983  -6.695  1.00  0.00    -0.294 OA
BRANCH  11  13
ATOM     13  C   UNL     1       8.111   3.907  -7.909  1.00  0.00    -0.002 C 
ATOM     14  C   UNL     1       8.461   4.608  -9.023  1.00  0.00    -0.069 C 
ATOM     15  C   UNL     1       7.435   5.396  -9.806  1.00  0.00     0.039 C 
ATOM     16  C   UNL     1       9.882   4.595  -9.537  1.00  0.00     0.039 C 
BRANCH  13  17
ATOM     17  C   UNL     1       9.132   3.033  -7.189  1.00  0.00     0.066 CG0
ATOM     18  G   UNL     1       9.428   1.732  -7.896  1.00  0.00     0.000 G0
ENDBRANCH  13  17
ENDBRANCH  11  13
ENDBRANCH  10  11
ENDBRANCH   1  10
TORSDOF 0
ENDMDL
MODEL 4
REMARK VINA RESULT:    -2.584      1.791      2.351
REMARK INTER + INTRA:          -3.302
REMARK INTER:                  -4.220
REMARK INTRA:                   0.918
REMARK UNBOUND:                 0.340
REMARK SMILES CC1=CCC(=C(C)C)C(=O)CC(C)=CCC1
REMARK SMILES IDX 12 1 14 2 13 3 15 4 16 5 2 6 1 7 3 8 11 10 9 11 10 12 5 13
REMARK SMILES IDX 6 14 7 15 8 16 4 17
REMARK H PARENT
REMARK Flexibility Score: 60.00
ROOT
ATOM      1  C   UNL     1       5.390   4.127  -6.701  1.00  0.00    -0.070 C 
ATOM      2  C   UNL     1       5.949   5.225  -6.141  1.00  0.00    -0.027 C 
ATOM      3  C   UNL     1       4.505   3.263  -5.838  1.00  0.00     0.039 C 
ENDROOT
BRANCH   2   4
ATOM      4  C   UNL     1       6.908   6.165  -6.835  1.00  0.00     0.032 C 
BRANCH   4   5
ATOM      5  C   UNL     1       7.943   5.400  -7.673  1.00  0.00     0.034 C 
BRANCH   5   6
ATOM      6  C   UNL     1       8.947   4.620  -6.836  1.00  0.00    -0.077 C 
ATOM      7  C   UNL     1       9.647   5.323  -5.699  1.00  0.00     0.039 C 
ATOM      8  C   UNL     1       9.266   3.326  -7.069  1.00  0.00    -0.023 CG0
ATOM      9  G   UNL     1       8.623   2.441  -8.110  1.00  0.00     0.000 G0
ENDBRANCH   5   6
ENDBRANCH   4   5
ENDBRANCH   2   4
BRANCH   1  10
ATOM     10  C   UNL     1       5.613   3.735  -8.149  1.00  0.00     0.111 C 
BRANCH  10  11
ATOM     11  C   UNL     1       6.027   2.296  -8.266  1.00  0.00     0.163 C 
ATOM     12  O   UNL     1       5.274   1.484  -8.871  1.00  0.00    -0.294 OA
BRANCH  11  13
ATOM     13  C   UNL     1       7.294   1.806  -7.668  1.00  0.00    -0.002 C 
ATOM     14  C   UNL     1       7.274   0.817  -6.734  1.00  0.00    -0.069 C 
ATOM     15  C   UNL     1       5.968   0.263  -6.208  1.00  0.00     0.039 C 
ATOM     16  C   UNL     1       8.557   0.259  -6.161  1.00  0.00     0.039 C 
BRANCH  13  17
ATOM     17  C   UNL     1       8.614   2.429  -8.112  1.00  0.00     0.066 CG0
ATOM     18  G   UNL     1       9.254   3.311  -7.067  1.00  0.00     0.000 G0
ENDBRANCH  13  17
ENDBRANCH  11  13
ENDBRANCH  10  11
ENDBRANCH   1  10
TORSDOF 0
ENDMDL
MODEL 5
REMARK VINA RESULT:    -2.527      2.060      4.848
REMARK INTER + INTRA:          -3.221
REMARK INTER:                  -3.779
REMARK INTRA:                   0.558
REMARK UNBOUND:                 0.340
REMARK SMILES CC1=CCC(=C(C)C)C(=O)CC(C)=CCC1
REMARK SMILES IDX 12 1 14 2 13 3 15 4 16 5 2 6 1 7 3 8 11 10 9 11 10 12 5 13
REMARK SMILES IDX 6 14 7 15 8 16 4 17
REMARK H PARENT
REMARK Flexibility Score: 60.00
ROOT
ATOM      1  C   UNL     1       9.419   2.108  -7.327  1.00  0.00    -0.070 C 
ATOM      2  C   UNL     1       9.294   1.074  -6.464  1.00  0.00    -0.027 C 
ATOM      3  C   UNL     1       9.985   3.405  -6.805  1.00  0.00     0.039 C 
ENDROOT
BRANCH   2   4
ATOM      4  C   UNL     1       8.692  -0.272  -6.796  1.00  0.00     0.032 C 
BRANCH   4   5
ATOM      5  C   UNL     1       7.403  -0.527  -6.002  1.00  0.00     0.034 C 
BRANCH   5   6
ATOM      6  C   UNL     1       6.141  -0.455  -6.851  1.00  0.00    -0.077 C 
ATOM      7  C   UNL     1       5.490  -1.741  -7.296  1.00  0.00     0.039 C 
ATOM      8  C   UNL     1       5.578   0.708  -7.250  1.00  0.00    -0.023 CG0
ATOM      9  G   UNL     1       6.042   2.088  -6.849  1.00  0.00     0.000 G0
ENDBRANCH   5   6
ENDBRANCH   4   5
ENDBRANCH   2   4
BRANCH   1  10
ATOM     10  C   UNL     1       9.019   2.016  -8.787  1.00  0.00     0.111 C 
BRANCH  10  11
ATOM     11  C   UNL     1       7.532   2.148  -8.954  1.00  0.00     0.163 C 
ATOM     12  O   UNL     1       6.976   1.641  -9.966  1.00  0.00    -0.294 OA
BRANCH  11  13
ATOM     13  C   UNL     1       6.707   2.881  -7.961  1.00  0.00    -0.002 C 
ATOM     14  C   UNL     1       6.562   4.231  -8.052  1.00  0.00    -0.069 C 
ATOM     15  C   UNL     1       7.311   5.030  -9.096  1.00  0.00     0.039 C 
ATOM     16  C   UNL     1       5.674   4.987  -7.091  1.00  0.00     0.039 C 
BRANCH  13  17
ATOM     17  C   UNL     1       6.029   2.101  -6.839  1.00  0.00     0.066 CG0
ATOM     18  G   UNL     1       5.587   0.714  -7.241  1.00  0.00     0.000 G0
ENDBRANCH  13  17
ENDBRANCH  11  13
ENDBRANCH  10  11
ENDBRANCH   1  10
TORSDOF 0
ENDMDL
MODEL 6
REMARK VINA RESULT:    -2.477      1.960      3.611
REMARK INTER + INTRA:          -3.151
REMARK INTER:                  -3.469
REMARK INTRA:                   0.318
REMARK UNBOUND:                 0.340
REMARK SMILES CC1=CCC(=C(C)C)C(=O)CC(C)=CCC1
REMARK SMILES IDX 12 1 14 2 13 3 15 4 16 5 2 6 1 7 3 8 11 10 9 11 10 12 5 13
REMARK SMILES IDX 6 14 7 15 8 16 4 17
REMARK H PARENT
REMARK Flexibility Score: 60.00
ROOT
ATOM      1  C   UNL     1       8.914   4.605  -6.603  1.00  0.00    -0.070 C 
ATOM      2  C   UNL     1       7.864   5.433  -6.394  1.00  0.00    -0.027 C 
ATOM      3  C   UNL     1      10.117   4.745  -5.704  1.00  0.00     0.039 C 
ENDROOT
BRANCH   2   4
ATOM      4  C   UNL     1       6.607   5.476  -7.233  1.00  0.00     0.032 C 
BRANCH   4   5
ATOM      5  C   UNL     1       5.559   4.471  -6.735  1.00  0.00     0.034 C 
BRANCH   5   6
ATOM      6  C   UNL     1       5.033   3.550  -7.827  1.00  0.00    -0.077 C 
ATOM      7  C   UNL     1       4.111   4.120  -8.878  1.00  0.00     0.039 C 
ATOM      8  C   UNL     1       5.331   2.232  -7.898  1.00  0.00    -0.023 CG0
ATOM      9  G   UNL     1       6.286   1.501  -6.985  1.00  0.00     0.000 G0
ENDBRANCH   5   6
ENDBRANCH   4   5
ENDBRANCH   2   4
BRANCH   1  10
ATOM     10  C   UNL     1       8.928   3.550  -7.692  1.00  0.00     0.111 C 
BRANCH  10  11
ATOM     11  C   UNL     1       8.767   2.172  -7.116  1.00  0.00     0.163 C 
ATOM     12  O   UNL     1       9.592   1.762  -6.255  1.00  0.00    -0.294 OA
BRANCH  11  13
ATOM     13  C   UNL     1       7.668   1.275  -7.555  1.00  0.00    -0.002 C 
ATOM     14  C   UNL     1       7.907   0.290  -8.463  1.00  0.00    -0.069 C 
ATOM     15  C   UNL     1       9.262   0.145  -9.121  1.00  0.00     0.039 C 
ATOM     16  C   UNL     1       6.818  -0.674  -8.873  1.00  0.00     0.039 C 
BRANCH  13  17
ATOM     17  C   UNL     1       6.270   1.477  -6.978  1.00  0.00     0.066 CG0
ATOM     18  G   UNL     1       5.338   2.238  -7.890  1.00  0.00     0.000 G0
ENDBRANCH  13  17
ENDBRANCH  11  13
ENDBRANCH  10  11
ENDBRANCH   1  10
TORSDOF 0
ENDMDL
MODEL 7
REMARK VINA RESULT:    -2.466      2.316      3.479
REMARK INTER + INTRA:          -3.135
REMARK INTER:                  -3.922
REMARK INTRA:                   0.787
REMARK UNBOUND:                 0.340
REMARK SMILES CC1=CCC(=C(C)C)C(=O)CC(C)=CCC1
REMARK SMILES IDX 12 1 14 2 13 3 15 4 16 5 2 6 1 7 3 8 11 10 9 11 10 12 5 13
REMARK SMILES IDX 6 14 7 15 8 16 4 17
REMARK H PARENT
REMARK Flexibility Score: 60.00
ROOT
ATOM      1  C   UNL     1       7.833  -0.694  -6.579  1.00  0.00    -0.070 C 
ATOM      2  C   UNL     1       8.173   0.438  -5.920  1.00  0.00    -0.027 C 
ATOM      3  C   UNL     1       6.692  -1.516  -6.035  1.00  0.00     0.039 C 
ENDROOT
BRANCH   2   4
ATOM      4  C   UNL     1       9.326   1.346  -6.284  1.00  0.00     0.032 C 
BRANCH   4   5
ATOM      5  C   UNL     1       9.338   1.670  -7.785  1.00  0.00     0.034 C 
BRANCH   5   6
ATOM      6  C   UNL     1       8.166   2.533  -8.230  1.00  0.00    -0.077 C 
ATOM      7  C   UNL     1       7.920   3.845  -7.529  1.00  0.00     0.039 C 
ATOM      8  C   UNL     1       7.310   2.175  -9.216  1.00  0.00    -0.023 CG0
ATOM      9  G   UNL     1       7.433   0.940 -10.076  1.00  0.00     0.000 G0
ENDBRANCH   5   6
ENDBRANCH   4   5
ENDBRANCH   2   4
BRANCH   1  10
ATOM     10  C   UNL     1       8.545  -1.163  -7.833  1.00  0.00     0.111 C 
BRANCH  10  11
ATOM     11  C   UNL     1       7.573  -1.401  -8.954  1.00  0.00     0.163 C 
ATOM     12  O   UNL     1       7.476  -2.555  -9.454  1.00  0.00    -0.294 OA
BRANCH  11  13
ATOM     13  C   UNL     1       6.737  -0.300  -9.497  1.00  0.00    -0.002 C 
ATOM     14  C   UNL     1       5.380  -0.394  -9.474  1.00  0.00    -0.069 C 
ATOM     15  C   UNL     1       4.691  -1.652  -8.993  1.00  0.00     0.039 C 
ATOM     16  C   UNL     1       4.511   0.742  -9.961  1.00  0.00     0.039 C 
BRANCH  13  17
ATOM     17  C   UNL     1       7.421   0.931 -10.082  1.00  0.00     0.066 CG0
ATOM     18  G   UNL     1       7.316   2.160  -9.210  1.00  0.00     0.000 G0
ENDBRANCH  13  17
ENDBRANCH  11  13
ENDBRANCH  10  11
ENDBRANCH   1  10
TORSDOF 0
ENDMDL
MODEL 8
REMARK VINA RESULT:    -2.392      1.800      4.303
REMARK INTER + INTRA:          -3.031
REMARK INTER:                  -3.643
REMARK INTRA:                   0.612
REMARK UNBOUND:                 0.340
REMARK SMILES CC1=CCC(=C(C)C)C(=O)CC(C)=CCC1
REMARK SMILES IDX 12 1 14 2 13 3 15 4 16 5 2 6 1 7 3 8 11 10 9 11 10 12 5 13
REMARK SMILES IDX 6 14 7 15 8 16 4 17
REMARK H PARENT
REMARK Flexibility Score: 60.00
ROOT
ATOM      1  C   UNL     1       6.268   0.317  -6.360  1.00  0.00    -0.070 C 
ATOM      2  C   UNL     1       5.627  -0.551  -7.177  1.00  0.00    -0.027 C 
ATOM      3  C   UNL     1       5.587   1.623  -6.039  1.00  0.00     0.039 C 
ENDROOT
BRANCH   2   4
ATOM      4  C   UNL     1       6.184  -1.873  -7.653  1.00  0.00     0.032 C 
BRANCH   4   5
ATOM      5  C   UNL     1       6.356  -1.898  -9.179  1.00  0.00     0.034 C 
BRANCH   5   6
ATOM      6  C   UNL     1       7.804  -1.775  -9.630  1.00  0.00    -0.077 C 
ATOM      7  C   UNL     1       8.520  -3.008 -10.125  1.00  0.00     0.039 C 
ATOM      8  C   UNL     1       8.500  -0.615  -9.591  1.00  0.00    -0.023 CG0
ATOM      9  G   UNL     1       7.938   0.730  -9.196  1.00  0.00     0.000 G0
ENDBRANCH   5   6
ENDBRANCH   4   5
ENDBRANCH   2   4
BRANCH   1  10
ATOM     10  C   UNL     1       7.629   0.030  -5.757  1.00  0.00     0.111 C 
BRANCH  10  11
ATOM     11  C   UNL     1       8.731   0.326  -6.735  1.00  0.00     0.163 C 
ATOM     12  O   UNL     1       9.857  -0.219  -6.581  1.00  0.00    -0.294 OA
BRANCH  11  13
ATOM     13  C   UNL     1       8.525   1.264  -7.868  1.00  0.00    -0.002 C 
ATOM     14  C   UNL     1       8.848   2.579  -7.736  1.00  0.00    -0.069 C 
ATOM     15  C   UNL     1       9.325   3.140  -6.414  1.00  0.00     0.039 C 
ATOM     16  C   UNL     1       8.709   3.537  -8.897  1.00  0.00     0.039 C 
BRANCH  13  17
ATOM     17  C   UNL     1       7.946   0.733  -9.175  1.00  0.00     0.066 CG0
ATOM     18  G   UNL     1       8.500  -0.610  -9.587  1.00  0.00     0.000 G0
ENDBRANCH  13  17
ENDBRANCH  11  13
ENDBRANCH  10  11
ENDBRANCH   1  10
TORSDOF 0
ENDMDL
MODEL 9
REMARK VINA RESULT:    -2.305      2.229      3.767
REMARK INTER + INTRA:          -2.908
REMARK INTER:                  -3.609
REMARK INTRA:                   0.700
REMARK UNBOUND:                 0.340
REMARK SMILES CC1=CCC(=C(C)C)C(=O)CC(C)=CCC1
REMARK SMILES IDX 12 1 14 2 13 3 15 4 16 5 2 6 1 7 3 8 11 10 9 11 10 12 5 13
REMARK SMILES IDX 6 14 7 15 8 16 4 17
REMARK H PARENT
REMARK Flexibility Score: 60.00
ROOT
ATOM      1  C   UNL     1       8.805   3.145  -7.824  1.00  0.00    -0.070 C 
ATOM      2  C   UNL     1       8.266   4.337  -7.478  1.00  0.00    -0.027 C 
ATOM      3  C   UNL     1       9.765   2.494  -6.861  1.00  0.00     0.039 C 
ENDROOT
BRANCH   2   4
ATOM      4  C   UNL     1       7.338   5.159  -8.344  1.00  0.00     0.032 C 
BRANCH   4   5
ATOM      5  C   UNL     1       5.926   5.234  -7.747  1.00  0.00     0.034 C 
BRANCH   5   6
ATOM      6  C   UNL     1       4.947   4.250  -8.374  1.00  0.00    -0.077 C 
ATOM      7  C   UNL     1       3.998   4.747  -9.436  1.00  0.00     0.039 C 
ATOM      8  C   UNL     1       4.866   2.948  -8.014  1.00  0.00    -0.023 CG0
ATOM      9  G   UNL     1       5.775   2.256  -7.027  1.00  0.00     0.000 G0
ENDBRANCH   5   6
ENDBRANCH   4   5
ENDBRANCH   2   4
BRANCH   1  10
ATOM     10  C   UNL     1       8.480   2.441  -9.128  1.00  0.00     0.111 C 
BRANCH  10  11
ATOM     11  C   UNL     1       7.312   1.510  -8.968  1.00  0.00     0.163 C 
ATOM     12  O   UNL     1       6.812   0.965  -9.989  1.00  0.00    -0.294 OA
BRANCH  11  13
ATOM     13  C   UNL     1       6.723   1.234  -7.633  1.00  0.00    -0.002 C 
ATOM     14  C   UNL     1       7.027   0.083  -6.973  1.00  0.00    -0.069 C 
ATOM     15  C   UNL     1       7.886  -0.983  -7.616  1.00  0.00     0.039 C 
ATOM     16  C   UNL     1       6.490  -0.186  -5.587  1.00  0.00     0.039 C 
BRANCH  13  17
ATOM     17  C   UNL     1       5.771   2.255  -7.016  1.00  0.00     0.066 CG0
ATOM     18  G   UNL     1       4.872   2.935  -8.021  1.00  0.00     0.000 G0
ENDBRANCH  13  17
ENDBRANCH  11  13
ENDBRANCH  10  11
ENDBRANCH   1  10
TORSDOF 0
ENDMDL
