MODEL 1
REMARK VINA RESULT:    -5.336      0.000      0.000
REMARK INTER + INTRA:          -5.648
REMARK INTER:                  -5.648
REMARK INTRA:                   0.000
REMARK UNBOUND:                 0.000
REMARK SMILES O=c1ccc2cc(O)c(O)cc2o1
REMARK SMILES IDX 4 1 3 2 2 3 1 4 13 5 12 6 11 7 9 8 7 9 6 10 5 11 8 12 10 14
REMARK H PARENT 8 13 10 15
REMARK Flexibility Score: inf
ROOT
ATOM      1  C   UNL     1     -57.951  17.865 -19.541  1.00  0.00     0.019 A 
ATOM      2  C   UNL     1     -57.143  18.654 -18.724  1.00  0.00     0.094 A 
ATOM      3  C   UNL     1     -57.579  18.959 -17.430  1.00  0.00     0.336 A 
ATOM      4  O   UNL     1     -56.865  19.671 -16.677  1.00  0.00    -0.246 OA
ATOM      5  O   UNL     1     -58.748  18.502 -16.989  1.00  0.00    -0.423 OA
ATOM      6  C   UNL     1     -59.549  17.745 -17.735  1.00  0.00     0.142 A 
ATOM      7  C   UNL     1     -60.767  17.293 -17.217  1.00  0.00     0.098 A 
ATOM      8  C   UNL     1     -61.615  16.497 -17.996  1.00  0.00     0.161 A 
ATOM      9  C   UNL     1     -61.243  16.149 -19.308  1.00  0.00     0.158 A 
ATOM     10  C   UNL     1     -60.023  16.601 -19.832  1.00  0.00     0.062 A 
ATOM     11  C   UNL     1     -59.174  17.397 -19.051  1.00  0.00     0.022 A 
ENDROOT
BRANCH   9  12
ATOM     12  O   UNL     1     -62.086  15.357 -20.085  1.00  0.00    -0.504 OA
ATOM     13  H   UNL     1     -63.018  15.664 -20.341  1.00  0.00     0.293 HD
ENDBRANCH   9  12
BRANCH   8  14
ATOM     14  O   UNL     1     -62.823  16.061 -17.451  1.00  0.00    -0.504 OA
ATOM     15  H   UNL     1     -62.879  15.649 -16.528  1.00  0.00     0.293 HD
ENDBRANCH   8  14
TORSDOF 2
ENDMDL
MODEL 2
REMARK VINA RESULT:    -5.245      1.091      2.247
REMARK INTER + INTRA:          -5.552
REMARK INTER:                  -5.552
REMARK INTRA:                   0.000
REMARK UNBOUND:                 0.000
REMARK SMILES O=c1ccc2cc(O)c(O)cc2o1
REMARK SMILES IDX 4 1 3 2 2 3 1 4 13 5 12 6 11 7 9 8 7 9 6 10 5 11 8 12 10 14
REMARK H PARENT 8 13 10 15
REMARK Flexibility Score: inf
ROOT
ATOM      1  C   UNL     1     -58.809  18.522 -16.792  1.00  0.00     0.019 A 
ATOM      2  C   UNL     1     -57.588  18.961 -17.301  1.00  0.00     0.094 A 
ATOM      3  C   UNL     1     -57.231  18.606 -18.606  1.00  0.00     0.336 A 
ATOM      4  O   UNL     1     -56.133  18.992 -19.086  1.00  0.00    -0.246 OA
ATOM      5  O   UNL     1     -58.046  17.859 -19.347  1.00  0.00    -0.423 OA
ATOM      6  C   UNL     1     -59.219  17.420 -18.900  1.00  0.00     0.142 A 
ATOM      7  C   UNL     1     -60.035  16.638 -19.724  1.00  0.00     0.098 A 
ATOM      8  C   UNL     1     -61.270  16.172 -19.261  1.00  0.00     0.161 A 
ATOM      9  C   UNL     1     -61.697  16.490 -17.958  1.00  0.00     0.158 A 
ATOM     10  C   UNL     1     -60.883  17.273 -17.127  1.00  0.00     0.062 A 
ATOM     11  C   UNL     1     -59.646  17.739 -17.592  1.00  0.00     0.022 A 
ENDROOT
BRANCH   9  12
ATOM     12  O   UNL     1     -62.927  16.026 -17.495  1.00  0.00    -0.504 OA
ATOM     13  H   UNL     1     -63.391  16.453 -16.701  1.00  0.00     0.293 HD
ENDBRANCH   9  12
BRANCH   8  14
ATOM     14  O   UNL     1     -62.061  15.395 -20.108  1.00  0.00    -0.504 OA
ATOM     15  H   UNL     1     -62.498  14.536 -19.798  1.00  0.00     0.293 HD
ENDBRANCH   8  14
TORSDOF 2
ENDMDL
MODEL 3
REMARK VINA RESULT:    -4.918      9.797     10.580
REMARK INTER + INTRA:          -5.206
REMARK INTER:                  -5.206
REMARK INTRA:                   0.000
REMARK UNBOUND:                 0.000
REMARK SMILES O=c1ccc2cc(O)c(O)cc2o1
REMARK SMILES IDX 4 1 3 2 2 3 1 4 13 5 12 6 11 7 9 8 7 9 6 10 5 11 8 12 10 14
REMARK H PARENT 8 13 10 15
REMARK Flexibility Score: inf
ROOT
ATOM      1  C   UNL     1     -60.195  26.756 -13.614  1.00  0.00     0.019 A 
ATOM      2  C   UNL     1     -59.977  25.985 -12.474  1.00  0.00     0.094 A 
ATOM      3  C   UNL     1     -58.769  25.290 -12.347  1.00  0.00     0.336 A 
ATOM      4  O   UNL     1     -58.552  24.588 -11.325  1.00  0.00    -0.246 OA
ATOM      5  O   UNL     1     -57.845  25.366 -13.301  1.00  0.00    -0.423 OA
ATOM      6  C   UNL     1     -58.013  26.091 -14.405  1.00  0.00     0.142 A 
ATOM      7  C   UNL     1     -57.006  26.134 -15.374  1.00  0.00     0.098 A 
ATOM      8  C   UNL     1     -57.175  26.894 -16.537  1.00  0.00     0.161 A 
ATOM      9  C   UNL     1     -58.364  27.620 -16.735  1.00  0.00     0.158 A 
ATOM     10  C   UNL     1     -59.378  27.580 -15.766  1.00  0.00     0.062 A 
ATOM     11  C   UNL     1     -59.207  26.819 -14.601  1.00  0.00     0.022 A 
ENDROOT
BRANCH   9  12
ATOM     12  O   UNL     1     -58.535  28.377 -17.893  1.00  0.00    -0.504 OA
ATOM     13  H   UNL     1     -59.119  28.056 -18.657  1.00  0.00     0.293 HD
ENDBRANCH   9  12
BRANCH   8  14
ATOM     14  O   UNL     1     -56.152  26.916 -17.485  1.00  0.00    -0.504 OA
ATOM     15  H   UNL     1     -55.686  27.774 -17.753  1.00  0.00     0.293 HD
ENDBRANCH   8  14
TORSDOF 2
ENDMDL
MODEL 4
REMARK VINA RESULT:    -4.901      9.942     10.642
REMARK INTER + INTRA:          -5.188
REMARK INTER:                  -5.188
REMARK INTRA:                   0.000
REMARK UNBOUND:                 0.000
REMARK SMILES O=c1ccc2cc(O)c(O)cc2o1
REMARK SMILES IDX 4 1 3 2 2 3 1 4 13 5 12 6 11 7 9 8 7 9 6 10 5 11 8 12 10 14
REMARK H PARENT 8 13 10 15
REMARK Flexibility Score: inf
ROOT
ATOM      1  C   UNL     1     -57.900  25.343 -13.216  1.00  0.00     0.019 A 
ATOM      2  C   UNL     1     -58.949  25.338 -12.299  1.00  0.00     0.094 A 
ATOM      3  C   UNL     1     -60.100  26.081 -12.581  1.00  0.00     0.336 A 
ATOM      4  O   UNL     1     -61.059  26.090 -11.766  1.00  0.00    -0.246 OA
ATOM      5  O   UNL     1     -60.189  26.782 -13.709  1.00  0.00    -0.423 OA
ATOM      6  C   UNL     1     -59.211  26.814 -14.611  1.00  0.00     0.142 A 
ATOM      7  C   UNL     1     -59.361  27.569 -15.779  1.00  0.00     0.098 A 
ATOM      8  C   UNL     1     -58.337  27.608 -16.732  1.00  0.00     0.161 A 
ATOM      9  C   UNL     1     -57.149  26.885 -16.517  1.00  0.00     0.158 A 
ATOM     10  C   UNL     1     -56.994  26.127 -15.347  1.00  0.00     0.062 A 
ATOM     11  C   UNL     1     -58.020  26.088 -14.393  1.00  0.00     0.022 A 
ENDROOT
BRANCH   9  12
ATOM     12  O   UNL     1     -56.128  26.923 -17.466  1.00  0.00    -0.504 OA
ATOM     13  H   UNL     1     -55.464  27.688 -17.501  1.00  0.00     0.293 HD
ENDBRANCH   9  12
BRANCH   8  14
ATOM     14  O   UNL     1     -58.517  28.370 -17.887  1.00  0.00    -0.504 OA
ATOM     15  H   UNL     1     -57.745  28.829 -18.354  1.00  0.00     0.293 HD
ENDBRANCH   8  14
TORSDOF 2
ENDMDL
MODEL 5
REMARK VINA RESULT:    -4.770      9.217      9.872
REMARK INTER + INTRA:          -5.049
REMARK INTER:                  -5.049
REMARK INTRA:                   0.000
REMARK UNBOUND:                 0.000
REMARK SMILES O=c1ccc2cc(O)c(O)cc2o1
REMARK SMILES IDX 4 1 3 2 2 3 1 4 13 5 12 6 11 7 9 8 7 9 6 10 5 11 8 12 10 14
REMARK H PARENT 8 13 10 15
REMARK Flexibility Score: inf
ROOT
ATOM      1  C   UNL     1     -56.220  24.217 -13.836  1.00  0.00     0.019 A 
ATOM      2  C   UNL     1     -57.009  23.859 -12.744  1.00  0.00     0.094 A 
ATOM      3  C   UNL     1     -58.278  24.433 -12.608  1.00  0.00     0.336 A 
ATOM      4  O   UNL     1     -59.006  24.123 -11.629  1.00  0.00    -0.246 OA
ATOM      5  O   UNL     1     -58.722  25.306 -13.508  1.00  0.00    -0.423 OA
ATOM      6  C   UNL     1     -58.001  25.675 -14.565  1.00  0.00     0.142 A 
ATOM      7  C   UNL     1     -58.520  26.597 -15.479  1.00  0.00     0.098 A 
ATOM      8  C   UNL     1     -57.769  26.990 -16.592  1.00  0.00     0.161 A 
ATOM      9  C   UNL     1     -56.483  26.455 -16.796  1.00  0.00     0.158 A 
ATOM     10  C   UNL     1     -55.957  25.530 -15.881  1.00  0.00     0.062 A 
ATOM     11  C   UNL     1     -56.712  25.137 -14.767  1.00  0.00     0.022 A 
ENDROOT
BRANCH   9  12
ATOM     12  O   UNL     1     -55.733  26.845 -17.904  1.00  0.00    -0.504 OA
ATOM     13  H   UNL     1     -54.927  27.454 -17.812  1.00  0.00     0.293 HD
ENDBRANCH   9  12
BRANCH   8  14
ATOM     14  O   UNL     1     -58.314  27.911 -17.485  1.00  0.00    -0.504 OA
ATOM     15  H   UNL     1     -58.157  27.851 -18.484  1.00  0.00     0.293 HD
ENDBRANCH   8  14
TORSDOF 2
ENDMDL
MODEL 6
REMARK VINA RESULT:    -4.724      9.447     10.628
REMARK INTER + INTRA:          -5.000
REMARK INTER:                  -5.000
REMARK INTRA:                   0.000
REMARK UNBOUND:                 0.000
REMARK SMILES O=c1ccc2cc(O)c(O)cc2o1
REMARK SMILES IDX 4 1 3 2 2 3 1 4 13 5 12 6 11 7 9 8 7 9 6 10 5 11 8 12 10 14
REMARK H PARENT 8 13 10 15
REMARK Flexibility Score: inf
ROOT
ATOM      1  C   UNL     1     -59.028  25.734 -13.385  1.00  0.00     0.019 A 
ATOM      2  C   UNL     1     -60.216  26.446 -13.233  1.00  0.00     0.094 A 
ATOM      3  C   UNL     1     -60.555  27.412 -14.187  1.00  0.00     0.336 A 
ATOM      4  O   UNL     1     -61.624  28.066 -14.069  1.00  0.00    -0.246 OA
ATOM      5  O   UNL     1     -59.753  27.645 -15.223  1.00  0.00    -0.423 OA
ATOM      6  C   UNL     1     -58.610  26.987 -15.405  1.00  0.00     0.142 A 
ATOM      7  C   UNL     1     -57.807  27.275 -16.514  1.00  0.00     0.098 A 
ATOM      8  C   UNL     1     -56.604  26.588 -16.713  1.00  0.00     0.161 A 
ATOM      9  C   UNL     1     -56.197  25.602 -15.795  1.00  0.00     0.158 A 
ATOM     10  C   UNL     1     -56.999  25.311 -14.681  1.00  0.00     0.062 A 
ATOM     11  C   UNL     1     -58.204  25.999 -14.483  1.00  0.00     0.022 A 
ENDROOT
BRANCH   9  12
ATOM     12  O   UNL     1     -54.999  24.918 -15.991  1.00  0.00    -0.504 OA
ATOM     13  H   UNL     1     -54.102  25.381 -15.904  1.00  0.00     0.293 HD
ENDBRANCH   9  12
BRANCH   8  14
ATOM     14  O   UNL     1     -55.825  26.898 -17.828  1.00  0.00    -0.504 OA
ATOM     15  H   UNL     1     -55.348  26.185 -18.366  1.00  0.00     0.293 HD
ENDBRANCH   8  14
TORSDOF 2
ENDMDL
MODEL 7
REMARK VINA RESULT:    -4.415      9.019      9.667
REMARK INTER + INTRA:          -4.673
REMARK INTER:                  -4.673
REMARK INTRA:                   0.000
REMARK UNBOUND:                 0.000
REMARK SMILES O=c1ccc2cc(O)c(O)cc2o1
REMARK SMILES IDX 4 1 3 2 2 3 1 4 13 5 12 6 11 7 9 8 7 9 6 10 5 11 8 12 10 14
REMARK H PARENT 8 13 10 15
REMARK Flexibility Score: inf
ROOT
ATOM      1  C   UNL     1     -55.227  25.064 -15.951  1.00  0.00     0.019 A 
ATOM      2  C   UNL     1     -54.876  24.117 -14.991  1.00  0.00     0.094 A 
ATOM      3  C   UNL     1     -55.751  23.875 -13.926  1.00  0.00     0.336 A 
ATOM      4  O   UNL     1     -55.453  23.023 -13.048  1.00  0.00    -0.246 OA
ATOM      5  O   UNL     1     -56.900  24.540 -13.834  1.00  0.00    -0.423 OA
ATOM      6  C   UNL     1     -57.273  25.452 -14.729  1.00  0.00     0.142 A 
ATOM      7  C   UNL     1     -58.492  26.119 -14.581  1.00  0.00     0.098 A 
ATOM      8  C   UNL     1     -58.892  27.079 -15.518  1.00  0.00     0.161 A 
ATOM      9  C   UNL     1     -58.064  27.377 -16.616  1.00  0.00     0.158 A 
ATOM     10  C   UNL     1     -56.838  26.710 -16.769  1.00  0.00     0.062 A 
ATOM     11  C   UNL     1     -56.440  25.748 -15.830  1.00  0.00     0.022 A 
ENDROOT
BRANCH   9  12
ATOM     12  O   UNL     1     -58.460  28.333 -17.549  1.00  0.00    -0.504 OA
ATOM     13  H   UNL     1     -58.230  29.314 -17.436  1.00  0.00     0.293 HD
ENDBRANCH   9  12
BRANCH   8  14
ATOM     14  O   UNL     1     -60.114  27.728 -15.342  1.00  0.00    -0.504 OA
ATOM     15  H   UNL     1     -60.792  27.422 -14.656  1.00  0.00     0.293 HD
ENDBRANCH   8  14
TORSDOF 2
ENDMDL
MODEL 8
REMARK VINA RESULT:    -4.360      9.272     10.551
REMARK INTER + INTRA:          -4.615
REMARK INTER:                  -4.615
REMARK INTRA:                   0.000
REMARK UNBOUND:                 0.000
REMARK SMILES O=c1ccc2cc(O)c(O)cc2o1
REMARK SMILES IDX 4 1 3 2 2 3 1 4 13 5 12 6 11 7 9 8 7 9 6 10 5 11 8 12 10 14
REMARK H PARENT 8 13 10 15
REMARK Flexibility Score: inf
ROOT
ATOM      1  C   UNL     1     -59.982  27.904 -14.941  1.00  0.00     0.019 A 
ATOM      2  C   UNL     1     -60.785  27.572 -13.852  1.00  0.00     0.094 A 
ATOM      3  C   UNL     1     -60.420  26.490 -13.045  1.00  0.00     0.336 A 
ATOM      4  O   UNL     1     -61.131  26.173 -12.056  1.00  0.00    -0.246 OA
ATOM      5  O   UNL     1     -59.322  25.789 -13.316  1.00  0.00    -0.423 OA
ATOM      6  C   UNL     1     -58.527  26.072 -14.346  1.00  0.00     0.142 A 
ATOM      7  C   UNL     1     -57.385  25.301 -14.581  1.00  0.00     0.098 A 
ATOM      8  C   UNL     1     -56.545  25.592 -15.662  1.00  0.00     0.161 A 
ATOM      9  C   UNL     1     -56.848  26.667 -16.517  1.00  0.00     0.158 A 
ATOM     10  C   UNL     1     -57.993  27.444 -16.286  1.00  0.00     0.062 A 
ATOM     11  C   UNL     1     -58.833  27.151 -15.203  1.00  0.00     0.022 A 
ENDROOT
BRANCH   9  12
ATOM     12  O   UNL     1     -56.012  26.959 -17.594  1.00  0.00    -0.504 OA
ATOM     13  H   UNL     1     -55.524  27.844 -17.663  1.00  0.00     0.293 HD
ENDBRANCH   9  12
BRANCH   8  14
ATOM     14  O   UNL     1     -55.413  24.804 -15.870  1.00  0.00    -0.504 OA
ATOM     15  H   UNL     1     -54.566  24.924 -15.328  1.00  0.00     0.293 HD
ENDBRANCH   8  14
TORSDOF 2
ENDMDL
