MODEL 1
REMARK VINA RESULT:    -4.123      0.000      0.000
REMARK INTER + INTRA:          -5.996
REMARK INTER:                  -5.569
REMARK INTRA:                  -0.427
REMARK UNBOUND:                -0.427
REMARK SMILES CCCCCCCC(=O)[O-]
REMARK SMILES IDX 5 1 6 2 7 3 8 4 9 5 10 6 4 7 3 8 2 9 1 10
REMARK H PARENT
REMARK Flexibility Score: inf
ROOT
ATOM      1  C   UNL     1     -26.715 -11.553  16.731  1.00  0.00     0.000 C 
ENDROOT
BRANCH   1   2
ATOM      2  C   UNL     1     -27.761 -11.496  17.859  1.00  0.00     0.006 C 
BRANCH   2   3
ATOM      3  C   UNL     1     -29.196 -11.218  17.383  1.00  0.00     0.053 C 
BRANCH   3   4
ATOM      4  C   UNL     1     -29.944 -12.482  17.087  1.00  0.00     0.041 C 
ATOM      5  O   UNL     1     -30.798 -12.919  17.903  1.00  0.00    -0.550 OA
ATOM      6  O   UNL     1     -29.673 -13.194  15.925  1.00  0.00    -0.550 OA
ENDBRANCH   3   4
ENDBRANCH   2   3
ENDBRANCH   1   2
BRANCH   1   7
ATOM      7  C   UNL     1     -25.498 -12.422  17.094  1.00  0.00     0.000 C 
BRANCH   7   8
ATOM      8  C   UNL     1     -25.844 -13.525  18.108  1.00  0.00    -0.000 C 
BRANCH   8   9
ATOM      9  C   UNL     1     -26.182 -14.864  17.435  1.00  0.00    -0.003 C 
ATOM     10  C   UNL     1     -27.394 -15.518  18.093  1.00  0.00     0.004 C 
ENDBRANCH   8   9
ENDBRANCH   7   8
ENDBRANCH   1   7
TORSDOF 6
ENDMDL
MODEL 2
REMARK VINA RESULT:    -3.932      1.545      2.636
REMARK INTER + INTRA:          -5.738
REMARK INTER:                  -5.323
REMARK INTRA:                  -0.415
REMARK UNBOUND:                -0.427
REMARK SMILES CCCCCCCC(=O)[O-]
REMARK SMILES IDX 5 1 6 2 7 3 8 4 9 5 10 6 4 7 3 8 2 9 1 10
REMARK H PARENT
REMARK Flexibility Score: inf
ROOT
ATOM      1  C   UNL     1     -29.175 -11.741  16.980  1.00  0.00     0.000 C 
ENDROOT
BRANCH   1   2
ATOM      2  C   UNL     1     -29.923 -12.993  17.474  1.00  0.00     0.006 C 
BRANCH   2   3
ATOM      3  C   UNL     1     -29.609 -14.274  16.685  1.00  0.00     0.053 C 
BRANCH   3   4
ATOM      4  C   UNL     1     -30.652 -14.565  15.650  1.00  0.00     0.041 C 
ATOM      5  O   UNL     1     -31.853 -14.244  15.853  1.00  0.00    -0.550 OA
ATOM      6  O   UNL     1     -30.302 -15.220  14.476  1.00  0.00    -0.550 OA
ENDBRANCH   3   4
ENDBRANCH   2   3
ENDBRANCH   1   2
BRANCH   1   7
ATOM      7  C   UNL     1     -27.857 -11.500  17.736  1.00  0.00     0.000 C 
BRANCH   7   8
ATOM      8  C   UNL     1     -26.638 -11.470  16.799  1.00  0.00    -0.000 C 
BRANCH   8   9
ATOM      9  C   UNL     1     -25.480 -12.344  17.305  1.00  0.00    -0.003 C 
ATOM     10  C   UNL     1     -25.998 -13.651  17.897  1.00  0.00     0.004 C 
ENDBRANCH   8   9
ENDBRANCH   7   8
ENDBRANCH   1   7
TORSDOF 6
ENDMDL
MODEL 3
REMARK VINA RESULT:    -3.908      1.995      3.359
REMARK INTER + INTRA:          -5.706
REMARK INTER:                  -5.397
REMARK INTRA:                  -0.308
REMARK UNBOUND:                -0.427
REMARK SMILES CCCCCCCC(=O)[O-]
REMARK SMILES IDX 5 1 6 2 7 3 8 4 9 5 10 6 4 7 3 8 2 9 1 10
REMARK H PARENT
REMARK Flexibility Score: inf
ROOT
ATOM      1  C   UNL     1     -29.594 -12.132  16.655  1.00  0.00     0.000 C 
ENDROOT
BRANCH   1   2
ATOM      2  C   UNL     1     -30.444 -13.129  17.464  1.00  0.00     0.006 C 
BRANCH   2   3
ATOM      3  C   UNL     1     -30.357 -14.583  16.973  1.00  0.00     0.053 C 
BRANCH   3   4
ATOM      4  C   UNL     1     -31.009 -14.763  15.636  1.00  0.00     0.041 C 
ATOM      5  O   UNL     1     -30.332 -15.154  14.649  1.00  0.00    -0.550 OA
ATOM      6  O   UNL     1     -32.356 -14.468  15.474  1.00  0.00    -0.550 OA
ENDBRANCH   3   4
ENDBRANCH   2   3
ENDBRANCH   1   2
BRANCH   1   7
ATOM      7  C   UNL     1     -28.995 -11.017  17.530  1.00  0.00     0.000 C 
BRANCH   7   8
ATOM      8  C   UNL     1     -27.468 -10.910  17.383  1.00  0.00    -0.000 C 
BRANCH   8   9
ATOM      9  C   UNL     1     -26.778 -12.282  17.353  1.00  0.00    -0.003 C 
ATOM     10  C   UNL     1     -25.260 -12.131  17.298  1.00  0.00     0.004 C 
ENDBRANCH   8   9
ENDBRANCH   7   8
ENDBRANCH   1   7
TORSDOF 6
ENDMDL
MODEL 4
REMARK VINA RESULT:    -3.883      2.065      3.367
REMARK INTER + INTRA:          -5.672
REMARK INTER:                  -5.365
REMARK INTRA:                  -0.306
REMARK UNBOUND:                -0.427
REMARK SMILES CCCCCCCC(=O)[O-]
REMARK SMILES IDX 5 1 6 2 7 3 8 4 9 5 10 6 4 7 3 8 2 9 1 10
REMARK H PARENT
REMARK Flexibility Score: inf
ROOT
ATOM      1  C   UNL     1     -29.677 -12.230  16.669  1.00  0.00     0.000 C 
ENDROOT
BRANCH   1   2
ATOM      2  C   UNL     1     -30.477 -13.240  17.511  1.00  0.00     0.006 C 
BRANCH   2   3
ATOM      3  C   UNL     1     -30.465 -14.676  16.963  1.00  0.00     0.053 C 
BRANCH   3   4
ATOM      4  C   UNL     1     -31.143 -14.773  15.630  1.00  0.00     0.041 C 
ATOM      5  O   UNL     1     -32.361 -14.476  15.516  1.00  0.00    -0.550 OA
ATOM      6  O   UNL     1     -30.437 -15.223  14.522  1.00  0.00    -0.550 OA
ENDBRANCH   3   4
ENDBRANCH   2   3
ENDBRANCH   1   2
BRANCH   1   7
ATOM      7  C   UNL     1     -29.232 -11.001  17.482  1.00  0.00     0.000 C 
BRANCH   7   8
ATOM      8  C   UNL     1     -27.708 -10.798  17.454  1.00  0.00    -0.000 C 
BRANCH   8   9
ATOM      9  C   UNL     1     -26.942 -12.097  17.160  1.00  0.00    -0.003 C 
ATOM     10  C   UNL     1     -25.435 -11.861  17.179  1.00  0.00     0.004 C 
ENDBRANCH   8   9
ENDBRANCH   7   8
ENDBRANCH   1   7
TORSDOF 6
ENDMDL
MODEL 5
REMARK VINA RESULT:    -3.604      1.340      3.056
REMARK INTER + INTRA:          -5.296
REMARK INTER:                  -4.919
REMARK INTRA:                  -0.376
REMARK UNBOUND:                -0.427
REMARK SMILES CCCCCCCC(=O)[O-]
REMARK SMILES IDX 5 1 6 2 7 3 8 4 9 5 10 6 4 7 3 8 2 9 1 10
REMARK H PARENT
REMARK Flexibility Score: inf
ROOT
ATOM      1  C   UNL     1     -26.826 -14.945  17.550  1.00  0.00     0.000 C 
ENDROOT
BRANCH   1   2
ATOM      2  C   UNL     1     -28.311 -15.304  17.358  1.00  0.00     0.006 C 
BRANCH   2   3
ATOM      3  C   UNL     1     -29.258 -14.093  17.321  1.00  0.00     0.053 C 
BRANCH   3   4
ATOM      4  C   UNL     1     -30.312 -14.237  16.267  1.00  0.00     0.041 C 
ATOM      5  O   UNL     1     -30.086 -14.920  15.233  1.00  0.00    -0.550 OA
ATOM      6  O   UNL     1     -31.533 -13.590  16.411  1.00  0.00    -0.550 OA
ENDBRANCH   3   4
ENDBRANCH   2   3
ENDBRANCH   1   2
BRANCH   1   7
ATOM      7  C   UNL     1     -26.623 -13.499  18.034  1.00  0.00     0.000 C 
BRANCH   7   8
ATOM      8  C   UNL     1     -25.505 -12.773  17.266  1.00  0.00    -0.000 C 
BRANCH   8   9
ATOM      9  C   UNL     1     -25.885 -11.334  16.886  1.00  0.00    -0.003 C 
ATOM     10  C   UNL     1     -27.309 -11.008  17.325  1.00  0.00     0.004 C 
ENDBRANCH   8   9
ENDBRANCH   7   8
ENDBRANCH   1   7
TORSDOF 6
ENDMDL
MODEL 6
REMARK VINA RESULT:    -3.583      2.045      3.118
REMARK INTER + INTRA:          -5.267
REMARK INTER:                  -5.009
REMARK INTRA:                  -0.258
REMARK UNBOUND:                -0.427
REMARK SMILES CCCCCCCC(=O)[O-]
REMARK SMILES IDX 5 1 6 2 7 3 8 4 9 5 10 6 4 7 3 8 2 9 1 10
REMARK H PARENT
REMARK Flexibility Score: inf
ROOT
ATOM      1  C   UNL     1     -28.503 -14.148  17.319  1.00  0.00     0.000 C 
ENDROOT
BRANCH   1   2
ATOM      2  C   UNL     1     -29.546 -13.388  16.479  1.00  0.00     0.006 C 
BRANCH   2   3
ATOM      3  C   UNL     1     -30.977 -13.936  16.594  1.00  0.00     0.053 C 
BRANCH   3   4
ATOM      4  C   UNL     1     -31.312 -14.870  15.471  1.00  0.00     0.041 C 
ATOM      5  O   UNL     1     -32.452 -15.401  15.407  1.00  0.00    -0.550 OA
ATOM      6  O   UNL     1     -30.353 -15.178  14.514  1.00  0.00    -0.550 OA
ENDBRANCH   3   4
ENDBRANCH   2   3
ENDBRANCH   1   2
BRANCH   1   7
ATOM      7  C   UNL     1     -27.513 -13.208  18.029  1.00  0.00     0.000 C 
BRANCH   7   8
ATOM      8  C   UNL     1     -26.048 -13.540  17.700  1.00  0.00    -0.000 C 
BRANCH   8   9
ATOM      9  C   UNL     1     -25.234 -12.299  17.302  1.00  0.00    -0.003 C 
ATOM     10  C   UNL     1     -26.141 -11.089  17.101  1.00  0.00     0.004 C 
ENDBRANCH   8   9
ENDBRANCH   7   8
ENDBRANCH   1   7
TORSDOF 6
ENDMDL
MODEL 7
REMARK VINA RESULT:    -3.573      2.875      4.858
REMARK INTER + INTRA:          -5.253
REMARK INTER:                  -4.913
REMARK INTRA:                  -0.340
REMARK UNBOUND:                -0.427
REMARK SMILES CCCCCCCC(=O)[O-]
REMARK SMILES IDX 5 1 6 2 7 3 8 4 9 5 10 6 4 7 3 8 2 9 1 10
REMARK H PARENT
REMARK Flexibility Score: inf
ROOT
ATOM      1  C   UNL     1     -30.614 -12.987  17.740  1.00  0.00     0.000 C 
ENDROOT
BRANCH   1   2
ATOM      2  C   UNL     1     -29.708 -12.368  16.660  1.00  0.00     0.006 C 
BRANCH   2   3
ATOM      3  C   UNL     1     -28.211 -12.375  17.006  1.00  0.00     0.053 C 
BRANCH   3   4
ATOM      4  C   UNL     1     -27.684 -10.993  17.246  1.00  0.00     0.041 C 
ATOM      5  O   UNL     1     -26.444 -10.775  17.224  1.00  0.00    -0.550 OA
ATOM      6  O   UNL     1     -28.562  -9.953  17.525  1.00  0.00    -0.550 OA
ENDBRANCH   3   4
ENDBRANCH   2   3
ENDBRANCH   1   2
BRANCH   1   7
ATOM      7  C   UNL     1     -31.065 -14.416  17.389  1.00  0.00     0.000 C 
BRANCH   7   8
ATOM      8  C   UNL     1     -31.210 -14.632  15.874  1.00  0.00    -0.000 C 
BRANCH   8   9
ATOM      9  C   UNL     1     -32.630 -15.055  15.468  1.00  0.00    -0.003 C 
ATOM     10  C   UNL     1     -33.565 -13.851  15.411  1.00  0.00     0.004 C 
ENDBRANCH   8   9
ENDBRANCH   7   8
ENDBRANCH   1   7
TORSDOF 6
ENDMDL
MODEL 8
REMARK VINA RESULT:    -3.568      2.574      4.079
REMARK INTER + INTRA:          -5.247
REMARK INTER:                  -4.914
REMARK INTRA:                  -0.333
REMARK UNBOUND:                -0.427
REMARK SMILES CCCCCCCC(=O)[O-]
REMARK SMILES IDX 5 1 6 2 7 3 8 4 9 5 10 6 4 7 3 8 2 9 1 10
REMARK H PARENT
REMARK Flexibility Score: inf
ROOT
ATOM      1  C   UNL     1     -29.471 -12.176  16.675  1.00  0.00     0.000 C 
ENDROOT
BRANCH   1   2
ATOM      2  C   UNL     1     -28.330 -11.513  17.468  1.00  0.00     0.006 C 
BRANCH   2   3
ATOM      3  C   UNL     1     -26.982 -11.474  16.731  1.00  0.00     0.053 C 
BRANCH   3   4
ATOM      4  C   UNL     1     -26.023 -12.496  17.259  1.00  0.00     0.041 C 
ATOM      5  O   UNL     1     -24.813 -12.197  17.439  1.00  0.00    -0.550 OA
ATOM      6  O   UNL     1     -26.460 -13.788  17.522  1.00  0.00    -0.550 OA
ENDBRANCH   3   4
ENDBRANCH   2   3
ENDBRANCH   1   2
BRANCH   1   7
ATOM      7  C   UNL     1     -30.447 -12.952  17.576  1.00  0.00     0.000 C 
BRANCH   7   8
ATOM      8  C   UNL     1     -30.370 -14.472  17.357  1.00  0.00    -0.000 C 
BRANCH   8   9
ATOM      9  C   UNL     1     -29.977 -14.844  15.919  1.00  0.00    -0.003 C 
ATOM     10  C   UNL     1     -31.209 -15.179  15.083  1.00  0.00     0.004 C 
ENDBRANCH   8   9
ENDBRANCH   7   8
ENDBRANCH   1   7
TORSDOF 6
ENDMDL
MODEL 9
REMARK VINA RESULT:    -3.360      2.192      3.099
REMARK INTER + INTRA:          -4.966
REMARK INTER:                  -4.697
REMARK INTRA:                  -0.269
REMARK UNBOUND:                -0.427
REMARK SMILES CCCCCCCC(=O)[O-]
REMARK SMILES IDX 5 1 6 2 7 3 8 4 9 5 10 6 4 7 3 8 2 9 1 10
REMARK H PARENT
REMARK Flexibility Score: inf
ROOT
ATOM      1  C   UNL     1     -26.238 -14.228  17.813  1.00  0.00     0.000 C 
ENDROOT
BRANCH   1   2
ATOM      2  C   UNL     1     -26.299 -12.710  17.562  1.00  0.00     0.006 C 
BRANCH   2   3
ATOM      3  C   UNL     1     -27.633 -12.216  16.981  1.00  0.00     0.053 C 
BRANCH   3   4
ATOM      4  C   UNL     1     -27.893 -10.779  17.315  1.00  0.00     0.041 C 
ATOM      5  O   UNL     1     -26.945  -9.950  17.329  1.00  0.00    -0.550 OA
ATOM      6  O   UNL     1     -29.177 -10.363  17.643  1.00  0.00    -0.550 OA
ENDBRANCH   3   4
ENDBRANCH   2   3
ENDBRANCH   1   2
BRANCH   1   7
ATOM      7  C   UNL     1     -27.583 -14.928  17.550  1.00  0.00     0.000 C 
BRANCH   7   8
ATOM      8  C   UNL     1     -27.437 -16.453  17.420  1.00  0.00    -0.000 C 
BRANCH   8   9
ATOM      9  C   UNL     1     -25.986 -16.928  17.599  1.00  0.00    -0.003 C 
ATOM     10  C   UNL     1     -25.454 -17.560  16.316  1.00  0.00     0.004 C 
ENDBRANCH   8   9
ENDBRANCH   7   8
ENDBRANCH   1   7
TORSDOF 6
ENDMDL
