MODEL 1
REMARK VINA RESULT:    -3.813      0.000      0.000
REMARK INTER + INTRA:          -3.925
REMARK INTER:                  -3.925
REMARK INTRA:                   0.000
REMARK UNBOUND:                 0.000
REMARK SMILES Cc1cccc(O)c1C
REMARK SMILES IDX 1 1 2 2 8 3 6 4 5 5 4 6 3 7 9 8 7 9
REMARK H PARENT 7 10
REMARK Flexibility Score: inf
ROOT
ATOM      1  C   UNL     1      -3.887  42.408   8.922  1.00  0.00     0.045 C 
ATOM      2  C   UNL     1      -5.148  42.384   8.096  1.00  0.00    -0.045 A 
ATOM      3  C   UNL     1      -5.145  42.000   6.726  1.00  0.00    -0.006 A 
ATOM      4  C   UNL     1      -6.370  42.000   6.010  1.00  0.00     0.118 A 
ATOM      5  C   UNL     1      -7.555  42.374   6.648  1.00  0.00     0.046 A 
ATOM      6  C   UNL     1      -7.550  42.749   7.988  1.00  0.00     0.004 A 
ATOM      7  C   UNL     1      -6.357  42.755   8.708  1.00  0.00     0.004 A 
ATOM      8  C   UNL     1      -3.875  41.591   6.015  1.00  0.00     0.048 C 
ENDROOT
BRANCH   4   9
ATOM      9  O   UNL     1      -6.444  41.635   4.663  1.00  0.00    -0.508 OA
ATOM     10  H   UNL     1      -5.909  40.877   4.260  1.00  0.00     0.293 HD
ENDBRANCH   4   9
TORSDOF 1
ENDMDL
MODEL 2
REMARK VINA RESULT:    -3.532     23.368     24.375
REMARK INTER + INTRA:          -3.635
REMARK INTER:                  -3.635
REMARK INTRA:                   0.000
REMARK UNBOUND:                 0.000
REMARK SMILES Cc1cccc(O)c1C
REMARK SMILES IDX 1 1 2 2 8 3 6 4 5 5 4 6 3 7 9 8 7 9
REMARK H PARENT 7 10
REMARK Flexibility Score: inf
ROOT
ATOM      1  C   UNL     1     -22.233  31.625  21.962  1.00  0.00     0.045 C 
ATOM      2  C   UNL     1     -21.672  30.527  21.095  1.00  0.00    -0.045 A 
ATOM      3  C   UNL     1     -22.505  29.693  20.298  1.00  0.00    -0.006 A 
ATOM      4  C   UNL     1     -21.907  28.680  19.505  1.00  0.00     0.118 A 
ATOM      5  C   UNL     1     -20.521  28.509  19.515  1.00  0.00     0.046 A 
ATOM      6  C   UNL     1     -19.712  29.328  20.297  1.00  0.00     0.004 A 
ATOM      7  C   UNL     1     -20.280  30.329  21.082  1.00  0.00     0.004 A 
ATOM      8  C   UNL     1     -24.008  29.860  20.272  1.00  0.00     0.048 C 
ENDROOT
BRANCH   4   9
ATOM      9  O   UNL     1     -22.663  27.824  18.699  1.00  0.00    -0.508 OA
ATOM     10  H   UNL     1     -22.500  26.828  18.636  1.00  0.00     0.293 HD
ENDBRANCH   4   9
TORSDOF 1
ENDMDL
MODEL 3
REMARK VINA RESULT:    -3.529     23.589     23.994
REMARK INTER + INTRA:          -3.632
REMARK INTER:                  -3.632
REMARK INTRA:                   0.000
REMARK UNBOUND:                 0.000
REMARK SMILES Cc1cccc(O)c1C
REMARK SMILES IDX 1 1 2 2 8 3 6 4 5 5 4 6 3 7 9 8 7 9
REMARK H PARENT 7 10
REMARK Flexibility Score: inf
ROOT
ATOM      1  C   UNL     1     -23.368  25.878  12.040  1.00  0.00     0.045 C 
ATOM      2  C   UNL     1     -23.091  25.818  10.559  1.00  0.00    -0.045 A 
ATOM      3  C   UNL     1     -22.265  24.811   9.986  1.00  0.00    -0.006 A 
ATOM      4  C   UNL     1     -22.048  24.815   8.584  1.00  0.00     0.118 A 
ATOM      5  C   UNL     1     -22.640  25.798   7.786  1.00  0.00     0.046 A 
ATOM      6  C   UNL     1     -23.446  26.780   8.354  1.00  0.00     0.004 A 
ATOM      7  C   UNL     1     -23.671  26.792   9.729  1.00  0.00     0.004 A 
ATOM      8  C   UNL     1     -21.614  23.738  10.830  1.00  0.00     0.048 C 
ENDROOT
BRANCH   4   9
ATOM      9  O   UNL     1     -21.249  23.859   7.952  1.00  0.00    -0.508 OA
ATOM     10  H   UNL     1     -20.249  23.790   8.087  1.00  0.00     0.293 HD
ENDBRANCH   4   9
TORSDOF 1
ENDMDL
MODEL 4
REMARK VINA RESULT:    -3.408     23.276     24.124
REMARK INTER + INTRA:          -3.507
REMARK INTER:                  -3.507
REMARK INTRA:                   0.000
REMARK UNBOUND:                 0.000
REMARK SMILES Cc1cccc(O)c1C
REMARK SMILES IDX 1 1 2 2 8 3 6 4 5 5 4 6 3 7 9 8 7 9
REMARK H PARENT 7 10
REMARK Flexibility Score: inf
ROOT
ATOM      1  C   UNL     1     -17.890  28.318  22.906  1.00  0.00     0.045 C 
ATOM      2  C   UNL     1     -18.795  28.351  21.700  1.00  0.00    -0.045 A 
ATOM      3  C   UNL     1     -19.237  27.163  21.054  1.00  0.00    -0.006 A 
ATOM      4  C   UNL     1     -20.088  27.270  19.925  1.00  0.00     0.118 A 
ATOM      5  C   UNL     1     -20.480  28.528  19.460  1.00  0.00     0.046 A 
ATOM      6  C   UNL     1     -20.043  29.687  20.096  1.00  0.00     0.004 A 
ATOM      7  C   UNL     1     -19.207  29.601  21.207  1.00  0.00     0.004 A 
ATOM      8  C   UNL     1     -18.825  25.791  21.541  1.00  0.00     0.048 C 
ENDROOT
BRANCH   4   9
ATOM      9  O   UNL     1     -20.561  26.147  19.241  1.00  0.00    -0.508 OA
ATOM     10  H   UNL     1     -20.317  25.934  18.282  1.00  0.00     0.293 HD
ENDBRANCH   4   9
TORSDOF 1
ENDMDL
MODEL 5
REMARK VINA RESULT:    -3.379     23.443     23.903
REMARK INTER + INTRA:          -3.478
REMARK INTER:                  -3.478
REMARK INTRA:                   0.000
REMARK UNBOUND:                 0.000
REMARK SMILES Cc1cccc(O)c1C
REMARK SMILES IDX 1 1 2 2 8 3 6 4 5 5 4 6 3 7 9 8 7 9
REMARK H PARENT 7 10
REMARK Flexibility Score: inf
ROOT
ATOM      1  C   UNL     1     -20.079  29.162  19.880  1.00  0.00     0.045 C 
ATOM      2  C   UNL     1     -19.480  29.563  21.205  1.00  0.00    -0.045 A 
ATOM      3  C   UNL     1     -20.046  30.591  22.009  1.00  0.00    -0.006 A 
ATOM      4  C   UNL     1     -19.430  30.915  23.245  1.00  0.00     0.118 A 
ATOM      5  C   UNL     1     -18.283  30.231  23.656  1.00  0.00     0.046 A 
ATOM      6  C   UNL     1     -17.734  29.227  22.864  1.00  0.00     0.004 A 
ATOM      7  C   UNL     1     -18.326  28.894  21.647  1.00  0.00     0.004 A 
ATOM      8  C   UNL     1     -21.287  31.344  21.583  1.00  0.00     0.048 C 
ENDROOT
BRANCH   4   9
ATOM      9  O   UNL     1     -19.930  31.912  24.086  1.00  0.00    -0.508 OA
ATOM     10  H   UNL     1     -19.880  32.900  23.872  1.00  0.00     0.293 HD
ENDBRANCH   4   9
TORSDOF 1
ENDMDL
MODEL 6
REMARK VINA RESULT:    -3.234     23.392     24.317
REMARK INTER + INTRA:          -3.329
REMARK INTER:                  -3.329
REMARK INTRA:                   0.000
REMARK UNBOUND:                 0.000
REMARK SMILES Cc1cccc(O)c1C
REMARK SMILES IDX 1 1 2 2 8 3 6 4 5 5 4 6 3 7 9 8 7 9
REMARK H PARENT 7 10
REMARK Flexibility Score: inf
ROOT
ATOM      1  C   UNL     1     -17.867  29.016  22.658  1.00  0.00     0.045 C 
ATOM      2  C   UNL     1     -18.631  28.062  21.775  1.00  0.00    -0.045 A 
ATOM      3  C   UNL     1     -19.619  28.510  20.855  1.00  0.00    -0.006 A 
ATOM      4  C   UNL     1     -20.297  27.555  20.055  1.00  0.00     0.118 A 
ATOM      5  C   UNL     1     -19.995  26.197  20.178  1.00  0.00     0.046 A 
ATOM      6  C   UNL     1     -19.027  25.765  21.081  1.00  0.00     0.004 A 
ATOM      7  C   UNL     1     -18.350  26.688  21.874  1.00  0.00     0.004 A 
ATOM      8  C   UNL     1     -19.962  29.975  20.706  1.00  0.00     0.048 C 
ENDROOT
BRANCH   4   9
ATOM      9  O   UNL     1     -21.279  27.922  19.131  1.00  0.00    -0.508 OA
ATOM     10  H   UNL     1     -21.157  28.661  18.450  1.00  0.00     0.293 HD
ENDBRANCH   4   9
TORSDOF 1
ENDMDL
MODEL 7
REMARK VINA RESULT:    -3.229     23.211     24.409
REMARK INTER + INTRA:          -3.324
REMARK INTER:                  -3.324
REMARK INTRA:                   0.000
REMARK UNBOUND:                 0.000
REMARK SMILES Cc1cccc(O)c1C
REMARK SMILES IDX 1 1 2 2 8 3 6 4 5 5 4 6 3 7 9 8 7 9
REMARK H PARENT 7 10
REMARK Flexibility Score: inf
ROOT
ATOM      1  C   UNL     1     -24.058  29.561  19.978  1.00  0.00     0.045 C 
ATOM      2  C   UNL     1     -22.558  29.563  20.134  1.00  0.00    -0.045 A 
ATOM      3  C   UNL     1     -21.907  30.297  21.165  1.00  0.00    -0.006 A 
ATOM      4  C   UNL     1     -20.492  30.251  21.252  1.00  0.00     0.118 A 
ATOM      5  C   UNL     1     -19.757  29.496  20.335  1.00  0.00     0.046 A 
ATOM      6  C   UNL     1     -20.401  28.781  19.329  1.00  0.00     0.004 A 
ATOM      7  C   UNL     1     -21.790  28.813  19.227  1.00  0.00     0.004 A 
ATOM      8  C   UNL     1     -22.682  31.121  22.168  1.00  0.00     0.048 C 
ENDROOT
BRANCH   4   9
ATOM      9  O   UNL     1     -19.785  30.946  22.237  1.00  0.00    -0.508 OA
ATOM     10  H   UNL     1     -18.864  31.338  22.091  1.00  0.00     0.293 HD
ENDBRANCH   4   9
TORSDOF 1
ENDMDL
MODEL 8
REMARK VINA RESULT:    -3.189     23.657     23.871
REMARK INTER + INTRA:          -3.282
REMARK INTER:                  -3.282
REMARK INTRA:                   0.000
REMARK UNBOUND:                 0.000
REMARK SMILES Cc1cccc(O)c1C
REMARK SMILES IDX 1 1 2 2 8 3 6 4 5 5 4 6 3 7 9 8 7 9
REMARK H PARENT 7 10
REMARK Flexibility Score: inf
ROOT
ATOM      1  C   UNL     1     -20.299  28.826  19.855  1.00  0.00     0.045 C 
ATOM      2  C   UNL     1     -20.212  29.776  21.022  1.00  0.00    -0.045 A 
ATOM      3  C   UNL     1     -19.185  29.677  22.001  1.00  0.00    -0.006 A 
ATOM      4  C   UNL     1     -19.164  30.607  23.073  1.00  0.00     0.118 A 
ATOM      5  C   UNL     1     -20.143  31.600  23.158  1.00  0.00     0.046 A 
ATOM      6  C   UNL     1     -21.146  31.691  22.196  1.00  0.00     0.004 A 
ATOM      7  C   UNL     1     -21.182  30.787  21.136  1.00  0.00     0.004 A 
ATOM      8  C   UNL     1     -18.116  28.610  21.930  1.00  0.00     0.048 C 
ENDROOT
BRANCH   4   9
ATOM      9  O   UNL     1     -18.187  30.570  24.071  1.00  0.00    -0.508 OA
ATOM     10  H   UNL     1     -17.883  29.717  24.524  1.00  0.00     0.293 HD
ENDBRANCH   4   9
TORSDOF 1
ENDMDL
MODEL 9
REMARK VINA RESULT:    -3.149     24.781     25.580
REMARK INTER + INTRA:          -3.241
REMARK INTER:                  -3.241
REMARK INTRA:                   0.000
REMARK UNBOUND:                 0.000
REMARK SMILES Cc1cccc(O)c1C
REMARK SMILES IDX 1 1 2 2 8 3 6 4 5 5 4 6 3 7 9 8 7 9
REMARK H PARENT 7 10
REMARK Flexibility Score: inf
ROOT
ATOM      1  C   UNL     1     -19.310  23.623  16.632  1.00  0.00     0.045 C 
ATOM      2  C   UNL     1     -20.185  23.610  15.404  1.00  0.00    -0.045 A 
ATOM      3  C   UNL     1     -21.562  23.258  15.460  1.00  0.00    -0.006 A 
ATOM      4  C   UNL     1     -22.325  23.269  14.264  1.00  0.00     0.118 A 
ATOM      5  C   UNL     1     -21.723  23.621  13.053  1.00  0.00     0.046 A 
ATOM      6  C   UNL     1     -20.375  23.963  13.005  1.00  0.00     0.004 A 
ATOM      7  C   UNL     1     -19.610  23.959  14.169  1.00  0.00     0.004 A 
ATOM      8  C   UNL     1     -22.234  22.875  16.760  1.00  0.00     0.048 C 
ENDROOT
BRANCH   4   9
ATOM      9  O   UNL     1     -23.681  22.935  14.244  1.00  0.00    -0.508 OA
ATOM     10  H   UNL     1     -24.423  23.601  14.417  1.00  0.00     0.293 HD
ENDBRANCH   4   9
TORSDOF 1
ENDMDL
