MODEL 1
REMARK VINA RESULT:    -3.480      0.000      0.000
REMARK INTER + INTRA:          -5.290
REMARK INTER:                  -4.701
REMARK INTRA:                  -0.589
REMARK UNBOUND:                -0.589
REMARK SMILES CCCCCCCC(=O)[O-]
REMARK SMILES IDX 5 1 6 2 7 3 8 4 9 5 10 6 4 7 3 8 2 9 1 10
REMARK H PARENT
REMARK Flexibility Score: inf
ROOT
ATOM      1  C   UNL     1      29.894  52.562  38.738  1.00  0.00     0.000 C 
ENDROOT
BRANCH   1   2
ATOM      2  C   UNL     1      30.453  51.144  38.550  1.00  0.00     0.006 C 
BRANCH   2   3
ATOM      3  C   UNL     1      30.591  50.383  39.874  1.00  0.00     0.053 C 
BRANCH   3   4
ATOM      4  C   UNL     1      29.617  49.249  39.930  1.00  0.00     0.041 C 
ATOM      5  O   UNL     1      28.438  49.405  39.517  1.00  0.00    -0.550 OA
ATOM      6  O   UNL     1      29.998  48.033  40.484  1.00  0.00    -0.550 OA
ENDBRANCH   3   4
ENDBRANCH   2   3
ENDBRANCH   1   2
BRANCH   1   7
ATOM      7  C   UNL     1      28.609  52.803  37.927  1.00  0.00     0.000 C 
BRANCH   7   8
ATOM      8  C   UNL     1      27.341  52.724  38.793  1.00  0.00    -0.000 C 
BRANCH   8   9
ATOM      9  C   UNL     1      27.642  52.852  40.293  1.00  0.00    -0.003 C 
ATOM     10  C   UNL     1      26.690  51.992  41.119  1.00  0.00     0.004 C 
ENDBRANCH   8   9
ENDBRANCH   7   8
ENDBRANCH   1   7
TORSDOF 6
ENDMDL
MODEL 2
REMARK VINA RESULT:    -3.333      1.134      1.693
REMARK INTER + INTRA:          -5.091
REMARK INTER:                  -4.635
REMARK INTRA:                  -0.456
REMARK UNBOUND:                -0.589
REMARK SMILES CCCCCCCC(=O)[O-]
REMARK SMILES IDX 5 1 6 2 7 3 8 4 9 5 10 6 4 7 3 8 2 9 1 10
REMARK H PARENT
REMARK Flexibility Score: inf
ROOT
ATOM      1  C   UNL     1      30.460  51.130  38.513  1.00  0.00     0.000 C 
ENDROOT
BRANCH   1   2
ATOM      2  C   UNL     1      30.524  50.340  39.830  1.00  0.00     0.006 C 
BRANCH   2   3
ATOM      3  C   UNL     1      29.461  49.237  39.908  1.00  0.00     0.053 C 
BRANCH   3   4
ATOM      4  C   UNL     1      29.997  48.045  40.635  1.00  0.00     0.041 C 
ATOM      5  O   UNL     1      29.732  46.883  40.229  1.00  0.00    -0.550 OA
ATOM      6  O   UNL     1      30.749  48.217  41.791  1.00  0.00    -0.550 OA
ENDBRANCH   3   4
ENDBRANCH   2   3
ENDBRANCH   1   2
BRANCH   1   7
ATOM      7  C   UNL     1      29.908  52.553  38.705  1.00  0.00     0.000 C 
BRANCH   7   8
ATOM      8  C   UNL     1      28.518  52.737  38.075  1.00  0.00    -0.000 C 
BRANCH   8   9
ATOM      9  C   UNL     1      27.381  52.558  39.093  1.00  0.00    -0.003 C 
ATOM     10  C   UNL     1      27.841  52.922  40.500  1.00  0.00     0.004 C 
ENDBRANCH   8   9
ENDBRANCH   7   8
ENDBRANCH   1   7
TORSDOF 6
ENDMDL
MODEL 3
REMARK VINA RESULT:    -3.245     15.927     16.775
REMARK INTER + INTRA:          -4.973
REMARK INTER:                  -4.610
REMARK INTRA:                  -0.363
REMARK UNBOUND:                -0.589
REMARK SMILES CCCCCCCC(=O)[O-]
REMARK SMILES IDX 5 1 6 2 7 3 8 4 9 5 10 6 4 7 3 8 2 9 1 10
REMARK H PARENT
REMARK Flexibility Score: inf
ROOT
ATOM      1  C   UNL     1      26.377  42.251  26.644  1.00  0.00     0.000 C 
ENDROOT
BRANCH   1   2
ATOM      2  C   UNL     1      27.799  42.647  27.068  1.00  0.00     0.006 C 
BRANCH   2   3
ATOM      3  C   UNL     1      28.605  43.271  25.922  1.00  0.00     0.053 C 
BRANCH   3   4
ATOM      4  C   UNL     1      30.056  43.343  26.281  1.00  0.00     0.041 C 
ATOM      5  O   UNL     1      30.568  42.467  27.025  1.00  0.00    -0.550 OA
ATOM      6  O   UNL     1      30.829  44.407  25.834  1.00  0.00    -0.550 OA
ENDBRANCH   3   4
ENDBRANCH   2   3
ENDBRANCH   1   2
BRANCH   1   7
ATOM      7  C   UNL     1      26.251  42.037  25.126  1.00  0.00     0.000 C 
BRANCH   7   8
ATOM      8  C   UNL     1      25.613  40.684  24.771  1.00  0.00    -0.000 C 
BRANCH   8   9
ATOM      9  C   UNL     1      25.695  39.673  25.924  1.00  0.00    -0.003 C 
ATOM     10  C   UNL     1      26.802  38.652  25.681  1.00  0.00     0.004 C 
ENDBRANCH   8   9
ENDBRANCH   7   8
ENDBRANCH   1   7
TORSDOF 6
ENDMDL
MODEL 4
REMARK VINA RESULT:    -3.214     15.914     16.735
REMARK INTER + INTRA:          -4.931
REMARK INTER:                  -4.514
REMARK INTRA:                  -0.418
REMARK UNBOUND:                -0.589
REMARK SMILES CCCCCCCC(=O)[O-]
REMARK SMILES IDX 5 1 6 2 7 3 8 4 9 5 10 6 4 7 3 8 2 9 1 10
REMARK H PARENT
REMARK Flexibility Score: inf
ROOT
ATOM      1  C   UNL     1      26.444  43.010  26.620  1.00  0.00     0.000 C 
ENDROOT
BRANCH   1   2
ATOM      2  C   UNL     1      26.353  41.706  27.427  1.00  0.00     0.006 C 
BRANCH   2   3
ATOM      3  C   UNL     1      25.294  40.743  26.875  1.00  0.00     0.053 C 
BRANCH   3   4
ATOM      4  C   UNL     1      25.750  40.153  25.577  1.00  0.00     0.041 C 
ATOM      5  O   UNL     1      26.685  39.311  25.558  1.00  0.00    -0.550 OA
ATOM      6  O   UNL     1      25.174  40.572  24.384  1.00  0.00    -0.550 OA
ENDBRANCH   3   4
ENDBRANCH   2   3
ENDBRANCH   1   2
BRANCH   1   7
ATOM      7  C   UNL     1      27.874  43.305  26.135  1.00  0.00     0.000 C 
BRANCH   7   8
ATOM      8  C   UNL     1      28.874  42.212  26.546  1.00  0.00    -0.000 C 
BRANCH   8   9
ATOM      9  C   UNL     1      30.309  42.744  26.677  1.00  0.00    -0.003 C 
ATOM     10  C   UNL     1      30.435  44.139  26.073  1.00  0.00     0.004 C 
ENDBRANCH   8   9
ENDBRANCH   7   8
ENDBRANCH   1   7
TORSDOF 6
ENDMDL
MODEL 5
REMARK VINA RESULT:    -3.209     15.726     16.606
REMARK INTER + INTRA:          -4.924
REMARK INTER:                  -4.572
REMARK INTRA:                  -0.352
REMARK UNBOUND:                -0.589
REMARK SMILES CCCCCCCC(=O)[O-]
REMARK SMILES IDX 5 1 6 2 7 3 8 4 9 5 10 6 4 7 3 8 2 9 1 10
REMARK H PARENT
REMARK Flexibility Score: inf
ROOT
ATOM      1  C   UNL     1      26.204  42.405  27.002  1.00  0.00     0.000 C 
ENDROOT
BRANCH   1   2
ATOM      2  C   UNL     1      27.731  42.481  27.153  1.00  0.00     0.006 C 
BRANCH   2   3
ATOM      3  C   UNL     1      28.401  43.236  25.998  1.00  0.00     0.053 C 
BRANCH   3   4
ATOM      4  C   UNL     1      29.878  43.329  26.222  1.00  0.00     0.041 C 
ATOM      5  O   UNL     1      30.542  44.256  25.689  1.00  0.00    -0.550 OA
ATOM      6  O   UNL     1      30.528  42.363  26.981  1.00  0.00    -0.550 OA
ENDBRANCH   3   4
ENDBRANCH   2   3
ENDBRANCH   1   2
BRANCH   1   7
ATOM      7  C   UNL     1      25.626  41.071  27.508  1.00  0.00     0.000 C 
BRANCH   7   8
ATOM      8  C   UNL     1      24.877  40.299  26.410  1.00  0.00    -0.000 C 
BRANCH   8   9
ATOM      9  C   UNL     1      25.779  39.939  25.221  1.00  0.00    -0.003 C 
ATOM     10  C   UNL     1      26.715  38.786  25.570  1.00  0.00     0.004 C 
ENDBRANCH   8   9
ENDBRANCH   7   8
ENDBRANCH   1   7
TORSDOF 6
ENDMDL
MODEL 6
REMARK VINA RESULT:    -3.096     15.830     16.708
REMARK INTER + INTRA:          -4.771
REMARK INTER:                  -4.385
REMARK INTRA:                  -0.385
REMARK UNBOUND:                -0.589
REMARK SMILES CCCCCCCC(=O)[O-]
REMARK SMILES IDX 5 1 6 2 7 3 8 4 9 5 10 6 4 7 3 8 2 9 1 10
REMARK H PARENT
REMARK Flexibility Score: inf
ROOT
ATOM      1  C   UNL     1      26.378  43.021  26.022  1.00  0.00     0.000 C 
ENDROOT
BRANCH   1   2
ATOM      2  C   UNL     1      26.412  42.009  24.866  1.00  0.00     0.006 C 
BRANCH   2   3
ATOM      3  C   UNL     1      25.564  40.762  25.148  1.00  0.00     0.053 C 
BRANCH   3   4
ATOM      4  C   UNL     1      26.234  39.894  26.166  1.00  0.00     0.041 C 
ATOM      5  O   UNL     1      27.128  39.081  25.815  1.00  0.00    -0.550 OA
ATOM      6  O   UNL     1      25.834  39.949  27.495  1.00  0.00    -0.550 OA
ENDBRANCH   3   4
ENDBRANCH   2   3
ENDBRANCH   1   2
BRANCH   1   7
ATOM      7  C   UNL     1      27.774  43.563  26.374  1.00  0.00     0.000 C 
BRANCH   7   8
ATOM      8  C   UNL     1      28.682  42.493  27.000  1.00  0.00    -0.000 C 
BRANCH   8   9
ATOM      9  C   UNL     1      30.154  42.654  26.592  1.00  0.00    -0.003 C 
ATOM     10  C   UNL     1      30.412  44.038  26.004  1.00  0.00     0.004 C 
ENDBRANCH   8   9
ENDBRANCH   7   8
ENDBRANCH   1   7
TORSDOF 6
ENDMDL
MODEL 7
REMARK VINA RESULT:    -3.019      2.118      4.089
REMARK INTER + INTRA:          -4.667
REMARK INTER:                  -4.372
REMARK INTRA:                  -0.295
REMARK UNBOUND:                -0.589
REMARK SMILES CCCCCCCC(=O)[O-]
REMARK SMILES IDX 5 1 6 2 7 3 8 4 9 5 10 6 4 7 3 8 2 9 1 10
REMARK H PARENT
REMARK Flexibility Score: inf
ROOT
ATOM      1  C   UNL     1      30.481  51.148  38.402  1.00  0.00     0.000 C 
ENDROOT
BRANCH   1   2
ATOM      2  C   UNL     1      30.073  52.606  38.662  1.00  0.00     0.006 C 
BRANCH   2   3
ATOM      3  C   UNL     1      28.568  52.840  38.481  1.00  0.00     0.053 C 
BRANCH   3   4
ATOM      4  C   UNL     1      27.905  53.030  39.808  1.00  0.00     0.041 C 
ATOM      5  O   UNL     1      28.324  53.910  40.605  1.00  0.00    -0.550 OA
ATOM      6  O   UNL     1      26.855  52.203  40.185  1.00  0.00    -0.550 OA
ENDBRANCH   3   4
ENDBRANCH   2   3
ENDBRANCH   1   2
BRANCH   1   7
ATOM      7  C   UNL     1      30.492  50.300  39.685  1.00  0.00     0.000 C 
BRANCH   7   8
ATOM      8  C   UNL     1      29.188  49.509  39.881  1.00  0.00    -0.000 C 
BRANCH   8   9
ATOM      9  C   UNL     1      29.296  48.462  41.000  1.00  0.00    -0.003 C 
ATOM     10  C   UNL     1      29.875  47.153  40.473  1.00  0.00     0.004 C 
ENDBRANCH   8   9
ENDBRANCH   7   8
ENDBRANCH   1   7
TORSDOF 6
ENDMDL
MODEL 8
REMARK VINA RESULT:    -2.910     15.296     16.152
REMARK INTER + INTRA:          -4.520
REMARK INTER:                  -4.201
REMARK INTRA:                  -0.319
REMARK UNBOUND:                -0.589
REMARK SMILES CCCCCCCC(=O)[O-]
REMARK SMILES IDX 5 1 6 2 7 3 8 4 9 5 10 6 4 7 3 8 2 9 1 10
REMARK H PARENT
REMARK Flexibility Score: inf
ROOT
ATOM      1  C   UNL     1      27.074  40.948  26.205  1.00  0.00     0.000 C 
ENDROOT
BRANCH   1   2
ATOM      2  C   UNL     1      27.501  42.159  27.049  1.00  0.00     0.006 C 
BRANCH   2   3
ATOM      3  C   UNL     1      28.189  43.247  26.215  1.00  0.00     0.053 C 
BRANCH   3   4
ATOM      4  C   UNL     1      29.639  43.339  26.571  1.00  0.00     0.041 C 
ATOM      5  O   UNL     1      30.300  44.368  26.271  1.00  0.00    -0.550 OA
ATOM      6  O   UNL     1      30.272  42.268  27.189  1.00  0.00    -0.550 OA
ENDBRANCH   3   4
ENDBRANCH   2   3
ENDBRANCH   1   2
BRANCH   1   7
ATOM      7  C   UNL     1      25.611  40.541  26.455  1.00  0.00     0.000 C 
BRANCH   7   8
ATOM      8  C   UNL     1      25.090  41.019  27.820  1.00  0.00    -0.000 C 
BRANCH   8   9
ATOM      9  C   UNL     1      24.876  39.862  28.808  1.00  0.00    -0.003 C 
ATOM     10  C   UNL     1      24.913  38.515  28.092  1.00  0.00     0.004 C 
ENDBRANCH   8   9
ENDBRANCH   7   8
ENDBRANCH   1   7
TORSDOF 6
ENDMDL
