MODEL 1
REMARK VINA RESULT:    -4.537      0.000      0.000
REMARK INTER + INTRA:          -5.680
REMARK INTER:                  -5.598
REMARK INTRA:                  -0.082
REMARK UNBOUND:                -0.082
REMARK SMILES O=c1c(O)c(-c2cc(O)c(O)c(O)c2)oc2cc(O)cc(O)c12
REMARK SMILES IDX 5 1 3 2 2 3 1 4 23 5 21 6 20 7 18 8 17 9 16 10 15 11 6 12
REMARK SMILES IDX 7 13 8 14 14 15 10 16 12 17 9 18 11 20 13 22 4 24 22 26
REMARK SMILES IDX 19 28
REMARK H PARENT 9 19 11 21 13 23 4 25 22 27 19 29
REMARK Flexibility Score: inf
ROOT
ATOM      1  C   UNL     1       2.949   9.164  -0.696  1.00  0.00     0.180 A 
ATOM      2  C   UNL     1       1.690   9.433  -1.260  1.00  0.00     0.208 A 
ATOM      3  C   UNL     1       1.608   9.737  -2.628  1.00  0.00     0.238 A 
ATOM      4  O   UNL     1       0.486  10.032  -3.116  1.00  0.00    -0.285 OA
ATOM      5  C   UNL     1       2.783   9.752  -3.418  1.00  0.00     0.111 A 
ATOM      6  C   UNL     1       2.812  10.007  -4.823  1.00  0.00     0.134 A 
ATOM      7  C   UNL     1       4.044  10.125  -5.477  1.00  0.00     0.093 A 
ATOM      8  C   UNL     1       5.244   9.932  -4.794  1.00  0.00     0.123 A 
ATOM      9  C   UNL     1       5.225   9.623  -3.434  1.00  0.00     0.094 A 
ATOM     10  C   UNL     1       4.013   9.535  -2.745  1.00  0.00     0.146 A 
ATOM     11  O   UNL     1       4.039   9.249  -1.449  1.00  0.00    -0.452 OA
ENDROOT
BRANCH   1  12
ATOM     12  C   UNL     1       3.113   8.811   0.733  1.00  0.00     0.029 A 
ATOM     13  C   UNL     1       3.710   7.591   1.079  1.00  0.00     0.062 A 
ATOM     14  C   UNL     1       3.860   7.216   2.420  1.00  0.00     0.162 A 
ATOM     15  C   UNL     1       2.629   9.647   1.752  1.00  0.00     0.062 A 
ATOM     16  C   UNL     1       3.391   8.075   3.442  1.00  0.00     0.200 A 
ATOM     17  C   UNL     1       2.773   9.285   3.097  1.00  0.00     0.162 A 
BRANCH  14  18
ATOM     18  O   UNL     1       4.476   5.992   2.687  1.00  0.00    -0.504 OA
ATOM     19  H   UNL     1       5.422   5.763   2.418  1.00  0.00     0.293 HD
ENDBRANCH  14  18
BRANCH  16  20
ATOM     20  O   UNL     1       3.515   7.765   4.798  1.00  0.00    -0.502 OA
ATOM     21  H   UNL     1       2.863   8.063   5.509  1.00  0.00     0.293 HD
ENDBRANCH  16  20
BRANCH  17  22
ATOM     22  O   UNL     1       2.296  10.125   4.103  1.00  0.00    -0.504 OA
ATOM     23  H   UNL     1       2.790  10.237   4.980  1.00  0.00     0.293 HD
ENDBRANCH  17  22
ENDBRANCH   1  12
BRANCH   2  24
ATOM     24  O   UNL     1       0.546   9.436  -0.457  1.00  0.00    -0.502 OA
ATOM     25  H   UNL     1      -0.262   8.860  -0.660  1.00  0.00     0.293 HD
ENDBRANCH   2  24
BRANCH   6  26
ATOM     26  O   UNL     1       1.669  10.125  -5.618  1.00  0.00    -0.507 OA
ATOM     27  H   UNL     1       1.667  10.420  -6.582  1.00  0.00     0.293 HD
ENDBRANCH   6  26
BRANCH   8  28
ATOM     28  O   UNL     1       6.452  10.041  -5.482  1.00  0.00    -0.508 OA
ATOM     29  H   UNL     1       6.965   9.221  -5.785  1.00  0.00     0.293 HD
ENDBRANCH   8  28
TORSDOF 7
ENDMDL
MODEL 2
REMARK VINA RESULT:    -4.407      1.161      2.793
REMARK INTER + INTRA:          -5.520
REMARK INTER:                  -5.354
REMARK INTRA:                  -0.166
REMARK UNBOUND:                -0.082
REMARK SMILES O=c1c(O)c(-c2cc(O)c(O)c(O)c2)oc2cc(O)cc(O)c12
REMARK SMILES IDX 5 1 3 2 2 3 1 4 23 5 21 6 20 7 18 8 17 9 16 10 15 11 6 12
REMARK SMILES IDX 7 13 8 14 14 15 10 16 12 17 9 18 11 20 13 22 4 24 22 26
REMARK SMILES IDX 19 28
REMARK H PARENT 9 19 11 21 13 23 4 25 22 27 19 29
REMARK Flexibility Score: inf
ROOT
ATOM      1  C   UNL     1       3.776   8.848  -0.515  1.00  0.00     0.180 A 
ATOM      2  C   UNL     1       5.041   8.855  -1.127  1.00  0.00     0.208 A 
ATOM      3  C   UNL     1       5.136   9.175  -2.491  1.00  0.00     0.238 A 
ATOM      4  O   UNL     1       6.263   9.126  -3.047  1.00  0.00    -0.285 OA
ATOM      5  C   UNL     1       3.966   9.502  -3.220  1.00  0.00     0.111 A 
ATOM      6  C   UNL     1       3.950   9.881  -4.597  1.00  0.00     0.134 A 
ATOM      7  C   UNL     1       2.723  10.055  -5.249  1.00  0.00     0.093 A 
ATOM      8  C   UNL     1       1.517   9.928  -4.562  1.00  0.00     0.123 A 
ATOM      9  C   UNL     1       1.524   9.616  -3.202  1.00  0.00     0.094 A 
ATOM     10  C   UNL     1       2.730   9.400  -2.532  1.00  0.00     0.146 A 
ATOM     11  O   UNL     1       2.692   9.095  -1.241  1.00  0.00    -0.452 OA
ENDROOT
BRANCH   1  12
ATOM     12  C   UNL     1       3.600   8.544   0.924  1.00  0.00     0.029 A 
ATOM     13  C   UNL     1       3.923   7.267   1.405  1.00  0.00     0.062 A 
ATOM     14  C   UNL     1       3.748   6.939   2.754  1.00  0.00     0.162 A 
ATOM     15  C   UNL     1       3.059   9.490   1.810  1.00  0.00     0.062 A 
ATOM     16  C   UNL     1       3.225   7.905   3.646  1.00  0.00     0.200 A 
ATOM     17  C   UNL     1       2.879   9.175   3.163  1.00  0.00     0.162 A 
BRANCH  14  18
ATOM     18  O   UNL     1       4.104   5.652   3.161  1.00  0.00    -0.504 OA
ATOM     19  H   UNL     1       3.479   4.860   3.145  1.00  0.00     0.293 HD
ENDBRANCH  14  18
BRANCH  16  20
ATOM     20  O   UNL     1       3.031   7.645   5.005  1.00  0.00    -0.502 OA
ATOM     21  H   UNL     1       2.668   8.319   5.664  1.00  0.00     0.293 HD
ENDBRANCH  16  20
BRANCH  17  22
ATOM     22  O   UNL     1       2.349  10.123   4.037  1.00  0.00    -0.504 OA
ATOM     23  H   UNL     1       2.898  10.515   4.792  1.00  0.00     0.293 HD
ENDBRANCH  17  22
ENDBRANCH   1  12
BRANCH   2  24
ATOM     24  O   UNL     1       6.180   8.507  -0.394  1.00  0.00    -0.502 OA
ATOM     25  H   UNL     1       6.988   9.113  -0.326  1.00  0.00     0.293 HD
ENDBRANCH   2  24
BRANCH   6  26
ATOM     26  O   UNL     1       5.100  10.125  -5.353  1.00  0.00    -0.507 OA
ATOM     27  H   UNL     1       5.536  11.028  -5.461  1.00  0.00     0.293 HD
ENDBRANCH   6  26
BRANCH   8  28
ATOM     28  O   UNL     1       0.315  10.125  -5.240  1.00  0.00    -0.508 OA
ATOM     29  H   UNL     1       0.250  10.017  -6.246  1.00  0.00     0.293 HD
ENDBRANCH   8  28
TORSDOF 7
ENDMDL
MODEL 3
REMARK VINA RESULT:    -4.078      0.227      1.772
REMARK INTER + INTRA:          -5.113
REMARK INTER:                  -5.063
REMARK INTRA:                  -0.050
REMARK UNBOUND:                -0.082
REMARK SMILES O=c1c(O)c(-c2cc(O)c(O)c(O)c2)oc2cc(O)cc(O)c12
REMARK SMILES IDX 5 1 3 2 2 3 1 4 23 5 21 6 20 7 18 8 17 9 16 10 15 11 6 12
REMARK SMILES IDX 7 13 8 14 14 15 10 16 12 17 9 18 11 20 13 22 4 24 22 26
REMARK SMILES IDX 19 28
REMARK H PARENT 9 19 11 21 13 23 4 25 22 27 19 29
REMARK Flexibility Score: inf
ROOT
ATOM      1  C   UNL     1       3.043   9.077  -0.864  1.00  0.00     0.180 A 
ATOM      2  C   UNL     1       1.800   9.357  -1.458  1.00  0.00     0.208 A 
ATOM      3  C   UNL     1       1.757   9.685  -2.823  1.00  0.00     0.238 A 
ATOM      4  O   UNL     1       0.649   9.990  -3.337  1.00  0.00    -0.285 OA
ATOM      5  C   UNL     1       2.954   9.712  -3.579  1.00  0.00     0.111 A 
ATOM      6  C   UNL     1       3.022   9.993  -4.977  1.00  0.00     0.134 A 
ATOM      7  C   UNL     1       4.273  10.121  -5.595  1.00  0.00     0.093 A 
ATOM      8  C   UNL     1       5.452   9.915  -4.882  1.00  0.00     0.123 A 
ATOM      9  C   UNL     1       5.395   9.581  -3.528  1.00  0.00     0.094 A 
ATOM     10  C   UNL     1       4.164   9.482  -2.875  1.00  0.00     0.146 A 
ATOM     11  O   UNL     1       4.153   9.174  -1.585  1.00  0.00    -0.452 OA
ENDROOT
BRANCH   1  12
ATOM     12  C   UNL     1       3.165   8.699   0.563  1.00  0.00     0.029 A 
ATOM     13  C   UNL     1       2.642   9.548   1.549  1.00  0.00     0.062 A 
ATOM     14  C   UNL     1       2.760   9.233   2.908  1.00  0.00     0.162 A 
ATOM     15  C   UNL     1       3.847   7.536   0.955  1.00  0.00     0.062 A 
ATOM     16  C   UNL     1       3.428   8.047   3.295  1.00  0.00     0.200 A 
ATOM     17  C   UNL     1       3.972   7.209   2.311  1.00  0.00     0.162 A 
BRANCH  14  18
ATOM     18  O   UNL     1       2.203  10.120   3.831  1.00  0.00    -0.504 OA
ATOM     19  H   UNL     1       1.211  10.227   3.986  1.00  0.00     0.293 HD
ENDBRANCH  14  18
BRANCH  16  20
ATOM     20  O   UNL     1       3.575   7.670   4.632  1.00  0.00    -0.502 OA
ATOM     21  H   UNL     1       3.076   6.906   5.063  1.00  0.00     0.293 HD
ENDBRANCH  16  20
BRANCH  17  22
ATOM     22  O   UNL     1       4.644   6.048   2.691  1.00  0.00    -0.504 OA
ATOM     23  H   UNL     1       4.554   5.186   2.167  1.00  0.00     0.293 HD
ENDBRANCH  17  22
ENDBRANCH   1  12
BRANCH   2  24
ATOM     24  O   UNL     1       0.633   9.347  -0.688  1.00  0.00    -0.502 OA
ATOM     25  H   UNL     1       0.650   9.281   0.322  1.00  0.00     0.293 HD
ENDBRANCH   2  24
BRANCH   6  26
ATOM     26  O   UNL     1       1.902  10.125  -5.803  1.00  0.00    -0.507 OA
ATOM     27  H   UNL     1       1.733   9.581  -6.635  1.00  0.00     0.293 HD
ENDBRANCH   6  26
BRANCH   8  28
ATOM     28  O   UNL     1       6.679  10.034  -5.533  1.00  0.00    -0.508 OA
ATOM     29  H   UNL     1       7.341  10.761  -5.287  1.00  0.00     0.293 HD
ENDBRANCH   8  28
TORSDOF 7
ENDMDL
MODEL 4
REMARK VINA RESULT:    -3.787      1.703      2.113
REMARK INTER + INTRA:          -4.754
REMARK INTER:                  -4.892
REMARK INTRA:                   0.138
REMARK UNBOUND:                -0.082
REMARK SMILES O=c1c(O)c(-c2cc(O)c(O)c(O)c2)oc2cc(O)cc(O)c12
REMARK SMILES IDX 5 1 3 2 2 3 1 4 23 5 21 6 20 7 18 8 17 9 16 10 15 11 6 12
REMARK SMILES IDX 7 13 8 14 14 15 10 16 12 17 9 18 11 20 13 22 4 24 22 26
REMARK SMILES IDX 19 28
REMARK H PARENT 9 19 11 21 13 23 4 25 22 27 19 29
REMARK Flexibility Score: inf
ROOT
ATOM      1  C   UNL     1       3.732   9.535  -2.096  1.00  0.00     0.180 A 
ATOM      2  C   UNL     1       2.463   9.719  -2.672  1.00  0.00     0.208 A 
ATOM      3  C   UNL     1       2.366   9.905  -4.060  1.00  0.00     0.238 A 
ATOM      4  O   UNL     1       1.234  10.125  -4.563  1.00  0.00    -0.285 OA
ATOM      5  C   UNL     1       3.537   9.888  -4.856  1.00  0.00     0.111 A 
ATOM      6  C   UNL     1       3.552  10.026  -6.277  1.00  0.00     0.134 A 
ATOM      7  C   UNL     1       4.778  10.125  -6.948  1.00  0.00     0.093 A 
ATOM      8  C   UNL     1       5.986  10.025  -6.259  1.00  0.00     0.123 A 
ATOM      9  C   UNL     1       5.982   9.830  -4.877  1.00  0.00     0.094 A 
ATOM     10  C   UNL     1       4.775   9.764  -4.175  1.00  0.00     0.146 A 
ATOM     11  O   UNL     1       4.816   9.589  -2.861  1.00  0.00    -0.452 OA
ENDROOT
BRANCH   1  12
ATOM     12  C   UNL     1       3.911   9.308  -0.643  1.00  0.00     0.029 A 
ATOM     13  C   UNL     1       5.059   9.799  -0.004  1.00  0.00     0.062 A 
ATOM     14  C   UNL     1       5.271   9.584   1.363  1.00  0.00     0.162 A 
ATOM     15  C   UNL     1       2.985   8.560   0.100  1.00  0.00     0.062 A 
ATOM     16  C   UNL     1       4.321   8.848   2.110  1.00  0.00     0.200 A 
ATOM     17  C   UNL     1       3.185   8.336   1.468  1.00  0.00     0.162 A 
BRANCH  14  18
ATOM     18  O   UNL     1       6.431  10.114   1.931  1.00  0.00    -0.504 OA
ATOM     19  H   UNL     1       6.687  11.090   1.888  1.00  0.00     0.293 HD
ENDBRANCH  14  18
BRANCH  16  20
ATOM     20  O   UNL     1       4.468   8.603   3.477  1.00  0.00    -0.502 OA
ATOM     21  H   UNL     1       5.334   8.721   3.983  1.00  0.00     0.293 HD
ENDBRANCH  16  20
BRANCH  17  22
ATOM     22  O   UNL     1       2.255   7.598   2.200  1.00  0.00    -0.504 OA
ATOM     23  H   UNL     1       2.179   6.593   2.101  1.00  0.00     0.293 HD
ENDBRANCH  17  22
ENDBRANCH   1  12
BRANCH   2  24
ATOM     24  O   UNL     1       1.322   9.755  -1.864  1.00  0.00    -0.502 OA
ATOM     25  H   UNL     1       1.221   9.173  -1.042  1.00  0.00     0.293 HD
ENDBRANCH   2  24
BRANCH   6  26
ATOM     26  O   UNL     1       2.403  10.043  -7.072  1.00  0.00    -0.507 OA
ATOM     27  H   UNL     1       1.541   9.569  -6.848  1.00  0.00     0.293 HD
ENDBRANCH   6  26
BRANCH   8  28
ATOM     28  O   UNL     1       7.187  10.112  -6.961  1.00  0.00    -0.508 OA
ATOM     29  H   UNL     1       7.222   9.995  -7.967  1.00  0.00     0.293 HD
ENDBRANCH   8  28
TORSDOF 7
ENDMDL
MODEL 5
REMARK VINA RESULT:    -3.502      1.273      6.962
REMARK INTER + INTRA:          -4.403
REMARK INTER:                  -4.811
REMARK INTRA:                   0.408
REMARK UNBOUND:                -0.082
REMARK SMILES O=c1c(O)c(-c2cc(O)c(O)c(O)c2)oc2cc(O)cc(O)c12
REMARK SMILES IDX 5 1 3 2 2 3 1 4 23 5 21 6 20 7 18 8 17 9 16 10 15 11 6 12
REMARK SMILES IDX 7 13 8 14 14 15 10 16 12 17 9 18 11 20 13 22 4 24 22 26
REMARK SMILES IDX 19 28
REMARK H PARENT 9 19 11 21 13 23 4 25 22 27 19 29
REMARK Flexibility Score: inf
ROOT
ATOM      1  C   UNL     1       3.500   9.095  -1.444  1.00  0.00     0.180 A 
ATOM      2  C   UNL     1       2.409   9.493  -0.652  1.00  0.00     0.208 A 
ATOM      3  C   UNL     1       2.427   9.211   0.723  1.00  0.00     0.238 A 
ATOM      4  O   UNL     1       1.424   9.520   1.418  1.00  0.00    -0.285 OA
ATOM      5  C   UNL     1       3.543   8.549   1.292  1.00  0.00     0.111 A 
ATOM      6  C   UNL     1       3.685   8.249   2.680  1.00  0.00     0.134 A 
ATOM      7  C   UNL     1       4.771   7.476   3.111  1.00  0.00     0.093 A 
ATOM      8  C   UNL     1       5.751   7.050   2.217  1.00  0.00     0.123 A 
ATOM      9  C   UNL     1       5.653   7.389   0.867  1.00  0.00     0.094 A 
ATOM     10  C   UNL     1       4.562   8.127   0.400  1.00  0.00     0.146 A 
ATOM     11  O   UNL     1       4.501   8.420  -0.893  1.00  0.00    -0.452 OA
ENDROOT
BRANCH   1  12
ATOM     12  C   UNL     1       3.564   9.380  -2.896  1.00  0.00     0.029 A 
ATOM     13  C   UNL     1       2.378   9.625  -3.604  1.00  0.00     0.062 A 
ATOM     14  C   UNL     1       2.400   9.876  -4.981  1.00  0.00     0.162 A 
ATOM     15  C   UNL     1       4.782   9.351  -3.593  1.00  0.00     0.062 A 
ATOM     16  C   UNL     1       3.635   9.869  -5.673  1.00  0.00     0.200 A 
ATOM     17  C   UNL     1       4.818   9.600  -4.971  1.00  0.00     0.162 A 
BRANCH  14  18
ATOM     18  O   UNL     1       1.181  10.125  -5.616  1.00  0.00    -0.504 OA
ATOM     19  H   UNL     1       0.710  11.017  -5.605  1.00  0.00     0.293 HD
ENDBRANCH  14  18
BRANCH  16  20
ATOM     20  O   UNL     1       3.727  10.117  -7.045  1.00  0.00    -0.502 OA
ATOM     21  H   UNL     1       3.864   9.399  -7.742  1.00  0.00     0.293 HD
ENDBRANCH  16  20
BRANCH  17  22
ATOM     22  O   UNL     1       6.033   9.577  -5.655  1.00  0.00    -0.504 OA
ATOM     23  H   UNL     1       6.548  10.427  -5.850  1.00  0.00     0.293 HD
ENDBRANCH  17  22
ENDBRANCH   1  12
BRANCH   2  24
ATOM     24  O   UNL     1       1.308  10.125  -1.238  1.00  0.00    -0.502 OA
ATOM     25  H   UNL     1       1.406  10.893  -1.890  1.00  0.00     0.293 HD
ENDBRANCH   2  24
BRANCH   6  26
ATOM     26  O   UNL     1       2.812   8.705   3.671  1.00  0.00    -0.507 OA
ATOM     27  H   UNL     1       1.866   9.016   3.506  1.00  0.00     0.293 HD
ENDBRANCH   6  26
BRANCH   8  28
ATOM     28  O   UNL     1       6.827   6.296   2.683  1.00  0.00    -0.508 OA
ATOM     29  H   UNL     1       7.089   5.420   2.246  1.00  0.00     0.293 HD
ENDBRANCH   8  28
TORSDOF 7
ENDMDL
MODEL 6
REMARK VINA RESULT:    -3.444      1.757      7.493
REMARK INTER + INTRA:          -4.331
REMARK INTER:                  -4.666
REMARK INTRA:                   0.335
REMARK UNBOUND:                -0.082
REMARK SMILES O=c1c(O)c(-c2cc(O)c(O)c(O)c2)oc2cc(O)cc(O)c12
REMARK SMILES IDX 5 1 3 2 2 3 1 4 23 5 21 6 20 7 18 8 17 9 16 10 15 11 6 12
REMARK SMILES IDX 7 13 8 14 14 15 10 16 12 17 9 18 11 20 13 22 4 24 22 26
REMARK SMILES IDX 19 28
REMARK H PARENT 9 19 11 21 13 23 4 25 22 27 19 29
REMARK Flexibility Score: inf
ROOT
ATOM      1  C   UNL     1       4.253   9.498  -1.906  1.00  0.00     0.180 A 
ATOM      2  C   UNL     1       5.571   9.689  -1.455  1.00  0.00     0.208 A 
ATOM      3  C   UNL     1       5.863   9.475  -0.098  1.00  0.00     0.238 A 
ATOM      4  O   UNL     1       7.031   9.701   0.311  1.00  0.00    -0.285 OA
ATOM      5  C   UNL     1       4.839   9.056   0.786  1.00  0.00     0.111 A 
ATOM      6  C   UNL     1       5.032   8.771   2.171  1.00  0.00     0.134 A 
ATOM      7  C   UNL     1       3.922   8.491   2.979  1.00  0.00     0.093 A 
ATOM      8  C   UNL     1       2.639   8.421   2.440  1.00  0.00     0.123 A 
ATOM      9  C   UNL     1       2.447   8.639   1.075  1.00  0.00     0.094 A 
ATOM     10  C   UNL     1       3.529   8.957   0.250  1.00  0.00     0.146 A 
ATOM     11  O   UNL     1       3.302   9.168  -1.040  1.00  0.00    -0.452 OA
ENDROOT
BRANCH   1  12
ATOM     12  C   UNL     1       3.873   9.680  -3.326  1.00  0.00     0.029 A 
ATOM     13  C   UNL     1       2.520   9.823  -3.666  1.00  0.00     0.062 A 
ATOM     14  C   UNL     1       2.124   9.975  -5.000  1.00  0.00     0.162 A 
ATOM     15  C   UNL     1       4.834   9.655  -4.349  1.00  0.00     0.062 A 
ATOM     16  C   UNL     1       3.101   9.972  -6.023  1.00  0.00     0.200 A 
ATOM     17  C   UNL     1       4.452   9.805  -5.688  1.00  0.00     0.162 A 
BRANCH  14  18
ATOM     18  O   UNL     1       0.760  10.125  -5.259  1.00  0.00    -0.504 OA
ATOM     19  H   UNL     1       0.028   9.830  -4.629  1.00  0.00     0.293 HD
ENDBRANCH  14  18
BRANCH  16  20
ATOM     20  O   UNL     1       2.775  10.125  -7.373  1.00  0.00    -0.502 OA
ATOM     21  H   UNL     1       2.246   9.451  -7.907  1.00  0.00     0.293 HD
ENDBRANCH  16  20
BRANCH  17  22
ATOM     22  O   UNL     1       5.414   9.787  -6.696  1.00  0.00    -0.504 OA
ATOM     23  H   UNL     1       6.047   9.004  -6.813  1.00  0.00     0.293 HD
ENDBRANCH  17  22
ENDBRANCH   1  12
BRANCH   2  24
ATOM     24  O   UNL     1       6.561  10.125  -2.340  1.00  0.00    -0.502 OA
ATOM     25  H   UNL     1       6.901  11.078  -2.349  1.00  0.00     0.293 HD
ENDBRANCH   2  24
BRANCH   6  26
ATOM     26  O   UNL     1       6.283   8.723   2.791  1.00  0.00    -0.507 OA
ATOM     27  H   UNL     1       6.801   9.530   3.106  1.00  0.00     0.293 HD
ENDBRANCH   6  26
BRANCH   8  28
ATOM     28  O   UNL     1       1.560   8.123   3.270  1.00  0.00    -0.508 OA
ATOM     29  H   UNL     1       1.565   7.310   3.875  1.00  0.00     0.293 HD
ENDBRANCH   8  28
TORSDOF 7
ENDMDL
MODEL 7
REMARK VINA RESULT:    -3.371      1.166      3.320
REMARK INTER + INTRA:          -4.241
REMARK INTER:                  -4.231
REMARK INTRA:                  -0.010
REMARK UNBOUND:                -0.082
REMARK SMILES O=c1c(O)c(-c2cc(O)c(O)c(O)c2)oc2cc(O)cc(O)c12
REMARK SMILES IDX 5 1 3 2 2 3 1 4 23 5 21 6 20 7 18 8 17 9 16 10 15 11 6 12
REMARK SMILES IDX 7 13 8 14 14 15 10 16 12 17 9 18 11 20 13 22 4 24 22 26
REMARK SMILES IDX 19 28
REMARK H PARENT 9 19 11 21 13 23 4 25 22 27 19 29
REMARK Flexibility Score: inf
ROOT
ATOM      1  C   UNL     1       3.841   8.762  -0.926  1.00  0.00     0.180 A 
ATOM      2  C   UNL     1       5.072   8.757  -1.603  1.00  0.00     0.208 A 
ATOM      3  C   UNL     1       5.100   9.085  -2.968  1.00  0.00     0.238 A 
ATOM      4  O   UNL     1       6.197   9.026  -3.582  1.00  0.00    -0.285 OA
ATOM      5  C   UNL     1       3.899   9.430  -3.634  1.00  0.00     0.111 A 
ATOM      6  C   UNL     1       3.816   9.819  -5.006  1.00  0.00     0.134 A 
ATOM      7  C   UNL     1       2.559  10.012  -5.593  1.00  0.00     0.093 A 
ATOM      8  C   UNL     1       1.389   9.895  -4.845  1.00  0.00     0.123 A 
ATOM      9  C   UNL     1       1.462   9.574  -3.489  1.00  0.00     0.094 A 
ATOM     10  C   UNL     1       2.699   9.340  -2.883  1.00  0.00     0.146 A 
ATOM     11  O   UNL     1       2.724   9.026  -1.594  1.00  0.00    -0.452 OA
ENDROOT
BRANCH   1  12
ATOM     12  C   UNL     1       3.735   8.451   0.518  1.00  0.00     0.029 A 
ATOM     13  C   UNL     1       3.078   9.349   1.371  1.00  0.00     0.062 A 
ATOM     14  C   UNL     1       2.979   9.097   2.745  1.00  0.00     0.162 A 
ATOM     15  C   UNL     1       4.331   7.303   1.064  1.00  0.00     0.062 A 
ATOM     16  C   UNL     1       3.561   7.926   3.284  1.00  0.00     0.200 A 
ATOM     17  C   UNL     1       4.240   7.039   2.436  1.00  0.00     0.162 A 
BRANCH  14  18
ATOM     18  O   UNL     1       2.298  10.031   3.529  1.00  0.00    -0.504 OA
ATOM     19  H   UNL     1       2.721  10.554   4.281  1.00  0.00     0.293 HD
ENDBRANCH  14  18
BRANCH  16  20
ATOM     20  O   UNL     1       3.494   7.612   4.644  1.00  0.00    -0.502 OA
ATOM     21  H   UNL     1       4.239   7.787   5.303  1.00  0.00     0.293 HD
ENDBRANCH  16  20
BRANCH  17  22
ATOM     22  O   UNL     1       4.828   5.893   2.969  1.00  0.00    -0.504 OA
ATOM     23  H   UNL     1       5.779   5.896   3.316  1.00  0.00     0.293 HD
ENDBRANCH  17  22
ENDBRANCH   1  12
BRANCH   2  24
ATOM     24  O   UNL     1       6.243   8.392  -0.932  1.00  0.00    -0.502 OA
ATOM     25  H   UNL     1       7.156   8.726  -1.211  1.00  0.00     0.293 HD
ENDBRANCH   2  24
BRANCH   6  26
ATOM     26  O   UNL     1       4.928  10.054  -5.819  1.00  0.00    -0.507 OA
ATOM     27  H   UNL     1       4.939   9.949  -6.822  1.00  0.00     0.293 HD
ENDBRANCH   6  26
BRANCH   8  28
ATOM     28  O   UNL     1       0.156  10.110  -5.459  1.00  0.00    -0.508 OA
ATOM     29  H   UNL     1      -0.591   9.427  -5.402  1.00  0.00     0.293 HD
ENDBRANCH   8  28
TORSDOF 7
ENDMDL
