MODEL 1
REMARK VINA RESULT:    -5.217      0.000      0.000
REMARK INTER + INTRA:          -5.370
REMARK INTER:                  -5.370
REMARK INTRA:                   0.000
REMARK UNBOUND:                 0.000
REMARK SMILES Nc1ncnc2nc[nH]c12
REMARK SMILES IDX 8 1 7 2 6 3 5 4 4 5 3 6 2 7 10 8 9 9 1 11
REMARK H PARENT 9 10 1 12 1 13
REMARK Flexibility Score: inf
ROOT
ATOM      1  C   UNL     1     -24.627 -25.491 -14.860  1.00  0.00     0.199 A 
ATOM      2  N   UNL     1     -23.965 -25.420 -13.673  1.00  0.00    -0.217 NA
ATOM      3  C   UNL     1     -23.960 -24.100 -13.427  1.00  0.00     0.182 A 
ATOM      4  N   UNL     1     -23.416 -23.480 -12.353  1.00  0.00    -0.215 NA
ATOM      5  C   UNL     1     -23.511 -22.118 -12.277  1.00  0.00     0.226 A 
ATOM      6  N   UNL     1     -24.141 -21.407 -13.267  1.00  0.00    -0.217 NA
ATOM      7  C   UNL     1     -24.690 -22.032 -14.352  1.00  0.00     0.152 A 
ATOM      8  C   UNL     1     -24.585 -23.418 -14.415  1.00  0.00     0.127 A 
ATOM      9  N   UNL     1     -25.019 -24.284 -15.339  1.00  0.00    -0.340 N 
ATOM     10  H   UNL     1     -25.538 -24.088 -16.223  1.00  0.00     0.168 HD
ENDROOT
BRANCH   7  11
ATOM     11  N   UNL     1     -25.341 -21.271 -15.371  1.00  0.00    -0.382 N 
ATOM     12  H   UNL     1     -26.029 -21.730 -16.007  1.00  0.00     0.158 HD
ATOM     13  H   UNL     1     -25.143 -20.254 -15.500  1.00  0.00     0.158 HD
ENDBRANCH   7  11
TORSDOF 1
ENDMDL
MODEL 2
REMARK VINA RESULT:    -5.165      1.178      3.088
REMARK INTER + INTRA:          -5.316
REMARK INTER:                  -5.316
REMARK INTRA:                   0.000
REMARK UNBOUND:                 0.000
REMARK SMILES Nc1ncnc2nc[nH]c12
REMARK SMILES IDX 8 1 7 2 6 3 5 4 4 5 3 6 2 7 10 8 9 9 1 11
REMARK H PARENT 9 10 1 12 1 13
REMARK Flexibility Score: inf
ROOT
ATOM      1  C   UNL     1     -23.715 -20.371 -12.908  1.00  0.00     0.199 A 
ATOM      2  N   UNL     1     -23.449 -21.277 -11.927  1.00  0.00    -0.217 NA
ATOM      3  C   UNL     1     -23.663 -22.446 -12.554  1.00  0.00     0.182 A 
ATOM      4  N   UNL     1     -23.537 -23.684 -12.019  1.00  0.00    -0.215 NA
ATOM      5  C   UNL     1     -23.800 -24.762 -12.819  1.00  0.00     0.226 A 
ATOM      6  N   UNL     1     -24.181 -24.584 -14.125  1.00  0.00    -0.217 NA
ATOM      7  C   UNL     1     -24.308 -23.335 -14.666  1.00  0.00     0.152 A 
ATOM      8  C   UNL     1     -24.038 -22.249 -13.839  1.00  0.00     0.127 A 
ATOM      9  N   UNL     1     -24.078 -20.934 -14.088  1.00  0.00    -0.340 N 
ATOM     10  H   UNL     1     -24.326 -20.445 -14.976  1.00  0.00     0.168 HD
ENDROOT
BRANCH   7  11
ATOM     11  N   UNL     1     -24.707 -23.175 -16.028  1.00  0.00    -0.382 N 
ATOM     12  H   UNL     1     -24.458 -23.902 -16.734  1.00  0.00     0.158 HD
ATOM     13  H   UNL     1     -25.247 -22.338 -16.341  1.00  0.00     0.158 HD
ENDBRANCH   7  11
TORSDOF 1
ENDMDL
MODEL 3
REMARK VINA RESULT:    -5.011      1.932      3.359
REMARK INTER + INTRA:          -5.158
REMARK INTER:                  -5.158
REMARK INTRA:                   0.000
REMARK UNBOUND:                 0.000
REMARK SMILES Nc1ncnc2nc[nH]c12
REMARK SMILES IDX 8 1 7 2 6 3 5 4 4 5 3 6 2 7 10 8 9 9 1 11
REMARK H PARENT 9 10 1 12 1 13
REMARK Flexibility Score: inf
ROOT
ATOM      1  C   UNL     1     -23.171 -20.976 -12.620  1.00  0.00     0.199 A 
ATOM      2  N   UNL     1     -24.278 -21.054 -11.831  1.00  0.00    -0.217 NA
ATOM      3  C   UNL     1     -25.114 -21.788 -12.583  1.00  0.00     0.182 A 
ATOM      4  N   UNL     1     -26.374 -22.164 -12.259  1.00  0.00    -0.215 NA
ATOM      5  C   UNL     1     -27.076 -22.915 -13.161  1.00  0.00     0.226 A 
ATOM      6  N   UNL     1     -26.511 -23.273 -14.359  1.00  0.00    -0.217 NA
ATOM      7  C   UNL     1     -25.240 -22.894 -14.688  1.00  0.00     0.152 A 
ATOM      8  C   UNL     1     -24.539 -22.130 -13.759  1.00  0.00     0.127 A 
ATOM      9  N   UNL     1     -23.300 -21.624 -13.806  1.00  0.00    -0.340 N 
ATOM     10  H   UNL     1     -22.591 -21.703 -14.568  1.00  0.00     0.168 HD
ENDROOT
BRANCH   7  11
ATOM     11  N   UNL     1     -24.673 -23.278 -15.941  1.00  0.00    -0.382 N 
ATOM     12  H   UNL     1     -24.710 -22.624 -16.753  1.00  0.00     0.158 HD
ATOM     13  H   UNL     1     -24.217 -24.208 -16.069  1.00  0.00     0.158 HD
ENDBRANCH   7  11
TORSDOF 1
ENDMDL
MODEL 4
REMARK VINA RESULT:    -5.008      1.661      3.565
REMARK INTER + INTRA:          -5.154
REMARK INTER:                  -5.154
REMARK INTRA:                   0.000
REMARK UNBOUND:                 0.000
REMARK SMILES Nc1ncnc2nc[nH]c12
REMARK SMILES IDX 8 1 7 2 6 3 5 4 4 5 3 6 2 7 10 8 9 9 1 11
REMARK H PARENT 9 10 1 12 1 13
REMARK Flexibility Score: inf
ROOT
ATOM      1  C   UNL     1     -25.784 -19.209 -13.768  1.00  0.00     0.199 A 
ATOM      2  N   UNL     1     -25.110 -19.443 -12.609  1.00  0.00    -0.217 NA
ATOM      3  C   UNL     1     -24.598 -20.667 -12.818  1.00  0.00     0.182 A 
ATOM      4  N   UNL     1     -23.830 -21.380 -11.960  1.00  0.00    -0.215 NA
ATOM      5  C   UNL     1     -23.400 -22.616 -12.354  1.00  0.00     0.226 A 
ATOM      6  N   UNL     1     -23.742 -23.114 -13.586  1.00  0.00    -0.217 NA
ATOM      7  C   UNL     1     -24.517 -22.396 -14.453  1.00  0.00     0.152 A 
ATOM      8  C   UNL     1     -24.947 -21.139 -14.037  1.00  0.00     0.127 A 
ATOM      9  N   UNL     1     -25.703 -20.227 -14.661  1.00  0.00    -0.340 N 
ATOM     10  H   UNL     1     -26.133 -20.275 -15.611  1.00  0.00     0.168 HD
ENDROOT
BRANCH   7  11
ATOM     11  N   UNL     1     -24.861 -22.934 -15.731  1.00  0.00    -0.382 N 
ATOM     12  H   UNL     1     -24.638 -22.401 -16.599  1.00  0.00     0.158 HD
ATOM     13  H   UNL     1     -25.337 -23.859 -15.820  1.00  0.00     0.158 HD
ENDBRANCH   7  11
TORSDOF 1
ENDMDL
MODEL 5
REMARK VINA RESULT:    -4.989      1.900      3.361
REMARK INTER + INTRA:          -5.135
REMARK INTER:                  -5.135
REMARK INTRA:                   0.000
REMARK UNBOUND:                 0.000
REMARK SMILES Nc1ncnc2nc[nH]c12
REMARK SMILES IDX 8 1 7 2 6 3 5 4 4 5 3 6 2 7 10 8 9 9 1 11
REMARK H PARENT 9 10 1 12 1 13
REMARK Flexibility Score: inf
ROOT
ATOM      1  C   UNL     1     -26.988 -22.458 -12.803  1.00  0.00     0.199 A 
ATOM      2  N   UNL     1     -25.682 -22.425 -12.419  1.00  0.00    -0.217 NA
ATOM      3  C   UNL     1     -25.169 -23.484 -13.066  1.00  0.00     0.182 A 
ATOM      4  N   UNL     1     -23.883 -23.909 -13.028  1.00  0.00    -0.215 NA
ATOM      5  C   UNL     1     -23.546 -25.014 -13.759  1.00  0.00     0.226 A 
ATOM      6  N   UNL     1     -24.492 -25.669 -14.507  1.00  0.00    -0.217 NA
ATOM      7  C   UNL     1     -25.789 -25.242 -14.547  1.00  0.00     0.152 A 
ATOM      8  C   UNL     1     -26.116 -24.116 -13.797  1.00  0.00     0.127 A 
ATOM      9  N   UNL     1     -27.284 -23.479 -13.645  1.00  0.00    -0.340 N 
ATOM     10  H   UNL     1     -28.210 -23.705 -14.070  1.00  0.00     0.168 HD
ENDROOT
BRANCH   7  11
ATOM     11  N   UNL     1     -26.757 -25.940 -15.333  1.00  0.00    -0.382 N 
ATOM     12  H   UNL     1     -27.645 -26.268 -14.896  1.00  0.00     0.158 HD
ATOM     13  H   UNL     1     -26.596 -26.134 -16.346  1.00  0.00     0.158 HD
ENDBRANCH   7  11
TORSDOF 1
ENDMDL
MODEL 6
REMARK VINA RESULT:    -4.982      2.704      3.365
REMARK INTER + INTRA:          -5.128
REMARK INTER:                  -5.128
REMARK INTRA:                   0.000
REMARK UNBOUND:                 0.000
REMARK SMILES Nc1ncnc2nc[nH]c12
REMARK SMILES IDX 8 1 7 2 6 3 5 4 4 5 3 6 2 7 10 8 9 9 1 11
REMARK H PARENT 9 10 1 12 1 13
REMARK Flexibility Score: inf
ROOT
ATOM      1  C   UNL     1     -25.878 -22.461 -14.793  1.00  0.00     0.199 A 
ATOM      2  N   UNL     1     -26.506 -22.291 -13.597  1.00  0.00    -0.217 NA
ATOM      3  C   UNL     1     -26.031 -21.102 -13.192  1.00  0.00     0.182 A 
ATOM      4  N   UNL     1     -26.342 -20.457 -12.042  1.00  0.00    -0.215 NA
ATOM      5  C   UNL     1     -25.753 -19.247 -11.801  1.00  0.00     0.226 A 
ATOM      6  N   UNL     1     -24.874 -18.708 -12.706  1.00  0.00    -0.217 NA
ATOM      7  C   UNL     1     -24.559 -19.357 -13.867  1.00  0.00     0.152 A 
ATOM      8  C   UNL     1     -25.166 -20.588 -14.096  1.00  0.00     0.127 A 
ATOM      9  N   UNL     1     -25.053 -21.437 -15.126  1.00  0.00    -0.340 N 
ATOM     10  H   UNL     1     -24.470 -21.343 -15.987  1.00  0.00     0.168 HD
ENDROOT
BRANCH   7  11
ATOM     11  N   UNL     1     -23.640 -18.777 -14.793  1.00  0.00    -0.382 N 
ATOM     12  H   UNL     1     -23.037 -19.390 -15.384  1.00  0.00     0.158 HD
ATOM     13  H   UNL     1     -23.553 -17.742 -14.896  1.00  0.00     0.158 HD
ENDBRANCH   7  11
TORSDOF 1
ENDMDL
MODEL 7
REMARK VINA RESULT:    -4.947      6.199      7.901
REMARK INTER + INTRA:          -5.091
REMARK INTER:                  -5.091
REMARK INTRA:                   0.000
REMARK UNBOUND:                 0.000
REMARK SMILES Nc1ncnc2nc[nH]c12
REMARK SMILES IDX 8 1 7 2 6 3 5 4 4 5 3 6 2 7 10 8 9 9 1 11
REMARK H PARENT 9 10 1 12 1 13
REMARK Flexibility Score: inf
ROOT
ATOM      1  C   UNL     1     -24.215 -18.065 -13.949  1.00  0.00     0.199 A 
ATOM      2  N   UNL     1     -25.385 -17.473 -14.312  1.00  0.00    -0.217 NA
ATOM      3  C   UNL     1     -24.978 -16.256 -14.709  1.00  0.00     0.182 A 
ATOM      4  N   UNL     1     -25.761 -15.253 -15.175  1.00  0.00    -0.215 NA
ATOM      5  C   UNL     1     -25.160 -14.079 -15.533  1.00  0.00     0.226 A 
ATOM      6  N   UNL     1     -23.801 -13.928 -15.420  1.00  0.00    -0.217 NA
ATOM      7  C   UNL     1     -23.009 -14.939 -14.950  1.00  0.00     0.152 A 
ATOM      8  C   UNL     1     -23.636 -16.128 -14.590  1.00  0.00     0.127 A 
ATOM      9  N   UNL     1     -23.128 -17.269 -14.107  1.00  0.00    -0.340 N 
ATOM     10  H   UNL     1     -22.132 -17.503 -13.898  1.00  0.00     0.168 HD
ENDROOT
BRANCH   7  11
ATOM     11  N   UNL     1     -21.597 -14.759 -14.840  1.00  0.00    -0.382 N 
ATOM     12  H   UNL     1     -21.159 -13.863 -15.146  1.00  0.00     0.158 HD
ATOM     13  H   UNL     1     -20.982 -15.510 -14.457  1.00  0.00     0.158 HD
ENDBRANCH   7  11
TORSDOF 1
ENDMDL
MODEL 8
REMARK VINA RESULT:    -4.822      2.907      4.654
REMARK INTER + INTRA:          -4.963
REMARK INTER:                  -4.963
REMARK INTRA:                   0.000
REMARK UNBOUND:                 0.000
REMARK SMILES Nc1ncnc2nc[nH]c12
REMARK SMILES IDX 8 1 7 2 6 3 5 4 4 5 3 6 2 7 10 8 9 9 1 11
REMARK H PARENT 9 10 1 12 1 13
REMARK Flexibility Score: inf
ROOT
ATOM      1  C   UNL     1     -23.877 -18.000 -14.107  1.00  0.00     0.199 A 
ATOM      2  N   UNL     1     -24.555 -17.987 -12.927  1.00  0.00    -0.217 NA
ATOM      3  C   UNL     1     -25.151 -19.190 -12.927  1.00  0.00     0.182 A 
ATOM      4  N   UNL     1     -25.960 -19.692 -11.963  1.00  0.00    -0.215 NA
ATOM      5  C   UNL     1     -26.476 -20.945 -12.142  1.00  0.00     0.226 A 
ATOM      6  N   UNL     1     -26.179 -21.667 -13.270  1.00  0.00    -0.217 NA
ATOM      7  C   UNL     1     -25.364 -21.162 -14.244  1.00  0.00     0.152 A 
ATOM      8  C   UNL     1     -24.846 -19.885 -14.047  1.00  0.00     0.127 A 
ATOM      9  N   UNL     1     -24.035 -19.147 -14.814  1.00  0.00    -0.340 N 
ATOM     10  H   UNL     1     -23.615 -19.386 -15.740  1.00  0.00     0.168 HD
ENDROOT
BRANCH   7  11
ATOM     11  N   UNL     1     -25.069 -21.932 -15.411  1.00  0.00    -0.382 N 
ATOM     12  H   UNL     1     -24.590 -22.855 -15.320  1.00  0.00     0.158 HD
ATOM     13  H   UNL     1     -25.322 -21.592 -16.364  1.00  0.00     0.158 HD
ENDBRANCH   7  11
TORSDOF 1
ENDMDL
MODEL 9
REMARK VINA RESULT:    -4.798      1.890      2.652
REMARK INTER + INTRA:          -4.939
REMARK INTER:                  -4.939
REMARK INTRA:                   0.000
REMARK UNBOUND:                 0.000
REMARK SMILES Nc1ncnc2nc[nH]c12
REMARK SMILES IDX 8 1 7 2 6 3 5 4 4 5 3 6 2 7 10 8 9 9 1 11
REMARK H PARENT 9 10 1 12 1 13
REMARK Flexibility Score: inf
ROOT
ATOM      1  C   UNL     1     -24.090 -24.473 -12.525  1.00  0.00     0.199 A 
ATOM      2  N   UNL     1     -25.352 -23.964 -12.562  1.00  0.00    -0.217 NA
ATOM      3  C   UNL     1     -25.128 -22.668 -12.835  1.00  0.00     0.182 A 
ATOM      4  N   UNL     1     -26.063 -21.699 -12.982  1.00  0.00    -0.215 NA
ATOM      5  C   UNL     1     -25.639 -20.430 -13.260  1.00  0.00     0.226 A 
ATOM      6  N   UNL     1     -24.301 -20.153 -13.385  1.00  0.00    -0.217 NA
ATOM      7  C   UNL     1     -23.356 -21.129 -13.237  1.00  0.00     0.152 A 
ATOM      8  C   UNL     1     -23.804 -22.416 -12.954  1.00  0.00     0.127 A 
ATOM      9  N   UNL     1     -23.122 -23.552 -12.760  1.00  0.00    -0.340 N 
ATOM     10  H   UNL     1     -22.090 -23.706 -12.783  1.00  0.00     0.168 HD
ENDROOT
BRANCH   7  11
ATOM     11  N   UNL     1     -21.968 -20.818 -13.370  1.00  0.00    -0.382 N 
ATOM     12  H   UNL     1     -21.577 -19.970 -12.906  1.00  0.00     0.158 HD
ATOM     13  H   UNL     1     -21.327 -21.424 -13.928  1.00  0.00     0.158 HD
ENDBRANCH   7  11
TORSDOF 1
ENDMDL
