MODEL 1
REMARK VINA RESULT:    -3.701      0.000      0.000
REMARK INTER + INTRA:          -4.682
REMARK INTER:                  -5.215
REMARK INTRA:                   0.534
REMARK UNBOUND:                 0.534
REMARK SMILES CC1=CCC(=C(C)C)C(=O)CC(C)=CCC1
REMARK SMILES IDX 12 1 14 2 13 3 15 4 16 5 2 6 1 7 3 8 11 10 9 11 10 12 5 13
REMARK SMILES IDX 6 14 7 15 8 16 4 17
REMARK H PARENT
REMARK Flexibility Score: 60.00
ROOT
ATOM      1  C   UNL     1      14.394  -8.269  17.658  1.00  0.00    -0.070 C 
ATOM      2  C   UNL     1      15.222  -9.318  17.878  1.00  0.00    -0.027 C 
ATOM      3  C   UNL     1      13.147  -8.162  18.497  1.00  0.00     0.039 C 
ENDROOT
BRANCH   2   4
ATOM      4  C   UNL     1      16.540  -9.550  17.176  1.00  0.00     0.032 C 
BRANCH   4   5
ATOM      5  C   UNL     1      17.722  -9.482  18.153  1.00  0.00     0.034 C 
BRANCH   5   6
ATOM      6  C   UNL     1      18.548  -8.210  18.020  1.00  0.00    -0.077 C 
ATOM      7  C   UNL     1      19.872  -8.274  17.301  1.00  0.00     0.039 C 
ATOM      8  C   UNL     1      18.148  -7.010  18.501  1.00  0.00    -0.023 CG0
ATOM      9  G   UNL     1      16.894  -6.763  19.305  1.00  0.00     0.000 G0
ENDBRANCH   5   6
ENDBRANCH   4   5
ENDBRANCH   2   4
BRANCH   1  10
ATOM     10  C   UNL     1      14.668  -7.209  16.609  1.00  0.00     0.111 C 
BRANCH  10  11
ATOM     11  C   UNL     1      15.636  -6.179  17.119  1.00  0.00     0.163 C 
ATOM     12  O   UNL     1      16.285  -5.479  16.296  1.00  0.00    -0.294 OA
BRANCH  11  13
ATOM     13  C   UNL     1      15.824  -5.952  18.575  1.00  0.00    -0.002 C 
ATOM     14  C   UNL     1      15.046  -5.053  19.236  1.00  0.00    -0.069 C 
ATOM     15  C   UNL     1      15.257  -4.770  20.705  1.00  0.00     0.039 C 
ATOM     16  C   UNL     1      13.914  -4.335  18.535  1.00  0.00     0.039 C 
BRANCH  13  17
ATOM     17  C   UNL     1      16.899  -6.740  19.316  1.00  0.00     0.066 CG0
ATOM     18  G   UNL     1      18.130  -7.019  18.486  1.00  0.00     0.000 G0
ENDBRANCH  13  17
ENDBRANCH  11  13
ENDBRANCH  10  11
ENDBRANCH   1  10
TORSDOF 0
ENDMDL
MODEL 2
REMARK VINA RESULT:    -3.603      1.783      4.656
REMARK INTER + INTRA:          -4.544
REMARK INTER:                  -4.997
REMARK INTRA:                   0.453
REMARK UNBOUND:                 0.534
REMARK SMILES CC1=CCC(=C(C)C)C(=O)CC(C)=CCC1
REMARK SMILES IDX 12 1 14 2 13 3 15 4 16 5 2 6 1 7 3 8 11 10 9 11 10 12 5 13
REMARK SMILES IDX 6 14 7 15 8 16 4 17
REMARK H PARENT
REMARK Flexibility Score: 60.00
ROOT
ATOM      1  C   UNL     1      15.643  -5.479  18.750  1.00  0.00    -0.070 C 
ATOM      2  C   UNL     1      14.391  -5.741  18.306  1.00  0.00    -0.027 C 
ATOM      3  C   UNL     1      15.791  -4.701  20.032  1.00  0.00     0.039 C 
ENDROOT
BRANCH   2   4
ATOM      4  C   UNL     1      14.055  -6.556  17.078  1.00  0.00     0.032 C 
BRANCH   4   5
ATOM      5  C   UNL     1      13.311  -7.849  17.442  1.00  0.00     0.034 C 
BRANCH   5   6
ATOM      6  C   UNL     1      13.911  -8.582  18.634  1.00  0.00    -0.077 C 
ATOM      7  C   UNL     1      13.145  -8.610  19.932  1.00  0.00     0.039 C 
ATOM      8  C   UNL     1      15.098  -9.231  18.588  1.00  0.00    -0.023 CG0
ATOM      9  G   UNL     1      16.037  -9.255  17.405  1.00  0.00     0.000 G0
ENDBRANCH   5   6
ENDBRANCH   4   5
ENDBRANCH   2   4
BRANCH   1  10
ATOM     10  C   UNL     1      16.890  -5.931  18.015  1.00  0.00     0.111 C 
BRANCH  10  11
ATOM     11  C   UNL     1      17.337  -7.285  18.489  1.00  0.00     0.163 C 
ATOM     12  O   UNL     1      17.704  -7.431  19.686  1.00  0.00    -0.294 OA
BRANCH  11  13
ATOM     13  C   UNL     1      17.334  -8.460  17.581  1.00  0.00    -0.002 C 
ATOM     14  C   UNL     1      18.469  -8.823  16.924  1.00  0.00    -0.069 C 
ATOM     15  C   UNL     1      18.472  -9.984  15.956  1.00  0.00     0.039 C 
ATOM     16  C   UNL     1      19.778  -8.107  17.170  1.00  0.00     0.039 C 
BRANCH  13  17
ATOM     17  C   UNL     1      16.043  -9.252  17.396  1.00  0.00     0.066 CG0
ATOM     18  G   UNL     1      15.128  -9.212  18.597  1.00  0.00     0.000 G0
ENDBRANCH  13  17
ENDBRANCH  11  13
ENDBRANCH  10  11
ENDBRANCH   1  10
TORSDOF 0
ENDMDL
MODEL 3
REMARK VINA RESULT:    -3.494      2.244      3.401
REMARK INTER + INTRA:          -4.391
REMARK INTER:                  -4.892
REMARK INTRA:                   0.501
REMARK UNBOUND:                 0.534
REMARK SMILES CC1=CCC(=C(C)C)C(=O)CC(C)=CCC1
REMARK SMILES IDX 12 1 14 2 13 3 15 4 16 5 2 6 1 7 3 8 11 10 9 11 10 12 5 13
REMARK SMILES IDX 6 14 7 15 8 16 4 17
REMARK H PARENT
REMARK Flexibility Score: 60.00
ROOT
ATOM      1  C   UNL     1      13.300  -8.564  17.928  1.00  0.00    -0.070 C 
ATOM      2  C   UNL     1      13.643  -7.619  17.022  1.00  0.00    -0.027 C 
ATOM      3  C   UNL     1      13.358 -10.009  17.503  1.00  0.00     0.039 C 
ENDROOT
BRANCH   2   4
ATOM      4  C   UNL     1      13.701  -6.133  17.292  1.00  0.00     0.032 C 
BRANCH   4   5
ATOM      5  C   UNL     1      15.101  -5.562  17.025  1.00  0.00     0.034 C 
BRANCH   5   6
ATOM      6  C   UNL     1      16.194  -6.217  17.858  1.00  0.00    -0.077 C 
ATOM      7  C   UNL     1      17.348  -6.883  17.150  1.00  0.00     0.039 C 
ATOM      8  C   UNL     1      16.198  -6.219  19.211  1.00  0.00    -0.023 CG0
ATOM      9  G   UNL     1      15.101  -5.667  20.090  1.00  0.00     0.000 G0
ENDBRANCH   5   6
ENDBRANCH   4   5
ENDBRANCH   2   4
BRANCH   1  10
ATOM     10  C   UNL     1      12.860  -8.231  19.341  1.00  0.00     0.111 C 
BRANCH  10  11
ATOM     11  C   UNL     1      14.044  -8.032  20.244  1.00  0.00     0.163 C 
ATOM     12  O   UNL     1      14.832  -8.994  20.452  1.00  0.00    -0.294 OA
BRANCH  11  13
ATOM     13  C   UNL     1      14.318  -6.717  20.879  1.00  0.00    -0.002 C 
ATOM     14  C   UNL     1      13.876  -6.458  22.139  1.00  0.00    -0.069 C 
ATOM     15  C   UNL     1      14.100  -5.109  22.782  1.00  0.00     0.039 C 
ATOM     16  C   UNL     1      13.184  -7.524  22.959  1.00  0.00     0.039 C 
BRANCH  13  17
ATOM     17  C   UNL     1      15.100  -5.665  20.099  1.00  0.00     0.066 CG0
ATOM     18  G   UNL     1      16.190  -6.240  19.226  1.00  0.00     0.000 G0
ENDBRANCH  13  17
ENDBRANCH  11  13
ENDBRANCH  10  11
ENDBRANCH   1  10
TORSDOF 0
ENDMDL
MODEL 4
REMARK VINA RESULT:    -3.348      1.979      3.269
REMARK INTER + INTRA:          -4.185
REMARK INTER:                  -4.802
REMARK INTRA:                   0.617
REMARK UNBOUND:                 0.534
REMARK SMILES CC1=CCC(=C(C)C)C(=O)CC(C)=CCC1
REMARK SMILES IDX 12 1 14 2 13 3 15 4 16 5 2 6 1 7 3 8 11 10 9 11 10 12 5 13
REMARK SMILES IDX 6 14 7 15 8 16 4 17
REMARK H PARENT
REMARK Flexibility Score: 60.00
ROOT
ATOM      1  C   UNL     1      16.031  -6.667  16.984  1.00  0.00    -0.070 C 
ATOM      2  C   UNL     1      16.345  -7.974  17.145  1.00  0.00    -0.027 C 
ATOM      3  C   UNL     1      15.523  -6.221  15.637  1.00  0.00     0.039 C 
ENDROOT
BRANCH   2   4
ATOM      4  C   UNL     1      16.809  -8.605  18.438  1.00  0.00     0.032 C 
BRANCH   4   5
ATOM      5  C   UNL     1      15.801  -9.640  18.957  1.00  0.00     0.034 C 
BRANCH   5   6
ATOM      6  C   UNL     1      14.353  -9.178  18.865  1.00  0.00    -0.077 C 
ATOM      7  C   UNL     1      13.416  -9.902  17.932  1.00  0.00     0.039 C 
ATOM      8  C   UNL     1      13.851  -8.156  19.597  1.00  0.00    -0.023 CG0
ATOM      9  G   UNL     1      14.646  -7.273  20.529  1.00  0.00     0.000 G0
ENDBRANCH   5   6
ENDBRANCH   4   5
ENDBRANCH   2   4
BRANCH   1  10
ATOM     10  C   UNL     1      16.174  -5.642  18.092  1.00  0.00     0.111 C 
BRANCH  10  11
ATOM     11  C   UNL     1      14.854  -5.383  18.763  1.00  0.00     0.163 C 
ATOM     12  O   UNL     1      13.927  -4.829  18.112  1.00  0.00    -0.294 OA
BRANCH  11  13
ATOM     13  C   UNL     1      14.611  -5.790  20.171  1.00  0.00    -0.002 C 
ATOM     14  C   UNL     1      14.368  -4.850  21.124  1.00  0.00    -0.069 C 
ATOM     15  C   UNL     1      14.171  -5.240  22.571  1.00  0.00     0.039 C 
ATOM     16  C   UNL     1      14.244  -3.386  20.765  1.00  0.00     0.039 C 
BRANCH  13  17
ATOM     17  C   UNL     1      14.638  -7.271  20.531  1.00  0.00     0.066 CG0
ATOM     18  G   UNL     1      13.852  -8.143  19.580  1.00  0.00     0.000 G0
ENDBRANCH  13  17
ENDBRANCH  11  13
ENDBRANCH  10  11
ENDBRANCH   1  10
TORSDOF 0
ENDMDL
MODEL 5
REMARK VINA RESULT:    -3.278      1.990      4.362
REMARK INTER + INTRA:          -4.085
REMARK INTER:                  -4.763
REMARK INTRA:                   0.678
REMARK UNBOUND:                 0.534
REMARK SMILES CC1=CCC(=C(C)C)C(=O)CC(C)=CCC1
REMARK SMILES IDX 12 1 14 2 13 3 15 4 16 5 2 6 1 7 3 8 11 10 9 11 10 12 5 13
REMARK SMILES IDX 6 14 7 15 8 16 4 17
REMARK H PARENT
REMARK Flexibility Score: 60.00
ROOT
ATOM      1  C   UNL     1      15.386  -5.832  17.910  1.00  0.00    -0.070 C 
ATOM      2  C   UNL     1      14.045  -5.860  18.094  1.00  0.00    -0.027 C 
ATOM      3  C   UNL     1      16.230  -5.136  18.947  1.00  0.00     0.039 C 
ENDROOT
BRANCH   2   4
ATOM      4  C   UNL     1      13.056  -6.561  17.191  1.00  0.00     0.032 C 
BRANCH   4   5
ATOM      5  C   UNL     1      12.456  -7.803  17.866  1.00  0.00     0.034 C 
BRANCH   5   6
ATOM      6  C   UNL     1      13.080  -9.111  17.398  1.00  0.00    -0.077 C 
ATOM      7  C   UNL     1      12.349  -9.940  16.371  1.00  0.00     0.039 C 
ATOM      8  C   UNL     1      14.274  -9.566  17.843  1.00  0.00    -0.023 CG0
ATOM      9  G   UNL     1      15.115  -8.915  18.915  1.00  0.00     0.000 G0
ENDBRANCH   5   6
ENDBRANCH   4   5
ENDBRANCH   2   4
BRANCH   1  10
ATOM     10  C   UNL     1      16.067  -6.463  16.711  1.00  0.00     0.111 C 
BRANCH  10  11
ATOM     11  C   UNL     1      16.557  -7.847  17.033  1.00  0.00     0.163 C 
ATOM     12  O   UNL     1      17.074  -8.548  16.122  1.00  0.00    -0.294 OA
BRANCH  11  13
ATOM     13  C   UNL     1      16.467  -8.396  18.410  1.00  0.00    -0.002 C 
ATOM     14  C   UNL     1      17.568  -8.429  19.209  1.00  0.00    -0.069 C 
ATOM     15  C   UNL     1      17.508  -9.031  20.594  1.00  0.00     0.039 C 
ATOM     16  C   UNL     1      18.879  -7.825  18.759  1.00  0.00     0.039 C 
BRANCH  13  17
ATOM     17  C   UNL     1      15.126  -8.921  18.914  1.00  0.00     0.066 CG0
ATOM     18  G   UNL     1      14.290  -9.579  17.842  1.00  0.00     0.000 G0
ENDBRANCH  13  17
ENDBRANCH  11  13
ENDBRANCH  10  11
ENDBRANCH   1  10
TORSDOF 0
ENDMDL
MODEL 6
REMARK VINA RESULT:    -3.264      1.982      3.908
REMARK INTER + INTRA:          -4.066
REMARK INTER:                  -4.822
REMARK INTRA:                   0.755
REMARK UNBOUND:                 0.534
REMARK SMILES CC1=CCC(=C(C)C)C(=O)CC(C)=CCC1
REMARK SMILES IDX 12 1 14 2 13 3 15 4 16 5 2 6 1 7 3 8 11 10 9 11 10 12 5 13
REMARK SMILES IDX 6 14 7 15 8 16 4 17
REMARK H PARENT
REMARK Flexibility Score: 60.00
ROOT
ATOM      1  C   UNL     1      14.584  -6.516  19.421  1.00  0.00    -0.070 C 
ATOM      2  C   UNL     1      14.417  -5.793  18.289  1.00  0.00    -0.027 C 
ATOM      3  C   UNL     1      15.274  -5.858  20.588  1.00  0.00     0.039 C 
ENDROOT
BRANCH   2   4
ATOM      4  C   UNL     1      13.698  -6.270  17.048  1.00  0.00     0.032 C 
BRANCH   4   5
ATOM      5  C   UNL     1      14.683  -6.707  15.954  1.00  0.00     0.034 C 
BRANCH   5   6
ATOM      6  C   UNL     1      16.111  -6.239  16.200  1.00  0.00    -0.077 C 
ATOM      7  C   UNL     1      16.479  -4.816  15.864  1.00  0.00     0.039 C 
ATOM      8  C   UNL     1      17.073  -7.033  16.726  1.00  0.00    -0.023 CG0
ATOM      9  G   UNL     1      16.915  -8.498  17.059  1.00  0.00     0.000 G0
ENDBRANCH   5   6
ENDBRANCH   4   5
ENDBRANCH   2   4
BRANCH   1  10
ATOM     10  C   UNL     1      14.112  -7.950  19.559  1.00  0.00     0.111 C 
BRANCH  10  11
ATOM     11  C   UNL     1      14.861  -8.860  18.627  1.00  0.00     0.163 C 
ATOM     12  O   UNL     1      14.227  -9.718  17.957  1.00  0.00    -0.294 OA
BRANCH  11  13
ATOM     13  C   UNL     1      16.334  -8.750  18.460  1.00  0.00    -0.002 C 
ATOM     14  C   UNL     1      17.157  -8.873  19.537  1.00  0.00    -0.069 C 
ATOM     15  C   UNL     1      18.653  -8.712  19.396  1.00  0.00     0.039 C 
ATOM     16  C   UNL     1      16.610  -9.216  20.904  1.00  0.00     0.039 C 
BRANCH  13  17
ATOM     17  C   UNL     1      16.907  -8.499  17.069  1.00  0.00     0.066 CG0
ATOM     18  G   UNL     1      17.087  -7.036  16.741  1.00  0.00     0.000 G0
ENDBRANCH  13  17
ENDBRANCH  11  13
ENDBRANCH  10  11
ENDBRANCH   1  10
TORSDOF 0
ENDMDL
MODEL 7
REMARK VINA RESULT:    -3.233      2.416      4.297
REMARK INTER + INTRA:          -4.022
REMARK INTER:                  -4.668
REMARK INTRA:                   0.646
REMARK UNBOUND:                 0.534
REMARK SMILES CC1=CCC(=C(C)C)C(=O)CC(C)=CCC1
REMARK SMILES IDX 12 1 14 2 13 3 15 4 16 5 2 6 1 7 3 8 11 10 9 11 10 12 5 13
REMARK SMILES IDX 6 14 7 15 8 16 4 17
REMARK H PARENT
REMARK Flexibility Score: 60.00
ROOT
ATOM      1  C   UNL     1      14.957  -6.748  20.499  1.00  0.00    -0.070 C 
ATOM      2  C   UNL     1      15.057  -5.435  20.186  1.00  0.00    -0.027 C 
ATOM      3  C   UNL     1      13.853  -7.172  21.434  1.00  0.00     0.039 C 
ENDROOT
BRANCH   2   4
ATOM      4  C   UNL     1      16.060  -4.843  19.222  1.00  0.00     0.032 C 
BRANCH   4   5
ATOM      5  C   UNL     1      15.385  -4.352  17.933  1.00  0.00     0.034 C 
BRANCH   5   6
ATOM      6  C   UNL     1      15.645  -5.250  16.731  1.00  0.00    -0.077 C 
ATOM      7  C   UNL     1      16.762  -4.892  15.783  1.00  0.00     0.039 C 
ATOM      8  C   UNL     1      14.935  -6.373  16.474  1.00  0.00    -0.023 CG0
ATOM      9  G   UNL     1      13.741  -6.854  17.264  1.00  0.00     0.000 G0
ENDBRANCH   5   6
ENDBRANCH   4   5
ENDBRANCH   2   4
BRANCH   1  10
ATOM     10  C   UNL     1      15.904  -7.800  19.955  1.00  0.00     0.111 C 
BRANCH  10  11
ATOM     11  C   UNL     1      15.439  -8.309  18.620  1.00  0.00     0.163 C 
ATOM     12  O   UNL     1      16.235  -8.965  17.896  1.00  0.00    -0.294 OA
BRANCH  11  13
ATOM     13  C   UNL     1      14.050  -8.076  18.147  1.00  0.00    -0.002 C 
ATOM     14  C   UNL     1      13.056  -8.942  18.484  1.00  0.00    -0.069 C 
ATOM     15  C   UNL     1      11.648  -8.751  17.970  1.00  0.00     0.039 C 
ATOM     16  C   UNL     1      13.313 -10.103  19.419  1.00  0.00     0.039 C 
BRANCH  13  17
ATOM     17  C   UNL     1      13.755  -6.856  17.282  1.00  0.00     0.066 CG0
ATOM     18  G   UNL     1      14.942  -6.379  16.478  1.00  0.00     0.000 G0
ENDBRANCH  13  17
ENDBRANCH  11  13
ENDBRANCH  10  11
ENDBRANCH   1  10
TORSDOF 0
ENDMDL
MODEL 8
REMARK VINA RESULT:    -3.232      2.097      3.591
REMARK INTER + INTRA:          -4.022
REMARK INTER:                  -4.832
REMARK INTRA:                   0.810
REMARK UNBOUND:                 0.534
REMARK SMILES CC1=CCC(=C(C)C)C(=O)CC(C)=CCC1
REMARK SMILES IDX 12 1 14 2 13 3 15 4 16 5 2 6 1 7 3 8 11 10 9 11 10 12 5 13
REMARK SMILES IDX 6 14 7 15 8 16 4 17
REMARK H PARENT
REMARK Flexibility Score: 60.00
ROOT
ATOM      1  C   UNL     1      16.969  -6.395  17.426  1.00  0.00    -0.070 C 
ATOM      2  C   UNL     1      18.023  -7.220  17.630  1.00  0.00    -0.027 C 
ATOM      3  C   UNL     1      16.621  -6.026  16.007  1.00  0.00     0.039 C 
ENDROOT
BRANCH   2   4
ATOM      4  C   UNL     1      18.475  -7.740  18.975  1.00  0.00     0.032 C 
BRANCH   4   5
ATOM      5  C   UNL     1      18.306  -9.263  19.080  1.00  0.00     0.034 C 
BRANCH   5   6
ATOM      6  C   UNL     1      17.277  -9.691  20.117  1.00  0.00    -0.077 C 
ATOM      7  C   UNL     1      17.752 -10.090  21.492  1.00  0.00     0.039 C 
ATOM      8  C   UNL     1      15.946  -9.716  19.877  1.00  0.00    -0.023 CG0
ATOM      9  G   UNL     1      15.289  -9.420  18.550  1.00  0.00     0.000 G0
ENDBRANCH   5   6
ENDBRANCH   4   5
ENDBRANCH   2   4
BRANCH   1  10
ATOM     10  C   UNL     1      16.135  -5.828  18.559  1.00  0.00     0.111 C 
BRANCH  10  11
ATOM     11  C   UNL     1      15.336  -6.907  19.235  1.00  0.00     0.163 C 
ATOM     12  O   UNL     1      15.181  -6.870  20.485  1.00  0.00    -0.294 OA
BRANCH  11  13
ATOM     13  C   UNL     1      14.705  -8.003  18.456  1.00  0.00    -0.002 C 
ATOM     14  C   UNL     1      13.629  -7.749  17.662  1.00  0.00    -0.069 C 
ATOM     15  C   UNL     1      12.942  -8.860  16.902  1.00  0.00     0.039 C 
ATOM     16  C   UNL     1      13.109  -6.341  17.477  1.00  0.00     0.039 C 
BRANCH  13  17
ATOM     17  C   UNL     1      15.279  -9.412  18.558  1.00  0.00     0.066 CG0
ATOM     18  G   UNL     1      15.949  -9.702  19.880  1.00  0.00     0.000 G0
ENDBRANCH  13  17
ENDBRANCH  11  13
ENDBRANCH  10  11
ENDBRANCH   1  10
TORSDOF 0
ENDMDL
MODEL 9
REMARK VINA RESULT:    -3.212      1.730      2.657
REMARK INTER + INTRA:          -3.992
REMARK INTER:                  -5.076
REMARK INTRA:                   1.084
REMARK UNBOUND:                 0.534
REMARK SMILES CC1=CCC(=C(C)C)C(=O)CC(C)=CCC1
REMARK SMILES IDX 12 1 14 2 13 3 15 4 16 5 2 6 1 7 3 8 11 10 9 11 10 12 5 13
REMARK SMILES IDX 6 14 7 15 8 16 4 17
REMARK H PARENT
REMARK Flexibility Score: 60.00
ROOT
ATOM      1  C   UNL     1      13.682  -7.183  17.195  1.00  0.00    -0.070 C 
ATOM      2  C   UNL     1      13.272  -8.397  17.635  1.00  0.00    -0.027 C 
ATOM      3  C   UNL     1      12.770  -6.004  17.418  1.00  0.00     0.039 C 
ENDROOT
BRANCH   2   4
ATOM      4  C   UNL     1      14.080  -9.671  17.551  1.00  0.00     0.032 C 
BRANCH   4   5
ATOM      5  C   UNL     1      15.073  -9.791  18.716  1.00  0.00     0.034 C 
BRANCH   5   6
ATOM      6  C   UNL     1      14.664  -8.994  19.948  1.00  0.00    -0.077 C 
ATOM      7  C   UNL     1      13.556  -9.524  20.822  1.00  0.00     0.039 C 
ATOM      8  C   UNL     1      15.259  -7.835  20.315  1.00  0.00    -0.023 CG0
ATOM      9  G   UNL     1      16.333  -7.116  19.534  1.00  0.00     0.000 G0
ENDBRANCH   5   6
ENDBRANCH   4   5
ENDBRANCH   2   4
BRANCH   1  10
ATOM     10  C   UNL     1      15.007  -6.965  16.491  1.00  0.00     0.111 C 
BRANCH  10  11
ATOM     11  C   UNL     1      15.867  -5.992  17.246  1.00  0.00     0.163 C 
ATOM     12  O   UNL     1      16.613  -5.201  16.608  1.00  0.00    -0.294 OA
BRANCH  11  13
ATOM     13  C   UNL     1      15.839  -5.926  18.730  1.00  0.00    -0.002 C 
ATOM     14  C   UNL     1      15.369  -4.815  19.358  1.00  0.00    -0.069 C 
ATOM     15  C   UNL     1      15.380  -4.708  20.866  1.00  0.00     0.039 C 
ATOM     16  C   UNL     1      14.779  -3.664  18.575  1.00  0.00     0.039 C 
BRANCH  13  17
ATOM     17  C   UNL     1      16.342  -7.119  19.536  1.00  0.00     0.066 CG0
ATOM     18  G   UNL     1      15.259  -7.826  20.316  1.00  0.00     0.000 G0
ENDBRANCH  13  17
ENDBRANCH  11  13
ENDBRANCH  10  11
ENDBRANCH   1  10
TORSDOF 0
ENDMDL
