MODEL 1
REMARK VINA RESULT:    -2.858      0.000      0.000
REMARK INTER + INTRA:          -4.285
REMARK INTER:                  -3.860
REMARK INTRA:                  -0.425
REMARK UNBOUND:                -0.425
REMARK SMILES C=C1C(=O)O[C@H]2[C@H]1CCC(C)=CCC[C@@]1(C)O[C@@H]21
REMARK SMILES IDX 6 1 7 2 2 3 1 4 3 5 4 6 5 7 8 8 9 9 10 10 11 11 12 12 18 14
REMARK SMILES IDX 15 15 17 16 16 17 14 18 13 19
REMARK H PARENT
REMARK Flexibility Score: 70.00
ROOT
ATOM      1  C   UNL     1      75.412  87.766  90.843  1.00  0.00     0.216 C 
ATOM      2  C   UNL     1      74.185  88.393  91.611  1.00  0.00     0.070 C 
ATOM      3  C   UNL     1      74.794  89.544  92.358  1.00  0.00     0.037 C 
ATOM      4  C   UNL     1      74.132  90.432  93.100  1.00  0.00     0.021 C 
ATOM      5  C   UNL     1      76.198  89.584  92.057  1.00  0.00     0.334 C 
ATOM      6  O   UNL     1      77.022  90.425  92.504  1.00  0.00    -0.247 OA
ATOM      7  O   UNL     1      76.536  88.577  91.185  1.00  0.00    -0.455 OA
ENDROOT
BRANCH   2   8
ATOM      8  C   UNL     1      73.494  87.388  92.595  1.00  0.00     0.017 C 
BRANCH   8   9
ATOM      9  C   UNL     1      72.188  86.782  92.030  1.00  0.00     0.031 C 
BRANCH   9  10
ATOM     10  C   UNL     1      72.202  85.265  91.846  1.00  0.00    -0.077 C 
ATOM     11  C   UNL     1      71.892  84.402  93.047  1.00  0.00     0.039 C 
ATOM     12  C   UNL     1      72.386  84.622  90.662  1.00  0.00    -0.028 CG0
ATOM     13  G   UNL     1      72.858  85.222  89.358  1.00  0.00     0.000 G0
ENDBRANCH   9  10
ENDBRANCH   8   9
ENDBRANCH   2   8
BRANCH   1  14
ATOM     14  C   UNL     1      75.347  87.676  89.294  1.00  0.00     0.192 C 
ATOM     15  C   UNL     1      74.924  86.450  88.538  1.00  0.00     0.096 C 
ATOM     16  O   UNL     1      74.046  87.537  88.771  1.00  0.00    -0.362 OA
ATOM     17  C   UNL     1      75.330  86.376  87.064  1.00  0.00     0.045 C 
BRANCH  15  18
ATOM     18  C   UNL     1      74.380  85.156  89.177  1.00  0.00     0.042 C 
BRANCH  18  19
ATOM     19  C   UNL     1      72.860  85.203  89.350  1.00  0.00     0.030 CG0
ATOM     20  G   UNL     1      72.374  84.649  90.669  1.00  0.00     0.000 G0
ENDBRANCH  18  19
ENDBRANCH  15  18
ENDBRANCH   1  14
TORSDOF 0
ENDMDL
MODEL 2
REMARK VINA RESULT:    -2.437     10.157     12.791
REMARK INTER + INTRA:          -3.717
REMARK INTER:                  -3.309
REMARK INTRA:                  -0.408
REMARK UNBOUND:                -0.425
REMARK SMILES C=C1C(=O)O[C@H]2[C@H]1CCC(C)=CCC[C@@]1(C)O[C@@H]21
REMARK SMILES IDX 6 1 7 2 2 3 1 4 3 5 4 6 5 7 8 8 9 9 10 10 11 11 12 12 18 14
REMARK SMILES IDX 15 15 17 16 16 17 14 18 13 19
REMARK H PARENT
REMARK Flexibility Score: 70.00
ROOT
ATOM      1  C   UNL     1      75.235  91.218  79.650  1.00  0.00     0.216 C 
ATOM      2  C   UNL     1      75.687  89.958  80.485  1.00  0.00     0.070 C 
ATOM      3  C   UNL     1      74.453  89.593  81.258  1.00  0.00     0.037 C 
ATOM      4  C   UNL     1      74.317  88.535  82.059  1.00  0.00     0.021 C 
ATOM      5  C   UNL     1      73.413  90.521  80.912  1.00  0.00     0.334 C 
ATOM      6  O   UNL     1      72.239  90.512  81.366  1.00  0.00    -0.247 OA
ATOM      7  O   UNL     1      73.865  91.432  79.988  1.00  0.00    -0.455 OA
ENDROOT
BRANCH   2   8
ATOM      8  C   UNL     1      76.887  90.254  81.448  1.00  0.00     0.017 C 
BRANCH   8   9
ATOM      9  C   UNL     1      78.186  89.518  81.048  1.00  0.00     0.031 C 
BRANCH   9  10
ATOM     10  C   UNL     1      79.362  90.424  80.687  1.00  0.00    -0.077 C 
ATOM     11  C   UNL     1      80.315  90.824  81.789  1.00  0.00     0.039 C 
ATOM     12  C   UNL     1      79.676  90.835  79.429  1.00  0.00    -0.028 CG0
ATOM     13  G   UNL     1      78.825  90.711  78.186  1.00  0.00     0.000 G0
ENDBRANCH   9  10
ENDBRANCH   8   9
ENDBRANCH   2   8
BRANCH   1  14
ATOM     14  C   UNL     1      75.337  91.154  78.102  1.00  0.00     0.192 C 
ATOM     15  C   UNL     1      76.558  91.545  77.321  1.00  0.00     0.096 C 
ATOM     16  O   UNL     1      76.248  90.195  77.615  1.00  0.00    -0.362 OA
ATOM     17  C   UNL     1      76.358  91.845  75.834  1.00  0.00     0.045 C 
BRANCH  15  18
ATOM     18  C   UNL     1      77.916  91.944  77.935  1.00  0.00     0.042 C 
BRANCH  18  19
ATOM     19  C   UNL     1      78.814  90.726  78.168  1.00  0.00     0.030 CG0
ATOM     20  G   UNL     1      79.675  90.827  79.405  1.00  0.00     0.000 G0
ENDBRANCH  18  19
ENDBRANCH  15  18
ENDBRANCH   1  14
TORSDOF 0
ENDMDL
MODEL 3
REMARK VINA RESULT:    -2.355      3.104      5.304
REMARK INTER + INTRA:          -3.606
REMARK INTER:                  -3.344
REMARK INTRA:                  -0.262
REMARK UNBOUND:                -0.425
REMARK SMILES C=C1C(=O)O[C@H]2[C@H]1CCC(C)=CCC[C@@]1(C)O[C@@H]21
REMARK SMILES IDX 6 1 7 2 2 3 1 4 3 5 4 6 5 7 8 8 9 9 10 10 11 11 12 12 18 14
REMARK SMILES IDX 15 15 17 16 16 17 14 18 13 19
REMARK H PARENT
REMARK Flexibility Score: 70.00
ROOT
ATOM      1  C   UNL     1      75.472  87.589  90.093  1.00  0.00     0.216 C 
ATOM      2  C   UNL     1      74.971  87.582  91.588  1.00  0.00     0.070 C 
ATOM      3  C   UNL     1      73.487  87.396  91.457  1.00  0.00     0.037 C 
ATOM      4  C   UNL     1      72.626  87.252  92.465  1.00  0.00     0.021 C 
ATOM      5  C   UNL     1      73.167  87.302  90.061  1.00  0.00     0.334 C 
ATOM      6  O   UNL     1      72.014  87.136  89.580  1.00  0.00    -0.247 OA
ATOM      7  O   UNL     1      74.303  87.399  89.295  1.00  0.00    -0.455 OA
ENDROOT
BRANCH   2   8
ATOM      8  C   UNL     1      75.306  88.905  92.357  1.00  0.00     0.017 C 
BRANCH   8   9
ATOM      9  C   UNL     1      76.297  89.818  91.599  1.00  0.00     0.031 C 
BRANCH   9  10
ATOM     10  C   UNL     1      77.602  90.115  92.336  1.00  0.00    -0.077 C 
ATOM     11  C   UNL     1      77.734  91.447  93.038  1.00  0.00     0.039 C 
ATOM     12  C   UNL     1      78.632  89.240  92.488  1.00  0.00    -0.028 CG0
ATOM     13  G   UNL     1      78.826  87.922  91.775  1.00  0.00     0.000 G0
ENDBRANCH   9  10
ENDBRANCH   8   9
ENDBRANCH   2   8
BRANCH   1  14
ATOM     14  C   UNL     1      76.519  86.527  89.659  1.00  0.00     0.192 C 
ATOM     15  C   UNL     1      78.003  86.747  89.686  1.00  0.00     0.096 C 
ATOM     16  O   UNL     1      77.324  86.038  90.707  1.00  0.00    -0.362 OA
ATOM     17  C   UNL     1      78.855  85.804  88.833  1.00  0.00     0.045 C 
BRANCH  15  18
ATOM     18  C   UNL     1      78.706  87.996  90.257  1.00  0.00     0.042 C 
BRANCH  18  19
ATOM     19  C   UNL     1      78.860  87.916  91.778  1.00  0.00     0.030 CG0
ATOM     20  G   UNL     1      78.633  89.231  92.488  1.00  0.00     0.000 G0
ENDBRANCH  18  19
ENDBRANCH  15  18
ENDBRANCH   1  14
TORSDOF 0
ENDMDL
MODEL 4
REMARK VINA RESULT:    -2.324     15.339     17.042
REMARK INTER + INTRA:          -3.564
REMARK INTER:                  -3.138
REMARK INTRA:                  -0.426
REMARK UNBOUND:                -0.425
REMARK SMILES C=C1C(=O)O[C@H]2[C@H]1CCC(C)=CCC[C@@]1(C)O[C@@H]21
REMARK SMILES IDX 6 1 7 2 2 3 1 4 3 5 4 6 5 7 8 8 9 9 10 10 11 11 12 12 18 14
REMARK SMILES IDX 15 15 17 16 16 17 14 18 13 19
REMARK H PARENT
REMARK Flexibility Score: 70.00
ROOT
ATOM      1  C   UNL     1      90.460  85.730  88.423  1.00  0.00     0.216 C 
ATOM      2  C   UNL     1      90.909  86.518  89.713  1.00  0.00     0.070 C 
ATOM      3  C   UNL     1      90.968  85.453  90.769  1.00  0.00     0.037 C 
ATOM      4  C   UNL     1      91.376  85.622  92.028  1.00  0.00     0.021 C 
ATOM      5  C   UNL     1      90.603  84.201  90.167  1.00  0.00     0.334 C 
ATOM      6  O   UNL     1      90.550  83.090  90.757  1.00  0.00    -0.247 OA
ATOM      7  O   UNL     1      90.329  84.367  88.831  1.00  0.00    -0.455 OA
ENDROOT
BRANCH   2   8
ATOM      8  C   UNL     1      89.913  87.658  90.119  1.00  0.00     0.017 C 
BRANCH   8   9
ATOM      9  C   UNL     1      90.319  89.046  89.572  1.00  0.00     0.031 C 
BRANCH   9  10
ATOM     10  C   UNL     1      89.320  89.681  88.606  1.00  0.00    -0.077 C 
ATOM     11  C   UNL     1      88.101  90.358  89.188  1.00  0.00     0.039 C 
ATOM     12  C   UNL     1      89.480  89.766  87.258  1.00  0.00    -0.028 CG0
ATOM     13  G   UNL     1      90.511  89.055  86.413  1.00  0.00     0.000 G0
ENDBRANCH   9  10
ENDBRANCH   8   9
ENDBRANCH   2   8
BRANCH   1  14
ATOM     14  C   UNL     1      91.384  85.764  87.176  1.00  0.00     0.192 C 
ATOM     15  C   UNL     1      91.153  86.640  85.980  1.00  0.00     0.096 C 
ATOM     16  O   UNL     1      92.079  86.977  86.997  1.00  0.00    -0.362 OA
ATOM     17  C   UNL     1      91.872  86.245  84.688  1.00  0.00     0.045 C 
BRANCH  15  18
ATOM     18  C   UNL     1      90.050  87.712  85.863  1.00  0.00     0.042 C 
BRANCH  18  19
ATOM     19  C   UNL     1      90.516  89.067  86.400  1.00  0.00     0.030 CG0
ATOM     20  G   UNL     1      89.489  89.775  87.254  1.00  0.00     0.000 G0
ENDBRANCH  18  19
ENDBRANCH  15  18
ENDBRANCH   1  14
TORSDOF 0
ENDMDL
MODEL 5
REMARK VINA RESULT:    -2.316     12.305     14.989
REMARK INTER + INTRA:          -3.554
REMARK INTER:                  -3.119
REMARK INTRA:                  -0.435
REMARK UNBOUND:                -0.425
REMARK SMILES C=C1C(=O)O[C@H]2[C@H]1CCC(C)=CCC[C@@]1(C)O[C@@H]21
REMARK SMILES IDX 6 1 7 2 2 3 1 4 3 5 4 6 5 7 8 8 9 9 10 10 11 11 12 12 18 14
REMARK SMILES IDX 15 15 17 16 16 17 14 18 13 19
REMARK H PARENT
REMARK Flexibility Score: 70.00
ROOT
ATOM      1  C   UNL     1      76.000  88.969  77.950  1.00  0.00     0.216 C 
ATOM      2  C   UNL     1      76.637  90.361  77.571  1.00  0.00     0.070 C 
ATOM      3  C   UNL     1      76.973  90.965  78.903  1.00  0.00     0.037 C 
ATOM      4  C   UNL     1      77.606  92.122  79.100  1.00  0.00     0.021 C 
ATOM      5  C   UNL     1      76.584  90.038  79.929  1.00  0.00     0.334 C 
ATOM      6  O   UNL     1      76.723  90.212  81.169  1.00  0.00    -0.247 OA
ATOM      7  O   UNL     1      76.045  88.901  79.376  1.00  0.00    -0.455 OA
ENDROOT
BRANCH   2   8
ATOM      8  C   UNL     1      75.663  91.286  76.764  1.00  0.00     0.017 C 
BRANCH   8   9
ATOM      9  C   UNL     1      76.033  91.403  75.267  1.00  0.00     0.031 C 
BRANCH   9  10
ATOM     10  C   UNL     1      74.973  90.889  74.294  1.00  0.00    -0.077 C 
ATOM     11  C   UNL     1      73.897  91.849  73.844  1.00  0.00     0.039 C 
ATOM     12  C   UNL     1      74.967  89.654  73.725  1.00  0.00    -0.028 CG0
ATOM     13  G   UNL     1      75.820  88.466  74.106  1.00  0.00     0.000 G0
ENDBRANCH   9  10
ENDBRANCH   8   9
ENDBRANCH   2   8
BRANCH   1  14
ATOM     14  C   UNL     1      76.660  87.678  77.395  1.00  0.00     0.192 C 
ATOM     15  C   UNL     1      76.237  86.995  76.126  1.00  0.00     0.096 C 
ATOM     16  O   UNL     1      77.361  87.854  76.185  1.00  0.00    -0.362 OA
ATOM     17  C   UNL     1      76.667  85.536  75.954  1.00  0.00     0.045 C 
BRANCH  15  18
ATOM     18  C   UNL     1      75.184  87.532  75.136  1.00  0.00     0.042 C 
BRANCH  18  19
ATOM     19  C   UNL     1      75.813  88.443  74.077  1.00  0.00     0.030 CG0
ATOM     20  G   UNL     1      74.969  89.646  73.723  1.00  0.00     0.000 G0
ENDBRANCH  18  19
ENDBRANCH  15  18
ENDBRANCH   1  14
TORSDOF 0
ENDMDL
MODEL 6
REMARK VINA RESULT:    -2.293      9.126     11.521
REMARK INTER + INTRA:          -3.522
REMARK INTER:                  -3.097
REMARK INTRA:                  -0.425
REMARK UNBOUND:                -0.425
REMARK SMILES C=C1C(=O)O[C@H]2[C@H]1CCC(C)=CCC[C@@]1(C)O[C@@H]21
REMARK SMILES IDX 6 1 7 2 2 3 1 4 3 5 4 6 5 7 8 8 9 9 10 10 11 11 12 12 18 14
REMARK SMILES IDX 15 15 17 16 16 17 14 18 13 19
REMARK H PARENT
REMARK Flexibility Score: 70.00
ROOT
ATOM      1  C   UNL     1      75.899  88.667  81.804  1.00  0.00     0.216 C 
ATOM      2  C   UNL     1      74.738  89.715  81.596  1.00  0.00     0.070 C 
ATOM      3  C   UNL     1      73.564  89.072  82.277  1.00  0.00     0.037 C 
ATOM      4  C   UNL     1      72.357  89.617  82.433  1.00  0.00     0.021 C 
ATOM      5  C   UNL     1      73.991  87.812  82.817  1.00  0.00     0.334 C 
ATOM      6  O   UNL     1      73.268  87.005  83.460  1.00  0.00    -0.247 OA
ATOM      7  O   UNL     1      75.322  87.598  82.554  1.00  0.00    -0.455 OA
ENDROOT
BRANCH   2   8
ATOM      8  C   UNL     1      74.427  89.999  80.087  1.00  0.00     0.017 C 
BRANCH   8   9
ATOM      9  C   UNL     1      75.092  91.291  79.560  1.00  0.00     0.031 C 
BRANCH   9  10
ATOM     10  C   UNL     1      76.101  91.088  78.431  1.00  0.00    -0.077 C 
ATOM     11  C   UNL     1      75.572  90.939  77.023  1.00  0.00     0.039 C 
ATOM     12  C   UNL     1      77.453  91.117  78.575  1.00  0.00    -0.028 CG0
ATOM     13  G   UNL     1      78.237  91.098  79.867  1.00  0.00     0.000 G0
ENDBRANCH   9  10
ENDBRANCH   8   9
ENDBRANCH   2   8
BRANCH   1  14
ATOM     14  C   UNL     1      77.185  89.125  82.545  1.00  0.00     0.192 C 
ATOM     15  C   UNL     1      78.452  89.540  81.856  1.00  0.00     0.096 C 
ATOM     16  O   UNL     1      77.518  90.481  82.353  1.00  0.00    -0.362 OA
ATOM     17  C   UNL     1      79.729  89.532  82.699  1.00  0.00     0.045 C 
BRANCH  15  18
ATOM     18  C   UNL     1      78.626  89.690  80.331  1.00  0.00     0.042 C 
BRANCH  18  19
ATOM     19  C   UNL     1      78.253  91.095  79.852  1.00  0.00     0.030 CG0
ATOM     20  G   UNL     1      77.450  91.114  78.572  1.00  0.00     0.000 G0
ENDBRANCH  18  19
ENDBRANCH  15  18
ENDBRANCH   1  14
TORSDOF 0
ENDMDL
MODEL 7
REMARK VINA RESULT:    -2.284     16.036     17.094
REMARK INTER + INTRA:          -3.509
REMARK INTER:                  -3.073
REMARK INTRA:                  -0.436
REMARK UNBOUND:                -0.425
REMARK SMILES C=C1C(=O)O[C@H]2[C@H]1CCC(C)=CCC[C@@]1(C)O[C@@H]21
REMARK SMILES IDX 6 1 7 2 2 3 1 4 3 5 4 6 5 7 8 8 9 9 10 10 11 11 12 12 18 14
REMARK SMILES IDX 15 15 17 16 16 17 14 18 13 19
REMARK H PARENT
REMARK Flexibility Score: 70.00
ROOT
ATOM      1  C   UNL     1      77.537  88.939  75.079  1.00  0.00     0.216 C 
ATOM      2  C   UNL     1      76.250  89.140  74.188  1.00  0.00     0.070 C 
ATOM      3  C   UNL     1      75.661  90.417  74.713  1.00  0.00     0.037 C 
ATOM      4  C   UNL     1      74.592  91.044  74.221  1.00  0.00     0.021 C 
ATOM      5  C   UNL     1      76.502  90.900  75.771  1.00  0.00     0.334 C 
ATOM      6  O   UNL     1      76.316  91.954  76.436  1.00  0.00    -0.247 OA
ATOM      7  O   UNL     1      77.572  90.060  75.962  1.00  0.00    -0.455 OA
ENDROOT
BRANCH   2   8
ATOM      8  C   UNL     1      75.227  87.959  74.306  1.00  0.00     0.017 C 
BRANCH   8   9
ATOM      9  C   UNL     1      75.321  86.952  73.136  1.00  0.00     0.031 C 
BRANCH   9  10
ATOM     10  C   UNL     1      75.708  85.528  73.534  1.00  0.00    -0.077 C 
ATOM     11  C   UNL     1      74.622  84.619  74.061  1.00  0.00     0.039 C 
ATOM     12  C   UNL     1      76.940  84.977  73.372  1.00  0.00    -0.028 CG0
ATOM     13  G   UNL     1      78.223  85.693  73.018  1.00  0.00     0.000 G0
ENDBRANCH   9  10
ENDBRANCH   8   9
ENDBRANCH   2   8
BRANCH   1  14
ATOM     14  C   UNL     1      78.918  88.849  74.373  1.00  0.00     0.192 C 
ATOM     15  C   UNL     1      79.617  87.560  74.053  1.00  0.00     0.096 C 
ATOM     16  O   UNL     1      78.878  88.281  73.084  1.00  0.00    -0.362 OA
ATOM     17  C   UNL     1      81.120  87.642  73.776  1.00  0.00     0.045 C 
BRANCH  15  18
ATOM     18  C   UNL     1      79.024  86.151  74.261  1.00  0.00     0.042 C 
BRANCH  18  19
ATOM     19  C   UNL     1      78.241  85.678  73.033  1.00  0.00     0.030 CG0
ATOM     20  G   UNL     1      76.936  84.992  73.364  1.00  0.00     0.000 G0
ENDBRANCH  18  19
ENDBRANCH  15  18
ENDBRANCH   1  14
TORSDOF 0
ENDMDL
MODEL 8
REMARK VINA RESULT:    -2.254      2.884      5.045
REMARK INTER + INTRA:          -3.469
REMARK INTER:                  -3.040
REMARK INTRA:                  -0.429
REMARK UNBOUND:                -0.425
REMARK SMILES C=C1C(=O)O[C@H]2[C@H]1CCC(C)=CCC[C@@]1(C)O[C@@H]21
REMARK SMILES IDX 6 1 7 2 2 3 1 4 3 5 4 6 5 7 8 8 9 9 10 10 11 11 12 12 18 14
REMARK SMILES IDX 15 15 17 16 16 17 14 18 13 19
REMARK H PARENT
REMARK Flexibility Score: 70.00
ROOT
ATOM      1  C   UNL     1      75.819  87.033  88.950  1.00  0.00     0.216 C 
ATOM      2  C   UNL     1      74.404  86.707  89.566  1.00  0.00     0.070 C 
ATOM      3  C   UNL     1      73.542  86.479  88.358  1.00  0.00     0.037 C 
ATOM      4  C   UNL     1      72.265  86.097  88.369  1.00  0.00     0.021 C 
ATOM      5  C   UNL     1      74.357  86.645  87.186  1.00  0.00     0.334 C 
ATOM      6  O   UNL     1      73.966  86.521  85.995  1.00  0.00    -0.247 OA
ATOM      7  O   UNL     1      75.651  86.947  87.534  1.00  0.00    -0.455 OA
ENDROOT
BRANCH   2   8
ATOM      8  C   UNL     1      73.833  87.868  90.451  1.00  0.00     0.017 C 
BRANCH   8   9
ATOM      9  C   UNL     1      74.232  87.752  91.940  1.00  0.00     0.031 C 
BRANCH   9  10
ATOM     10  C   UNL     1      75.094  88.895  92.473  1.00  0.00    -0.077 C 
ATOM     11  C   UNL     1      74.418  90.211  92.780  1.00  0.00     0.039 C 
ATOM     12  C   UNL     1      76.416  88.801  92.779  1.00  0.00    -0.028 CG0
ATOM     13  G   UNL     1      77.357  87.670  92.434  1.00  0.00     0.000 G0
ENDBRANCH   9  10
ENDBRANCH   8   9
ENDBRANCH   2   8
BRANCH   1  14
ATOM     14  C   UNL     1      77.020  86.130  89.340  1.00  0.00     0.192 C 
ATOM     15  C   UNL     1      78.099  86.533  90.302  1.00  0.00     0.096 C 
ATOM     16  O   UNL     1      77.017  85.701  90.682  1.00  0.00    -0.362 OA
ATOM     17  C   UNL     1      79.408  85.741  90.240  1.00  0.00     0.045 C 
BRANCH  15  18
ATOM     18  C   UNL     1      78.111  87.834  91.131  1.00  0.00     0.042 C 
BRANCH  18  19
ATOM     19  C   UNL     1      77.374  87.666  92.462  1.00  0.00     0.030 CG0
ATOM     20  G   UNL     1      76.428  88.800  92.786  1.00  0.00     0.000 G0
ENDBRANCH  18  19
ENDBRANCH  15  18
ENDBRANCH   1  14
TORSDOF 0
ENDMDL
MODEL 9
REMARK VINA RESULT:    -2.225     21.644     23.086
REMARK INTER + INTRA:          -3.430
REMARK INTER:                  -3.013
REMARK INTRA:                  -0.417
REMARK UNBOUND:                -0.425
REMARK SMILES C=C1C(=O)O[C@H]2[C@H]1CCC(C)=CCC[C@@]1(C)O[C@@H]21
REMARK SMILES IDX 6 1 7 2 2 3 1 4 3 5 4 6 5 7 8 8 9 9 10 10 11 11 12 12 18 14
REMARK SMILES IDX 15 15 17 16 16 17 14 18 13 19
REMARK H PARENT
REMARK Flexibility Score: 70.00
ROOT
ATOM      1  C   UNL     1      89.290  76.621  77.424  1.00  0.00     0.216 C 
ATOM      2  C   UNL     1      89.207  75.260  76.630  1.00  0.00     0.070 C 
ATOM      3  C   UNL     1      88.787  75.687  75.253  1.00  0.00     0.037 C 
ATOM      4  C   UNL     1      88.654  74.887  74.194  1.00  0.00     0.021 C 
ATOM      5  C   UNL     1      88.649  77.116  75.247  1.00  0.00     0.334 C 
ATOM      6  O   UNL     1      88.315  77.818  74.256  1.00  0.00    -0.247 OA
ATOM      7  O   UNL     1      88.950  77.638  76.482  1.00  0.00    -0.455 OA
ENDROOT
BRANCH   2   8
ATOM      8  C   UNL     1      88.179  74.249  77.243  1.00  0.00     0.017 C 
BRANCH   8   9
ATOM      9  C   UNL     1      88.711  73.525  78.501  1.00  0.00     0.031 C 
BRANCH   9  10
ATOM     10  C   UNL     1      87.992  73.871  79.804  1.00  0.00    -0.077 C 
ATOM     11  C   UNL     1      86.558  73.422  79.965  1.00  0.00     0.039 C 
ATOM     12  C   UNL     1      88.565  74.480  80.876  1.00  0.00    -0.028 CG0
ATOM     13  G   UNL     1      89.914  75.160  80.930  1.00  0.00     0.000 G0
ENDBRANCH   9  10
ENDBRANCH   8   9
ENDBRANCH   2   8
BRANCH   1  14
ATOM     14  C   UNL     1      90.643  77.014  78.077  1.00  0.00     0.192 C 
ATOM     15  C   UNL     1      90.873  77.090  79.559  1.00  0.00     0.096 C 
ATOM     16  O   UNL     1      91.274  75.972  78.787  1.00  0.00    -0.362 OA
ATOM     17  C   UNL     1      92.084  77.900  80.027  1.00  0.00     0.045 C 
BRANCH  15  18
ATOM     18  C   UNL     1      89.852  76.675  80.639  1.00  0.00     0.042 C 
BRANCH  18  19
ATOM     19  C   UNL     1      89.917  75.174  80.934  1.00  0.00     0.030 CG0
ATOM     20  G   UNL     1      88.577  74.478  80.867  1.00  0.00     0.000 G0
ENDBRANCH  18  19
ENDBRANCH  15  18
ENDBRANCH   1  14
TORSDOF 0
ENDMDL
