MODEL 1
REMARK VINA RESULT:    -4.105      0.000      0.000
REMARK INTER + INTRA:          -6.885
REMARK INTER:                  -6.025
REMARK INTRA:                  -0.860
REMARK UNBOUND:                -0.860
REMARK SMILES O=C([O-])CCCCCCCC(=O)[O-]
REMARK SMILES IDX 7 1 6 2 5 3 4 4 2 5 1 6 3 7 8 8 9 9 10 10 11 11 12 12 13 13
REMARK H PARENT
REMARK Flexibility Score: inf
ROOT
ATOM      1  C   UNL     1      11.387   0.651   3.560  1.00  0.00     0.000 C 
ENDROOT
BRANCH   1   2
ATOM      2  C   UNL     1      10.629  -0.005   2.395  1.00  0.00     0.000 C 
BRANCH   2   3
ATOM      3  C   UNL     1      11.028   0.573   1.028  1.00  0.00     0.006 C 
BRANCH   3   4
ATOM      4  C   UNL     1      11.622  -0.515   0.128  1.00  0.00     0.053 C 
BRANCH   4   5
ATOM      5  C   UNL     1      13.099  -0.328  -0.018  1.00  0.00     0.041 C 
ATOM      6  O   UNL     1      13.770   0.178   0.921  1.00  0.00    -0.550 OA
ATOM      7  O   UNL     1      13.744  -0.759  -1.170  1.00  0.00    -0.550 OA
ENDBRANCH   4   5
ENDBRANCH   3   4
ENDBRANCH   2   3
ENDBRANCH   1   2
BRANCH   1   8
ATOM      8  C   UNL     1      12.441  -0.284   4.180  1.00  0.00     0.000 C 
BRANCH   8   9
ATOM      9  C   UNL     1      12.390  -1.703   3.589  1.00  0.00     0.006 C 
BRANCH   9  10
ATOM     10  C   UNL     1      13.762  -2.390   3.580  1.00  0.00     0.053 C 
BRANCH  10  11
ATOM     11  C   UNL     1      14.028  -3.005   2.243  1.00  0.00     0.041 C 
ATOM     12  O   UNL     1      13.095  -3.558   1.602  1.00  0.00    -0.550 OA
ATOM     13  O   UNL     1      15.295  -2.923   1.679  1.00  0.00    -0.550 OA
ENDBRANCH  10  11
ENDBRANCH   9  10
ENDBRANCH   8   9
ENDBRANCH   1   8
TORSDOF 8
ENDMDL
MODEL 2
REMARK VINA RESULT:    -4.103      0.849      3.580
REMARK INTER + INTRA:          -6.881
REMARK INTER:                  -6.061
REMARK INTRA:                  -0.820
REMARK UNBOUND:                -0.860
REMARK SMILES O=C([O-])CCCCCCCC(=O)[O-]
REMARK SMILES IDX 7 1 6 2 5 3 4 4 2 5 1 6 3 7 8 8 9 9 10 10 11 11 12 12 13 13
REMARK H PARENT
REMARK Flexibility Score: inf
ROOT
ATOM      1  C   UNL     1      10.604  -0.091   3.149  1.00  0.00     0.000 C 
ENDROOT
BRANCH   1   2
ATOM      2  C   UNL     1      11.982   0.393   3.628  1.00  0.00     0.000 C 
BRANCH   2   3
ATOM      3  C   UNL     1      12.877  -0.756   4.119  1.00  0.00     0.006 C 
BRANCH   3   4
ATOM      4  C   UNL     1      12.528  -2.064   3.402  1.00  0.00     0.053 C 
BRANCH   4   5
ATOM      5  C   UNL     1      13.773  -2.782   2.985  1.00  0.00     0.041 C 
ATOM      6  O   UNL     1      14.803  -2.738   3.708  1.00  0.00    -0.550 OA
ATOM      7  O   UNL     1      13.780  -3.543   1.823  1.00  0.00    -0.550 OA
ENDBRANCH   4   5
ENDBRANCH   3   4
ENDBRANCH   2   3
ENDBRANCH   1   2
BRANCH   1   8
ATOM      8  C   UNL     1      10.335   0.258   1.674  1.00  0.00     0.000 C 
BRANCH   8   9
ATOM      9  C   UNL     1      11.620   0.620   0.910  1.00  0.00     0.006 C 
BRANCH   9  10
ATOM     10  C   UNL     1      12.132  -0.529   0.033  1.00  0.00     0.053 C 
BRANCH  10  11
ATOM     11  C   UNL     1      13.609  -0.410  -0.171  1.00  0.00     0.041 C 
ATOM     12  O   UNL     1      14.102  -0.528  -1.324  1.00  0.00    -0.550 OA
ATOM     13  O   UNL     1      14.439  -0.118   0.904  1.00  0.00    -0.550 OA
ENDBRANCH  10  11
ENDBRANCH   9  10
ENDBRANCH   8   9
ENDBRANCH   1   8
TORSDOF 8
ENDMDL
MODEL 3
REMARK VINA RESULT:    -3.947      1.546      1.893
REMARK INTER + INTRA:          -6.652
REMARK INTER:                  -5.837
REMARK INTRA:                  -0.815
REMARK UNBOUND:                -0.860
REMARK SMILES O=C([O-])CCCCCCCC(=O)[O-]
REMARK SMILES IDX 7 1 6 2 5 3 4 4 2 5 1 6 3 7 8 8 9 9 10 10 11 11 12 12 13 13
REMARK H PARENT
REMARK Flexibility Score: inf
ROOT
ATOM      1  C   UNL     1      12.026   0.484   3.697  1.00  0.00     0.000 C 
ENDROOT
BRANCH   1   2
ATOM      2  C   UNL     1      10.540   0.640   3.336  1.00  0.00     0.000 C 
BRANCH   2   3
ATOM      3  C   UNL     1      10.207   0.085   1.942  1.00  0.00     0.006 C 
BRANCH   3   4
ATOM      4  C   UNL     1      11.216   0.580   0.902  1.00  0.00     0.053 C 
BRANCH   4   5
ATOM      5  C   UNL     1      11.821  -0.573   0.166  1.00  0.00     0.041 C 
ATOM      6  O   UNL     1      12.837  -0.402  -0.558  1.00  0.00    -0.550 OA
ATOM      7  O   UNL     1      11.295  -1.850   0.321  1.00  0.00    -0.550 OA
ENDBRANCH   4   5
ENDBRANCH   3   4
ENDBRANCH   2   3
ENDBRANCH   1   2
BRANCH   1   8
ATOM      8  C   UNL     1      12.366  -0.929   4.203  1.00  0.00     0.000 C 
BRANCH   8   9
ATOM      9  C   UNL     1      13.638  -1.498   3.552  1.00  0.00     0.006 C 
BRANCH   9  10
ATOM     10  C   UNL     1      14.398  -0.454   2.723  1.00  0.00     0.053 C 
BRANCH  10  11
ATOM     11  C   UNL     1      15.445  -1.116   1.885  1.00  0.00     0.041 C 
ATOM     12  O   UNL     1      15.147  -2.102   1.160  1.00  0.00    -0.550 OA
ATOM     13  O   UNL     1      16.740  -0.613   1.863  1.00  0.00    -0.550 OA
ENDBRANCH  10  11
ENDBRANCH   9  10
ENDBRANCH   8   9
ENDBRANCH   1   8
TORSDOF 8
ENDMDL
MODEL 4
REMARK VINA RESULT:    -3.933      1.926      2.897
REMARK INTER + INTRA:          -6.633
REMARK INTER:                  -5.907
REMARK INTRA:                  -0.726
REMARK UNBOUND:                -0.860
REMARK SMILES O=C([O-])CCCCCCCC(=O)[O-]
REMARK SMILES IDX 7 1 6 2 5 3 4 4 2 5 1 6 3 7 8 8 9 9 10 10 11 11 12 12 13 13
REMARK H PARENT
REMARK Flexibility Score: inf
ROOT
ATOM      1  C   UNL     1      11.425   0.578   0.849  1.00  0.00     0.000 C 
ENDROOT
BRANCH   1   2
ATOM      2  C   UNL     1      11.585  -0.752   0.094  1.00  0.00     0.000 C 
BRANCH   2   3
ATOM      3  C   UNL     1      13.029  -1.275   0.115  1.00  0.00     0.006 C 
BRANCH   3   4
ATOM      4  C   UNL     1      14.008  -0.162   0.501  1.00  0.00     0.053 C 
BRANCH   4   5
ATOM      5  C   UNL     1      15.164  -0.128  -0.447  1.00  0.00     0.041 C 
ATOM      6  O   UNL     1      16.317   0.166  -0.033  1.00  0.00    -0.550 OA
ATOM      7  O   UNL     1      14.980  -0.470  -1.781  1.00  0.00    -0.550 OA
ENDBRANCH   4   5
ENDBRANCH   3   4
ENDBRANCH   2   3
ENDBRANCH   1   2
BRANCH   1   8
ATOM      8  C   UNL     1      10.175   0.600   1.748  1.00  0.00     0.000 C 
BRANCH   8   9
ATOM      9  C   UNL     1      10.429  -0.035   3.125  1.00  0.00     0.006 C 
BRANCH   9  10
ATOM     10  C   UNL     1      11.672   0.536   3.821  1.00  0.00     0.053 C 
BRANCH  10  11
ATOM     11  C   UNL     1      12.720  -0.522   3.962  1.00  0.00     0.041 C 
ATOM     12  O   UNL     1      12.438  -1.729   3.739  1.00  0.00    -0.550 OA
ATOM     13  O   UNL     1      14.024  -0.169   4.290  1.00  0.00    -0.550 OA
ENDBRANCH  10  11
ENDBRANCH   9  10
ENDBRANCH   8   9
ENDBRANCH   1   8
TORSDOF 8
ENDMDL
MODEL 5
REMARK VINA RESULT:    -3.925      1.424      3.462
REMARK INTER + INTRA:          -6.621
REMARK INTER:                  -5.801
REMARK INTRA:                  -0.820
REMARK UNBOUND:                -0.860
REMARK SMILES O=C([O-])CCCCCCCC(=O)[O-]
REMARK SMILES IDX 7 1 6 2 5 3 4 4 2 5 1 6 3 7 8 8 9 9 10 10 11 11 12 12 13 13
REMARK H PARENT
REMARK Flexibility Score: inf
ROOT
ATOM      1  C   UNL     1      12.072   0.452   3.662  1.00  0.00     0.000 C 
ENDROOT
BRANCH   1   2
ATOM      2  C   UNL     1      12.408  -0.940   4.221  1.00  0.00     0.000 C 
BRANCH   2   3
ATOM      3  C   UNL     1      13.856  -1.362   3.927  1.00  0.00     0.006 C 
BRANCH   3   4
ATOM      4  C   UNL     1      14.456  -0.512   2.803  1.00  0.00     0.053 C 
BRANCH   4   5
ATOM      5  C   UNL     1      15.095  -1.385   1.769  1.00  0.00     0.041 C 
ATOM      6  O   UNL     1      14.746  -2.589   1.652  1.00  0.00    -0.550 OA
ATOM      7  O   UNL     1      16.040  -0.855   0.899  1.00  0.00    -0.550 OA
ENDBRANCH   4   5
ENDBRANCH   3   4
ENDBRANCH   2   3
ENDBRANCH   1   2
BRANCH   1   8
ATOM      8  C   UNL     1      10.575   0.613   3.341  1.00  0.00     0.000 C 
BRANCH   8   9
ATOM      9  C   UNL     1      10.221   0.138   1.922  1.00  0.00     0.006 C 
BRANCH   9  10
ATOM     10  C   UNL     1      11.266   0.558   0.879  1.00  0.00     0.053 C 
BRANCH  10  11
ATOM     11  C   UNL     1      11.815  -0.644   0.178  1.00  0.00     0.041 C 
ATOM     12  O   UNL     1      12.766  -0.523  -0.638  1.00  0.00    -0.550 OA
ATOM     13  O   UNL     1      11.309  -1.906   0.463  1.00  0.00    -0.550 OA
ENDBRANCH  10  11
ENDBRANCH   9  10
ENDBRANCH   8   9
ENDBRANCH   1   8
TORSDOF 8
ENDMDL
MODEL 6
REMARK VINA RESULT:    -3.901      1.602      2.534
REMARK INTER + INTRA:          -6.586
REMARK INTER:                  -5.740
REMARK INTRA:                  -0.846
REMARK UNBOUND:                -0.860
REMARK SMILES O=C([O-])CCCCCCCC(=O)[O-]
REMARK SMILES IDX 7 1 6 2 5 3 4 4 2 5 1 6 3 7 8 8 9 9 10 10 11 11 12 12 13 13
REMARK H PARENT
REMARK Flexibility Score: inf
ROOT
ATOM      1  C   UNL     1      10.611  -0.255   2.311  1.00  0.00     0.000 C 
ENDROOT
BRANCH   1   2
ATOM      2  C   UNL     1      10.925   0.408   0.960  1.00  0.00     0.000 C 
BRANCH   2   3
ATOM      3  C   UNL     1      11.936  -0.395   0.127  1.00  0.00     0.006 C 
BRANCH   3   4
ATOM      4  C   UNL     1      13.365  -0.160   0.626  1.00  0.00     0.053 C 
BRANCH   4   5
ATOM      5  C   UNL     1      14.073  -1.462   0.824  1.00  0.00     0.041 C 
ATOM      6  O   UNL     1      13.430  -2.488   1.171  1.00  0.00    -0.550 OA
ATOM      7  O   UNL     1      15.437  -1.556   0.575  1.00  0.00    -0.550 OA
ENDBRANCH   4   5
ENDBRANCH   3   4
ENDBRANCH   2   3
ENDBRANCH   1   2
BRANCH   1   8
ATOM      8  C   UNL     1      10.710   0.731   3.489  1.00  0.00     0.000 C 
BRANCH   8   9
ATOM      9  C   UNL     1      12.005   0.552   4.300  1.00  0.00     0.006 C 
BRANCH   9  10
ATOM     10  C   UNL     1      12.540  -0.886   4.253  1.00  0.00     0.053 C 
BRANCH  10  11
ATOM     11  C   UNL     1      14.035  -0.886   4.295  1.00  0.00     0.041 C 
ATOM     12  O   UNL     1      14.672   0.198   4.230  1.00  0.00    -0.550 OA
ATOM     13  O   UNL     1      14.726  -2.081   4.457  1.00  0.00    -0.550 OA
ENDBRANCH  10  11
ENDBRANCH   9  10
ENDBRANCH   8   9
ENDBRANCH   1   8
TORSDOF 8
ENDMDL
MODEL 7
REMARK VINA RESULT:    -3.894      2.329      3.562
REMARK INTER + INTRA:          -6.575
REMARK INTER:                  -5.978
REMARK INTRA:                  -0.597
REMARK UNBOUND:                -0.860
REMARK SMILES O=C([O-])CCCCCCCC(=O)[O-]
REMARK SMILES IDX 7 1 6 2 5 3 4 4 2 5 1 6 3 7 8 8 9 9 10 10 11 11 12 12 13 13
REMARK H PARENT
REMARK Flexibility Score: inf
ROOT
ATOM      1  C   UNL     1      13.969  -0.126   3.909  1.00  0.00     0.000 C 
ENDROOT
BRANCH   1   2
ATOM      2  C   UNL     1      14.734   0.015   2.583  1.00  0.00     0.000 C 
BRANCH   2   3
ATOM      3  C   UNL     1      14.289  -1.013   1.531  1.00  0.00     0.006 C 
BRANCH   3   4
ATOM      4  C   UNL     1      14.019  -0.335   0.184  1.00  0.00     0.053 C 
BRANCH   4   5
ATOM      5  C   UNL     1      15.126  -0.622  -0.780  1.00  0.00     0.041 C 
ATOM      6  O   UNL     1      16.202  -1.137  -0.376  1.00  0.00    -0.550 OA
ATOM      7  O   UNL     1      14.951  -0.368  -2.135  1.00  0.00    -0.550 OA
ENDBRANCH   4   5
ENDBRANCH   3   4
ENDBRANCH   2   3
ENDBRANCH   1   2
BRANCH   1   8
ATOM      8  C   UNL     1      12.575  -0.750   3.724  1.00  0.00     0.000 C 
BRANCH   8   9
ATOM      9  C   UNL     1      11.470   0.309   3.571  1.00  0.00     0.006 C 
BRANCH   9  10
ATOM     10  C   UNL     1      10.811   0.282   2.186  1.00  0.00     0.053 C 
BRANCH  10  11
ATOM     11  C   UNL     1       9.894  -0.894   2.069  1.00  0.00     0.041 C 
ATOM     12  O   UNL     1      10.271  -1.935   1.469  1.00  0.00    -0.550 OA
ATOM     13  O   UNL     1       8.640  -0.862   2.667  1.00  0.00    -0.550 OA
ENDBRANCH  10  11
ENDBRANCH   9  10
ENDBRANCH   8   9
ENDBRANCH   1   8
TORSDOF 8
ENDMDL
MODEL 8
REMARK VINA RESULT:    -3.880      1.929      3.417
REMARK INTER + INTRA:          -6.555
REMARK INTER:                  -5.704
REMARK INTRA:                  -0.851
REMARK UNBOUND:                -0.860
REMARK SMILES O=C([O-])CCCCCCCC(=O)[O-]
REMARK SMILES IDX 7 1 6 2 5 3 4 4 2 5 1 6 3 7 8 8 9 9 10 10 11 11 12 12 13 13
REMARK H PARENT
REMARK Flexibility Score: inf
ROOT
ATOM      1  C   UNL     1      13.756  -1.187   3.781  1.00  0.00     0.000 C 
ENDROOT
BRANCH   1   2
ATOM      2  C   UNL     1      12.344  -0.815   4.262  1.00  0.00     0.000 C 
BRANCH   2   3
ATOM      3  C   UNL     1      11.847   0.513   3.670  1.00  0.00     0.006 C 
BRANCH   3   4
ATOM      4  C   UNL     1      11.315   0.312   2.247  1.00  0.00     0.053 C 
BRANCH   4   5
ATOM      5  C   UNL     1      10.270  -0.759   2.224  1.00  0.00     0.041 C 
ATOM      6  O   UNL     1       9.144  -0.557   2.750  1.00  0.00    -0.550 OA
ATOM      7  O   UNL     1      10.522  -1.962   1.577  1.00  0.00    -0.550 OA
ENDBRANCH   4   5
ENDBRANCH   3   4
ENDBRANCH   2   3
ENDBRANCH   1   2
BRANCH   1   8
ATOM      8  C   UNL     1      13.787  -2.524   3.019  1.00  0.00     0.000 C 
BRANCH   8   9
ATOM      9  C   UNL     1      14.233  -2.360   1.557  1.00  0.00     0.006 C 
BRANCH   9  10
ATOM     10  C   UNL     1      14.650  -0.921   1.222  1.00  0.00     0.053 C 
BRANCH  10  11
ATOM     11  C   UNL     1      14.289  -0.590  -0.191  1.00  0.00     0.041 C 
ATOM     12  O   UNL     1      13.123  -0.806  -0.615  1.00  0.00    -0.550 OA
ATOM     13  O   UNL     1      15.225   0.005  -1.027  1.00  0.00    -0.550 OA
ENDBRANCH  10  11
ENDBRANCH   9  10
ENDBRANCH   8   9
ENDBRANCH   1   8
TORSDOF 8
ENDMDL
MODEL 9
REMARK VINA RESULT:    -3.845      2.041      3.609
REMARK INTER + INTRA:          -6.503
REMARK INTER:                  -5.778
REMARK INTRA:                  -0.725
REMARK UNBOUND:                -0.860
REMARK SMILES O=C([O-])CCCCCCCC(=O)[O-]
REMARK SMILES IDX 7 1 6 2 5 3 4 4 2 5 1 6 3 7 8 8 9 9 10 10 11 11 12 12 13 13
REMARK H PARENT
REMARK Flexibility Score: inf
ROOT
ATOM      1  C   UNL     1      13.686  -1.295   3.852  1.00  0.00     0.000 C 
ENDROOT
BRANCH   1   2
ATOM      2  C   UNL     1      13.355  -2.590   3.093  1.00  0.00     0.000 C 
BRANCH   2   3
ATOM      3  C   UNL     1      13.888  -2.585   1.652  1.00  0.00     0.006 C 
BRANCH   3   4
ATOM      4  C   UNL     1      14.726  -1.331   1.383  1.00  0.00     0.053 C 
BRANCH   4   5
ATOM      5  C   UNL     1      14.377  -0.741   0.054  1.00  0.00     0.041 C 
ATOM      6  O   UNL     1      13.267  -0.170  -0.115  1.00  0.00    -0.550 OA
ATOM      7  O   UNL     1      15.298  -0.776  -0.985  1.00  0.00    -0.550 OA
ENDBRANCH   4   5
ENDBRANCH   3   4
ENDBRANCH   2   3
ENDBRANCH   1   2
BRANCH   1   8
ATOM      8  C   UNL     1      12.427  -0.506   4.253  1.00  0.00     0.000 C 
BRANCH   8   9
ATOM      9  C   UNL     1      11.832   0.290   3.079  1.00  0.00     0.006 C 
BRANCH   9  10
ATOM     10  C   UNL     1      10.298   0.311   3.094  1.00  0.00     0.053 C 
BRANCH  10  11
ATOM     11  C   UNL     1       9.754  -0.783   2.231  1.00  0.00     0.041 C 
ATOM     12  O   UNL     1      10.498  -1.358   1.392  1.00  0.00    -0.550 OA
ATOM     13  O   UNL     1       8.439  -1.204   2.385  1.00  0.00    -0.550 OA
ENDBRANCH  10  11
ENDBRANCH   9  10
ENDBRANCH   8   9
ENDBRANCH   1   8
TORSDOF 8
ENDMDL
