MODEL 1
REMARK VINA RESULT:    -6.619      0.000      0.000
REMARK INTER + INTRA:          -8.067
REMARK INTER:                  -7.780
REMARK INTRA:                  -0.287
REMARK UNBOUND:                -0.287
REMARK SMILES O=c1c(O)c(-c2ccc(O)cc2)oc2cc(O)cc(O)c12
REMARK SMILES IDX 5 1 3 2 2 3 1 4 21 5 19 6 18 7 16 8 15 9 14 10 13 11 6 12
REMARK SMILES IDX 7 13 8 14 9 15 12 16 11 17 10 18 4 20 20 22 17 24
REMARK H PARENT 10 19 4 21 20 23 17 25
REMARK Flexibility Score: inf
ROOT
ATOM      1  C   UNL     1      10.015  12.519 -16.896  1.00  0.00     0.180 A 
ATOM      2  C   UNL     1      10.810  13.575 -16.417  1.00  0.00     0.208 A 
ATOM      3  C   UNL     1      10.870  14.769 -17.153  1.00  0.00     0.238 A 
ATOM      4  O   UNL     1      11.625  15.691 -16.749  1.00  0.00    -0.285 OA
ATOM      5  C   UNL     1      10.123  14.898 -18.349  1.00  0.00     0.111 A 
ATOM      6  C   UNL     1      10.077  16.077 -19.154  1.00  0.00     0.134 A 
ATOM      7  C   UNL     1       9.410  16.047 -20.383  1.00  0.00     0.093 A 
ATOM      8  C   UNL     1       8.731  14.902 -20.808  1.00  0.00     0.123 A 
ATOM      9  C   UNL     1       8.719  13.767 -20.002  1.00  0.00     0.094 A 
ATOM     10  C   UNL     1       9.407  13.753 -18.786  1.00  0.00     0.146 A 
ATOM     11  O   UNL     1       9.379  12.646 -18.053  1.00  0.00    -0.452 OA
ENDROOT
BRANCH   1  12
ATOM     12  C   UNL     1       9.882  11.238 -16.162  1.00  0.00     0.021 A 
ATOM     13  C   UNL     1       8.861  11.090 -15.208  1.00  0.00     0.016 A 
ATOM     14  C   UNL     1       8.732   9.898 -14.489  1.00  0.00     0.047 A 
ATOM     15  C   UNL     1       9.628   8.847 -14.701  1.00  0.00     0.115 A 
ATOM     16  C   UNL     1      10.794  10.184 -16.357  1.00  0.00     0.016 A 
ATOM     17  C   UNL     1      10.662   8.994 -15.636  1.00  0.00     0.047 A 
BRANCH  15  18
ATOM     18  O   UNL     1       9.486   7.665 -13.977  1.00  0.00    -0.508 OA
ATOM     19  H   UNL     1       8.775   7.566 -13.262  1.00  0.00     0.293 HD
ENDBRANCH  15  18
ENDBRANCH   1  12
BRANCH   2  20
ATOM     20  O   UNL     1      11.556  13.418 -15.245  1.00  0.00    -0.502 OA
ATOM     21  H   UNL     1      11.714  14.179 -14.596  1.00  0.00     0.293 HD
ENDBRANCH   2  20
BRANCH   6  22
ATOM     22  O   UNL     1      10.644  17.298 -18.779  1.00  0.00    -0.507 OA
ATOM     23  H   UNL     1      11.443  17.401 -18.172  1.00  0.00     0.293 HD
ENDBRANCH   6  22
BRANCH   8  24
ATOM     24  O   UNL     1       8.055  14.888 -22.026  1.00  0.00    -0.508 OA
ATOM     25  H   UNL     1       8.325  15.495 -22.790  1.00  0.00     0.293 HD
ENDBRANCH   8  24
TORSDOF 5
ENDMDL
MODEL 2
REMARK VINA RESULT:    -6.162      1.914      6.934
REMARK INTER + INTRA:          -7.530
REMARK INTER:                  -7.432
REMARK INTRA:                  -0.098
REMARK UNBOUND:                -0.287
REMARK SMILES O=c1c(O)c(-c2ccc(O)cc2)oc2cc(O)cc(O)c12
REMARK SMILES IDX 5 1 3 2 2 3 1 4 21 5 19 6 18 7 16 8 15 9 14 10 13 11 6 12
REMARK SMILES IDX 7 13 8 14 9 15 12 16 11 17 10 18 4 20 20 22 17 24
REMARK H PARENT 10 19 4 21 20 23 17 25
REMARK Flexibility Score: inf
ROOT
ATOM      1  C   UNL     1       9.261  12.872 -18.354  1.00  0.00     0.180 A 
ATOM      2  C   UNL     1       9.742  11.578 -18.616  1.00  0.00     0.208 A 
ATOM      3  C   UNL     1       9.724  10.624 -17.586  1.00  0.00     0.238 A 
ATOM      4  O   UNL     1      10.206   9.483 -17.810  1.00  0.00    -0.285 OA
ATOM      5  C   UNL     1       9.210  10.971 -16.314  1.00  0.00     0.111 A 
ATOM      6  C   UNL     1       9.105  10.073 -15.208  1.00  0.00     0.134 A 
ATOM      7  C   UNL     1       8.703  10.559 -13.959  1.00  0.00     0.093 A 
ATOM      8  C   UNL     1       8.338  11.897 -13.789  1.00  0.00     0.123 A 
ATOM      9  C   UNL     1       8.379  12.768 -14.876  1.00  0.00     0.094 A 
ATOM     10  C   UNL     1       8.812  12.321 -16.127  1.00  0.00     0.146 A 
ATOM     11  O   UNL     1       8.847  13.186 -17.133  1.00  0.00    -0.452 OA
ENDROOT
BRANCH   1  12
ATOM     12  C   UNL     1       9.225  13.925 -19.396  1.00  0.00     0.021 A 
ATOM     13  C   UNL     1       9.872  15.151 -19.164  1.00  0.00     0.016 A 
ATOM     14  C   UNL     1       9.831  16.166 -20.125  1.00  0.00     0.047 A 
ATOM     15  C   UNL     1       9.132  15.976 -21.320  1.00  0.00     0.115 A 
ATOM     16  C   UNL     1       8.506  13.748 -20.593  1.00  0.00     0.016 A 
ATOM     17  C   UNL     1       8.467  14.765 -21.551  1.00  0.00     0.047 A 
BRANCH  15  18
ATOM     18  O   UNL     1       9.101  16.997 -22.268  1.00  0.00    -0.508 OA
ATOM     19  H   UNL     1       9.944  17.487 -22.545  1.00  0.00     0.293 HD
ENDBRANCH  15  18
ENDBRANCH   1  12
BRANCH   2  20
ATOM     20  O   UNL     1      10.266  11.263 -19.874  1.00  0.00    -0.502 OA
ATOM     21  H   UNL     1       9.896  10.511 -20.443  1.00  0.00     0.293 HD
ENDBRANCH   2  20
BRANCH   6  22
ATOM     22  O   UNL     1       9.357   8.700 -15.293  1.00  0.00    -0.507 OA
ATOM     23  H   UNL     1       8.707   7.978 -15.023  1.00  0.00     0.293 HD
ENDBRANCH   6  22
BRANCH   8  24
ATOM     24  O   UNL     1       7.923  12.369 -12.546  1.00  0.00    -0.508 OA
ATOM     25  H   UNL     1       7.959  11.785 -11.719  1.00  0.00     0.293 HD
ENDBRANCH   8  24
TORSDOF 5
ENDMDL
MODEL 3
REMARK VINA RESULT:    -6.142      1.299      3.229
REMARK INTER + INTRA:          -7.506
REMARK INTER:                  -7.251
REMARK INTRA:                  -0.255
REMARK UNBOUND:                -0.287
REMARK SMILES O=c1c(O)c(-c2ccc(O)cc2)oc2cc(O)cc(O)c12
REMARK SMILES IDX 5 1 3 2 2 3 1 4 21 5 19 6 18 7 16 8 15 9 14 10 13 11 6 12
REMARK SMILES IDX 7 13 8 14 9 15 12 16 11 17 10 18 4 20 20 22 17 24
REMARK H PARENT 10 19 4 21 20 23 17 25
REMARK Flexibility Score: inf
ROOT
ATOM      1  C   UNL     1       9.133  12.019 -17.886  1.00  0.00     0.180 A 
ATOM      2  C   UNL     1       8.280  11.780 -18.976  1.00  0.00     0.208 A 
ATOM      3  C   UNL     1       8.089  12.795 -19.928  1.00  0.00     0.238 A 
ATOM      4  O   UNL     1       7.281  12.594 -20.872  1.00  0.00    -0.285 OA
ATOM      5  C   UNL     1       8.766  14.029 -19.785  1.00  0.00     0.111 A 
ATOM      6  C   UNL     1       8.679  15.114 -20.710  1.00  0.00     0.134 A 
ATOM      7  C   UNL     1       9.288  16.335 -20.401  1.00  0.00     0.093 A 
ATOM      8  C   UNL     1      10.037  16.493 -19.231  1.00  0.00     0.123 A 
ATOM      9  C   UNL     1      10.178  15.422 -18.352  1.00  0.00     0.094 A 
ATOM     10  C   UNL     1       9.551  14.201 -18.614  1.00  0.00     0.146 A 
ATOM     11  O   UNL     1       9.702  13.210 -17.745  1.00  0.00    -0.452 OA
ENDROOT
BRANCH   1  12
ATOM     12  C   UNL     1       9.404  10.989 -16.856  1.00  0.00     0.021 A 
ATOM     13  C   UNL     1      10.577  10.219 -16.938  1.00  0.00     0.016 A 
ATOM     14  C   UNL     1      10.840   9.226 -15.989  1.00  0.00     0.047 A 
ATOM     15  C   UNL     1       9.929   8.979 -14.958  1.00  0.00     0.115 A 
ATOM     16  C   UNL     1       8.481  10.721 -15.827  1.00  0.00     0.016 A 
ATOM     17  C   UNL     1       8.748   9.728 -14.881  1.00  0.00     0.047 A 
BRANCH  15  18
ATOM     18  O   UNL     1      10.206   7.987 -14.020  1.00  0.00    -0.508 OA
ATOM     19  H   UNL     1      11.124   7.899 -13.598  1.00  0.00     0.293 HD
ENDBRANCH  15  18
ENDBRANCH   1  12
BRANCH   2  20
ATOM     20  O   UNL     1       7.604  10.560 -19.086  1.00  0.00    -0.502 OA
ATOM     21  H   UNL     1       7.371   9.994 -18.280  1.00  0.00     0.293 HD
ENDBRANCH   2  20
BRANCH   6  22
ATOM     22  O   UNL     1       8.034  15.033 -21.947  1.00  0.00    -0.507 OA
ATOM     23  H   UNL     1       7.629  14.193 -22.332  1.00  0.00     0.293 HD
ENDBRANCH   6  22
BRANCH   8  24
ATOM     24  O   UNL     1      10.654  17.707 -18.940  1.00  0.00    -0.508 OA
ATOM     25  H   UNL     1      10.973  17.929 -18.004  1.00  0.00     0.293 HD
ENDBRANCH   8  24
TORSDOF 5
ENDMDL
MODEL 4
REMARK VINA RESULT:    -6.079      2.177      3.237
REMARK INTER + INTRA:          -7.432
REMARK INTER:                  -7.474
REMARK INTRA:                   0.043
REMARK UNBOUND:                -0.287
REMARK SMILES O=c1c(O)c(-c2ccc(O)cc2)oc2cc(O)cc(O)c12
REMARK SMILES IDX 5 1 3 2 2 3 1 4 21 5 19 6 18 7 16 8 15 9 14 10 13 11 6 12
REMARK SMILES IDX 7 13 8 14 9 15 12 16 11 17 10 18 4 20 20 22 17 24
REMARK H PARENT 10 19 4 21 20 23 17 25
REMARK Flexibility Score: inf
ROOT
ATOM      1  C   UNL     1       8.652  11.184 -14.771  1.00  0.00     0.180 A 
ATOM      2  C   UNL     1       9.097  12.444 -14.336  1.00  0.00     0.208 A 
ATOM      3  C   UNL     1       9.484  13.397 -15.293  1.00  0.00     0.238 A 
ATOM      4  O   UNL     1       9.933  14.504 -14.896  1.00  0.00    -0.285 OA
ATOM      5  C   UNL     1       9.406  13.082 -16.670  1.00  0.00     0.111 A 
ATOM      6  C   UNL     1       9.734  13.985 -17.728  1.00  0.00     0.134 A 
ATOM      7  C   UNL     1       9.745  13.524 -19.049  1.00  0.00     0.093 A 
ATOM      8  C   UNL     1       9.377  12.213 -19.359  1.00  0.00     0.123 A 
ATOM      9  C   UNL     1       8.997  11.342 -18.341  1.00  0.00     0.094 A 
ATOM     10  C   UNL     1       9.011  11.761 -17.008  1.00  0.00     0.146 A 
ATOM     11  O   UNL     1       8.653  10.897 -16.066  1.00  0.00    -0.452 OA
ENDROOT
BRANCH   1  12
ATOM     12  C   UNL     1       8.204  10.137 -13.823  1.00  0.00     0.021 A 
ATOM     13  C   UNL     1       8.637   8.812 -14.000  1.00  0.00     0.016 A 
ATOM     14  C   UNL     1       8.207   7.805 -13.131  1.00  0.00     0.047 A 
ATOM     15  C   UNL     1       7.329   8.104 -12.086  1.00  0.00     0.115 A 
ATOM     16  C   UNL     1       7.303  10.428 -12.781  1.00  0.00     0.016 A 
ATOM     17  C   UNL     1       6.876   9.418 -11.915  1.00  0.00     0.047 A 
BRANCH  15  18
ATOM     18  O   UNL     1       6.911   7.089 -11.228  1.00  0.00    -0.508 OA
ATOM     19  H   UNL     1       6.620   6.184 -11.580  1.00  0.00     0.293 HD
ENDBRANCH  15  18
ENDBRANCH   1  12
BRANCH   2  20
ATOM     20  O   UNL     1       9.186  12.726 -12.969  1.00  0.00    -0.502 OA
ATOM     21  H   UNL     1      10.043  13.045 -12.536  1.00  0.00     0.293 HD
ENDBRANCH   2  20
BRANCH   6  22
ATOM     22  O   UNL     1      10.027  15.338 -17.535  1.00  0.00    -0.507 OA
ATOM     23  H   UNL     1       9.371  16.027 -17.200  1.00  0.00     0.293 HD
ENDBRANCH   6  22
BRANCH   8  24
ATOM     24  O   UNL     1       9.375  11.768 -20.680  1.00  0.00    -0.508 OA
ATOM     25  H   UNL     1       8.606  11.973 -21.307  1.00  0.00     0.293 HD
ENDBRANCH   8  24
TORSDOF 5
ENDMDL
MODEL 5
REMARK VINA RESULT:    -5.878      1.831      3.208
REMARK INTER + INTRA:          -7.196
REMARK INTER:                  -6.900
REMARK INTRA:                  -0.296
REMARK UNBOUND:                -0.287
REMARK SMILES O=c1c(O)c(-c2ccc(O)cc2)oc2cc(O)cc(O)c12
REMARK SMILES IDX 5 1 3 2 2 3 1 4 21 5 19 6 18 7 16 8 15 9 14 10 13 11 6 12
REMARK SMILES IDX 7 13 8 14 9 15 12 16 11 17 10 18 4 20 20 22 17 24
REMARK H PARENT 10 19 4 21 20 23 17 25
REMARK Flexibility Score: inf
ROOT
ATOM      1  C   UNL     1       9.257  13.245 -18.254  1.00  0.00     0.180 A 
ATOM      2  C   UNL     1       9.282  13.213 -19.659  1.00  0.00     0.208 A 
ATOM      3  C   UNL     1       9.048  14.400 -20.372  1.00  0.00     0.238 A 
ATOM      4  O   UNL     1       9.018  14.354 -21.630  1.00  0.00    -0.285 OA
ATOM      5  C   UNL     1       8.807  15.605 -19.671  1.00  0.00     0.111 A 
ATOM      6  C   UNL     1       8.596  16.875 -20.291  1.00  0.00     0.134 A 
ATOM      7  C   UNL     1       8.238  17.976 -19.504  1.00  0.00     0.093 A 
ATOM      8  C   UNL     1       8.145  17.869 -18.114  1.00  0.00     0.123 A 
ATOM      9  C   UNL     1       8.407  16.649 -17.495  1.00  0.00     0.094 A 
ATOM     10  C   UNL     1       8.732  15.523 -18.256  1.00  0.00     0.146 A 
ATOM     11  O   UNL     1       8.963  14.377 -17.628  1.00  0.00    -0.452 OA
ENDROOT
BRANCH   1  12
ATOM     12  C   UNL     1       9.520  12.040 -17.433  1.00  0.00     0.021 A 
ATOM     13  C   UNL     1       8.439  11.288 -16.943  1.00  0.00     0.016 A 
ATOM     14  C   UNL     1       8.664  10.160 -16.147  1.00  0.00     0.047 A 
ATOM     15  C   UNL     1       9.969   9.779 -15.819  1.00  0.00     0.115 A 
ATOM     16  C   UNL     1      10.829  11.663 -17.083  1.00  0.00     0.016 A 
ATOM     17  C   UNL     1      11.051  10.536 -16.287  1.00  0.00     0.047 A 
BRANCH  15  18
ATOM     18  O   UNL     1      10.177   8.653 -15.026  1.00  0.00    -0.508 OA
ATOM     19  H   UNL     1      11.039   8.122 -15.078  1.00  0.00     0.293 HD
ENDBRANCH  15  18
ENDBRANCH   1  12
BRANCH   2  20
ATOM     20  O   UNL     1       9.501  12.006 -20.331  1.00  0.00    -0.502 OA
ATOM     21  H   UNL     1      10.328  11.442 -20.179  1.00  0.00     0.293 HD
ENDBRANCH   2  20
BRANCH   6  22
ATOM     22  O   UNL     1       8.754  17.110 -21.659  1.00  0.00    -0.507 OA
ATOM     23  H   UNL     1       8.186  17.740 -22.205  1.00  0.00     0.293 HD
ENDBRANCH   6  22
BRANCH   8  24
ATOM     24  O   UNL     1       7.803  18.974 -17.337  1.00  0.00    -0.508 OA
ATOM     25  H   UNL     1       7.114  18.910 -16.598  1.00  0.00     0.293 HD
ENDBRANCH   8  24
TORSDOF 5
ENDMDL
MODEL 6
REMARK VINA RESULT:    -5.852      1.717      2.354
REMARK INTER + INTRA:          -7.166
REMARK INTER:                  -6.885
REMARK INTRA:                  -0.281
REMARK UNBOUND:                -0.287
REMARK SMILES O=c1c(O)c(-c2ccc(O)cc2)oc2cc(O)cc(O)c12
REMARK SMILES IDX 5 1 3 2 2 3 1 4 21 5 19 6 18 7 16 8 15 9 14 10 13 11 6 12
REMARK SMILES IDX 7 13 8 14 9 15 12 16 11 17 10 18 4 20 20 22 17 24
REMARK H PARENT 10 19 4 21 20 23 17 25
REMARK Flexibility Score: inf
ROOT
ATOM      1  C   UNL     1       9.155  13.751 -17.873  1.00  0.00     0.180 A 
ATOM      2  C   UNL     1       8.891  14.946 -17.181  1.00  0.00     0.208 A 
ATOM      3  C   UNL     1       8.667  16.122 -17.915  1.00  0.00     0.238 A 
ATOM      4  O   UNL     1       8.485  17.199 -17.290  1.00  0.00    -0.285 OA
ATOM      5  C   UNL     1       8.694  16.084 -19.330  1.00  0.00     0.111 A 
ATOM      6  C   UNL     1       8.441  17.207 -20.176  1.00  0.00     0.134 A 
ATOM      7  C   UNL     1       8.622  17.084 -21.558  1.00  0.00     0.093 A 
ATOM      8  C   UNL     1       8.985  15.864 -22.133  1.00  0.00     0.123 A 
ATOM      9  C   UNL     1       9.175  14.747 -21.321  1.00  0.00     0.094 A 
ATOM     10  C   UNL     1       9.037  14.846 -19.934  1.00  0.00     0.146 A 
ATOM     11  O   UNL     1       9.238  13.762 -19.197  1.00  0.00    -0.452 OA
ENDROOT
BRANCH   1  12
ATOM     12  C   UNL     1       9.376  12.466 -17.169  1.00  0.00     0.021 A 
ATOM     13  C   UNL     1      10.685  11.980 -17.011  1.00  0.00     0.016 A 
ATOM     14  C   UNL     1      10.915  10.758 -16.370  1.00  0.00     0.047 A 
ATOM     15  C   UNL     1       9.841  10.001 -15.894  1.00  0.00     0.115 A 
ATOM     16  C   UNL     1       8.298  11.688 -16.706  1.00  0.00     0.016 A 
ATOM     17  C   UNL     1       8.532  10.467 -16.066  1.00  0.00     0.047 A 
BRANCH  15  18
ATOM     18  O   UNL     1      10.086   8.786 -15.258  1.00  0.00    -0.508 OA
ATOM     19  H   UNL     1       9.344   8.113 -15.100  1.00  0.00     0.293 HD
ENDBRANCH  15  18
ENDBRANCH   1  12
BRANCH   2  20
ATOM     20  O   UNL     1       8.891  14.964 -15.783  1.00  0.00    -0.502 OA
ATOM     21  H   UNL     1       9.618  14.522 -15.234  1.00  0.00     0.293 HD
ENDBRANCH   2  20
BRANCH   6  22
ATOM     22  O   UNL     1       7.986  18.445 -19.712  1.00  0.00    -0.507 OA
ATOM     23  H   UNL     1       7.785  18.660 -18.748  1.00  0.00     0.293 HD
ENDBRANCH   6  22
BRANCH   8  24
ATOM     24  O   UNL     1       9.147  15.747 -23.511  1.00  0.00    -0.508 OA
ATOM     25  H   UNL     1       8.356  15.604 -24.128  1.00  0.00     0.293 HD
ENDBRANCH   8  24
TORSDOF 5
ENDMDL
MODEL 7
REMARK VINA RESULT:    -5.730      1.539      1.568
REMARK INTER + INTRA:          -7.022
REMARK INTER:                  -6.778
REMARK INTRA:                  -0.243
REMARK UNBOUND:                -0.287
REMARK SMILES O=c1c(O)c(-c2ccc(O)cc2)oc2cc(O)cc(O)c12
REMARK SMILES IDX 5 1 3 2 2 3 1 4 21 5 19 6 18 7 16 8 15 9 14 10 13 11 6 12
REMARK SMILES IDX 7 13 8 14 9 15 12 16 11 17 10 18 4 20 20 22 17 24
REMARK H PARENT 10 19 4 21 20 23 17 25
REMARK Flexibility Score: inf
ROOT
ATOM      1  C   UNL     1       8.938  12.156 -16.116  1.00  0.00     0.180 A 
ATOM      2  C   UNL     1       9.187  13.323 -15.372  1.00  0.00     0.208 A 
ATOM      3  C   UNL     1       9.033  14.573 -15.994  1.00  0.00     0.238 A 
ATOM      4  O   UNL     1       9.310  15.612 -15.340  1.00  0.00    -0.285 OA
ATOM      5  C   UNL     1       8.616  14.640 -17.345  1.00  0.00     0.111 A 
ATOM      6  C   UNL     1       8.388  15.853 -18.063  1.00  0.00     0.134 A 
ATOM      7  C   UNL     1       8.104  15.801 -19.433  1.00  0.00     0.093 A 
ATOM      8  C   UNL     1       7.976  14.578 -20.097  1.00  0.00     0.123 A 
ATOM      9  C   UNL     1       8.137  13.388 -19.391  1.00  0.00     0.094 A 
ATOM     10  C   UNL     1       8.457  13.408 -18.031  1.00  0.00     0.146 A 
ATOM     11  O   UNL     1       8.613  12.251 -17.399  1.00  0.00    -0.452 OA
ENDROOT
BRANCH   1  12
ATOM     12  C   UNL     1       9.055  10.804 -15.523  1.00  0.00     0.021 A 
ATOM     13  C   UNL     1       8.049  10.336 -14.661  1.00  0.00     0.016 A 
ATOM     14  C   UNL     1       8.151   9.072 -14.073  1.00  0.00     0.047 A 
ATOM     15  C   UNL     1       9.266   8.267 -14.324  1.00  0.00     0.115 A 
ATOM     16  C   UNL     1      10.184   9.997 -15.756  1.00  0.00     0.016 A 
ATOM     17  C   UNL     1      10.284   8.733 -15.165  1.00  0.00     0.047 A 
BRANCH  15  18
ATOM     18  O   UNL     1       9.353   7.009 -13.731  1.00  0.00    -0.508 OA
ATOM     19  H   UNL     1       9.673   6.896 -12.776  1.00  0.00     0.293 HD
ENDBRANCH  15  18
ENDBRANCH   1  12
BRANCH   2  20
ATOM     20  O   UNL     1       9.619  13.232 -14.046  1.00  0.00    -0.502 OA
ATOM     21  H   UNL     1       8.978  13.089 -13.275  1.00  0.00     0.293 HD
ENDBRANCH   2  20
BRANCH   6  22
ATOM     22  O   UNL     1       8.402  17.121 -17.476  1.00  0.00    -0.507 OA
ATOM     23  H   UNL     1       8.096  17.969 -17.928  1.00  0.00     0.293 HD
ENDBRANCH   6  22
BRANCH   8  24
ATOM     24  O   UNL     1       7.677  14.535 -21.457  1.00  0.00    -0.508 OA
ATOM     25  H   UNL     1       7.690  15.372 -22.029  1.00  0.00     0.293 HD
ENDBRANCH   8  24
TORSDOF 5
ENDMDL
MODEL 8
REMARK VINA RESULT:    -5.677      2.485      7.299
REMARK INTER + INTRA:          -6.959
REMARK INTER:                  -6.663
REMARK INTRA:                  -0.296
REMARK UNBOUND:                -0.287
REMARK SMILES O=c1c(O)c(-c2ccc(O)cc2)oc2cc(O)cc(O)c12
REMARK SMILES IDX 5 1 3 2 2 3 1 4 21 5 19 6 18 7 16 8 15 9 14 10 13 11 6 12
REMARK SMILES IDX 7 13 8 14 9 15 12 16 11 17 10 18 4 20 20 22 17 24
REMARK H PARENT 10 19 4 21 20 23 17 25
REMARK Flexibility Score: inf
ROOT
ATOM      1  C   UNL     1       8.222  15.043 -18.511  1.00  0.00     0.180 A 
ATOM      2  C   UNL     1       7.890  14.290 -19.650  1.00  0.00     0.208 A 
ATOM      3  C   UNL     1       7.737  12.899 -19.527  1.00  0.00     0.238 A 
ATOM      4  O   UNL     1       7.493  12.224 -20.561  1.00  0.00    -0.285 OA
ATOM      5  C   UNL     1       7.902  12.283 -18.264  1.00  0.00     0.111 A 
ATOM      6  C   UNL     1       7.732  10.887 -18.014  1.00  0.00     0.134 A 
ATOM      7  C   UNL     1       8.048  10.367 -16.754  1.00  0.00     0.093 A 
ATOM      8  C   UNL     1       8.467  11.201 -15.714  1.00  0.00     0.123 A 
ATOM      9  C   UNL     1       8.579  12.573 -15.930  1.00  0.00     0.094 A 
ATOM     10  C   UNL     1       8.305  13.117 -17.188  1.00  0.00     0.146 A 
ATOM     11  O   UNL     1       8.435  14.427 -17.355  1.00  0.00    -0.452 OA
ENDROOT
BRANCH   1  12
ATOM     12  C   UNL     1       8.375  16.516 -18.557  1.00  0.00     0.021 A 
ATOM     13  C   UNL     1       9.644  17.073 -18.790  1.00  0.00     0.016 A 
ATOM     14  C   UNL     1       9.815  18.460 -18.815  1.00  0.00     0.047 A 
ATOM     15  C   UNL     1       8.726  19.308 -18.592  1.00  0.00     0.115 A 
ATOM     16  C   UNL     1       7.287  17.374 -18.313  1.00  0.00     0.016 A 
ATOM     17  C   UNL     1       7.462  18.761 -18.339  1.00  0.00     0.047 A 
BRANCH  15  18
ATOM     18  O   UNL     1       8.912  20.687 -18.621  1.00  0.00    -0.508 OA
ATOM     19  H   UNL     1       8.599  21.279 -17.860  1.00  0.00     0.293 HD
ENDBRANCH  15  18
ENDBRANCH   1  12
BRANCH   2  20
ATOM     20  O   UNL     1       7.753  14.917 -20.892  1.00  0.00    -0.502 OA
ATOM     21  H   UNL     1       8.359  15.672 -21.190  1.00  0.00     0.293 HD
ENDBRANCH   2  20
BRANCH   6  22
ATOM     22  O   UNL     1       7.232   9.983 -18.956  1.00  0.00    -0.507 OA
ATOM     23  H   UNL     1       7.796   9.351 -19.503  1.00  0.00     0.293 HD
ENDBRANCH   6  22
BRANCH   8  24
ATOM     24  O   UNL     1       8.764  10.678 -14.458  1.00  0.00    -0.508 OA
ATOM     25  H   UNL     1       8.215  10.916 -13.641  1.00  0.00     0.293 HD
ENDBRANCH   8  24
TORSDOF 5
ENDMDL
MODEL 9
REMARK VINA RESULT:    -5.459      2.566      6.528
REMARK INTER + INTRA:          -6.703
REMARK INTER:                  -6.446
REMARK INTRA:                  -0.257
REMARK UNBOUND:                -0.287
REMARK SMILES O=c1c(O)c(-c2ccc(O)cc2)oc2cc(O)cc(O)c12
REMARK SMILES IDX 5 1 3 2 2 3 1 4 21 5 19 6 18 7 16 8 15 9 14 10 13 11 6 12
REMARK SMILES IDX 7 13 8 14 9 15 12 16 11 17 10 18 4 20 20 22 17 24
REMARK H PARENT 10 19 4 21 20 23 17 25
REMARK Flexibility Score: inf
ROOT
ATOM      1  C   UNL     1       8.633  14.676 -17.035  1.00  0.00     0.180 A 
ATOM      2  C   UNL     1       9.094  14.349 -15.748  1.00  0.00     0.208 A 
ATOM      3  C   UNL     1       9.103  13.003 -15.349  1.00  0.00     0.238 A 
ATOM      4  O   UNL     1       9.465  12.722 -14.177  1.00  0.00    -0.285 OA
ATOM      5  C   UNL     1       8.666  12.000 -16.247  1.00  0.00     0.111 A 
ATOM      6  C   UNL     1       8.669  10.600 -15.964  1.00  0.00     0.134 A 
ATOM      7  C   UNL     1       8.093   9.709 -16.877  1.00  0.00     0.093 A 
ATOM      8  C   UNL     1       7.571  10.159 -18.092  1.00  0.00     0.123 A 
ATOM      9  C   UNL     1       7.618  11.516 -18.404  1.00  0.00     0.094 A 
ATOM     10  C   UNL     1       8.154  12.435 -17.498  1.00  0.00     0.146 A 
ATOM     11  O   UNL     1       8.169  13.720 -17.829  1.00  0.00    -0.452 OA
ENDROOT
BRANCH   1  12
ATOM     12  C   UNL     1       8.617  16.070 -17.536  1.00  0.00     0.021 A 
ATOM     13  C   UNL     1       7.567  16.926 -17.166  1.00  0.00     0.016 A 
ATOM     14  C   UNL     1       7.521  18.239 -17.646  1.00  0.00     0.047 A 
ATOM     15  C   UNL     1       8.513  18.707 -18.513  1.00  0.00     0.115 A 
ATOM     16  C   UNL     1       9.602  16.540 -18.425  1.00  0.00     0.016 A 
ATOM     17  C   UNL     1       9.552  17.853 -18.903  1.00  0.00     0.047 A 
BRANCH  15  18
ATOM     18  O   UNL     1       8.453  20.017 -18.982  1.00  0.00    -0.508 OA
ATOM     19  H   UNL     1       8.586  20.807 -18.361  1.00  0.00     0.293 HD
ENDBRANCH  15  18
ENDBRANCH   1  12
BRANCH   2  20
ATOM     20  O   UNL     1       9.501  15.358 -14.870  1.00  0.00    -0.502 OA
ATOM     21  H   UNL     1       9.610  15.201 -13.875  1.00  0.00     0.293 HD
ENDBRANCH   2  20
BRANCH   6  22
ATOM     22  O   UNL     1       9.247  10.038 -14.822  1.00  0.00    -0.507 OA
ATOM     23  H   UNL     1       8.977  10.253 -13.874  1.00  0.00     0.293 HD
ENDBRANCH   6  22
BRANCH   8  24
ATOM     24  O   UNL     1       7.014   9.264 -19.002  1.00  0.00    -0.508 OA
ATOM     25  H   UNL     1       6.346   8.560 -18.712  1.00  0.00     0.293 HD
ENDBRANCH   8  24
TORSDOF 5
ENDMDL
