MODEL 1
REMARK VINA RESULT:    -8.131      0.000      0.000
REMARK INTER + INTRA:         -15.263
REMARK INTER:                 -12.884
REMARK INTRA:                  -2.379
REMARK UNBOUND:                -2.379
REMARK SMILES C[C@H]1O[C@@H](O[C@@H]2CC[C@]3(C)[C@@H](CC[C@@]4(C)[C@H]3C=C[C@@]35OC[C@]6(CCC(C)(C)C[C@@H]63)[C@@H](O)C[C@]45C)[C@@]2(C)CO)[C@@H](O)[C@@H](O[C@@H]2O[C@H](CO)[C@@H](O)[C@@H](O)[C@@H]2O)[C@H]1O
REMARK SMILES IDX 1 1 2 2 54 3 41 4 39 5 4 6 3 7 55 8 42 10 43 11 52 12 44 13
REMARK SMILES IDX 50 14 45 15 48 16 53 17 51 19 46 21 47 22 49 24 5 26 6 27
REMARK SMILES IDX 7 28 35 29 8 30 11 31 36 32 9 33 12 34 10 35 16 36 13 37
REMARK SMILES IDX 14 38 17 39 15 40 33 41 18 42 19 43 32 44 34 45 29 46 20 47
REMARK SMILES IDX 30 48 22 49 28 50 21 51 23 52 25 53 24 54 26 55 27 56 37 57
REMARK SMILES IDX 38 58 31 60 40 62
REMARK H PARENT 55 9 53 18 51 20 47 23 49 25 38 59 31 61 40 63
REMARK Flexibility Score: inf
ROOT
ATOM      1  C   UNL     1      -8.756  69.624  23.825  1.00  0.00     0.041 C 
ATOM      2  C   UNL     1     -10.000  69.019  24.488  1.00  0.00     0.150 C 
ATOM      3  C   UNL     1     -11.353  69.511  23.870  1.00  0.00     0.175 C 
ATOM      4  C   UNL     1     -12.203  70.330  24.867  1.00  0.00     0.186 C 
ATOM      5  C   UNL     1     -12.297  69.579  26.241  1.00  0.00     0.202 C 
ATOM      6  C   UNL     1     -11.047  68.705  26.542  1.00  0.00     0.282 C 
ATOM      7  O   UNL     1      -9.923  69.263  25.880  1.00  0.00    -0.344 OA
ENDROOT
BRANCH   3   8
ATOM      8  O   UNL     1     -11.169  70.243  22.686  1.00  0.00    -0.388 OA
ATOM      9  H   UNL     1     -10.447  69.800  22.175  1.00  0.00     0.211 HD
ENDBRANCH   3   8
BRANCH   4  10
ATOM     10  O   UNL     1     -11.639  71.635  25.023  1.00  0.00    -0.341 OA
BRANCH  10  11
ATOM     11  C   UNL     1     -12.289  72.663  24.264  1.00  0.00     0.282 C 
ATOM     12  C   UNL     1     -11.263  73.565  23.509  1.00  0.00     0.202 C 
ATOM     13  O   UNL     1     -13.265  72.154  23.365  1.00  0.00    -0.341 OA
ATOM     14  C   UNL     1     -11.901  74.213  22.257  1.00  0.00     0.179 C 
ATOM     15  C   UNL     1     -14.123  73.166  22.840  1.00  0.00     0.178 C 
ATOM     16  C   UNL     1     -13.374  74.520  22.529  1.00  0.00     0.177 C 
BRANCH  12  17
ATOM     17  O   UNL     1     -10.101  72.854  23.152  1.00  0.00    -0.385 OA
ATOM     18  H   UNL     1     -10.193  72.586  22.202  1.00  0.00     0.211 HD
ENDBRANCH  12  17
BRANCH  14  19
ATOM     19  O   UNL     1     -11.210  75.393  21.928  1.00  0.00    -0.387 OA
ATOM     20  H   UNL     1     -10.241  75.181  21.955  1.00  0.00     0.211 HD
ENDBRANCH  14  19
BRANCH  15  21
ATOM     21  C   UNL     1     -14.861  72.556  21.611  1.00  0.00     0.191 C 
BRANCH  21  22
ATOM     22  O   UNL     1     -14.127  71.561  20.941  1.00  0.00    -0.394 OA
ATOM     23  H   UNL     1     -13.251  71.969  20.706  1.00  0.00     0.210 HD
ENDBRANCH  21  22
ENDBRANCH  15  21
BRANCH  16  24
ATOM     24  O   UNL     1     -13.455  75.442  23.595  1.00  0.00    -0.387 OA
ATOM     25  H   UNL     1     -14.411  75.690  23.721  1.00  0.00     0.211 HD
ENDBRANCH  16  24
ENDBRANCH  10  11
ENDBRANCH   4  10
BRANCH   6  26
ATOM     26  O   UNL     1     -10.828  68.654  27.947  1.00  0.00    -0.346 OA
BRANCH  26  27
ATOM     27  C   UNL     1      -9.448  68.593  28.281  1.00  0.00     0.130 C 
ATOM     28  C   UNL     1      -9.009  67.124  28.350  1.00  0.00     0.033 C 
ATOM     29  C   UNL     1      -9.205  69.314  29.643  1.00  0.00     0.020 C 
ATOM     30  C   UNL     1      -7.511  67.007  28.664  1.00  0.00     0.010 C 
ATOM     31  C   UNL     1      -7.677  69.178  30.091  1.00  0.00     0.006 C 
ATOM     32  C   UNL     1     -10.137  68.726  30.752  1.00  0.00     0.017 C 
ATOM     33  C   UNL     1      -7.040  67.713  29.986  1.00  0.00    -0.022 C 
ATOM     34  C   UNL     1      -6.722  70.216  29.449  1.00  0.00     0.005 C 
ATOM     35  C   UNL     1      -7.476  66.841  31.212  1.00  0.00     0.012 C 
ATOM     36  C   UNL     1      -5.440  67.799  29.913  1.00  0.00     0.024 C 
ATOM     37  C   UNL     1      -5.400  70.348  30.230  1.00  0.00     0.008 C 
ATOM     38  C   UNL     1      -4.770  68.993  30.695  1.00  0.00    -0.017 C 
ATOM     39  C   UNL     1      -4.687  66.485  30.127  1.00  0.00    -0.024 C 
ATOM     40  C   UNL     1      -5.102  68.821  32.222  1.00  0.00     0.013 C 
ATOM     41  C   UNL     1      -3.178  68.952  30.394  1.00  0.00     0.009 C 
ATOM     42  C   UNL     1      -3.394  66.412  30.524  1.00  0.00     0.005 C 
ATOM     43  C   UNL     1      -2.589  67.613  31.004  1.00  0.00     0.096 C 
ATOM     44  C   UNL     1      -2.417  70.181  31.015  1.00  0.00     0.043 C 
ATOM     45  C   UNL     1      -2.940  68.994  28.840  1.00  0.00     0.015 C 
ATOM     46  C   UNL     1      -1.079  67.421  30.799  1.00  0.00     0.037 C 
ATOM     47  O   UNL     1      -2.679  67.671  32.427  1.00  0.00    -0.369 OA
ATOM     48  C   UNL     1      -0.891  69.945  31.277  1.00  0.00     0.124 C 
ATOM     49  C   UNL     1      -0.545  68.479  31.737  1.00  0.00     0.026 C 
ATOM     50  C   UNL     1      -0.305  67.357  29.475  1.00  0.00     0.014 C 
ATOM     51  C   UNL     1      -1.434  68.132  32.935  1.00  0.00     0.171 C 
ATOM     52  C   UNL     1       0.990  68.308  31.993  1.00  0.00     0.013 C 
ATOM     53  C   UNL     1       1.200  66.976  29.744  1.00  0.00    -0.035 C 
ATOM     54  C   UNL     1       1.615  67.105  31.256  1.00  0.00     0.007 C 
ATOM     55  C   UNL     1       1.429  65.506  29.318  1.00  0.00     0.011 C 
ATOM     56  C   UNL     1       2.126  67.866  28.887  1.00  0.00     0.011 C 
BRANCH  29  57
ATOM     57  C   UNL     1      -9.654  70.815  29.529  1.00  0.00     0.165 C 
BRANCH  57  58
ATOM     58  O   UNL     1      -9.822  71.233  28.202  1.00  0.00    -0.396 OA
ATOM     59  H   UNL     1      -9.108  71.904  28.011  1.00  0.00     0.210 HD
ENDBRANCH  57  58
ENDBRANCH  29  57
BRANCH  48  60
ATOM     60  O   UNL     1      -0.055  70.358  30.213  1.00  0.00    -0.392 OA
ATOM     61  H   UNL     1       0.151  69.603  29.614  1.00  0.00     0.210 HD
ENDBRANCH  48  60
ENDBRANCH  26  27
ENDBRANCH   6  26
BRANCH   5  62
ATOM     62  O   UNL     1     -12.564  70.474  27.290  1.00  0.00    -0.385 OA
ATOM     63  H   UNL     1     -11.726  70.575  27.820  1.00  0.00     0.211 HD
ENDBRANCH   5  62
TORSDOF 14
ENDMDL
MODEL 2
REMARK VINA RESULT:    -7.579      2.658      5.297
REMARK INTER + INTRA:         -14.389
REMARK INTER:                 -13.301
REMARK INTRA:                  -1.088
REMARK UNBOUND:                -2.379
REMARK SMILES C[C@H]1O[C@@H](O[C@@H]2CC[C@]3(C)[C@@H](CC[C@@]4(C)[C@H]3C=C[C@@]35OC[C@]6(CCC(C)(C)C[C@@H]63)[C@@H](O)C[C@]45C)[C@@]2(C)CO)[C@@H](O)[C@@H](O[C@@H]2O[C@H](CO)[C@@H](O)[C@@H](O)[C@@H]2O)[C@H]1O
REMARK SMILES IDX 1 1 2 2 54 3 41 4 39 5 4 6 3 7 55 8 42 10 43 11 52 12 44 13
REMARK SMILES IDX 50 14 45 15 48 16 53 17 51 19 46 21 47 22 49 24 5 26 6 27
REMARK SMILES IDX 7 28 35 29 8 30 11 31 36 32 9 33 12 34 10 35 16 36 13 37
REMARK SMILES IDX 14 38 17 39 15 40 33 41 18 42 19 43 32 44 34 45 29 46 20 47
REMARK SMILES IDX 30 48 22 49 28 50 21 51 23 52 25 53 24 54 26 55 27 56 37 57
REMARK SMILES IDX 38 58 31 60 40 62
REMARK H PARENT 55 9 53 18 51 20 47 23 49 25 38 59 31 61 40 63
REMARK Flexibility Score: inf
ROOT
ATOM      1  C   UNL     1     -11.572  65.231  30.112  1.00  0.00     0.041 C 
ATOM      2  C   UNL     1     -10.483  66.305  30.243  1.00  0.00     0.150 C 
ATOM      3  C   UNL     1     -11.020  67.772  30.124  1.00  0.00     0.175 C 
ATOM      4  C   UNL     1     -10.476  68.509  28.880  1.00  0.00     0.186 C 
ATOM      5  C   UNL     1      -8.921  68.326  28.782  1.00  0.00     0.202 C 
ATOM      6  C   UNL     1      -8.427  66.983  29.390  1.00  0.00     0.282 C 
ATOM      7  O   UNL     1      -9.469  66.024  29.296  1.00  0.00    -0.344 OA
ENDROOT
BRANCH   3   8
ATOM      8  O   UNL     1     -12.423  67.834  30.139  1.00  0.00    -0.388 OA
ATOM      9  H   UNL     1     -12.730  67.775  29.200  1.00  0.00     0.211 HD
ENDBRANCH   3   8
BRANCH   4  10
ATOM     10  O   UNL     1     -11.133  68.026  27.705  1.00  0.00    -0.341 OA
BRANCH  10  11
ATOM     11  C   UNL     1     -11.597  69.049  26.816  1.00  0.00     0.282 C 
ATOM     12  C   UNL     1     -13.153  69.045  26.687  1.00  0.00     0.202 C 
ATOM     13  O   UNL     1     -11.128  70.344  27.168  1.00  0.00    -0.341 OA
ATOM     14  C   UNL     1     -13.688  70.443  26.291  1.00  0.00     0.179 C 
ATOM     15  C   UNL     1     -11.320  71.308  26.134  1.00  0.00     0.178 C 
ATOM     16  C   UNL     1     -12.687  71.132  25.362  1.00  0.00     0.177 C 
BRANCH  12  17
ATOM     17  O   UNL     1     -13.777  68.602  27.869  1.00  0.00    -0.385 OA
ATOM     18  H   UNL     1     -14.113  67.684  27.707  1.00  0.00     0.211 HD
ENDBRANCH  12  17
BRANCH  14  19
ATOM     19  O   UNL     1     -14.934  70.311  25.653  1.00  0.00    -0.387 OA
ATOM     20  H   UNL     1     -15.425  71.161  25.794  1.00  0.00     0.211 HD
ENDBRANCH  14  19
BRANCH  15  21
ATOM     21  C   UNL     1     -11.133  72.716  26.772  1.00  0.00     0.191 C 
BRANCH  21  22
ATOM     22  O   UNL     1     -12.106  73.653  26.381  1.00  0.00    -0.394 OA
ATOM     23  H   UNL     1     -11.940  73.845  25.420  1.00  0.00     0.210 HD
ENDBRANCH  21  22
ENDBRANCH  15  21
BRANCH  16  24
ATOM     24  O   UNL     1     -12.551  70.359  24.189  1.00  0.00    -0.387 OA
ATOM     25  H   UNL     1     -12.568  69.397  24.445  1.00  0.00     0.211 HD
ENDBRANCH  16  24
ENDBRANCH  10  11
ENDBRANCH   4  10
BRANCH   6  26
ATOM     26  O   UNL     1      -7.271  66.539  28.691  1.00  0.00    -0.346 OA
BRANCH  26  27
ATOM     27  C   UNL     1      -6.100  67.254  29.065  1.00  0.00     0.130 C 
ATOM     28  C   UNL     1      -5.287  67.587  27.806  1.00  0.00     0.033 C 
ATOM     29  C   UNL     1      -5.261  66.398  30.064  1.00  0.00     0.020 C 
ATOM     30  C   UNL     1      -4.033  68.399  28.156  1.00  0.00     0.010 C 
ATOM     31  C   UNL     1      -3.890  67.136  30.428  1.00  0.00     0.006 C 
ATOM     32  C   UNL     1      -4.959  64.987  29.462  1.00  0.00     0.017 C 
ATOM     33  C   UNL     1      -3.061  67.732  29.194  1.00  0.00    -0.022 C 
ATOM     34  C   UNL     1      -4.009  68.201  31.546  1.00  0.00     0.005 C 
ATOM     35  C   UNL     1      -2.258  66.593  28.479  1.00  0.00     0.012 C 
ATOM     36  C   UNL     1      -2.061  68.883  29.691  1.00  0.00     0.024 C 
ATOM     37  C   UNL     1      -2.642  68.542  32.170  1.00  0.00     0.008 C 
ATOM     38  C   UNL     1      -1.473  68.715  31.144  1.00  0.00    -0.017 C 
ATOM     39  C   UNL     1      -0.990  69.320  28.690  1.00  0.00    -0.024 C 
ATOM     40  C   UNL     1      -0.622  67.393  31.174  1.00  0.00     0.013 C 
ATOM     41  C   UNL     1      -0.590  70.033  31.477  1.00  0.00     0.009 C 
ATOM     42  C   UNL     1       0.167  69.928  29.041  1.00  0.00     0.005 C 
ATOM     43  C   UNL     1       0.643  70.071  30.481  1.00  0.00     0.096 C 
ATOM     44  C   UNL     1      -0.059  70.042  32.958  1.00  0.00     0.043 C 
ATOM     45  C   UNL     1      -1.479  71.317  31.293  1.00  0.00     0.015 C 
ATOM     46  C   UNL     1       1.583  71.272  30.667  1.00  0.00     0.037 C 
ATOM     47  O   UNL     1       1.512  68.979  30.774  1.00  0.00    -0.369 OA
ATOM     48  C   UNL     1       1.218  70.919  33.192  1.00  0.00     0.124 C 
ATOM     49  C   UNL     1       2.228  70.906  31.984  1.00  0.00     0.026 C 
ATOM     50  C   UNL     1       1.241  72.765  30.570  1.00  0.00     0.014 C 
ATOM     51  C   UNL     1       2.540  69.446  31.638  1.00  0.00     0.171 C 
ATOM     52  C   UNL     1       3.486  71.788  32.281  1.00  0.00     0.013 C 
ATOM     53  C   UNL     1       2.555  73.629  30.662  1.00  0.00    -0.035 C 
ATOM     54  C   UNL     1       3.801  72.817  31.175  1.00  0.00     0.007 C 
ATOM     55  C   UNL     1       2.897  74.175  29.256  1.00  0.00     0.011 C 
ATOM     56  C   UNL     1       2.321  74.838  31.594  1.00  0.00     0.011 C 
BRANCH  29  57
ATOM     57  C   UNL     1      -6.120  66.089  31.342  1.00  0.00     0.165 C 
BRANCH  57  58
ATOM     58  O   UNL     1      -6.783  64.857  31.266  1.00  0.00    -0.396 OA
ATOM     59  H   UNL     1      -6.233  64.262  30.683  1.00  0.00     0.210 HD
ENDBRANCH  57  58
ENDBRANCH  29  57
BRANCH  48  60
ATOM     60  O   UNL     1       0.938  72.241  33.610  1.00  0.00    -0.392 OA
ATOM     61  H   UNL     1       1.209  72.378  34.547  1.00  0.00     0.210 HD
ENDBRANCH  48  60
ENDBRANCH  26  27
ENDBRANCH   6  26
BRANCH   5  62
ATOM     62  O   UNL     1      -8.474  68.487  27.460  1.00  0.00    -0.385 OA
ATOM     63  H   UNL     1      -7.726  67.845  27.315  1.00  0.00     0.211 HD
ENDBRANCH   5  62
TORSDOF 14
ENDMDL
MODEL 3
REMARK VINA RESULT:    -7.443      2.357     12.693
REMARK INTER + INTRA:         -14.173
REMARK INTER:                 -12.752
REMARK INTRA:                  -1.422
REMARK UNBOUND:                -2.379
REMARK SMILES C[C@H]1O[C@@H](O[C@@H]2CC[C@]3(C)[C@@H](CC[C@@]4(C)[C@H]3C=C[C@@]35OC[C@]6(CCC(C)(C)C[C@@H]63)[C@@H](O)C[C@]45C)[C@@]2(C)CO)[C@@H](O)[C@@H](O[C@@H]2O[C@H](CO)[C@@H](O)[C@@H](O)[C@@H]2O)[C@H]1O
REMARK SMILES IDX 1 1 2 2 54 3 41 4 39 5 4 6 3 7 55 8 42 10 43 11 52 12 44 13
REMARK SMILES IDX 50 14 45 15 48 16 53 17 51 19 46 21 47 22 49 24 5 26 6 27
REMARK SMILES IDX 7 28 35 29 8 30 11 31 36 32 9 33 12 34 10 35 16 36 13 37
REMARK SMILES IDX 14 38 17 39 15 40 33 41 18 42 19 43 32 44 34 45 29 46 20 47
REMARK SMILES IDX 30 48 22 49 28 50 21 51 23 52 25 53 24 54 26 55 27 56 37 57
REMARK SMILES IDX 38 58 31 60 40 62
REMARK H PARENT 55 9 53 18 51 20 47 23 49 25 38 59 31 61 40 63
REMARK Flexibility Score: inf
ROOT
ATOM      1  C   UNL     1      -1.390  64.896  28.630  1.00  0.00     0.041 C 
ATOM      2  C   UNL     1      -2.152  66.212  28.426  1.00  0.00     0.150 C 
ATOM      3  C   UNL     1      -1.246  67.489  28.504  1.00  0.00     0.175 C 
ATOM      4  C   UNL     1      -1.597  68.399  29.701  1.00  0.00     0.186 C 
ATOM      5  C   UNL     1      -3.146  68.639  29.760  1.00  0.00     0.202 C 
ATOM      6  C   UNL     1      -3.968  67.449  29.191  1.00  0.00     0.282 C 
ATOM      7  O   UNL     1      -3.221  66.253  29.353  1.00  0.00    -0.344 OA
ENDROOT
BRANCH   3   8
ATOM      8  O   UNL     1       0.123  67.177  28.527  1.00  0.00    -0.388 OA
ATOM      9  H   UNL     1       0.241  66.420  29.154  1.00  0.00     0.211 HD
ENDBRANCH   3   8
BRANCH   4  10
ATOM     10  O   UNL     1      -1.113  67.813  30.913  1.00  0.00    -0.341 OA
BRANCH  10  11
ATOM     11  C   UNL     1       0.087  68.404  31.426  1.00  0.00     0.282 C 
ATOM     12  C   UNL     1      -0.210  69.682  32.273  1.00  0.00     0.202 C 
ATOM     13  O   UNL     1       0.884  67.488  32.164  1.00  0.00    -0.341 OA
ATOM     14  C   UNL     1       0.911  69.943  33.308  1.00  0.00     0.179 C 
ATOM     15  C   UNL     1       2.205  67.969  32.410  1.00  0.00     0.178 C 
ATOM     16  C   UNL     1       2.258  69.514  32.725  1.00  0.00     0.177 C 
BRANCH  12  17
ATOM     17  O   UNL     1      -1.460  69.605  32.917  1.00  0.00    -0.385 OA
ATOM     18  H   UNL     1      -1.664  68.646  33.065  1.00  0.00     0.211 HD
ENDBRANCH  12  17
BRANCH  14  19
ATOM     19  O   UNL     1       0.937  71.307  33.646  1.00  0.00    -0.387 OA
ATOM     20  H   UNL     1       1.243  71.801  32.842  1.00  0.00     0.211 HD
ENDBRANCH  14  19
BRANCH  15  21
ATOM     21  C   UNL     1       2.823  67.075  33.526  1.00  0.00     0.191 C 
BRANCH  21  22
ATOM     22  O   UNL     1       2.089  67.072  34.725  1.00  0.00    -0.394 OA
ATOM     23  H   UNL     1       2.151  67.993  35.094  1.00  0.00     0.210 HD
ENDBRANCH  21  22
ENDBRANCH  15  21
BRANCH  16  24
ATOM     24  O   UNL     1       2.524  70.293  31.578  1.00  0.00    -0.387 OA
ATOM     25  H   UNL     1       3.462  70.118  31.292  1.00  0.00     0.211 HD
ENDBRANCH  16  24
ENDBRANCH  10  11
ENDBRANCH   4  10
BRANCH   6  26
ATOM     26  O   UNL     1      -5.213  67.359  29.873  1.00  0.00    -0.346 OA
BRANCH  26  27
ATOM     27  C   UNL     1      -6.318  67.663  29.031  1.00  0.00     0.130 C 
ATOM     28  C   UNL     1      -5.809  68.350  27.757  1.00  0.00     0.033 C 
ATOM     29  C   UNL     1      -7.324  68.577  29.797  1.00  0.00     0.020 C 
ATOM     30  C   UNL     1      -6.964  68.658  26.795  1.00  0.00     0.010 C 
ATOM     31  C   UNL     1      -8.530  69.014  28.843  1.00  0.00     0.006 C 
ATOM     32  C   UNL     1      -6.601  69.848  30.352  1.00  0.00     0.017 C 
ATOM     33  C   UNL     1      -8.122  69.539  27.386  1.00  0.00    -0.022 C 
ATOM     34  C   UNL     1      -9.671  67.972  28.728  1.00  0.00     0.005 C 
ATOM     35  C   UNL     1      -7.642  71.027  27.460  1.00  0.00     0.012 C 
ATOM     36  C   UNL     1      -9.360  69.408  26.374  1.00  0.00     0.024 C 
ATOM     37  C   UNL     1     -10.976  68.597  28.199  1.00  0.00     0.008 C 
ATOM     38  C   UNL     1     -10.794  69.589  27.002  1.00  0.00    -0.017 C 
ATOM     39  C   UNL     1      -9.221  70.154  25.045  1.00  0.00    -0.024 C 
ATOM     40  C   UNL     1     -10.892  71.047  27.581  1.00  0.00     0.013 C 
ATOM     41  C   UNL     1     -11.885  69.307  25.835  1.00  0.00     0.009 C 
ATOM     42  C   UNL     1     -10.272  70.521  24.274  1.00  0.00     0.005 C 
ATOM     43  C   UNL     1     -11.724  70.423  24.722  1.00  0.00     0.096 C 
ATOM     44  C   UNL     1     -13.362  69.325  26.377  1.00  0.00     0.043 C 
ATOM     45  C   UNL     1     -11.633  67.882  25.219  1.00  0.00     0.015 C 
ATOM     46  C   UNL     1     -12.692  70.294  23.536  1.00  0.00     0.037 C 
ATOM     47  O   UNL     1     -12.108  71.684  25.268  1.00  0.00    -0.369 OA
ATOM     48  C   UNL     1     -14.453  69.637  25.296  1.00  0.00     0.124 C 
ATOM     49  C   UNL     1     -13.991  70.676  24.208  1.00  0.00     0.026 C 
ATOM     50  C   UNL     1     -12.850  69.113  22.569  1.00  0.00     0.014 C 
ATOM     51  C   UNL     1     -13.468  71.923  24.929  1.00  0.00     0.171 C 
ATOM     52  C   UNL     1     -15.125  70.955  23.166  1.00  0.00     0.013 C 
ATOM     53  C   UNL     1     -13.842  69.494  21.405  1.00  0.00    -0.035 C 
ATOM     54  C   UNL     1     -14.675  70.796  21.698  1.00  0.00     0.007 C 
ATOM     55  C   UNL     1     -13.029  69.738  20.112  1.00  0.00     0.011 C 
ATOM     56  C   UNL     1     -14.811  68.322  21.140  1.00  0.00     0.011 C 
BRANCH  29  57
ATOM     57  C   UNL     1      -7.831  67.837  31.085  1.00  0.00     0.165 C 
BRANCH  57  58
ATOM     58  O   UNL     1      -6.905  67.878  32.136  1.00  0.00    -0.396 OA
ATOM     59  H   UNL     1      -6.517  66.962  32.223  1.00  0.00     0.210 HD
ENDBRANCH  57  58
ENDBRANCH  29  57
BRANCH  48  60
ATOM     60  O   UNL     1     -15.014  68.484  24.697  1.00  0.00    -0.392 OA
ATOM     61  H   UNL     1     -15.369  68.691  23.802  1.00  0.00     0.210 HD
ENDBRANCH  48  60
ENDBRANCH  26  27
ENDBRANCH   6  26
BRANCH   5  62
ATOM     62  O   UNL     1      -3.558  68.973  31.062  1.00  0.00    -0.385 OA
ATOM     63  H   UNL     1      -3.450  68.161  31.629  1.00  0.00     0.211 HD
ENDBRANCH   5  62
TORSDOF 14
ENDMDL
MODEL 4
REMARK VINA RESULT:    -7.384      2.840     12.758
REMARK INTER + INTRA:         -14.080
REMARK INTER:                 -11.975
REMARK INTRA:                  -2.106
REMARK UNBOUND:                -2.379
REMARK SMILES C[C@H]1O[C@@H](O[C@@H]2CC[C@]3(C)[C@@H](CC[C@@]4(C)[C@H]3C=C[C@@]35OC[C@]6(CCC(C)(C)C[C@@H]63)[C@@H](O)C[C@]45C)[C@@]2(C)CO)[C@@H](O)[C@@H](O[C@@H]2O[C@H](CO)[C@@H](O)[C@@H](O)[C@@H]2O)[C@H]1O
REMARK SMILES IDX 1 1 2 2 54 3 41 4 39 5 4 6 3 7 55 8 42 10 43 11 52 12 44 13
REMARK SMILES IDX 50 14 45 15 48 16 53 17 51 19 46 21 47 22 49 24 5 26 6 27
REMARK SMILES IDX 7 28 35 29 8 30 11 31 36 32 9 33 12 34 10 35 16 36 13 37
REMARK SMILES IDX 14 38 17 39 15 40 33 41 18 42 19 43 32 44 34 45 29 46 20 47
REMARK SMILES IDX 30 48 22 49 28 50 21 51 23 52 25 53 24 54 26 55 27 56 37 57
REMARK SMILES IDX 38 58 31 60 40 62
REMARK H PARENT 55 9 53 18 51 20 47 23 49 25 38 59 31 61 40 63
REMARK Flexibility Score: inf
ROOT
ATOM      1  C   UNL     1      -2.037  67.019  30.121  1.00  0.00     0.041 C 
ATOM      2  C   UNL     1      -0.999  67.497  29.097  1.00  0.00     0.150 C 
ATOM      3  C   UNL     1       0.473  67.493  29.634  1.00  0.00     0.175 C 
ATOM      4  C   UNL     1       1.082  68.910  29.719  1.00  0.00     0.186 C 
ATOM      5  C   UNL     1       0.831  69.686  28.379  1.00  0.00     0.202 C 
ATOM      6  C   UNL     1      -0.474  69.249  27.658  1.00  0.00     0.282 C 
ATOM      7  O   UNL     1      -1.397  68.770  28.624  1.00  0.00    -0.344 OA
ENDROOT
BRANCH   3   8
ATOM      8  O   UNL     1       0.590  66.848  30.876  1.00  0.00    -0.388 OA
ATOM      9  H   UNL     1      -0.113  67.216  31.466  1.00  0.00     0.211 HD
ENDBRANCH   3   8
BRANCH   4  10
ATOM     10  O   UNL     1       0.528  69.608  30.838  1.00  0.00    -0.341 OA
BRANCH  10  11
ATOM     11  C   UNL     1       1.484  69.999  31.831  1.00  0.00     0.282 C 
ATOM     12  C   UNL     1       1.007  71.248  32.638  1.00  0.00     0.202 C 
ATOM     13  O   UNL     1       1.835  68.939  32.711  1.00  0.00    -0.341 OA
ATOM     14  C   UNL     1       1.653  71.289  34.043  1.00  0.00     0.179 C 
ATOM     15  C   UNL     1       2.995  69.222  33.492  1.00  0.00     0.178 C 
ATOM     16  C   UNL     1       3.072  70.724  33.973  1.00  0.00     0.177 C 
BRANCH  12  17
ATOM     17  O   UNL     1      -0.397  71.297  32.746  1.00  0.00    -0.385 OA
ATOM     18  H   UNL     1      -0.745  70.388  32.558  1.00  0.00     0.211 HD
ENDBRANCH  12  17
BRANCH  14  19
ATOM     19  O   UNL     1       1.679  72.614  34.516  1.00  0.00    -0.387 OA
ATOM     20  H   UNL     1       0.930  73.094  34.078  1.00  0.00     0.211 HD
ENDBRANCH  14  19
BRANCH  15  21
ATOM     21  C   UNL     1       3.037  68.184  34.652  1.00  0.00     0.191 C 
BRANCH  21  22
ATOM     22  O   UNL     1       2.047  67.190  34.563  1.00  0.00    -0.394 OA
ATOM     23  H   UNL     1       1.820  67.105  33.599  1.00  0.00     0.210 HD
ENDBRANCH  21  22
ENDBRANCH  15  21
BRANCH  16  24
ATOM     24  O   UNL     1       3.840  71.532  33.108  1.00  0.00    -0.387 OA
ATOM     25  H   UNL     1       4.677  71.041  32.882  1.00  0.00     0.211 HD
ENDBRANCH  16  24
ENDBRANCH  10  11
ENDBRANCH   4  10
BRANCH   6  26
ATOM     26  O   UNL     1      -1.019  70.353  26.946  1.00  0.00    -0.346 OA
BRANCH  26  27
ATOM     27  C   UNL     1      -2.421  70.229  26.741  1.00  0.00     0.130 C 
ATOM     28  C   UNL     1      -2.679  69.665  25.337  1.00  0.00     0.033 C 
ATOM     29  C   UNL     1      -3.101  71.622  26.919  1.00  0.00     0.020 C 
ATOM     30  C   UNL     1      -4.180  69.472  25.086  1.00  0.00     0.010 C 
ATOM     31  C   UNL     1      -4.665  71.533  26.600  1.00  0.00     0.006 C 
ATOM     32  C   UNL     1      -2.431  72.686  25.989  1.00  0.00     0.017 C 
ATOM     33  C   UNL     1      -5.067  70.757  25.258  1.00  0.00    -0.022 C 
ATOM     34  C   UNL     1      -5.536  71.034  27.779  1.00  0.00     0.005 C 
ATOM     35  C   UNL     1      -4.866  71.685  24.013  1.00  0.00     0.012 C 
ATOM     36  C   UNL     1      -6.589  70.256  25.333  1.00  0.00     0.024 C 
ATOM     37  C   UNL     1      -7.023  71.393  27.595  1.00  0.00     0.008 C 
ATOM     38  C   UNL     1      -7.582  71.166  26.151  1.00  0.00    -0.017 C 
ATOM     39  C   UNL     1      -7.205  69.783  24.014  1.00  0.00    -0.024 C 
ATOM     40  C   UNL     1      -7.648  72.571  25.447  1.00  0.00     0.013 C 
ATOM     41  C   UNL     1      -9.021  70.420  26.189  1.00  0.00     0.009 C 
ATOM     42  C   UNL     1      -8.538  69.738  23.778  1.00  0.00     0.005 C 
ATOM     43  C   UNL     1      -9.581  70.341  24.709  1.00  0.00     0.096 C 
ATOM     44  C   UNL     1     -10.064  71.172  27.097  1.00  0.00     0.043 C 
ATOM     45  C   UNL     1      -8.844  68.975  26.783  1.00  0.00     0.015 C 
ATOM     46  C   UNL     1     -10.949  69.653  24.573  1.00  0.00     0.037 C 
ATOM     47  O   UNL     1      -9.878  71.659  24.252  1.00  0.00    -0.369 OA
ATOM     48  C   UNL     1     -11.564  70.882  26.751  1.00  0.00     0.124 C 
ATOM     49  C   UNL     1     -11.837  70.696  25.212  1.00  0.00     0.026 C 
ATOM     50  C   UNL     1     -11.331  68.222  24.975  1.00  0.00     0.014 C 
ATOM     51  C   UNL     1     -11.260  71.909  24.474  1.00  0.00     0.171 C 
ATOM     52  C   UNL     1     -13.352  70.422  24.929  1.00  0.00     0.013 C 
ATOM     53  C   UNL     1     -12.795  67.896  24.492  1.00  0.00    -0.035 C 
ATOM     54  C   UNL     1     -13.607  69.172  24.060  1.00  0.00     0.007 C 
ATOM     55  C   UNL     1     -12.721  66.951  23.270  1.00  0.00     0.011 C 
ATOM     56  C   UNL     1     -13.563  67.162  25.612  1.00  0.00     0.011 C 
BRANCH  29  57
ATOM     57  C   UNL     1      -2.826  72.160  28.369  1.00  0.00     0.165 C 
BRANCH  57  58
ATOM     58  O   UNL     1      -1.525  72.656  28.527  1.00  0.00    -0.396 OA
ATOM     59  H   UNL     1      -1.112  72.162  29.290  1.00  0.00     0.210 HD
ENDBRANCH  57  58
ENDBRANCH  29  57
BRANCH  48  60
ATOM     60  O   UNL     1     -12.134  69.827  27.503  1.00  0.00    -0.392 OA
ATOM     61  H   UNL     1     -12.369  69.069  26.921  1.00  0.00     0.210 HD
ENDBRANCH  48  60
ENDBRANCH  26  27
ENDBRANCH   6  26
BRANCH   5  62
ATOM     62  O   UNL     1       0.864  71.076  28.585  1.00  0.00    -0.385 OA
ATOM     63  H   UNL     1       1.673  71.280  29.130  1.00  0.00     0.211 HD
ENDBRANCH   5  62
TORSDOF 14
ENDMDL
MODEL 5
REMARK VINA RESULT:    -7.368      2.240     12.324
REMARK INTER + INTRA:         -14.054
REMARK INTER:                 -11.519
REMARK INTRA:                  -2.535
REMARK UNBOUND:                -2.379
REMARK SMILES C[C@H]1O[C@@H](O[C@@H]2CC[C@]3(C)[C@@H](CC[C@@]4(C)[C@H]3C=C[C@@]35OC[C@]6(CCC(C)(C)C[C@@H]63)[C@@H](O)C[C@]45C)[C@@]2(C)CO)[C@@H](O)[C@@H](O[C@@H]2O[C@H](CO)[C@@H](O)[C@@H](O)[C@@H]2O)[C@H]1O
REMARK SMILES IDX 1 1 2 2 54 3 41 4 39 5 4 6 3 7 55 8 42 10 43 11 52 12 44 13
REMARK SMILES IDX 50 14 45 15 48 16 53 17 51 19 46 21 47 22 49 24 5 26 6 27
REMARK SMILES IDX 7 28 35 29 8 30 11 31 36 32 9 33 12 34 10 35 16 36 13 37
REMARK SMILES IDX 14 38 17 39 15 40 33 41 18 42 19 43 32 44 34 45 29 46 20 47
REMARK SMILES IDX 30 48 22 49 28 50 21 51 23 52 25 53 24 54 26 55 27 56 37 57
REMARK SMILES IDX 38 58 31 60 40 62
REMARK H PARENT 55 9 53 18 51 20 47 23 49 25 38 59 31 61 40 63
REMARK Flexibility Score: inf
ROOT
ATOM      1  C   UNL     1      -0.824  72.172  29.669  1.00  0.00     0.041 C 
ATOM      2  C   UNL     1      -0.792  71.471  31.033  1.00  0.00     0.150 C 
ATOM      3  C   UNL     1       0.639  71.014  31.480  1.00  0.00     0.175 C 
ATOM      4  C   UNL     1       0.771  69.478  31.583  1.00  0.00     0.186 C 
ATOM      5  C   UNL     1      -0.435  68.887  32.394  1.00  0.00     0.202 C 
ATOM      6  C   UNL     1      -1.735  69.727  32.251  1.00  0.00     0.282 C 
ATOM      7  O   UNL     1      -1.715  70.398  31.001  1.00  0.00    -0.344 OA
ENDROOT
BRANCH   3   8
ATOM      8  O   UNL     1       1.650  71.525  30.651  1.00  0.00    -0.388 OA
ATOM      9  H   UNL     1       2.415  70.899  30.699  1.00  0.00     0.211 HD
ENDBRANCH   3   8
BRANCH   4  10
ATOM     10  O   UNL     1       0.847  68.910  30.273  1.00  0.00    -0.341 OA
BRANCH  10  11
ATOM     11  C   UNL     1       2.028  68.137  30.024  1.00  0.00     0.282 C 
ATOM     12  C   UNL     1       1.710  66.614  29.901  1.00  0.00     0.202 C 
ATOM     13  O   UNL     1       2.757  68.589  28.891  1.00  0.00    -0.341 OA
ATOM     14  C   UNL     1       2.772  65.886  29.043  1.00  0.00     0.179 C 
ATOM     15  C   UNL     1       4.072  68.039  28.817  1.00  0.00     0.178 C 
ATOM     16  C   UNL     1       4.142  66.528  29.267  1.00  0.00     0.177 C 
BRANCH  12  17
ATOM     17  O   UNL     1       0.422  66.386  29.379  1.00  0.00    -0.385 OA
ATOM     18  H   UNL     1       0.265  67.055  28.663  1.00  0.00     0.211 HD
ENDBRANCH  12  17
BRANCH  14  19
ATOM     19  O   UNL     1       2.810  64.523  29.388  1.00  0.00    -0.387 OA
ATOM     20  H   UNL     1       2.764  64.007  28.542  1.00  0.00     0.211 HD
ENDBRANCH  14  19
BRANCH  15  21
ATOM     21  C   UNL     1       4.600  68.294  27.375  1.00  0.00     0.191 C 
BRANCH  21  22
ATOM     22  O   UNL     1       4.072  69.448  26.769  1.00  0.00    -0.394 OA
ATOM     23  H   UNL     1       4.849  70.007  26.504  1.00  0.00     0.210 HD
ENDBRANCH  21  22
ENDBRANCH  15  21
BRANCH  16  24
ATOM     24  O   UNL     1       4.494  66.381  30.626  1.00  0.00    -0.387 OA
ATOM     25  H   UNL     1       5.005  65.532  30.726  1.00  0.00     0.211 HD
ENDBRANCH  16  24
ENDBRANCH  10  11
ENDBRANCH   4  10
BRANCH   6  26
ATOM     26  O   UNL     1      -2.868  68.872  32.344  1.00  0.00    -0.346 OA
BRANCH  26  27
ATOM     27  C   UNL     1      -3.863  69.181  31.377  1.00  0.00     0.130 C 
ATOM     28  C   UNL     1      -4.979  69.998  32.043  1.00  0.00     0.033 C 
ATOM     29  C   UNL     1      -4.425  67.861  30.763  1.00  0.00     0.020 C 
ATOM     30  C   UNL     1      -6.058  70.394  31.026  1.00  0.00     0.010 C 
ATOM     31  C   UNL     1      -5.614  68.174  29.742  1.00  0.00     0.006 C 
ATOM     32  C   UNL     1      -4.932  66.902  31.889  1.00  0.00     0.017 C 
ATOM     33  C   UNL     1      -6.729  69.204  30.252  1.00  0.00    -0.022 C 
ATOM     34  C   UNL     1      -5.153  68.560  28.314  1.00  0.00     0.005 C 
ATOM     35  C   UNL     1      -7.739  68.482  31.206  1.00  0.00     0.012 C 
ATOM     36  C   UNL     1      -7.510  69.848  29.008  1.00  0.00     0.024 C 
ATOM     37  C   UNL     1      -6.282  68.402  27.277  1.00  0.00     0.008 C 
ATOM     38  C   UNL     1      -7.681  68.928  27.740  1.00  0.00    -0.017 C 
ATOM     39  C   UNL     1      -8.800  70.601  29.343  1.00  0.00    -0.024 C 
ATOM     40  C   UNL     1      -8.538  67.678  28.157  1.00  0.00     0.013 C 
ATOM     41  C   UNL     1      -8.390  69.810  26.579  1.00  0.00     0.009 C 
ATOM     42  C   UNL     1      -9.792  70.831  28.451  1.00  0.00     0.005 C 
ATOM     43  C   UNL     1      -9.846  70.198  27.067  1.00  0.00     0.096 C 
ATOM     44  C   UNL     1      -8.490  69.036  25.213  1.00  0.00     0.043 C 
ATOM     45  C   UNL     1      -7.539  71.107  26.317  1.00  0.00     0.015 C 
ATOM     46  C   UNL     1     -10.655  71.045  26.071  1.00  0.00     0.037 C 
ATOM     47  O   UNL     1     -10.641  69.016  27.147  1.00  0.00    -0.369 OA
ATOM     48  C   UNL     1      -9.620  69.542  24.253  1.00  0.00     0.124 C 
ATOM     49  C   UNL     1     -10.924  70.013  25.000  1.00  0.00     0.026 C 
ATOM     50  C   UNL     1     -10.299  72.421  25.493  1.00  0.00     0.014 C 
ATOM     51  C   UNL     1     -11.373  68.886  25.935  1.00  0.00     0.171 C 
ATOM     52  C   UNL     1     -12.018  70.495  23.990  1.00  0.00     0.013 C 
ATOM     53  C   UNL     1     -11.504  72.982  24.647  1.00  0.00    -0.035 C 
ATOM     54  C   UNL     1     -12.589  71.893  24.310  1.00  0.00     0.007 C 
ATOM     55  C   UNL     1     -12.201  74.106  25.450  1.00  0.00     0.011 C 
ATOM     56  C   UNL     1     -10.978  73.597  23.332  1.00  0.00     0.011 C 
BRANCH  29  57
ATOM     57  C   UNL     1      -3.258  67.061  30.081  1.00  0.00     0.165 C 
BRANCH  57  58
ATOM     58  O   UNL     1      -2.212  67.888  29.650  1.00  0.00    -0.396 OA
ATOM     59  H   UNL     1      -1.358  67.410  29.847  1.00  0.00     0.210 HD
ENDBRANCH  57  58
ENDBRANCH  29  57
BRANCH  48  60
ATOM     60  O   UNL     1      -9.188  70.512  23.318  1.00  0.00    -0.392 OA
ATOM     61  H   UNL     1      -8.267  70.802  23.512  1.00  0.00     0.210 HD
ENDBRANCH  48  60
ENDBRANCH  26  27
ENDBRANCH   6  26
BRANCH   5  62
ATOM     62  O   UNL     1      -0.655  67.539  32.064  1.00  0.00    -0.385 OA
ATOM     63  H   UNL     1       0.150  67.213  31.576  1.00  0.00     0.211 HD
ENDBRANCH   5  62
TORSDOF 14
ENDMDL
MODEL 6
REMARK VINA RESULT:    -7.366      2.869      4.821
REMARK INTER + INTRA:         -14.050
REMARK INTER:                 -11.866
REMARK INTRA:                  -2.185
REMARK UNBOUND:                -2.379
REMARK SMILES C[C@H]1O[C@@H](O[C@@H]2CC[C@]3(C)[C@@H](CC[C@@]4(C)[C@H]3C=C[C@@]35OC[C@]6(CCC(C)(C)C[C@@H]63)[C@@H](O)C[C@]45C)[C@@]2(C)CO)[C@@H](O)[C@@H](O[C@@H]2O[C@H](CO)[C@@H](O)[C@@H](O)[C@@H]2O)[C@H]1O
REMARK SMILES IDX 1 1 2 2 54 3 41 4 39 5 4 6 3 7 55 8 42 10 43 11 52 12 44 13
REMARK SMILES IDX 50 14 45 15 48 16 53 17 51 19 46 21 47 22 49 24 5 26 6 27
REMARK SMILES IDX 7 28 35 29 8 30 11 31 36 32 9 33 12 34 10 35 16 36 13 37
REMARK SMILES IDX 14 38 17 39 15 40 33 41 18 42 19 43 32 44 34 45 29 46 20 47
REMARK SMILES IDX 30 48 22 49 28 50 21 51 23 52 25 53 24 54 26 55 27 56 37 57
REMARK SMILES IDX 38 58 31 60 40 62
REMARK H PARENT 55 9 53 18 51 20 47 23 49 25 38 59 31 61 40 63
REMARK Flexibility Score: inf
ROOT
ATOM      1  C   UNL     1     -10.248  66.616  28.479  1.00  0.00     0.041 C 
ATOM      2  C   UNL     1     -10.990  67.952  28.343  1.00  0.00     0.150 C 
ATOM      3  C   UNL     1     -12.425  67.821  27.726  1.00  0.00     0.175 C 
ATOM      4  C   UNL     1     -12.554  68.524  26.357  1.00  0.00     0.186 C 
ATOM      5  C   UNL     1     -11.959  69.974  26.437  1.00  0.00     0.202 C 
ATOM      6  C   UNL     1     -10.808  70.102  27.473  1.00  0.00     0.282 C 
ATOM      7  O   UNL     1     -10.168  68.843  27.611  1.00  0.00    -0.344 OA
ENDROOT
BRANCH   3   8
ATOM      8  O   UNL     1     -12.844  66.485  27.618  1.00  0.00    -0.388 OA
ATOM      9  H   UNL     1     -13.754  66.493  27.230  1.00  0.00     0.211 HD
ENDBRANCH   3   8
BRANCH   4  10
ATOM     10  O   UNL     1     -11.900  67.747  25.351  1.00  0.00    -0.341 OA
BRANCH  10  11
ATOM     11  C   UNL     1     -12.686  67.505  24.177  1.00  0.00     0.282 C 
ATOM     12  C   UNL     1     -12.148  68.297  22.944  1.00  0.00     0.202 C 
ATOM     13  O   UNL     1     -12.811  66.123  23.869  1.00  0.00    -0.341 OA
ATOM     14  C   UNL     1     -12.536  67.601  21.617  1.00  0.00     0.179 C 
ATOM     15  C   UNL     1     -13.828  65.856  22.905  1.00  0.00     0.178 C 
ATOM     16  C   UNL     1     -13.908  66.943  21.763  1.00  0.00     0.177 C 
BRANCH  12  17
ATOM     17  O   UNL     1     -10.753  68.483  23.007  1.00  0.00    -0.385 OA
ATOM     18  H   UNL     1     -10.342  67.917  22.303  1.00  0.00     0.211 HD
ENDBRANCH  12  17
BRANCH  14  19
ATOM     19  O   UNL     1     -12.556  68.544  20.574  1.00  0.00    -0.387 OA
ATOM     20  H   UNL     1     -11.643  68.573  20.189  1.00  0.00     0.211 HD
ENDBRANCH  14  19
BRANCH  15  21
ATOM     21  C   UNL     1     -13.601  64.406  22.381  1.00  0.00     0.191 C 
BRANCH  21  22
ATOM     22  O   UNL     1     -12.246  64.058  22.238  1.00  0.00    -0.394 OA
ATOM     23  H   UNL     1     -11.725  64.893  22.378  1.00  0.00     0.210 HD
ENDBRANCH  21  22
ENDBRANCH  15  21
BRANCH  16  24
ATOM     24  O   UNL     1     -14.864  67.945  22.035  1.00  0.00    -0.387 OA
ATOM     25  H   UNL     1     -15.771  67.561  21.883  1.00  0.00     0.211 HD
ENDBRANCH  16  24
ENDBRANCH  10  11
ENDBRANCH   4  10
BRANCH   6  26
ATOM     26  O   UNL     1      -9.881  71.090  27.037  1.00  0.00    -0.346 OA
BRANCH  26  27
ATOM     27  C   UNL     1      -8.555  70.822  27.473  1.00  0.00     0.130 C 
ATOM     28  C   UNL     1      -8.132  71.887  28.493  1.00  0.00     0.033 C 
ATOM     29  C   UNL     1      -7.592  70.810  26.245  1.00  0.00     0.020 C 
ATOM     30  C   UNL     1      -6.720  71.614  29.027  1.00  0.00     0.010 C 
ATOM     31  C   UNL     1      -6.078  70.606  26.715  1.00  0.00     0.006 C 
ATOM     32  C   UNL     1      -7.720  72.139  25.431  1.00  0.00     0.017 C 
ATOM     33  C   UNL     1      -5.592  71.517  27.939  1.00  0.00    -0.022 C 
ATOM     34  C   UNL     1      -5.672  69.131  26.960  1.00  0.00     0.005 C 
ATOM     35  C   UNL     1      -5.242  72.958  27.438  1.00  0.00     0.012 C 
ATOM     36  C   UNL     1      -4.318  70.858  28.658  1.00  0.00     0.024 C 
ATOM     37  C   UNL     1      -4.143  68.943  26.957  1.00  0.00     0.008 C 
ATOM     38  C   UNL     1      -3.340  70.040  27.731  1.00  0.00    -0.017 C 
ATOM     39  C   UNL     1      -3.557  71.760  29.632  1.00  0.00    -0.024 C 
ATOM     40  C   UNL     1      -2.743  71.026  26.663  1.00  0.00     0.013 C 
ATOM     41  C   UNL     1      -2.200  69.378  28.675  1.00  0.00     0.009 C 
ATOM     42  C   UNL     1      -2.267  71.562  29.993  1.00  0.00     0.005 C 
ATOM     43  C   UNL     1      -1.350  70.546  29.324  1.00  0.00     0.096 C 
ATOM     44  C   UNL     1      -1.241  68.421  27.876  1.00  0.00     0.043 C 
ATOM     45  C   UNL     1      -2.888  68.515  29.796  1.00  0.00     0.015 C 
ATOM     46  C   UNL     1      -0.221  70.080  30.257  1.00  0.00     0.037 C 
ATOM     47  O   UNL     1      -0.617  71.214  28.299  1.00  0.00    -0.369 OA
ATOM     48  C   UNL     1       0.168  68.210  28.529  1.00  0.00     0.124 C 
ATOM     49  C   UNL     1       0.736  69.492  29.245  1.00  0.00     0.026 C 
ATOM     50  C   UNL     1      -0.336  69.228  31.528  1.00  0.00     0.014 C 
ATOM     51  C   UNL     1       0.690  70.655  28.248  1.00  0.00     0.171 C 
ATOM     52  C   UNL     1       2.147  69.222  29.866  1.00  0.00     0.013 C 
ATOM     53  C   UNL     1       1.061  69.144  32.253  1.00  0.00    -0.035 C 
ATOM     54  C   UNL     1       2.259  69.622  31.353  1.00  0.00     0.007 C 
ATOM     55  C   UNL     1       1.029  70.045  33.509  1.00  0.00     0.011 C 
ATOM     56  C   UNL     1       1.322  67.695  32.717  1.00  0.00     0.011 C 
BRANCH  29  57
ATOM     57  C   UNL     1      -8.048  69.700  25.231  1.00  0.00     0.165 C 
BRANCH  57  58
ATOM     58  O   UNL     1      -8.913  70.189  24.243  1.00  0.00    -0.396 OA
ATOM     59  H   UNL     1      -9.310  71.036  24.592  1.00  0.00     0.210 HD
ENDBRANCH  57  58
ENDBRANCH  29  57
BRANCH  48  60
ATOM     60  O   UNL     1       0.245  67.077  29.373  1.00  0.00    -0.392 OA
ATOM     61  H   UNL     1       1.156  66.967  29.732  1.00  0.00     0.210 HD
ENDBRANCH  48  60
ENDBRANCH  26  27
ENDBRANCH   6  26
BRANCH   5  62
ATOM     62  O   UNL     1     -11.563  70.429  25.168  1.00  0.00    -0.385 OA
ATOM     63  H   UNL     1     -10.887  69.788  24.815  1.00  0.00     0.211 HD
ENDBRANCH   5  62
TORSDOF 14
ENDMDL
MODEL 7
REMARK VINA RESULT:    -7.334      2.217     12.741
REMARK INTER + INTRA:         -14.001
REMARK INTER:                 -11.857
REMARK INTRA:                  -2.143
REMARK UNBOUND:                -2.379
REMARK SMILES C[C@H]1O[C@@H](O[C@@H]2CC[C@]3(C)[C@@H](CC[C@@]4(C)[C@H]3C=C[C@@]35OC[C@]6(CCC(C)(C)C[C@@H]63)[C@@H](O)C[C@]45C)[C@@]2(C)CO)[C@@H](O)[C@@H](O[C@@H]2O[C@H](CO)[C@@H](O)[C@@H](O)[C@@H]2O)[C@H]1O
REMARK SMILES IDX 1 1 2 2 54 3 41 4 39 5 4 6 3 7 55 8 42 10 43 11 52 12 44 13
REMARK SMILES IDX 50 14 45 15 48 16 53 17 51 19 46 21 47 22 49 24 5 26 6 27
REMARK SMILES IDX 7 28 35 29 8 30 11 31 36 32 9 33 12 34 10 35 16 36 13 37
REMARK SMILES IDX 14 38 17 39 15 40 33 41 18 42 19 43 32 44 34 45 29 46 20 47
REMARK SMILES IDX 30 48 22 49 28 50 21 51 23 52 25 53 24 54 26 55 27 56 37 57
REMARK SMILES IDX 38 58 31 60 40 62
REMARK H PARENT 55 9 53 18 51 20 47 23 49 25 38 59 31 61 40 63
REMARK Flexibility Score: inf
ROOT
ATOM      1  C   UNL     1      -0.948  71.877  28.980  1.00  0.00     0.041 C 
ATOM      2  C   UNL     1      -1.205  71.484  30.440  1.00  0.00     0.150 C 
ATOM      3  C   UNL     1       0.099  71.204  31.263  1.00  0.00     0.175 C 
ATOM      4  C   UNL     1       0.212  69.734  31.724  1.00  0.00     0.186 C 
ATOM      5  C   UNL     1      -1.137  69.269  32.376  1.00  0.00     0.202 C 
ATOM      6  C   UNL     1      -2.380  69.994  31.788  1.00  0.00     0.282 C 
ATOM      7  O   UNL     1      -2.097  70.384  30.453  1.00  0.00    -0.344 OA
ENDROOT
BRANCH   3   8
ATOM      8  O   UNL     1       1.262  71.577  30.570  1.00  0.00    -0.388 OA
ATOM      9  H   UNL     1       2.010  71.046  30.941  1.00  0.00     0.211 HD
ENDBRANCH   3   8
BRANCH   4  10
ATOM     10  O   UNL     1       0.567  68.906  30.614  1.00  0.00    -0.341 OA
BRANCH  10  11
ATOM     11  C   UNL     1       1.599  67.950  30.887  1.00  0.00     0.282 C 
ATOM     12  C   UNL     1       2.872  68.203  30.019  1.00  0.00     0.202 C 
ATOM     13  O   UNL     1       1.940  67.882  32.265  1.00  0.00    -0.341 OA
ATOM     14  C   UNL     1       4.142  67.647  30.706  1.00  0.00     0.179 C 
ATOM     15  C   UNL     1       2.727  66.737  32.590  1.00  0.00     0.178 C 
ATOM     16  C   UNL     1       3.792  66.376  31.482  1.00  0.00     0.177 C 
BRANCH  12  17
ATOM     17  O   UNL     1       3.039  69.569  29.718  1.00  0.00    -0.385 OA
ATOM     18  H   UNL     1       3.649  69.954  30.398  1.00  0.00     0.211 HD
ENDBRANCH  12  17
BRANCH  14  19
ATOM     19  O   UNL     1       5.125  67.373  29.739  1.00  0.00    -0.387 OA
ATOM     20  H   UNL     1       5.955  67.831  30.030  1.00  0.00     0.211 HD
ENDBRANCH  14  19
BRANCH  15  21
ATOM     21  C   UNL     1       3.343  66.982  34.000  1.00  0.00     0.191 C 
BRANCH  21  22
ATOM     22  O   UNL     1       2.444  66.768  35.060  1.00  0.00    -0.394 OA
ATOM     23  H   UNL     1       1.540  66.991  34.711  1.00  0.00     0.210 HD
ENDBRANCH  21  22
ENDBRANCH  15  21
BRANCH  16  24
ATOM     24  O   UNL     1       3.319  65.406  30.571  1.00  0.00    -0.387 OA
ATOM     25  H   UNL     1       3.281  65.820  29.666  1.00  0.00     0.211 HD
ENDBRANCH  16  24
ENDBRANCH  10  11
ENDBRANCH   4  10
BRANCH   6  26
ATOM     26  O   UNL     1      -3.504  69.123  31.828  1.00  0.00    -0.346 OA
BRANCH  26  27
ATOM     27  C   UNL     1      -4.492  69.465  30.864  1.00  0.00     0.130 C 
ATOM     28  C   UNL     1      -5.530  70.392  31.511  1.00  0.00     0.033 C 
ATOM     29  C   UNL     1      -5.163  68.167  30.319  1.00  0.00     0.020 C 
ATOM     30  C   UNL     1      -6.595  70.825  30.495  1.00  0.00     0.010 C 
ATOM     31  C   UNL     1      -6.345  68.524  29.304  1.00  0.00     0.006 C 
ATOM     32  C   UNL     1      -5.719  67.298  31.494  1.00  0.00     0.017 C 
ATOM     33  C   UNL     1      -7.369  69.657  29.786  1.00  0.00    -0.022 C 
ATOM     34  C   UNL     1      -5.884  68.813  27.853  1.00  0.00     0.005 C 
ATOM     35  C   UNL     1      -8.412  69.056  30.787  1.00  0.00     0.012 C 
ATOM     36  C   UNL     1      -8.124  70.305  28.527  1.00  0.00     0.024 C 
ATOM     37  C   UNL     1      -7.041  68.697  26.843  1.00  0.00     0.008 C 
ATOM     38  C   UNL     1      -8.388  69.347  27.304  1.00  0.00    -0.017 C 
ATOM     39  C   UNL     1      -9.346  71.167  28.850  1.00  0.00    -0.024 C 
ATOM     40  C   UNL     1      -9.328  68.185  27.791  1.00  0.00     0.013 C 
ATOM     41  C   UNL     1      -9.051  70.230  26.117  1.00  0.00     0.009 C 
ATOM     42  C   UNL     1     -10.336  71.433  27.965  1.00  0.00     0.005 C 
ATOM     43  C   UNL     1     -10.464  70.748  26.611  1.00  0.00     0.096 C 
ATOM     44  C   UNL     1      -9.236  69.407  24.789  1.00  0.00     0.043 C 
ATOM     45  C   UNL     1      -8.110  71.446  25.784  1.00  0.00     0.015 C 
ATOM     46  C   UNL     1     -11.226  71.610  25.592  1.00  0.00     0.037 C 
ATOM     47  O   UNL     1     -11.344  69.634  26.756  1.00  0.00    -0.369 OA
ATOM     48  C   UNL     1     -10.343  69.957  23.826  1.00  0.00     0.124 C 
ATOM     49  C   UNL     1     -11.594  70.557  24.572  1.00  0.00     0.026 C 
ATOM     50  C   UNL     1     -10.779  72.929  24.947  1.00  0.00     0.014 C 
ATOM     51  C   UNL     1     -12.107  69.508  25.564  1.00  0.00     0.171 C 
ATOM     52  C   UNL     1     -12.668  71.077  23.560  1.00  0.00     0.013 C 
ATOM     53  C   UNL     1     -11.955  73.543  24.097  1.00  0.00    -0.035 C 
ATOM     54  C   UNL     1     -13.125  72.527  23.826  1.00  0.00     0.007 C 
ATOM     55  C   UNL     1     -12.549  74.750  24.861  1.00  0.00     0.011 C 
ATOM     56  C   UNL     1     -11.409  74.060  22.748  1.00  0.00     0.011 C 
BRANCH  29  57
ATOM     57  C   UNL     1      -4.073  67.251  29.654  1.00  0.00     0.165 C 
BRANCH  57  58
ATOM     58  O   UNL     1      -3.179  66.707  30.585  1.00  0.00    -0.396 OA
ATOM     59  H   UNL     1      -2.885  67.452  31.182  1.00  0.00     0.210 HD
ENDBRANCH  57  58
ENDBRANCH  29  57
BRANCH  48  60
ATOM     60  O   UNL     1      -9.858  70.849  22.841  1.00  0.00    -0.392 OA
ATOM     61  H   UNL     1     -10.426  70.829  22.038  1.00  0.00     0.210 HD
ENDBRANCH  48  60
ENDBRANCH  26  27
ENDBRANCH   6  26
BRANCH   5  62
ATOM     62  O   UNL     1      -1.277  67.872  32.309  1.00  0.00    -0.385 OA
ATOM     63  H   UNL     1      -2.237  67.674  32.131  1.00  0.00     0.211 HD
ENDBRANCH   5  62
TORSDOF 14
ENDMDL
MODEL 8
REMARK VINA RESULT:    -7.201      2.750      5.692
REMARK INTER + INTRA:         -13.789
REMARK INTER:                 -11.916
REMARK INTRA:                  -1.873
REMARK UNBOUND:                -2.379
REMARK SMILES C[C@H]1O[C@@H](O[C@@H]2CC[C@]3(C)[C@@H](CC[C@@]4(C)[C@H]3C=C[C@@]35OC[C@]6(CCC(C)(C)C[C@@H]63)[C@@H](O)C[C@]45C)[C@@]2(C)CO)[C@@H](O)[C@@H](O[C@@H]2O[C@H](CO)[C@@H](O)[C@@H](O)[C@@H]2O)[C@H]1O
REMARK SMILES IDX 1 1 2 2 54 3 41 4 39 5 4 6 3 7 55 8 42 10 43 11 52 12 44 13
REMARK SMILES IDX 50 14 45 15 48 16 53 17 51 19 46 21 47 22 49 24 5 26 6 27
REMARK SMILES IDX 7 28 35 29 8 30 11 31 36 32 9 33 12 34 10 35 16 36 13 37
REMARK SMILES IDX 14 38 17 39 15 40 33 41 18 42 19 43 32 44 34 45 29 46 20 47
REMARK SMILES IDX 30 48 22 49 28 50 21 51 23 52 25 53 24 54 26 55 27 56 37 57
REMARK SMILES IDX 38 58 31 60 40 62
REMARK H PARENT 55 9 53 18 51 20 47 23 49 25 38 59 31 61 40 63
REMARK Flexibility Score: inf
ROOT
ATOM      1  C   UNL     1      -9.071  67.237  29.615  1.00  0.00     0.041 C 
ATOM      2  C   UNL     1      -8.609  68.654  29.251  1.00  0.00     0.150 C 
ATOM      3  C   UNL     1      -9.761  69.589  28.745  1.00  0.00     0.175 C 
ATOM      4  C   UNL     1      -9.581  70.014  27.271  1.00  0.00     0.186 C 
ATOM      5  C   UNL     1      -8.116  70.521  27.030  1.00  0.00     0.202 C 
ATOM      6  C   UNL     1      -7.076  69.838  27.962  1.00  0.00     0.282 C 
ATOM      7  O   UNL     1      -7.550  68.549  28.317  1.00  0.00    -0.344 OA
ENDROOT
BRANCH   3   8
ATOM      8  O   UNL     1     -11.032  69.021  28.926  1.00  0.00    -0.388 OA
ATOM      9  H   UNL     1     -11.693  69.756  28.880  1.00  0.00     0.211 HD
ENDBRANCH   3   8
BRANCH   4  10
ATOM     10  O   UNL     1      -9.902  68.919  26.409  1.00  0.00    -0.341 OA
BRANCH  10  11
ATOM     11  C   UNL     1     -11.067  69.117  25.599  1.00  0.00     0.282 C 
ATOM     12  C   UNL     1     -10.698  69.512  24.134  1.00  0.00     0.202 C 
ATOM     13  O   UNL     1     -11.946  67.999  25.609  1.00  0.00    -0.341 OA
ATOM     14  C   UNL     1     -11.820  69.115  23.145  1.00  0.00     0.179 C 
ATOM     15  C   UNL     1     -13.233  68.295  25.070  1.00  0.00     0.178 C 
ATOM     16  C   UNL     1     -13.181  69.264  23.825  1.00  0.00     0.177 C 
BRANCH  12  17
ATOM     17  O   UNL     1      -9.472  68.948  23.732  1.00  0.00    -0.385 OA
ATOM     18  H   UNL     1      -9.526  67.970  23.885  1.00  0.00     0.211 HD
ENDBRANCH  12  17
BRANCH  14  19
ATOM     19  O   UNL     1     -11.755  69.930  22.001  1.00  0.00    -0.387 OA
ATOM     20  H   UNL     1     -10.820  69.897  21.672  1.00  0.00     0.211 HD
ENDBRANCH  14  19
BRANCH  15  21
ATOM     21  C   UNL     1     -13.940  66.937  24.784  1.00  0.00     0.191 C 
BRANCH  21  22
ATOM     22  O   UNL     1     -13.113  65.985  24.161  1.00  0.00    -0.394 OA
ATOM     23  H   UNL     1     -12.757  66.417  23.340  1.00  0.00     0.210 HD
ENDBRANCH  21  22
ENDBRANCH  15  21
BRANCH  16  24
ATOM     24  O   UNL     1     -13.364  70.617  24.183  1.00  0.00    -0.387 OA
ATOM     25  H   UNL     1     -13.557  71.136  23.355  1.00  0.00     0.211 HD
ENDBRANCH  16  24
ENDBRANCH  10  11
ENDBRANCH   4  10
BRANCH   6  26
ATOM     26  O   UNL     1      -5.824  69.745  27.292  1.00  0.00    -0.346 OA
BRANCH  26  27
ATOM     27  C   UNL     1      -4.726  69.714  28.195  1.00  0.00     0.130 C 
ATOM     28  C   UNL     1      -4.182  71.138  28.379  1.00  0.00     0.033 C 
ATOM     29  C   UNL     1      -3.621  68.761  27.642  1.00  0.00     0.020 C 
ATOM     30  C   UNL     1      -3.021  71.162  29.381  1.00  0.00     0.010 C 
ATOM     31  C   UNL     1      -2.332  68.780  28.588  1.00  0.00     0.006 C 
ATOM     32  C   UNL     1      -3.217  69.169  26.188  1.00  0.00     0.017 C 
ATOM     33  C   UNL     1      -1.808  70.226  29.035  1.00  0.00    -0.022 C 
ATOM     34  C   UNL     1      -2.424  67.848  29.822  1.00  0.00     0.005 C 
ATOM     35  C   UNL     1      -0.972  70.880  27.884  1.00  0.00     0.012 C 
ATOM     36  C   UNL     1      -0.920  70.115  30.367  1.00  0.00     0.024 C 
ATOM     37  C   UNL     1      -1.039  67.550  30.428  1.00  0.00     0.008 C 
ATOM     38  C   UNL     1      -0.088  68.788  30.541  1.00  0.00    -0.017 C 
ATOM     39  C   UNL     1      -0.099  71.354  30.730  1.00  0.00    -0.024 C 
ATOM     40  C   UNL     1       0.940  68.699  29.355  1.00  0.00     0.013 C 
ATOM     41  C   UNL     1       0.635  68.842  31.990  1.00  0.00     0.009 C 
ATOM     42  C   UNL     1       0.998  71.325  31.523  1.00  0.00     0.005 C 
ATOM     43  C   UNL     1       1.673  70.039  31.985  1.00  0.00     0.096 C 
ATOM     44  C   UNL     1       1.389  67.505  32.336  1.00  0.00     0.043 C 
ATOM     45  C   UNL     1      -0.450  69.066  33.107  1.00  0.00     0.015 C 
ATOM     46  C   UNL     1       2.446  70.228  33.300  1.00  0.00     0.037 C 
ATOM     47  O   UNL     1       2.728  69.737  31.074  1.00  0.00    -0.369 OA
ATOM     48  C   UNL     1       2.546  67.656  33.383  1.00  0.00     0.124 C 
ATOM     49  C   UNL     1       3.340  69.011  33.262  1.00  0.00     0.026 C 
ATOM     50  C   UNL     1       1.878  70.503  34.699  1.00  0.00     0.014 C 
ATOM     51  C   UNL     1       3.802  69.165  31.809  1.00  0.00     0.171 C 
ATOM     52  C   UNL     1       4.487  69.097  34.323  1.00  0.00     0.013 C 
ATOM     53  C   UNL     1       3.049  70.796  35.711  1.00  0.00    -0.035 C 
ATOM     54  C   UNL     1       4.466  70.395  35.158  1.00  0.00     0.007 C 
ATOM     55  C   UNL     1       3.078  72.311  36.022  1.00  0.00     0.011 C 
ATOM     56  C   UNL     1       2.793  70.047  37.037  1.00  0.00     0.011 C 
BRANCH  29  57
ATOM     57  C   UNL     1      -4.210  67.314  27.479  1.00  0.00     0.165 C 
BRANCH  57  58
ATOM     58  O   UNL     1      -5.272  67.058  28.357  1.00  0.00    -0.396 OA
ATOM     59  H   UNL     1      -5.139  66.137  28.719  1.00  0.00     0.210 HD
ENDBRANCH  57  58
ENDBRANCH  29  57
BRANCH  48  60
ATOM     60  O   UNL     1       2.147  67.415  34.719  1.00  0.00    -0.392 OA
ATOM     61  H   UNL     1       2.137  66.450  34.913  1.00  0.00     0.210 HD
ENDBRANCH  48  60
ENDBRANCH  26  27
ENDBRANCH   6  26
BRANCH   5  62
ATOM     62  O   UNL     1      -7.753  70.399  25.678  1.00  0.00    -0.385 OA
ATOM     63  H   UNL     1      -8.349  70.999  25.151  1.00  0.00     0.211 HD
ENDBRANCH   5  62
TORSDOF 14
ENDMDL
MODEL 9
REMARK VINA RESULT:    -7.154      3.074      6.402
REMARK INTER + INTRA:         -13.715
REMARK INTER:                 -11.571
REMARK INTRA:                  -2.144
REMARK UNBOUND:                -2.379
REMARK SMILES C[C@H]1O[C@@H](O[C@@H]2CC[C@]3(C)[C@@H](CC[C@@]4(C)[C@H]3C=C[C@@]35OC[C@]6(CCC(C)(C)C[C@@H]63)[C@@H](O)C[C@]45C)[C@@]2(C)CO)[C@@H](O)[C@@H](O[C@@H]2O[C@H](CO)[C@@H](O)[C@@H](O)[C@@H]2O)[C@H]1O
REMARK SMILES IDX 1 1 2 2 54 3 41 4 39 5 4 6 3 7 55 8 42 10 43 11 52 12 44 13
REMARK SMILES IDX 50 14 45 15 48 16 53 17 51 19 46 21 47 22 49 24 5 26 6 27
REMARK SMILES IDX 7 28 35 29 8 30 11 31 36 32 9 33 12 34 10 35 16 36 13 37
REMARK SMILES IDX 14 38 17 39 15 40 33 41 18 42 19 43 32 44 34 45 29 46 20 47
REMARK SMILES IDX 30 48 22 49 28 50 21 51 23 52 25 53 24 54 26 55 27 56 37 57
REMARK SMILES IDX 38 58 31 60 40 62
REMARK H PARENT 55 9 53 18 51 20 47 23 49 25 38 59 31 61 40 63
REMARK Flexibility Score: inf
ROOT
ATOM      1  C   UNL     1      -7.985  69.254  30.848  1.00  0.00     0.041 C 
ATOM      2  C   UNL     1      -7.853  70.447  29.893  1.00  0.00     0.150 C 
ATOM      3  C   UNL     1      -9.180  70.812  29.143  1.00  0.00     0.175 C 
ATOM      4  C   UNL     1      -9.081  70.601  27.616  1.00  0.00     0.186 C 
ATOM      5  C   UNL     1      -7.767  71.258  27.065  1.00  0.00     0.202 C 
ATOM      6  C   UNL     1      -6.612  71.272  28.105  1.00  0.00     0.282 C 
ATOM      7  O   UNL     1      -6.785  70.185  29.001  1.00  0.00    -0.344 OA
ENDROOT
BRANCH   3   8
ATOM      8  O   UNL     1     -10.291  70.117  29.649  1.00  0.00    -0.388 OA
ATOM      9  H   UNL     1      -9.966  69.242  29.978  1.00  0.00     0.211 HD
ENDBRANCH   3   8
BRANCH   4  10
ATOM     10  O   UNL     1      -9.131  69.204  27.316  1.00  0.00    -0.341 OA
BRANCH  10  11
ATOM     11  C   UNL     1     -10.388  68.748  26.799  1.00  0.00     0.282 C 
ATOM     12  C   UNL     1     -10.905  67.485  27.556  1.00  0.00     0.202 C 
ATOM     13  O   UNL     1     -11.382  69.764  26.783  1.00  0.00    -0.341 OA
ATOM     14  C   UNL     1     -12.446  67.372  27.474  1.00  0.00     0.179 C 
ATOM     15  C   UNL     1     -12.521  69.419  25.997  1.00  0.00     0.178 C 
ATOM     16  C   UNL     1     -12.929  67.899  26.122  1.00  0.00     0.177 C 
BRANCH  12  17
ATOM     17  O   UNL     1     -10.487  67.472  28.901  1.00  0.00    -0.385 OA
ATOM     18  H   UNL     1     -11.300  67.458  29.469  1.00  0.00     0.211 HD
ENDBRANCH  12  17
BRANCH  14  19
ATOM     19  O   UNL     1     -12.834  66.031  27.642  1.00  0.00    -0.387 OA
ATOM     20  H   UNL     1     -13.552  65.850  26.982  1.00  0.00     0.211 HD
ENDBRANCH  14  19
BRANCH  15  21
ATOM     21  C   UNL     1     -13.661  70.411  26.372  1.00  0.00     0.191 C 
BRANCH  21  22
ATOM     22  O   UNL     1     -13.230  71.517  27.125  1.00  0.00    -0.394 OA
ATOM     23  H   UNL     1     -13.591  71.390  28.042  1.00  0.00     0.210 HD
ENDBRANCH  21  22
ENDBRANCH  15  21
BRANCH  16  24
ATOM     24  O   UNL     1     -12.370  67.101  25.100  1.00  0.00    -0.387 OA
ATOM     25  H   UNL     1     -11.724  67.659  24.587  1.00  0.00     0.211 HD
ENDBRANCH  16  24
ENDBRANCH  10  11
ENDBRANCH   4  10
BRANCH   6  26
ATOM     26  O   UNL     1      -5.363  71.173  27.432  1.00  0.00    -0.346 OA
BRANCH  26  27
ATOM     27  C   UNL     1      -4.283  70.921  28.322  1.00  0.00     0.130 C 
ATOM     28  C   UNL     1      -3.506  72.224  28.556  1.00  0.00     0.033 C 
ATOM     29  C   UNL     1      -3.358  69.817  27.724  1.00  0.00     0.020 C 
ATOM     30  C   UNL     1      -2.355  72.011  29.548  1.00  0.00     0.010 C 
ATOM     31  C   UNL     1      -2.083  69.580  28.659  1.00  0.00     0.006 C 
ATOM     32  C   UNL     1      -2.893  70.207  26.283  1.00  0.00     0.017 C 
ATOM     33  C   UNL     1      -1.319  70.898  29.156  1.00  0.00    -0.022 C 
ATOM     34  C   UNL     1      -2.328  68.629  29.856  1.00  0.00     0.005 C 
ATOM     35  C   UNL     1      -0.387  71.445  28.023  1.00  0.00     0.012 C 
ATOM     36  C   UNL     1      -0.460  70.586  30.474  1.00  0.00     0.024 C 
ATOM     37  C   UNL     1      -1.012  68.078  30.438  1.00  0.00     0.008 C 
ATOM     38  C   UNL     1       0.135  69.131  30.590  1.00  0.00    -0.017 C 
ATOM     39  C   UNL     1       0.560  71.652  30.877  1.00  0.00    -0.024 C 
ATOM     40  C   UNL     1       1.131  68.916  29.392  1.00  0.00     0.013 C 
ATOM     41  C   UNL     1       0.861  69.005  32.034  1.00  0.00     0.009 C 
ATOM     42  C   UNL     1       1.639  71.407  31.659  1.00  0.00     0.005 C 
ATOM     43  C   UNL     1       2.086  70.009  32.065  1.00  0.00     0.096 C 
ATOM     44  C   UNL     1       1.378  67.547  32.322  1.00  0.00     0.043 C 
ATOM     45  C   UNL     1      -0.169  69.366  33.168  1.00  0.00     0.015 C 
ATOM     46  C   UNL     1       2.883  70.012  33.379  1.00  0.00     0.037 C 
ATOM     47  O   UNL     1       3.073  69.568  31.134  1.00  0.00    -0.369 OA
ATOM     48  C   UNL     1       2.545  67.459  33.363  1.00  0.00     0.124 C 
ATOM     49  C   UNL     1       3.558  68.663  33.287  1.00  0.00     0.026 C 
ATOM     50  C   UNL     1       2.373  70.324  34.793  1.00  0.00     0.014 C 
ATOM     51  C   UNL     1       4.036  68.793  31.837  1.00  0.00     0.171 C 
ATOM     52  C   UNL     1       4.705  68.512  34.340  1.00  0.00     0.013 C 
ATOM     53  C   UNL     1       3.579  70.375  35.805  1.00  0.00    -0.035 C 
ATOM     54  C   UNL     1       4.907  69.761  35.224  1.00  0.00     0.007 C 
ATOM     55  C   UNL     1       3.866  71.849  36.173  1.00  0.00     0.011 C 
ATOM     56  C   UNL     1       3.203  69.628  37.104  1.00  0.00     0.011 C 
BRANCH  29  57
ATOM     57  C   UNL     1      -4.184  68.498  27.511  1.00  0.00     0.165 C 
BRANCH  57  58
ATOM     58  O   UNL     1      -5.185  68.634  26.540  1.00  0.00    -0.396 OA
ATOM     59  H   UNL     1      -6.062  68.602  27.015  1.00  0.00     0.210 HD
ENDBRANCH  57  58
ENDBRANCH  29  57
BRANCH  48  60
ATOM     60  O   UNL     1       2.114  67.237  34.692  1.00  0.00    -0.392 OA
ATOM     61  H   UNL     1       1.444  67.907  34.961  1.00  0.00     0.210 HD
ENDBRANCH  48  60
ENDBRANCH  26  27
ENDBRANCH   6  26
BRANCH   5  62
ATOM     62  O   UNL     1      -7.367  70.657  25.860  1.00  0.00    -0.385 OA
ATOM     63  H   UNL     1      -7.018  71.376  25.265  1.00  0.00     0.211 HD
ENDBRANCH   5  62
TORSDOF 14
ENDMDL
