MODEL 1
REMARK VINA RESULT:    -4.779      0.000      0.000
REMARK INTER + INTRA:         -10.705
REMARK INTER:                  -8.969
REMARK INTRA:                  -1.736
REMARK UNBOUND:                -1.736
REMARK SMILES O=C([O-])CCCCCCCCCCCCCCC(=O)[O-]
REMARK SMILES IDX 10 1 9 2 8 3 7 4 6 5 5 6 4 7 2 8 1 9 3 10 11 11 12 12 13 13
REMARK SMILES IDX 14 14 15 15 16 16 17 17 18 18 19 19 20 20
REMARK H PARENT
REMARK Flexibility Score: inf
ROOT
ATOM      1  C   UNL     1     190.556 196.001 193.663  1.00  0.00     0.000 C 
ENDROOT
BRANCH   1   2
ATOM      2  C   UNL     1     191.644 195.801 192.592  1.00  0.00     0.000 C 
BRANCH   2   3
ATOM      3  C   UNL     1     191.233 194.782 191.517  1.00  0.00     0.000 C 
BRANCH   3   4
ATOM      4  C   UNL     1     192.211 193.598 191.411  1.00  0.00     0.000 C 
BRANCH   4   5
ATOM      5  C   UNL     1     191.526 192.324 190.872  1.00  0.00     0.000 C 
BRANCH   5   6
ATOM      6  C   UNL     1     191.471 191.176 191.893  1.00  0.00     0.006 C 
BRANCH   6   7
ATOM      7  C   UNL     1     190.472 191.435 193.028  1.00  0.00     0.053 C 
BRANCH   7   8
ATOM      8  C   UNL     1     189.090 191.040 192.609  1.00  0.00     0.041 C 
ATOM      9  O   UNL     1     188.752 189.828 192.603  1.00  0.00    -0.550 OA
ATOM     10  O   UNL     1     188.163 192.016 192.270  1.00  0.00    -0.550 OA
ENDBRANCH   7   8
ENDBRANCH   6   7
ENDBRANCH   5   6
ENDBRANCH   4   5
ENDBRANCH   3   4
ENDBRANCH   2   3
ENDBRANCH   1   2
BRANCH   1  11
ATOM     11  C   UNL     1     189.553 194.838 193.709  1.00  0.00     0.000 C 
BRANCH  11  12
ATOM     12  C   UNL     1     189.386 194.254 195.120  1.00  0.00     0.000 C 
BRANCH  12  13
ATOM     13  C   UNL     1     187.906 194.238 195.535  1.00  0.00     0.000 C 
BRANCH  13  14
ATOM     14  C   UNL     1     187.545 195.376 196.507  1.00  0.00     0.000 C 
BRANCH  14  15
ATOM     15  C   UNL     1     187.157 196.710 195.838  1.00  0.00     0.000 C 
BRANCH  15  16
ATOM     16  C   UNL     1     188.210 197.830 195.952  1.00  0.00     0.006 C 
BRANCH  16  17
ATOM     17  C   UNL     1     189.331 197.547 196.963  1.00  0.00     0.053 C 
BRANCH  17  18
ATOM     18  C   UNL     1     190.026 198.801 197.394  1.00  0.00     0.041 C 
ATOM     19  O   UNL     1     189.372 199.742 197.915  1.00  0.00    -0.550 OA
ATOM     20  O   UNL     1     191.393 198.944 197.189  1.00  0.00    -0.550 OA
ENDBRANCH  17  18
ENDBRANCH  16  17
ENDBRANCH  15  16
ENDBRANCH  14  15
ENDBRANCH  13  14
ENDBRANCH  12  13
ENDBRANCH  11  12
ENDBRANCH   1  11
TORSDOF 15
ENDMDL
MODEL 2
REMARK VINA RESULT:    -4.671      2.935      4.956
REMARK INTER + INTRA:         -10.502
REMARK INTER:                  -8.688
REMARK INTRA:                  -1.815
REMARK UNBOUND:                -1.736
REMARK SMILES O=C([O-])CCCCCCCCCCCCCCC(=O)[O-]
REMARK SMILES IDX 10 1 9 2 8 3 7 4 6 5 5 6 4 7 2 8 1 9 3 10 11 11 12 12 13 13
REMARK SMILES IDX 14 14 15 15 16 16 17 17 18 18 19 19 20 20
REMARK H PARENT
REMARK Flexibility Score: inf
ROOT
ATOM      1  C   UNL     1     191.481 191.125 191.867  1.00  0.00     0.000 C 
ENDROOT
BRANCH   1   2
ATOM      2  C   UNL     1     191.497 192.198 190.764  1.00  0.00     0.000 C 
BRANCH   2   3
ATOM      3  C   UNL     1     192.348 193.421 191.142  1.00  0.00     0.000 C 
BRANCH   3   4
ATOM      4  C   UNL     1     191.538 194.730 191.155  1.00  0.00     0.000 C 
BRANCH   4   5
ATOM      5  C   UNL     1     192.049 195.719 192.226  1.00  0.00     0.000 C 
BRANCH   5   6
ATOM      6  C   UNL     1     191.480 197.139 192.074  1.00  0.00     0.006 C 
BRANCH   6   7
ATOM      7  C   UNL     1     191.696 198.005 193.320  1.00  0.00     0.053 C 
BRANCH   7   8
ATOM      8  C   UNL     1     192.972 198.779 193.204  1.00  0.00     0.041 C 
ATOM      9  O   UNL     1     193.920 198.561 194.003  1.00  0.00    -0.550 OA
ATOM     10  O   UNL     1     193.130 199.708 192.185  1.00  0.00    -0.550 OA
ENDBRANCH   7   8
ENDBRANCH   6   7
ENDBRANCH   5   6
ENDBRANCH   4   5
ENDBRANCH   3   4
ENDBRANCH   2   3
ENDBRANCH   1   2
BRANCH   1  11
ATOM     11  C   UNL     1     190.225 191.206 192.750  1.00  0.00     0.000 C 
BRANCH  11  12
ATOM     12  C   UNL     1     189.118 192.069 192.128  1.00  0.00     0.000 C 
BRANCH  12  13
ATOM     13  C   UNL     1     188.761 193.248 193.047  1.00  0.00     0.000 C 
BRANCH  13  14
ATOM     14  C   UNL     1     189.781 193.452 194.181  1.00  0.00     0.000 C 
BRANCH  14  15
ATOM     15  C   UNL     1     189.288 194.321 195.356  1.00  0.00     0.000 C 
BRANCH  15  16
ATOM     16  C   UNL     1     189.368 195.843 195.124  1.00  0.00     0.006 C 
BRANCH  16  17
ATOM     17  C   UNL     1     188.796 196.690 196.271  1.00  0.00     0.053 C 
BRANCH  17  18
ATOM     18  C   UNL     1     189.877 197.256 197.140  1.00  0.00     0.041 C 
ATOM     19  O   UNL     1     190.557 198.240 196.746  1.00  0.00    -0.550 OA
ATOM     20  O   UNL     1     190.154 196.677 198.372  1.00  0.00    -0.550 OA
ENDBRANCH  17  18
ENDBRANCH  16  17
ENDBRANCH  15  16
ENDBRANCH  14  15
ENDBRANCH  13  14
ENDBRANCH  12  13
ENDBRANCH  11  12
ENDBRANCH   1  11
TORSDOF 15
ENDMDL
MODEL 3
REMARK VINA RESULT:    -4.611      3.133      6.998
REMARK INTER + INTRA:         -10.389
REMARK INTER:                  -8.522
REMARK INTRA:                  -1.867
REMARK UNBOUND:                -1.736
REMARK SMILES O=C([O-])CCCCCCCCCCCCCCC(=O)[O-]
REMARK SMILES IDX 10 1 9 2 8 3 7 4 6 5 5 6 4 7 2 8 1 9 3 10 11 11 12 12 13 13
REMARK SMILES IDX 14 14 15 15 16 16 17 17 18 18 19 19 20 20
REMARK H PARENT
REMARK Flexibility Score: inf
ROOT
ATOM      1  C   UNL     1     190.807 195.174 193.011  1.00  0.00     0.000 C 
ENDROOT
BRANCH   1   2
ATOM      2  C   UNL     1     189.441 194.676 193.517  1.00  0.00     0.000 C 
BRANCH   2   3
ATOM      3  C   UNL     1     189.472 194.270 194.999  1.00  0.00     0.000 C 
BRANCH   3   4
ATOM      4  C   UNL     1     188.658 195.220 195.896  1.00  0.00     0.000 C 
BRANCH   4   5
ATOM      5  C   UNL     1     187.692 196.105 195.078  1.00  0.00     0.000 C 
BRANCH   5   6
ATOM      6  C   UNL     1     186.226 195.994 195.527  1.00  0.00     0.006 C 
BRANCH   6   7
ATOM      7  C   UNL     1     185.581 194.660 195.134  1.00  0.00     0.053 C 
BRANCH   7   8
ATOM      8  C   UNL     1     185.041 194.731 193.739  1.00  0.00     0.041 C 
ATOM      9  O   UNL     1     183.921 195.263 193.520  1.00  0.00    -0.550 OA
ATOM     10  O   UNL     1     185.796 194.253 192.677  1.00  0.00    -0.550 OA
ENDBRANCH   7   8
ENDBRANCH   6   7
ENDBRANCH   5   6
ENDBRANCH   4   5
ENDBRANCH   3   4
ENDBRANCH   2   3
ENDBRANCH   1   2
BRANCH   1  11
ATOM     11  C   UNL     1     191.092 194.742 191.564  1.00  0.00     0.000 C 
BRANCH  11  12
ATOM     12  C   UNL     1     192.157 193.639 191.475  1.00  0.00     0.000 C 
BRANCH  12  13
ATOM     13  C   UNL     1     191.589 192.382 190.798  1.00  0.00     0.000 C 
BRANCH  13  14
ATOM     14  C   UNL     1     191.519 191.172 191.747  1.00  0.00     0.000 C 
BRANCH  14  15
ATOM     15  C   UNL     1     190.424 191.251 192.830  1.00  0.00     0.000 C 
BRANCH  15  16
ATOM     16  C   UNL     1     189.051 190.686 192.415  1.00  0.00     0.006 C 
BRANCH  16  17
ATOM     17  C   UNL     1     188.085 191.729 191.833  1.00  0.00     0.053 C 
BRANCH  17  18
ATOM     18  C   UNL     1     187.752 191.444 190.401  1.00  0.00     0.041 C 
ATOM     19  O   UNL     1     186.967 190.504 190.107  1.00  0.00    -0.550 OA
ATOM     20  O   UNL     1     188.334 192.197 189.388  1.00  0.00    -0.550 OA
ENDBRANCH  17  18
ENDBRANCH  16  17
ENDBRANCH  15  16
ENDBRANCH  14  15
ENDBRANCH  13  14
ENDBRANCH  12  13
ENDBRANCH  11  12
ENDBRANCH   1  11
TORSDOF 15
ENDMDL
MODEL 4
REMARK VINA RESULT:    -4.596      1.559      2.106
REMARK INTER + INTRA:         -10.362
REMARK INTER:                  -8.789
REMARK INTRA:                  -1.573
REMARK UNBOUND:                -1.736
REMARK SMILES O=C([O-])CCCCCCCCCCCCCCC(=O)[O-]
REMARK SMILES IDX 10 1 9 2 8 3 7 4 6 5 5 6 4 7 2 8 1 9 3 10 11 11 12 12 13 13
REMARK SMILES IDX 14 14 15 15 16 16 17 17 18 18 19 19 20 20
REMARK H PARENT
REMARK Flexibility Score: inf
ROOT
ATOM      1  C   UNL     1     191.551 195.569 192.625  1.00  0.00     0.000 C 
ENDROOT
BRANCH   1   2
ATOM      2  C   UNL     1     191.386 194.753 191.330  1.00  0.00     0.000 C 
BRANCH   2   3
ATOM      3  C   UNL     1     192.420 193.622 191.209  1.00  0.00     0.000 C 
BRANCH   3   4
ATOM      4  C   UNL     1     191.823 192.234 191.501  1.00  0.00     0.000 C 
BRANCH   4   5
ATOM      5  C   UNL     1     190.556 191.958 190.662  1.00  0.00     0.000 C 
BRANCH   5   6
ATOM      6  C   UNL     1     189.339 191.541 191.504  1.00  0.00     0.006 C 
BRANCH   6   7
ATOM      7  C   UNL     1     188.065 192.307 191.131  1.00  0.00     0.053 C 
BRANCH   7   8
ATOM      8  C   UNL     1     187.489 191.776 189.856  1.00  0.00     0.041 C 
ATOM      9  O   UNL     1     187.633 192.416 188.781  1.00  0.00    -0.550 OA
ATOM     10  O   UNL     1     186.835 190.552 189.846  1.00  0.00    -0.550 OA
ENDBRANCH   7   8
ENDBRANCH   6   7
ENDBRANCH   5   6
ENDBRANCH   4   5
ENDBRANCH   3   4
ENDBRANCH   2   3
ENDBRANCH   1   2
BRANCH   1  11
ATOM     11  C   UNL     1     190.288 195.545 193.502  1.00  0.00     0.000 C 
BRANCH  11  12
ATOM     12  C   UNL     1     189.896 194.127 193.939  1.00  0.00     0.000 C 
BRANCH  12  13
ATOM     13  C   UNL     1     189.271 194.139 195.343  1.00  0.00     0.000 C 
BRANCH  13  14
ATOM     14  C   UNL     1     187.955 194.935 195.405  1.00  0.00     0.000 C 
BRANCH  14  15
ATOM     15  C   UNL     1     187.920 196.060 196.458  1.00  0.00     0.000 C 
BRANCH  15  16
ATOM     16  C   UNL     1     188.145 197.482 195.905  1.00  0.00     0.006 C 
BRANCH  16  17
ATOM     17  C   UNL     1     189.555 198.041 196.150  1.00  0.00     0.053 C 
BRANCH  17  18
ATOM     18  C   UNL     1     189.723 198.542 197.551  1.00  0.00     0.041 C 
ATOM     19  O   UNL     1     190.319 197.839 198.409  1.00  0.00    -0.550 OA
ATOM     20  O   UNL     1     189.194 199.773 197.917  1.00  0.00    -0.550 OA
ENDBRANCH  17  18
ENDBRANCH  16  17
ENDBRANCH  15  16
ENDBRANCH  14  15
ENDBRANCH  13  14
ENDBRANCH  12  13
ENDBRANCH  11  12
ENDBRANCH   1  11
TORSDOF 15
ENDMDL
MODEL 5
REMARK VINA RESULT:    -4.571      2.449      5.709
REMARK INTER + INTRA:         -10.314
REMARK INTER:                  -8.529
REMARK INTRA:                  -1.785
REMARK UNBOUND:                -1.736
REMARK SMILES O=C([O-])CCCCCCCCCCCCCCC(=O)[O-]
REMARK SMILES IDX 10 1 9 2 8 3 7 4 6 5 5 6 4 7 2 8 1 9 3 10 11 11 12 12 13 13
REMARK SMILES IDX 14 14 15 15 16 16 17 17 18 18 19 19 20 20
REMARK H PARENT
REMARK Flexibility Score: inf
ROOT
ATOM      1  C   UNL     1     189.361 194.025 194.671  1.00  0.00     0.000 C 
ENDROOT
BRANCH   1   2
ATOM      2  C   UNL     1     189.420 195.561 194.587  1.00  0.00     0.000 C 
BRANCH   2   3
ATOM      3  C   UNL     1     189.489 196.226 195.971  1.00  0.00     0.000 C 
BRANCH   3   4
ATOM      4  C   UNL     1     188.226 197.038 196.307  1.00  0.00     0.000 C 
BRANCH   4   5
ATOM      5  C   UNL     1     187.100 196.813 195.274  1.00  0.00     0.000 C 
BRANCH   5   6
ATOM      6  C   UNL     1     185.930 195.972 195.811  1.00  0.00     0.006 C 
BRANCH   6   7
ATOM      7  C   UNL     1     185.017 195.442 194.700  1.00  0.00     0.053 C 
BRANCH   7   8
ATOM      8  C   UNL     1     185.614 194.223 194.069  1.00  0.00     0.041 C 
ATOM      9  O   UNL     1     185.928 193.232 194.779  1.00  0.00    -0.550 OA
ATOM     10  O   UNL     1     185.779 194.164 192.692  1.00  0.00    -0.550 OA
ENDBRANCH   7   8
ENDBRANCH   6   7
ENDBRANCH   5   6
ENDBRANCH   4   5
ENDBRANCH   3   4
ENDBRANCH   2   3
ENDBRANCH   1   2
BRANCH   1  11
ATOM     11  C   UNL     1     189.208 193.365 193.291  1.00  0.00     0.000 C 
BRANCH  11  12
ATOM     12  C   UNL     1     190.275 192.293 193.025  1.00  0.00     0.000 C 
BRANCH  12  13
ATOM     13  C   UNL     1     190.762 192.354 191.568  1.00  0.00     0.000 C 
BRANCH  13  14
ATOM     14  C   UNL     1     192.281 192.577 191.454  1.00  0.00     0.000 C 
BRANCH  14  15
ATOM     15  C   UNL     1     192.703 193.988 191.001  1.00  0.00     0.000 C 
BRANCH  15  16
ATOM     16  C   UNL     1     192.334 195.127 191.973  1.00  0.00     0.006 C 
BRANCH  16  17
ATOM     17  C   UNL     1     191.446 196.221 191.359  1.00  0.00     0.053 C 
BRANCH  17  18
ATOM     18  C   UNL     1     191.482 197.485 192.161  1.00  0.00     0.041 C 
ATOM     19  O   UNL     1     190.718 198.443 191.870  1.00  0.00    -0.550 OA
ATOM     20  O   UNL     1     192.383 197.617 193.211  1.00  0.00    -0.550 OA
ENDBRANCH  17  18
ENDBRANCH  16  17
ENDBRANCH  15  16
ENDBRANCH  14  15
ENDBRANCH  13  14
ENDBRANCH  12  13
ENDBRANCH  11  12
ENDBRANCH   1  11
TORSDOF 15
ENDMDL
MODEL 6
REMARK VINA RESULT:    -4.544      3.274      5.370
REMARK INTER + INTRA:         -10.263
REMARK INTER:                  -8.487
REMARK INTRA:                  -1.776
REMARK UNBOUND:                -1.736
REMARK SMILES O=C([O-])CCCCCCCCCCCCCCC(=O)[O-]
REMARK SMILES IDX 10 1 9 2 8 3 7 4 6 5 5 6 4 7 2 8 1 9 3 10 11 11 12 12 13 13
REMARK SMILES IDX 14 14 15 15 16 16 17 17 18 18 19 19 20 20
REMARK H PARENT
REMARK Flexibility Score: inf
ROOT
ATOM      1  C   UNL     1     188.321 192.711 192.080  1.00  0.00     0.000 C 
ENDROOT
BRANCH   1   2
ATOM      2  C   UNL     1     187.047 192.685 191.217  1.00  0.00     0.000 C 
BRANCH   2   3
ATOM      3  C   UNL     1     187.299 192.129 189.807  1.00  0.00     0.000 C 
BRANCH   3   4
ATOM      4  C   UNL     1     186.567 190.800 189.549  1.00  0.00     0.000 C 
BRANCH   4   5
ATOM      5  C   UNL     1     185.959 190.212 190.842  1.00  0.00     0.000 C 
BRANCH   5   6
ATOM      6  C   UNL     1     186.646 188.919 191.311  1.00  0.00     0.006 C 
BRANCH   6   7
ATOM      7  C   UNL     1     187.301 189.059 192.690  1.00  0.00     0.053 C 
BRANCH   7   8
ATOM      8  C   UNL     1     187.298 187.745 193.407  1.00  0.00     0.041 C 
ATOM      9  O   UNL     1     188.252 186.938 193.255  1.00  0.00    -0.550 OA
ATOM     10  O   UNL     1     186.264 187.433 194.279  1.00  0.00    -0.550 OA
ENDBRANCH   7   8
ENDBRANCH   6   7
ENDBRANCH   5   6
ENDBRANCH   4   5
ENDBRANCH   3   4
ENDBRANCH   2   3
ENDBRANCH   1   2
BRANCH   1  11
ATOM     11  C   UNL     1     189.434 191.813 191.515  1.00  0.00     0.000 C 
BRANCH  11  12
ATOM     12  C   UNL     1     190.470 191.414 192.576  1.00  0.00     0.000 C 
BRANCH  12  13
ATOM     13  C   UNL     1     191.896 191.717 192.090  1.00  0.00     0.000 C 
BRANCH  13  14
ATOM     14  C   UNL     1     191.925 192.639 190.858  1.00  0.00     0.000 C 
BRANCH  14  15
ATOM     15  C   UNL     1     192.585 194.014 191.084  1.00  0.00     0.000 C 
BRANCH  15  16
ATOM     16  C   UNL     1     191.604 195.188 191.271  1.00  0.00     0.006 C 
BRANCH  16  17
ATOM     17  C   UNL     1     191.104 195.374 192.712  1.00  0.00     0.053 C 
BRANCH  17  18
ATOM     18  C   UNL     1     191.082 196.816 193.115  1.00  0.00     0.041 C 
ATOM     19  O   UNL     1     191.983 197.600 192.716  1.00  0.00    -0.550 OA
ATOM     20  O   UNL     1     190.083 197.287 193.958  1.00  0.00    -0.550 OA
ENDBRANCH  17  18
ENDBRANCH  16  17
ENDBRANCH  15  16
ENDBRANCH  14  15
ENDBRANCH  13  14
ENDBRANCH  12  13
ENDBRANCH  11  12
ENDBRANCH   1  11
TORSDOF 15
ENDMDL
MODEL 7
REMARK VINA RESULT:    -4.529      2.596      6.581
REMARK INTER + INTRA:         -10.237
REMARK INTER:                  -8.389
REMARK INTRA:                  -1.848
REMARK UNBOUND:                -1.736
REMARK SMILES O=C([O-])CCCCCCCCCCCCCCC(=O)[O-]
REMARK SMILES IDX 10 1 9 2 8 3 7 4 6 5 5 6 4 7 2 8 1 9 3 10 11 11 12 12 13 13
REMARK SMILES IDX 14 14 15 15 16 16 17 17 18 18 19 19 20 20
REMARK H PARENT
REMARK Flexibility Score: inf
ROOT
ATOM      1  C   UNL     1     189.226 192.415 192.381  1.00  0.00     0.000 C 
ENDROOT
BRANCH   1   2
ATOM      2  C   UNL     1     188.621 193.439 193.358  1.00  0.00     0.000 C 
BRANCH   2   3
ATOM      3  C   UNL     1     189.655 193.991 194.353  1.00  0.00     0.000 C 
BRANCH   3   4
ATOM      4  C   UNL     1     189.472 195.493 194.633  1.00  0.00     0.000 C 
BRANCH   4   5
ATOM      5  C   UNL     1     188.143 195.790 195.361  1.00  0.00     0.000 C 
BRANCH   5   6
ATOM      6  C   UNL     1     188.170 197.087 196.187  1.00  0.00     0.006 C 
BRANCH   6   7
ATOM      7  C   UNL     1     189.551 197.753 196.205  1.00  0.00     0.053 C 
BRANCH   7   8
ATOM      8  C   UNL     1     190.149 197.678 197.575  1.00  0.00     0.041 C 
ATOM      9  O   UNL     1     190.757 198.671 198.056  1.00  0.00    -0.550 OA
ATOM     10  O   UNL     1     189.995 196.529 198.339  1.00  0.00    -0.550 OA
ENDBRANCH   7   8
ENDBRANCH   6   7
ENDBRANCH   5   6
ENDBRANCH   4   5
ENDBRANCH   3   4
ENDBRANCH   2   3
ENDBRANCH   1   2
BRANCH   1  11
ATOM     11  C   UNL     1     190.354 191.588 193.019  1.00  0.00     0.000 C 
BRANCH  11  12
ATOM     12  C   UNL     1     191.569 191.429 192.093  1.00  0.00     0.000 C 
BRANCH  12  13
ATOM     13  C   UNL     1     191.379 192.234 190.797  1.00  0.00     0.000 C 
BRANCH  13  14
ATOM     14  C   UNL     1     192.437 193.338 190.619  1.00  0.00     0.000 C 
BRANCH  14  15
ATOM     15  C   UNL     1     192.904 194.014 191.924  1.00  0.00     0.000 C 
BRANCH  15  16
ATOM     16  C   UNL     1     192.253 195.379 192.225  1.00  0.00     0.006 C 
BRANCH  16  17
ATOM     17  C   UNL     1     191.494 195.994 191.038  1.00  0.00     0.053 C 
BRANCH  17  18
ATOM     18  C   UNL     1     191.305 197.470 191.202  1.00  0.00     0.041 C 
ATOM     19  O   UNL     1     191.674 198.262 190.294  1.00  0.00    -0.550 OA
ATOM     20  O   UNL     1     190.749 197.975 192.371  1.00  0.00    -0.550 OA
ENDBRANCH  17  18
ENDBRANCH  16  17
ENDBRANCH  15  16
ENDBRANCH  14  15
ENDBRANCH  13  14
ENDBRANCH  12  13
ENDBRANCH  11  12
ENDBRANCH   1  11
TORSDOF 15
ENDMDL
MODEL 8
REMARK VINA RESULT:    -4.500      2.561      6.658
REMARK INTER + INTRA:         -10.181
REMARK INTER:                  -8.107
REMARK INTRA:                  -2.074
REMARK UNBOUND:                -1.736
REMARK SMILES O=C([O-])CCCCCCCCCCCCCCC(=O)[O-]
REMARK SMILES IDX 10 1 9 2 8 3 7 4 6 5 5 6 4 7 2 8 1 9 3 10 11 11 12 12 13 13
REMARK SMILES IDX 14 14 15 15 16 16 17 17 18 18 19 19 20 20
REMARK H PARENT
REMARK Flexibility Score: inf
ROOT
ATOM      1  C   UNL     1     184.563 195.228 193.811  1.00  0.00     0.000 C 
ENDROOT
BRANCH   1   2
ATOM      2  C   UNL     1     185.053 195.532 195.239  1.00  0.00     0.000 C 
BRANCH   2   3
ATOM      3  C   UNL     1     186.325 196.395 195.255  1.00  0.00     0.000 C 
BRANCH   3   4
ATOM      4  C   UNL     1     187.357 195.917 196.293  1.00  0.00     0.000 C 
BRANCH   4   5
ATOM      5  C   UNL     1     187.808 194.462 196.037  1.00  0.00     0.000 C 
BRANCH   5   6
ATOM      6  C   UNL     1     189.306 194.330 195.718  1.00  0.00     0.006 C 
BRANCH   6   7
ATOM      7  C   UNL     1     189.583 194.138 194.223  1.00  0.00     0.053 C 
BRANCH   7   8
ATOM      8  C   UNL     1     190.292 195.333 193.665  1.00  0.00     0.041 C 
ATOM      9  O   UNL     1     190.096 196.474 194.159  1.00  0.00    -0.550 OA
ATOM     10  O   UNL     1     191.205 195.178 192.630  1.00  0.00    -0.550 OA
ENDBRANCH   7   8
ENDBRANCH   6   7
ENDBRANCH   5   6
ENDBRANCH   4   5
ENDBRANCH   3   4
ENDBRANCH   2   3
ENDBRANCH   1   2
BRANCH   1  11
ATOM     11  C   UNL     1     184.819 193.770 193.398  1.00  0.00     0.000 C 
BRANCH  11  12
ATOM     12  C   UNL     1     186.205 193.567 192.769  1.00  0.00     0.000 C 
BRANCH  12  13
ATOM     13  C   UNL     1     186.743 192.160 193.071  1.00  0.00     0.000 C 
BRANCH  13  14
ATOM     14  C   UNL     1     187.302 191.453 191.823  1.00  0.00     0.000 C 
BRANCH  14  15
ATOM     15  C   UNL     1     187.806 192.392 190.709  1.00  0.00     0.000 C 
BRANCH  15  16
ATOM     16  C   UNL     1     189.275 192.841 190.845  1.00  0.00     0.006 C 
BRANCH  16  17
ATOM     17  C   UNL     1     190.301 191.709 190.684  1.00  0.00     0.053 C 
BRANCH  17  18
ATOM     18  C   UNL     1     191.117 191.514 191.925  1.00  0.00     0.041 C 
ATOM     19  O   UNL     1     192.257 192.041 192.023  1.00  0.00    -0.550 OA
ATOM     20  O   UNL     1     190.632 190.724 192.960  1.00  0.00    -0.550 OA
ENDBRANCH  17  18
ENDBRANCH  16  17
ENDBRANCH  15  16
ENDBRANCH  14  15
ENDBRANCH  13  14
ENDBRANCH  12  13
ENDBRANCH  11  12
ENDBRANCH   1  11
TORSDOF 15
ENDMDL
MODEL 9
REMARK VINA RESULT:    -4.494      1.590      6.873
REMARK INTER + INTRA:         -10.170
REMARK INTER:                  -8.262
REMARK INTRA:                  -1.908
REMARK UNBOUND:                -1.736
REMARK SMILES O=C([O-])CCCCCCCCCCCCCCC(=O)[O-]
REMARK SMILES IDX 10 1 9 2 8 3 7 4 6 5 5 6 4 7 2 8 1 9 3 10 11 11 12 12 13 13
REMARK SMILES IDX 14 14 15 15 16 16 17 17 18 18 19 19 20 20
REMARK H PARENT
REMARK Flexibility Score: inf
ROOT
ATOM      1  C   UNL     1     191.065 195.856 192.835  1.00  0.00     0.000 C 
ENDROOT
BRANCH   1   2
ATOM      2  C   UNL     1     190.017 195.754 193.958  1.00  0.00     0.000 C 
BRANCH   2   3
ATOM      3  C   UNL     1     189.618 194.302 194.264  1.00  0.00     0.000 C 
BRANCH   3   4
ATOM      4  C   UNL     1     188.240 194.192 194.943  1.00  0.00     0.000 C 
BRANCH   4   5
ATOM      5  C   UNL     1     187.537 195.562 195.054  1.00  0.00     0.000 C 
BRANCH   5   6
ATOM      6  C   UNL     1     187.496 196.118 196.487  1.00  0.00     0.006 C 
BRANCH   6   7
ATOM      7  C   UNL     1     188.219 195.219 197.496  1.00  0.00     0.053 C 
BRANCH   7   8
ATOM      8  C   UNL     1     189.540 195.813 197.874  1.00  0.00     0.041 C 
ATOM      9  O   UNL     1     189.900 196.917 197.387  1.00  0.00    -0.550 OA
ATOM     10  O   UNL     1     190.351 195.171 198.800  1.00  0.00    -0.550 OA
ENDBRANCH   7   8
ENDBRANCH   6   7
ENDBRANCH   5   6
ENDBRANCH   4   5
ENDBRANCH   3   4
ENDBRANCH   2   3
ENDBRANCH   1   2
BRANCH   1  11
ATOM     11  C   UNL     1     190.971 194.692 191.835  1.00  0.00     0.000 C 
BRANCH  11  12
ATOM     12  C   UNL     1     192.336 194.305 191.247  1.00  0.00     0.000 C 
BRANCH  12  13
ATOM     13  C   UNL     1     192.648 192.824 191.514  1.00  0.00     0.000 C 
BRANCH  13  14
ATOM     14  C   UNL     1     191.437 191.905 191.270  1.00  0.00     0.000 C 
BRANCH  14  15
ATOM     15  C   UNL     1     190.927 191.150 192.514  1.00  0.00     0.000 C 
BRANCH  15  16
ATOM     16  C   UNL     1     189.413 190.859 192.528  1.00  0.00     0.006 C 
BRANCH  16  17
ATOM     17  C   UNL     1     188.582 191.775 191.616  1.00  0.00     0.053 C 
BRANCH  17  18
ATOM     18  C   UNL     1     187.228 192.055 192.189  1.00  0.00     0.041 C 
ATOM     19  O   UNL     1     186.641 193.139 191.930  1.00  0.00    -0.550 OA
ATOM     20  O   UNL     1     186.626 191.132 193.036  1.00  0.00    -0.550 OA
ENDBRANCH  17  18
ENDBRANCH  16  17
ENDBRANCH  15  16
ENDBRANCH  14  15
ENDBRANCH  13  14
ENDBRANCH  12  13
ENDBRANCH  11  12
ENDBRANCH   1  11
TORSDOF 15
ENDMDL
