MODEL 1
REMARK VINA RESULT:    -4.843      0.000      0.000
REMARK INTER + INTRA:         -10.092
REMARK INTER:                  -8.523
REMARK INTRA:                  -1.569
REMARK UNBOUND:                -1.569
REMARK SMILES CCCCCCCCCCCCCCC(=O)[O-]
REMARK SMILES IDX 9 1 10 2 11 3 12 4 13 5 14 6 15 7 16 8 17 9 8 10 7 11 6 12
REMARK SMILES IDX 5 13 4 14 3 15 2 16 1 17
REMARK H PARENT
REMARK Flexibility Score: inf
ROOT
ATOM      1  C   UNL     1      47.543 -40.454  -2.925  1.00  0.00     0.000 C 
ENDROOT
BRANCH   1   2
ATOM      2  C   UNL     1      49.019 -40.780  -2.653  1.00  0.00     0.000 C 
BRANCH   2   3
ATOM      3  C   UNL     1      49.478 -41.982  -3.487  1.00  0.00     0.000 C 
BRANCH   3   4
ATOM      4  C   UNL     1      50.985 -42.219  -3.327  1.00  0.00     0.000 C 
BRANCH   4   5
ATOM      5  C   UNL     1      51.645 -41.066  -2.556  1.00  0.00     0.006 C 
BRANCH   5   6
ATOM      6  C   UNL     1      52.782 -41.552  -1.646  1.00  0.00     0.053 C 
BRANCH   6   7
ATOM      7  C   UNL     1      54.053 -40.799  -1.897  1.00  0.00     0.041 C 
ATOM      8  O   UNL     1      55.165 -41.378  -1.778  1.00  0.00    -0.550 OA
ATOM      9  O   UNL     1      54.008 -39.469  -2.293  1.00  0.00    -0.550 OA
ENDBRANCH   6   7
ENDBRANCH   5   6
ENDBRANCH   4   5
ENDBRANCH   3   4
ENDBRANCH   2   3
ENDBRANCH   1   2
BRANCH   1  10
ATOM     10  C   UNL     1      47.288 -39.992  -4.370  1.00  0.00     0.000 C 
BRANCH  10  11
ATOM     11  C   UNL     1      47.271 -38.462  -4.574  1.00  0.00    -0.000 C 
BRANCH  11  12
ATOM     12  C   UNL     1      47.893 -37.644  -3.427  1.00  0.00    -0.000 C 
BRANCH  12  13
ATOM     13  C   UNL     1      48.982 -36.674  -3.907  1.00  0.00    -0.000 C 
BRANCH  13  14
ATOM     14  C   UNL     1      49.542 -37.109  -5.267  1.00  0.00    -0.000 C 
BRANCH  14  15
ATOM     15  C   UNL     1      50.840 -37.908  -5.099  1.00  0.00    -0.000 C 
BRANCH  15  16
ATOM     16  C   UNL     1      50.755 -39.254  -5.827  1.00  0.00    -0.003 C 
ATOM     17  C   UNL     1      51.586 -39.241  -7.107  1.00  0.00     0.004 C 
ENDBRANCH  15  16
ENDBRANCH  14  15
ENDBRANCH  13  14
ENDBRANCH  12  13
ENDBRANCH  11  12
ENDBRANCH  10  11
ENDBRANCH   1  10
TORSDOF 13
ENDMDL
MODEL 2
REMARK VINA RESULT:    -4.540      1.629      2.575
REMARK INTER + INTRA:          -9.559
REMARK INTER:                  -7.624
REMARK INTRA:                  -1.936
REMARK UNBOUND:                -1.569
REMARK SMILES CCCCCCCCCCCCCCC(=O)[O-]
REMARK SMILES IDX 9 1 10 2 11 3 12 4 13 5 14 6 15 7 16 8 17 9 8 10 7 11 6 12
REMARK SMILES IDX 5 13 4 14 3 15 2 16 1 17
REMARK H PARENT
REMARK Flexibility Score: inf
ROOT
ATOM      1  C   UNL     1      46.889 -40.341  -2.139  1.00  0.00     0.000 C 
ENDROOT
BRANCH   1   2
ATOM      2  C   UNL     1      48.387 -40.520  -2.430  1.00  0.00     0.000 C 
BRANCH   2   3
ATOM      3  C   UNL     1      48.613 -40.981  -3.875  1.00  0.00     0.000 C 
BRANCH   3   4
ATOM      4  C   UNL     1      50.108 -41.170  -4.164  1.00  0.00     0.000 C 
BRANCH   4   5
ATOM      5  C   UNL     1      50.914 -41.259  -2.860  1.00  0.00     0.006 C 
BRANCH   5   6
ATOM      6  C   UNL     1      52.105 -40.292  -2.845  1.00  0.00     0.053 C 
BRANCH   6   7
ATOM      7  C   UNL     1      53.251 -40.833  -2.047  1.00  0.00     0.041 C 
ATOM      8  O   UNL     1      53.269 -42.046  -1.707  1.00  0.00    -0.550 OA
ATOM      9  O   UNL     1      54.314 -40.007  -1.707  1.00  0.00    -0.550 OA
ENDBRANCH   6   7
ENDBRANCH   5   6
ENDBRANCH   4   5
ENDBRANCH   3   4
ENDBRANCH   2   3
ENDBRANCH   1   2
BRANCH   1  10
ATOM     10  C   UNL     1      46.023 -40.378  -3.411  1.00  0.00     0.000 C 
BRANCH  10  11
ATOM     11  C   UNL     1      44.786 -39.456  -3.386  1.00  0.00    -0.000 C 
BRANCH  11  12
ATOM     12  C   UNL     1      44.582 -38.604  -4.652  1.00  0.00    -0.000 C 
BRANCH  12  13
ATOM     13  C   UNL     1      45.861 -38.465  -5.490  1.00  0.00    -0.000 C 
BRANCH  13  14
ATOM     14  C   UNL     1      46.617 -37.180  -5.130  1.00  0.00    -0.000 C 
BRANCH  14  15
ATOM     15  C   UNL     1      48.076 -37.482  -4.767  1.00  0.00    -0.000 C 
BRANCH  15  16
ATOM     16  C   UNL     1      48.406 -36.984  -3.356  1.00  0.00    -0.003 C 
ATOM     17  C   UNL     1      49.880 -37.199  -3.027  1.00  0.00     0.004 C 
ENDBRANCH  15  16
ENDBRANCH  14  15
ENDBRANCH  13  14
ENDBRANCH  12  13
ENDBRANCH  11  12
ENDBRANCH  10  11
ENDBRANCH   1  10
TORSDOF 13
ENDMDL
MODEL 3
REMARK VINA RESULT:    -4.527      1.740      3.267
REMARK INTER + INTRA:          -9.536
REMARK INTER:                  -8.183
REMARK INTRA:                  -1.353
REMARK UNBOUND:                -1.569
REMARK SMILES CCCCCCCCCCCCCCC(=O)[O-]
REMARK SMILES IDX 9 1 10 2 11 3 12 4 13 5 14 6 15 7 16 8 17 9 8 10 7 11 6 12
REMARK SMILES IDX 5 13 4 14 3 15 2 16 1 17
REMARK H PARENT
REMARK Flexibility Score: inf
ROOT
ATOM      1  C   UNL     1      47.520 -39.889  -4.648  1.00  0.00     0.000 C 
ENDROOT
BRANCH   1   2
ATOM      2  C   UNL     1      48.975 -40.369  -4.545  1.00  0.00     0.000 C 
BRANCH   2   3
ATOM      3  C   UNL     1      49.152 -41.333  -3.365  1.00  0.00     0.000 C 
BRANCH   3   4
ATOM      4  C   UNL     1      50.556 -41.950  -3.365  1.00  0.00     0.000 C 
BRANCH   4   5
ATOM      5  C   UNL     1      51.582 -40.984  -2.754  1.00  0.00     0.006 C 
BRANCH   5   6
ATOM      6  C   UNL     1      52.621 -41.710  -1.889  1.00  0.00     0.053 C 
BRANCH   6   7
ATOM      7  C   UNL     1      53.946 -41.012  -1.909  1.00  0.00     0.041 C 
ATOM      8  O   UNL     1      54.000 -39.759  -2.024  1.00  0.00    -0.550 OA
ATOM      9  O   UNL     1      55.120 -41.741  -1.769  1.00  0.00    -0.550 OA
ENDBRANCH   6   7
ENDBRANCH   5   6
ENDBRANCH   4   5
ENDBRANCH   3   4
ENDBRANCH   2   3
ENDBRANCH   1   2
BRANCH   1  10
ATOM     10  C   UNL     1      46.567 -40.659  -3.717  1.00  0.00     0.000 C 
BRANCH  10  11
ATOM     11  C   UNL     1      45.378 -39.838  -3.175  1.00  0.00    -0.000 C 
BRANCH  11  12
ATOM     12  C   UNL     1      45.242 -39.821  -1.641  1.00  0.00    -0.000 C 
BRANCH  12  13
ATOM     13  C   UNL     1      45.034 -38.408  -1.076  1.00  0.00    -0.000 C 
BRANCH  13  14
ATOM     14  C   UNL     1      45.969 -37.402  -1.757  1.00  0.00    -0.000 C 
BRANCH  14  15
ATOM     15  C   UNL     1      47.304 -37.299  -1.010  1.00  0.00    -0.000 C 
BRANCH  15  16
ATOM     16  C   UNL     1      48.456 -37.835  -1.866  1.00  0.00    -0.003 C 
ATOM     17  C   UNL     1      49.419 -36.718  -2.258  1.00  0.00     0.004 C 
ENDBRANCH  15  16
ENDBRANCH  14  15
ENDBRANCH  13  14
ENDBRANCH  12  13
ENDBRANCH  11  12
ENDBRANCH  10  11
ENDBRANCH   1  10
TORSDOF 13
ENDMDL
MODEL 4
REMARK VINA RESULT:    -4.463      1.432      3.325
REMARK INTER + INTRA:          -9.423
REMARK INTER:                  -7.425
REMARK INTRA:                  -1.999
REMARK UNBOUND:                -1.569
REMARK SMILES CCCCCCCCCCCCCCC(=O)[O-]
REMARK SMILES IDX 9 1 10 2 11 3 12 4 13 5 14 6 15 7 16 8 17 9 8 10 7 11 6 12
REMARK SMILES IDX 5 13 4 14 3 15 2 16 1 17
REMARK H PARENT
REMARK Flexibility Score: inf
ROOT
ATOM      1  C   UNL     1      48.755 -41.013  -4.288  1.00  0.00     0.000 C 
ENDROOT
BRANCH   1   2
ATOM      2  C   UNL     1      49.235 -39.798  -5.095  1.00  0.00     0.000 C 
BRANCH   2   3
ATOM      3  C   UNL     1      50.760 -39.815  -5.258  1.00  0.00     0.000 C 
BRANCH   3   4
ATOM      4  C   UNL     1      51.383 -38.510  -4.747  1.00  0.00     0.000 C 
BRANCH   4   5
ATOM      5  C   UNL     1      51.767 -38.626  -3.265  1.00  0.00     0.006 C 
BRANCH   5   6
ATOM      6  C   UNL     1      52.261 -40.033  -2.901  1.00  0.00     0.053 C 
BRANCH   6   7
ATOM      7  C   UNL     1      53.615 -39.998  -2.261  1.00  0.00     0.041 C 
ATOM      8  O   UNL     1      54.174 -41.068  -1.903  1.00  0.00    -0.550 OA
ATOM      9  O   UNL     1      54.273 -38.786  -2.091  1.00  0.00    -0.550 OA
ENDBRANCH   6   7
ENDBRANCH   5   6
ENDBRANCH   4   5
ENDBRANCH   3   4
ENDBRANCH   2   3
ENDBRANCH   1   2
BRANCH   1  10
ATOM     10  C   UNL     1      48.533 -40.692  -2.799  1.00  0.00     0.000 C 
BRANCH  10  11
ATOM     11  C   UNL     1      47.072 -40.391  -2.405  1.00  0.00    -0.000 C 
BRANCH  11  12
ATOM     12  C   UNL     1      46.055 -40.477  -3.558  1.00  0.00    -0.000 C 
BRANCH  12  13
ATOM     13  C   UNL     1      45.334 -39.146  -3.818  1.00  0.00    -0.000 C 
BRANCH  13  14
ATOM     14  C   UNL     1      45.659 -38.611  -5.218  1.00  0.00    -0.000 C 
BRANCH  14  15
ATOM     15  C   UNL     1      46.592 -37.396  -5.140  1.00  0.00    -0.000 C 
BRANCH  15  16
ATOM     16  C   UNL     1      46.695 -36.873  -3.704  1.00  0.00    -0.003 C 
ATOM     17  C   UNL     1      48.143 -36.869  -3.222  1.00  0.00     0.004 C 
ENDBRANCH  15  16
ENDBRANCH  14  15
ENDBRANCH  13  14
ENDBRANCH  12  13
ENDBRANCH  11  12
ENDBRANCH  10  11
ENDBRANCH   1  10
TORSDOF 13
ENDMDL
MODEL 5
REMARK VINA RESULT:    -4.456     12.567     14.017
REMARK INTER + INTRA:          -9.411
REMARK INTER:                  -7.246
REMARK INTRA:                  -2.166
REMARK UNBOUND:                -1.569
REMARK SMILES CCCCCCCCCCCCCCC(=O)[O-]
REMARK SMILES IDX 9 1 10 2 11 3 12 4 13 5 14 6 15 7 16 8 17 9 8 10 7 11 6 12
REMARK SMILES IDX 5 13 4 14 3 15 2 16 1 17
REMARK H PARENT
REMARK Flexibility Score: inf
ROOT
ATOM      1  C   UNL     1      46.957 -37.628   7.504  1.00  0.00     0.000 C 
ENDROOT
BRANCH   1   2
ATOM      2  C   UNL     1      48.087 -36.634   7.196  1.00  0.00     0.000 C 
BRANCH   2   3
ATOM      3  C   UNL     1      48.792 -36.189   8.482  1.00  0.00     0.000 C 
BRANCH   3   4
ATOM      4  C   UNL     1      50.241 -35.772   8.201  1.00  0.00     0.000 C 
BRANCH   4   5
ATOM      5  C   UNL     1      51.159 -36.146   9.374  1.00  0.00     0.006 C 
BRANCH   5   6
ATOM      6  C   UNL     1      50.565 -35.740  10.729  1.00  0.00     0.053 C 
BRANCH   6   7
ATOM      7  C   UNL     1      50.780 -34.285  11.016  1.00  0.00     0.041 C 
ATOM      8  O   UNL     1      49.794 -33.509  11.125  1.00  0.00    -0.550 OA
ATOM      9  O   UNL     1      52.066 -33.794  11.196  1.00  0.00    -0.550 OA
ENDBRANCH   6   7
ENDBRANCH   5   6
ENDBRANCH   4   5
ENDBRANCH   3   4
ENDBRANCH   2   3
ENDBRANCH   1   2
BRANCH   1  10
ATOM     10  C   UNL     1      46.854 -37.973   9.000  1.00  0.00     0.000 C 
BRANCH  10  11
ATOM     11  C   UNL     1      46.305 -39.382   9.309  1.00  0.00    -0.000 C 
BRANCH  11  12
ATOM     12  C   UNL     1      46.888 -40.047  10.570  1.00  0.00    -0.000 C 
BRANCH  12  13
ATOM     13  C   UNL     1      48.258 -39.478  10.965  1.00  0.00    -0.000 C 
BRANCH  13  14
ATOM     14  C   UNL     1      49.394 -40.314  10.362  1.00  0.00    -0.000 C 
BRANCH  14  15
ATOM     15  C   UNL     1      50.149 -39.523   9.287  1.00  0.00    -0.000 C 
BRANCH  15  16
ATOM     16  C   UNL     1      49.889 -40.104   7.893  1.00  0.00    -0.003 C 
ATOM     17  C   UNL     1      49.290 -41.504   7.983  1.00  0.00     0.004 C 
ENDBRANCH  15  16
ENDBRANCH  14  15
ENDBRANCH  13  14
ENDBRANCH  12  13
ENDBRANCH  11  12
ENDBRANCH  10  11
ENDBRANCH   1  10
TORSDOF 13
ENDMDL
MODEL 6
REMARK VINA RESULT:    -4.358      3.491      5.826
REMARK INTER + INTRA:          -9.239
REMARK INTER:                  -6.823
REMARK INTRA:                  -2.415
REMARK UNBOUND:                -1.569
REMARK SMILES CCCCCCCCCCCCCCC(=O)[O-]
REMARK SMILES IDX 9 1 10 2 11 3 12 4 13 5 14 6 15 7 16 8 17 9 8 10 7 11 6 12
REMARK SMILES IDX 5 13 4 14 3 15 2 16 1 17
REMARK H PARENT
REMARK Flexibility Score: inf
ROOT
ATOM      1  C   UNL     1      50.985 -37.937  -3.228  1.00  0.00     0.000 C 
ENDROOT
BRANCH   1   2
ATOM      2  C   UNL     1      49.906 -37.325  -4.133  1.00  0.00     0.000 C 
BRANCH   2   3
ATOM      3  C   UNL     1      48.583 -37.160  -3.375  1.00  0.00     0.000 C 
BRANCH   3   4
ATOM      4  C   UNL     1      48.799 -37.264  -1.861  1.00  0.00     0.000 C 
BRANCH   4   5
ATOM      5  C   UNL     1      47.488 -37.614  -1.140  1.00  0.00     0.006 C 
BRANCH   5   6
ATOM      6  C   UNL     1      47.531 -39.008  -0.500  1.00  0.00     0.053 C 
BRANCH   6   7
ATOM      7  C   UNL     1      46.157 -39.526  -0.204  1.00  0.00     0.041 C 
ATOM      8  O   UNL     1      45.980 -40.750   0.036  1.00  0.00    -0.550 OA
ATOM      9  O   UNL     1      45.078 -38.653  -0.161  1.00  0.00    -0.550 OA
ENDBRANCH   6   7
ENDBRANCH   5   6
ENDBRANCH   4   5
ENDBRANCH   3   4
ENDBRANCH   2   3
ENDBRANCH   1   2
BRANCH   1  10
ATOM     10  C   UNL     1      51.525 -39.276  -3.760  1.00  0.00     0.000 C 
BRANCH  10  11
ATOM     11  C   UNL     1      51.070 -40.523  -2.975  1.00  0.00    -0.000 C 
BRANCH  11  12
ATOM     12  C   UNL     1      49.558 -40.809  -3.024  1.00  0.00    -0.000 C 
BRANCH  12  13
ATOM     13  C   UNL     1      49.061 -41.152  -4.436  1.00  0.00    -0.000 C 
BRANCH  13  14
ATOM     14  C   UNL     1      47.800 -40.351  -4.783  1.00  0.00    -0.000 C 
BRANCH  14  15
ATOM     15  C   UNL     1      46.707 -40.560  -3.728  1.00  0.00    -0.000 C 
BRANCH  15  16
ATOM     16  C   UNL     1      45.630 -39.475  -3.832  1.00  0.00    -0.003 C 
ATOM     17  C   UNL     1      45.706 -38.748  -5.171  1.00  0.00     0.004 C 
ENDBRANCH  15  16
ENDBRANCH  14  15
ENDBRANCH  13  14
ENDBRANCH  12  13
ENDBRANCH  11  12
ENDBRANCH  10  11
ENDBRANCH   1  10
TORSDOF 13
ENDMDL
MODEL 7
REMARK VINA RESULT:    -4.356     12.397     13.862
REMARK INTER + INTRA:          -9.236
REMARK INTER:                  -7.275
REMARK INTRA:                  -1.960
REMARK UNBOUND:                -1.569
REMARK SMILES CCCCCCCCCCCCCCC(=O)[O-]
REMARK SMILES IDX 9 1 10 2 11 3 12 4 13 5 14 6 15 7 16 8 17 9 8 10 7 11 6 12
REMARK SMILES IDX 5 13 4 14 3 15 2 16 1 17
REMARK H PARENT
REMARK Flexibility Score: inf
ROOT
ATOM      1  C   UNL     1      48.294 -36.947   6.873  1.00  0.00     0.000 C 
ENDROOT
BRANCH   1   2
ATOM      2  C   UNL     1      49.533 -37.691   7.393  1.00  0.00     0.000 C 
BRANCH   2   3
ATOM      3  C   UNL     1      50.446 -36.748   8.186  1.00  0.00     0.000 C 
BRANCH   3   4
ATOM      4  C   UNL     1      51.425 -37.539   9.063  1.00  0.00     0.000 C 
BRANCH   4   5
ATOM      5  C   UNL     1      51.306 -37.120  10.536  1.00  0.00     0.006 C 
BRANCH   5   6
ATOM      6  C   UNL     1      50.105 -36.197  10.782  1.00  0.00     0.053 C 
BRANCH   6   7
ATOM      7  C   UNL     1      50.532 -34.849  11.276  1.00  0.00     0.041 C 
ATOM      8  O   UNL     1      49.840 -34.240  12.134  1.00  0.00    -0.550 OA
ATOM      9  O   UNL     1      51.712 -34.280  10.813  1.00  0.00    -0.550 OA
ENDBRANCH   6   7
ENDBRANCH   5   6
ENDBRANCH   4   5
ENDBRANCH   3   4
ENDBRANCH   2   3
ENDBRANCH   1   2
BRANCH   1  10
ATOM     10  C   UNL     1      46.975 -37.538   7.402  1.00  0.00     0.000 C 
BRANCH  10  11
ATOM     11  C   UNL     1      46.930 -37.774   8.926  1.00  0.00    -0.000 C 
BRANCH  11  12
ATOM     12  C   UNL     1      46.157 -39.030   9.368  1.00  0.00    -0.000 C 
BRANCH  12  13
ATOM     13  C   UNL     1      46.989 -39.957  10.267  1.00  0.00    -0.000 C 
BRANCH  13  14
ATOM     14  C   UNL     1      48.474 -39.579  10.220  1.00  0.00    -0.000 C 
BRANCH  14  15
ATOM     15  C   UNL     1      49.330 -40.764   9.758  1.00  0.00    -0.000 C 
BRANCH  15  16
ATOM     16  C   UNL     1      49.052 -41.103   8.290  1.00  0.00    -0.003 C 
ATOM     17  C   UNL     1      49.887 -42.296   7.833  1.00  0.00     0.004 C 
ENDBRANCH  15  16
ENDBRANCH  14  15
ENDBRANCH  13  14
ENDBRANCH  12  13
ENDBRANCH  11  12
ENDBRANCH  10  11
ENDBRANCH   1  10
TORSDOF 13
ENDMDL
MODEL 8
REMARK VINA RESULT:    -4.316     12.381     13.860
REMARK INTER + INTRA:          -9.166
REMARK INTER:                  -7.072
REMARK INTRA:                  -2.094
REMARK UNBOUND:                -1.569
REMARK SMILES CCCCCCCCCCCCCCC(=O)[O-]
REMARK SMILES IDX 9 1 10 2 11 3 12 4 13 5 14 6 15 7 16 8 17 9 8 10 7 11 6 12
REMARK SMILES IDX 5 13 4 14 3 15 2 16 1 17
REMARK H PARENT
REMARK Flexibility Score: inf
ROOT
ATOM      1  C   UNL     1      49.859 -40.156   8.230  1.00  0.00     0.000 C 
ENDROOT
BRANCH   1   2
ATOM      2  C   UNL     1      50.474 -38.931   7.537  1.00  0.00     0.000 C 
BRANCH   2   3
ATOM      3  C   UNL     1      51.036 -37.943   8.566  1.00  0.00     0.000 C 
BRANCH   3   4
ATOM      4  C   UNL     1      50.512 -36.524   8.310  1.00  0.00     0.000 C 
BRANCH   4   5
ATOM      5  C   UNL     1      49.704 -36.011   9.511  1.00  0.00     0.006 C 
BRANCH   5   6
ATOM      6  C   UNL     1      50.583 -35.785  10.749  1.00  0.00     0.053 C 
BRANCH   6   7
ATOM      7  C   UNL     1      50.798 -34.327  11.020  1.00  0.00     0.041 C 
ATOM      8  O   UNL     1      49.813 -33.547  11.103  1.00  0.00    -0.550 OA
ATOM      9  O   UNL     1      52.083 -33.837  11.213  1.00  0.00    -0.550 OA
ENDBRANCH   6   7
ENDBRANCH   5   6
ENDBRANCH   4   5
ENDBRANCH   3   4
ENDBRANCH   2   3
ENDBRANCH   1   2
BRANCH   1  10
ATOM     10  C   UNL     1      49.871 -40.044   9.765  1.00  0.00     0.000 C 
BRANCH  10  11
ATOM     11  C   UNL     1      48.486 -40.133  10.438  1.00  0.00    -0.000 C 
BRANCH  11  12
ATOM     12  C   UNL     1      47.612 -38.873  10.301  1.00  0.00    -0.000 C 
BRANCH  12  13
ATOM     13  C   UNL     1      46.373 -39.098   9.422  1.00  0.00    -0.000 C 
BRANCH  13  14
ATOM     14  C   UNL     1      46.038 -37.838   8.614  1.00  0.00    -0.000 C 
BRANCH  14  15
ATOM     15  C   UNL     1      46.854 -37.781   7.318  1.00  0.00    -0.000 C 
BRANCH  15  16
ATOM     16  C   UNL     1      47.150 -36.332   6.917  1.00  0.00    -0.003 C 
ATOM     17  C   UNL     1      46.120 -35.376   7.510  1.00  0.00     0.004 C 
ENDBRANCH  15  16
ENDBRANCH  14  15
ENDBRANCH  13  14
ENDBRANCH  12  13
ENDBRANCH  11  12
ENDBRANCH  10  11
ENDBRANCH   1  10
TORSDOF 13
ENDMDL
MODEL 9
REMARK VINA RESULT:    -4.297      2.248      3.997
REMARK INTER + INTRA:          -9.132
REMARK INTER:                  -7.220
REMARK INTRA:                  -1.913
REMARK UNBOUND:                -1.569
REMARK SMILES CCCCCCCCCCCCCCC(=O)[O-]
REMARK SMILES IDX 9 1 10 2 11 3 12 4 13 5 14 6 15 7 16 8 17 9 8 10 7 11 6 12
REMARK SMILES IDX 5 13 4 14 3 15 2 16 1 17
REMARK H PARENT
REMARK Flexibility Score: inf
ROOT
ATOM      1  C   UNL     1      44.884 -38.705  -4.163  1.00  0.00     0.000 C 
ENDROOT
BRANCH   1   2
ATOM      2  C   UNL     1      46.282 -38.574  -4.786  1.00  0.00     0.000 C 
BRANCH   2   3
ATOM      3  C   UNL     1      46.982 -39.936  -4.855  1.00  0.00     0.000 C 
BRANCH   3   4
ATOM      4  C   UNL     1      48.475 -39.804  -4.530  1.00  0.00     0.000 C 
BRANCH   4   5
ATOM      5  C   UNL     1      49.126 -41.186  -4.365  1.00  0.00     0.006 C 
BRANCH   5   6
ATOM      6  C   UNL     1      49.747 -41.373  -2.974  1.00  0.00     0.053 C 
BRANCH   6   7
ATOM      7  C   UNL     1      51.219 -41.096  -2.981  1.00  0.00     0.041 C 
ATOM      8  O   UNL     1      51.648 -39.954  -3.293  1.00  0.00    -0.550 OA
ATOM      9  O   UNL     1      52.116 -42.091  -2.612  1.00  0.00    -0.550 OA
ENDBRANCH   6   7
ENDBRANCH   5   6
ENDBRANCH   4   5
ENDBRANCH   3   4
ENDBRANCH   2   3
ENDBRANCH   1   2
BRANCH   1  10
ATOM     10  C   UNL     1      44.777 -39.877  -3.172  1.00  0.00     0.000 C 
BRANCH  10  11
ATOM     11  C   UNL     1      45.209 -39.553  -1.727  1.00  0.00    -0.000 C 
BRANCH  11  12
ATOM     12  C   UNL     1      46.491 -40.263  -1.254  1.00  0.00    -0.000 C 
BRANCH  12  13
ATOM     13  C   UNL     1      47.571 -39.285  -0.769  1.00  0.00    -0.000 C 
BRANCH  13  14
ATOM     14  C   UNL     1      47.317 -37.874  -1.312  1.00  0.00    -0.000 C 
BRANCH  14  15
ATOM     15  C   UNL     1      48.266 -36.856  -0.668  1.00  0.00    -0.000 C 
BRANCH  15  16
ATOM     16  C   UNL     1      49.032 -36.067  -1.735  1.00  0.00    -0.003 C 
ATOM     17  C   UNL     1      49.848 -36.998  -2.628  1.00  0.00     0.004 C 
ENDBRANCH  15  16
ENDBRANCH  14  15
ENDBRANCH  13  14
ENDBRANCH  12  13
ENDBRANCH  11  12
ENDBRANCH  10  11
ENDBRANCH   1  10
TORSDOF 13
ENDMDL
