MODEL 1
REMARK VINA RESULT:    -8.176      0.000      0.000
REMARK INTER + INTRA:          -9.542
REMARK INTER:                  -9.849
REMARK INTRA:                   0.307
REMARK UNBOUND:                 0.307
REMARK SMILES O=c1c(O)c(-c2ccc(O)c(O)c2)oc2cc(O)cc(O)c12
REMARK SMILES IDX 5 1 3 2 2 3 1 4 22 5 20 6 19 7 17 8 16 9 15 10 14 11 6 12
REMARK SMILES IDX 7 13 8 14 9 15 13 16 11 17 10 18 12 20 4 22 21 24 18 26
REMARK H PARENT 10 19 12 21 4 23 21 25 18 27
REMARK Flexibility Score: inf
ROOT
ATOM      1  C   UNL     1      11.555  55.055   3.445  1.00  0.00     0.180 A 
ATOM      2  C   UNL     1      10.252  54.691   3.827  1.00  0.00     0.208 A 
ATOM      3  C   UNL     1       9.884  54.792   5.178  1.00  0.00     0.238 A 
ATOM      4  O   UNL     1       8.742  54.394   5.524  1.00  0.00    -0.285 OA
ATOM      5  C   UNL     1      10.804  55.311   6.122  1.00  0.00     0.111 A 
ATOM      6  C   UNL     1      10.524  55.501   7.509  1.00  0.00     0.134 A 
ATOM      7  C   UNL     1      11.547  55.921   8.368  1.00  0.00     0.093 A 
ATOM      8  C   UNL     1      12.820  56.219   7.883  1.00  0.00     0.123 A 
ATOM      9  C   UNL     1      13.089  56.091   6.520  1.00  0.00     0.094 A 
ATOM     10  C   UNL     1      12.100  55.636   5.643  1.00  0.00     0.146 A 
ATOM     11  O   UNL     1      12.405  55.507   4.358  1.00  0.00    -0.452 OA
ENDROOT
BRANCH   1  12
ATOM     12  C   UNL     1      12.020  54.962   2.042  1.00  0.00     0.025 A 
ATOM     13  C   UNL     1      13.371  54.726   1.733  1.00  0.00     0.016 A 
ATOM     14  C   UNL     1      13.789  54.667   0.400  1.00  0.00     0.051 A 
ATOM     15  C   UNL     1      12.869  54.856  -0.639  1.00  0.00     0.157 A 
ATOM     16  C   UNL     1      11.105  55.171   0.996  1.00  0.00     0.062 A 
ATOM     17  C   UNL     1      11.525  55.112  -0.340  1.00  0.00     0.158 A 
BRANCH  15  18
ATOM     18  O   UNL     1      13.283  54.796  -1.969  1.00  0.00    -0.504 OA
ATOM     19  H   UNL     1      13.266  55.614  -2.566  1.00  0.00     0.293 HD
ENDBRANCH  15  18
BRANCH  17  20
ATOM     20  O   UNL     1      10.612  55.307  -1.376  1.00  0.00    -0.504 OA
ATOM     21  H   UNL     1      10.583  54.691  -2.179  1.00  0.00     0.293 HD
ENDBRANCH  17  20
ENDBRANCH   1  12
BRANCH   2  22
ATOM     22  O   UNL     1       9.334  54.254   2.867  1.00  0.00    -0.502 OA
ATOM     23  H   UNL     1       9.554  53.527   2.195  1.00  0.00     0.293 HD
ENDBRANCH   2  22
BRANCH   6  24
ATOM     24  O   UNL     1       9.265  55.317   8.087  1.00  0.00    -0.507 OA
ATOM     25  H   UNL     1       8.392  55.613   7.677  1.00  0.00     0.293 HD
ENDBRANCH   6  24
BRANCH   8  26
ATOM     26  O   UNL     1      13.808  56.653   8.764  1.00  0.00    -0.508 OA
ATOM     27  H   UNL     1      14.597  56.065   9.007  1.00  0.00     0.293 HD
ENDBRANCH   8  26
TORSDOF 6
ENDMDL
MODEL 2
REMARK VINA RESULT:    -8.043      5.523     10.261
REMARK INTER + INTRA:          -9.382
REMARK INTER:                  -9.079
REMARK INTRA:                  -0.303
REMARK UNBOUND:                 0.307
REMARK SMILES O=c1c(O)c(-c2ccc(O)c(O)c2)oc2cc(O)cc(O)c12
REMARK SMILES IDX 5 1 3 2 2 3 1 4 22 5 20 6 19 7 17 8 16 9 15 10 14 11 6 12
REMARK SMILES IDX 7 13 8 14 9 15 13 16 11 17 10 18 12 20 4 22 21 24 18 26
REMARK H PARENT 10 19 12 21 4 23 21 25 18 27
REMARK Flexibility Score: inf
ROOT
ATOM      1  C   UNL     1      14.584  53.213  -2.380  1.00  0.00     0.180 A 
ATOM      2  C   UNL     1      14.857  54.092  -3.442  1.00  0.00     0.208 A 
ATOM      3  C   UNL     1      14.448  53.743  -4.739  1.00  0.00     0.238 A 
ATOM      4  O   UNL     1      14.762  54.498  -5.694  1.00  0.00    -0.285 OA
ATOM      5  C   UNL     1      13.719  52.546  -4.949  1.00  0.00     0.111 A 
ATOM      6  C   UNL     1      13.214  52.115  -6.213  1.00  0.00     0.134 A 
ATOM      7  C   UNL     1      12.601  50.860  -6.319  1.00  0.00     0.093 A 
ATOM      8  C   UNL     1      12.416  50.051  -5.199  1.00  0.00     0.123 A 
ATOM      9  C   UNL     1      12.855  50.487  -3.949  1.00  0.00     0.094 A 
ATOM     10  C   UNL     1      13.507  51.717  -3.817  1.00  0.00     0.146 A 
ATOM     11  O   UNL     1      13.928  52.084  -2.613  1.00  0.00    -0.452 OA
ENDROOT
BRANCH   1  12
ATOM     12  C   UNL     1      14.998  53.507  -0.988  1.00  0.00     0.025 A 
ATOM     13  C   UNL     1      14.240  54.355  -0.163  1.00  0.00     0.016 A 
ATOM     14  C   UNL     1      14.665  54.637   1.139  1.00  0.00     0.051 A 
ATOM     15  C   UNL     1      15.857  54.085   1.628  1.00  0.00     0.157 A 
ATOM     16  C   UNL     1      16.202  52.974  -0.500  1.00  0.00     0.062 A 
ATOM     17  C   UNL     1      16.628  53.255   0.806  1.00  0.00     0.158 A 
BRANCH  15  18
ATOM     18  O   UNL     1      16.282  54.362   2.926  1.00  0.00    -0.504 OA
ATOM     19  H   UNL     1      17.240  54.629   3.125  1.00  0.00     0.293 HD
ENDBRANCH  15  18
BRANCH  17  20
ATOM     20  O   UNL     1      17.817  52.714   1.292  1.00  0.00    -0.504 OA
ATOM     21  H   UNL     1      17.832  52.110   2.106  1.00  0.00     0.293 HD
ENDBRANCH  17  20
ENDBRANCH   1  12
BRANCH   2  22
ATOM     22  O   UNL     1      15.510  55.305  -3.202  1.00  0.00    -0.502 OA
ATOM     23  H   UNL     1      15.008  56.170  -3.040  1.00  0.00     0.293 HD
ENDBRANCH   2  22
BRANCH   6  24
ATOM     24  O   UNL     1      13.266  52.881  -7.381  1.00  0.00    -0.507 OA
ATOM     25  H   UNL     1      14.109  53.261  -7.785  1.00  0.00     0.293 HD
ENDBRANCH   6  24
BRANCH   8  26
ATOM     26  O   UNL     1      11.784  48.817  -5.339  1.00  0.00    -0.508 OA
ATOM     27  H   UNL     1      12.247  48.031  -5.781  1.00  0.00     0.293 HD
ENDBRANCH   8  26
TORSDOF 6
ENDMDL
MODEL 3
REMARK VINA RESULT:    -8.020      3.202      6.266
REMARK INTER + INTRA:          -9.354
REMARK INTER:                  -9.454
REMARK INTRA:                   0.099
REMARK UNBOUND:                 0.307
REMARK SMILES O=c1c(O)c(-c2ccc(O)c(O)c2)oc2cc(O)cc(O)c12
REMARK SMILES IDX 5 1 3 2 2 3 1 4 22 5 20 6 19 7 17 8 16 9 15 10 14 11 6 12
REMARK SMILES IDX 7 13 8 14 9 15 13 16 11 17 10 18 12 20 4 22 21 24 18 26
REMARK H PARENT 10 19 12 21 4 23 21 25 18 27
REMARK Flexibility Score: inf
ROOT
ATOM      1  C   UNL     1      13.079  56.746   6.713  1.00  0.00     0.180 A 
ATOM      2  C   UNL     1      13.817  56.546   7.891  1.00  0.00     0.208 A 
ATOM      3  C   UNL     1      14.980  57.302   8.104  1.00  0.00     0.238 A 
ATOM      4  O   UNL     1      15.676  57.064   9.125  1.00  0.00    -0.285 OA
ATOM      5  C   UNL     1      15.360  58.291   7.163  1.00  0.00     0.111 A 
ATOM      6  C   UNL     1      16.494  59.147   7.299  1.00  0.00     0.134 A 
ATOM      7  C   UNL     1      16.833  60.014   6.252  1.00  0.00     0.093 A 
ATOM      8  C   UNL     1      16.045  60.103   5.106  1.00  0.00     0.123 A 
ATOM      9  C   UNL     1      14.903  59.311   4.987  1.00  0.00     0.094 A 
ATOM     10  C   UNL     1      14.560  58.407   5.997  1.00  0.00     0.146 A 
ATOM     11  O   UNL     1      13.477  57.657   5.834  1.00  0.00    -0.452 OA
ENDROOT
BRANCH   1  12
ATOM     12  C   UNL     1      11.850  55.976   6.412  1.00  0.00     0.025 A 
ATOM     13  C   UNL     1      10.877  55.735   7.397  1.00  0.00     0.016 A 
ATOM     14  C   UNL     1       9.737  54.984   7.095  1.00  0.00     0.051 A 
ATOM     15  C   UNL     1       9.561  54.453   5.810  1.00  0.00     0.157 A 
ATOM     16  C   UNL     1      11.678  55.424   5.131  1.00  0.00     0.062 A 
ATOM     17  C   UNL     1      10.535  54.671   4.827  1.00  0.00     0.158 A 
BRANCH  15  18
ATOM     18  O   UNL     1       8.425  53.705   5.505  1.00  0.00    -0.504 OA
ATOM     19  H   UNL     1       8.486  52.840   4.980  1.00  0.00     0.293 HD
ENDBRANCH  15  18
BRANCH  17  20
ATOM     20  O   UNL     1      10.361  54.135   3.552  1.00  0.00    -0.504 OA
ATOM     21  H   UNL     1      10.649  53.190   3.331  1.00  0.00     0.293 HD
ENDBRANCH  17  20
ENDBRANCH   1  12
BRANCH   2  22
ATOM     22  O   UNL     1      13.383  55.619   8.844  1.00  0.00    -0.502 OA
ATOM     23  H   UNL     1      13.910  54.784   9.070  1.00  0.00     0.293 HD
ENDBRANCH   2  22
BRANCH   6  24
ATOM     24  O   UNL     1      17.302  59.204   8.438  1.00  0.00    -0.507 OA
ATOM     25  H   UNL     1      18.203  59.656   8.486  1.00  0.00     0.293 HD
ENDBRANCH   6  24
BRANCH   8  26
ATOM     26  O   UNL     1      16.402  60.991   4.093  1.00  0.00    -0.508 OA
ATOM     27  H   UNL     1      16.869  61.867   4.296  1.00  0.00     0.293 HD
ENDBRANCH   8  26
TORSDOF 6
ENDMDL
MODEL 4
REMARK VINA RESULT:    -8.012      4.200      7.503
REMARK INTER + INTRA:          -9.344
REMARK INTER:                  -9.021
REMARK INTRA:                  -0.323
REMARK UNBOUND:                 0.307
REMARK SMILES O=c1c(O)c(-c2ccc(O)c(O)c2)oc2cc(O)cc(O)c12
REMARK SMILES IDX 5 1 3 2 2 3 1 4 22 5 20 6 19 7 17 8 16 9 15 10 14 11 6 12
REMARK SMILES IDX 7 13 8 14 9 15 13 16 11 17 10 18 12 20 4 22 21 24 18 26
REMARK H PARENT 10 19 12 21 4 23 21 25 18 27
REMARK Flexibility Score: inf
ROOT
ATOM      1  C   UNL     1      13.639  53.222  -2.870  1.00  0.00     0.180 A 
ATOM      2  C   UNL     1      14.932  53.290  -2.324  1.00  0.00     0.208 A 
ATOM      3  C   UNL     1      15.111  53.884  -1.065  1.00  0.00     0.238 A 
ATOM      4  O   UNL     1      16.280  54.009  -0.617  1.00  0.00    -0.285 OA
ATOM      5  C   UNL     1      13.987  54.350  -0.340  1.00  0.00     0.111 A 
ATOM      6  C   UNL     1      14.044  54.927   0.964  1.00  0.00     0.134 A 
ATOM      7  C   UNL     1      12.879  55.451   1.539  1.00  0.00     0.093 A 
ATOM      8  C   UNL     1      11.650  55.361   0.887  1.00  0.00     0.123 A 
ATOM      9  C   UNL     1      11.573  54.749  -0.363  1.00  0.00     0.094 A 
ATOM     10  C   UNL     1      12.724  54.252  -0.981  1.00  0.00     0.146 A 
ATOM     11  O   UNL     1      12.609  53.696  -2.181  1.00  0.00    -0.452 OA
ENDROOT
BRANCH   1  12
ATOM     12  C   UNL     1      13.375  52.624  -4.199  1.00  0.00     0.025 A 
ATOM     13  C   UNL     1      13.116  51.250  -4.345  1.00  0.00     0.016 A 
ATOM     14  C   UNL     1      12.894  50.705  -5.613  1.00  0.00     0.051 A 
ATOM     15  C   UNL     1      12.941  51.521  -6.751  1.00  0.00     0.157 A 
ATOM     16  C   UNL     1      13.442  53.433  -5.345  1.00  0.00     0.062 A 
ATOM     17  C   UNL     1      13.219  52.887  -6.617  1.00  0.00     0.158 A 
BRANCH  15  18
ATOM     18  O   UNL     1      12.719  50.981  -8.017  1.00  0.00    -0.504 OA
ATOM     19  H   UNL     1      13.338  50.283  -8.412  1.00  0.00     0.293 HD
ENDBRANCH  15  18
BRANCH  17  20
ATOM     20  O   UNL     1      13.273  53.695  -7.752  1.00  0.00    -0.504 OA
ATOM     21  H   UNL     1      12.602  54.438  -7.906  1.00  0.00     0.293 HD
ENDBRANCH  17  20
ENDBRANCH   1  12
BRANCH   2  22
ATOM     22  O   UNL     1      16.019  52.755  -3.023  1.00  0.00    -0.502 OA
ATOM     23  H   UNL     1      15.976  52.538  -4.012  1.00  0.00     0.293 HD
ENDBRANCH   2  22
BRANCH   6  24
ATOM     24  O   UNL     1      15.203  54.991   1.744  1.00  0.00    -0.507 OA
ATOM     25  H   UNL     1      15.876  54.245   1.839  1.00  0.00     0.293 HD
ENDBRANCH   6  24
BRANCH   8  26
ATOM     26  O   UNL     1      10.508  55.876   1.498  1.00  0.00    -0.508 OA
ATOM     27  H   UNL     1       9.611  55.880   1.027  1.00  0.00     0.293 HD
ENDBRANCH   8  26
TORSDOF 6
ENDMDL
MODEL 5
REMARK VINA RESULT:    -7.995      3.246      4.485
REMARK INTER + INTRA:          -9.324
REMARK INTER:                  -9.017
REMARK INTRA:                  -0.306
REMARK UNBOUND:                 0.307
REMARK SMILES O=c1c(O)c(-c2ccc(O)c(O)c2)oc2cc(O)cc(O)c12
REMARK SMILES IDX 5 1 3 2 2 3 1 4 22 5 20 6 19 7 17 8 16 9 15 10 14 11 6 12
REMARK SMILES IDX 7 13 8 14 9 15 13 16 11 17 10 18 12 20 4 22 21 24 18 26
REMARK H PARENT 10 19 12 21 4 23 21 25 18 27
REMARK Flexibility Score: inf
ROOT
ATOM      1  C   UNL     1      13.627  57.455   3.881  1.00  0.00     0.180 A 
ATOM      2  C   UNL     1      14.414  57.532   5.043  1.00  0.00     0.208 A 
ATOM      3  C   UNL     1      13.935  56.954   6.230  1.00  0.00     0.238 A 
ATOM      4  O   UNL     1      14.609  57.093   7.282  1.00  0.00    -0.285 OA
ATOM      5  C   UNL     1      12.702  56.257   6.227  1.00  0.00     0.111 A 
ATOM      6  C   UNL     1      12.141  55.594   7.360  1.00  0.00     0.134 A 
ATOM      7  C   UNL     1      10.864  55.028   7.267  1.00  0.00     0.093 A 
ATOM      8  C   UNL     1      10.154  55.043   6.067  1.00  0.00     0.123 A 
ATOM      9  C   UNL     1      10.716  55.640   4.938  1.00  0.00     0.094 A 
ATOM     10  C   UNL     1      11.973  56.248   5.009  1.00  0.00     0.146 A 
ATOM     11  O   UNL     1      12.461  56.823   3.917  1.00  0.00    -0.452 OA
ENDROOT
BRANCH   1  12
ATOM     12  C   UNL     1      14.058  58.052   2.596  1.00  0.00     0.025 A 
ATOM     13  C   UNL     1      14.946  57.381   1.738  1.00  0.00     0.016 A 
ATOM     14  C   UNL     1      15.358  57.977   0.542  1.00  0.00     0.051 A 
ATOM     15  C   UNL     1      14.900  59.255   0.195  1.00  0.00     0.157 A 
ATOM     16  C   UNL     1      13.619  59.342   2.253  1.00  0.00     0.062 A 
ATOM     17  C   UNL     1      14.031  59.940   1.054  1.00  0.00     0.158 A 
BRANCH  15  18
ATOM     18  O   UNL     1      15.307  59.851  -0.997  1.00  0.00    -0.504 OA
ATOM     19  H   UNL     1      15.103  59.431  -1.896  1.00  0.00     0.293 HD
ENDBRANCH  15  18
BRANCH  17  20
ATOM     20  O   UNL     1      13.583  61.214   0.710  1.00  0.00    -0.504 OA
ATOM     21  H   UNL     1      13.833  62.029   1.256  1.00  0.00     0.293 HD
ENDBRANCH  17  20
ENDBRANCH   1  12
BRANCH   2  22
ATOM     22  O   UNL     1      15.663  58.158   5.006  1.00  0.00    -0.502 OA
ATOM     23  H   UNL     1      16.157  58.335   4.139  1.00  0.00     0.293 HD
ENDBRANCH   2  22
BRANCH   6  24
ATOM     24  O   UNL     1      12.799  55.442   8.584  1.00  0.00    -0.507 OA
ATOM     25  H   UNL     1      12.696  56.059   9.376  1.00  0.00     0.293 HD
ENDBRANCH   6  24
BRANCH   8  26
ATOM     26  O   UNL     1       8.893  54.454   6.005  1.00  0.00    -0.508 OA
ATOM     27  H   UNL     1       8.381  54.210   6.845  1.00  0.00     0.293 HD
ENDBRANCH   8  26
TORSDOF 6
ENDMDL
MODEL 6
REMARK VINA RESULT:    -7.864      1.327      2.982
REMARK INTER + INTRA:          -9.166
REMARK INTER:                  -9.357
REMARK INTRA:                   0.191
REMARK UNBOUND:                 0.307
REMARK SMILES O=c1c(O)c(-c2ccc(O)c(O)c2)oc2cc(O)cc(O)c12
REMARK SMILES IDX 5 1 3 2 2 3 1 4 22 5 20 6 19 7 17 8 16 9 15 10 14 11 6 12
REMARK SMILES IDX 7 13 8 14 9 15 13 16 11 17 10 18 12 20 4 22 21 24 18 26
REMARK H PARENT 10 19 12 21 4 23 21 25 18 27
REMARK Flexibility Score: inf
ROOT
ATOM      1  C   UNL     1      12.764  55.402   2.870  1.00  0.00     0.180 A 
ATOM      2  C   UNL     1      13.864  56.010   3.499  1.00  0.00     0.208 A 
ATOM      3  C   UNL     1      13.794  56.295   4.872  1.00  0.00     0.238 A 
ATOM      4  O   UNL     1      14.752  56.906   5.410  1.00  0.00    -0.285 OA
ATOM      5  C   UNL     1      12.647  55.916   5.612  1.00  0.00     0.111 A 
ATOM      6  C   UNL     1      12.486  56.112   7.017  1.00  0.00     0.134 A 
ATOM      7  C   UNL     1      11.264  55.795   7.622  1.00  0.00     0.093 A 
ATOM      8  C   UNL     1      10.222  55.227   6.890  1.00  0.00     0.123 A 
ATOM      9  C   UNL     1      10.389  54.979   5.528  1.00  0.00     0.094 A 
ATOM     10  C   UNL     1      11.582  55.322   4.886  1.00  0.00     0.146 A 
ATOM     11  O   UNL     1      11.690  55.088   3.584  1.00  0.00    -0.452 OA
ENDROOT
BRANCH   1  12
ATOM     12  C   UNL     1      12.759  55.085   1.423  1.00  0.00     0.025 A 
ATOM     13  C   UNL     1      13.921  54.646   0.766  1.00  0.00     0.016 A 
ATOM     14  C   UNL     1      13.896  54.377  -0.606  1.00  0.00     0.051 A 
ATOM     15  C   UNL     1      12.716  54.557  -1.340  1.00  0.00     0.157 A 
ATOM     16  C   UNL     1      11.584  55.284   0.678  1.00  0.00     0.062 A 
ATOM     17  C   UNL     1      11.559  55.014  -0.698  1.00  0.00     0.158 A 
BRANCH  15  18
ATOM     18  O   UNL     1      12.688  54.288  -2.708  1.00  0.00    -0.504 OA
ATOM     19  H   UNL     1      11.890  54.538  -3.280  1.00  0.00     0.293 HD
ENDBRANCH  15  18
BRANCH  17  20
ATOM     20  O   UNL     1      10.389  55.198  -1.432  1.00  0.00    -0.504 OA
ATOM     21  H   UNL     1      10.326  55.898  -2.162  1.00  0.00     0.293 HD
ENDBRANCH  17  20
ENDBRANCH   1  12
BRANCH   2  22
ATOM     22  O   UNL     1      15.017  56.307   2.765  1.00  0.00    -0.502 OA
ATOM     23  H   UNL     1      15.149  57.196   2.296  1.00  0.00     0.293 HD
ENDBRANCH   2  22
BRANCH   6  24
ATOM     24  O   UNL     1      13.492  56.591   7.862  1.00  0.00    -0.507 OA
ATOM     25  H   UNL     1      14.220  56.025   8.272  1.00  0.00     0.293 HD
ENDBRANCH   6  24
BRANCH   8  26
ATOM     26  O   UNL     1       9.027  54.906   7.530  1.00  0.00    -0.508 OA
ATOM     27  H   UNL     1       8.183  54.705   7.007  1.00  0.00     0.293 HD
ENDBRANCH   8  26
TORSDOF 6
ENDMDL
MODEL 7
REMARK VINA RESULT:    -7.842      5.009      7.197
REMARK INTER + INTRA:          -9.140
REMARK INTER:                  -8.850
REMARK INTRA:                  -0.289
REMARK UNBOUND:                 0.307
REMARK SMILES O=c1c(O)c(-c2ccc(O)c(O)c2)oc2cc(O)cc(O)c12
REMARK SMILES IDX 5 1 3 2 2 3 1 4 22 5 20 6 19 7 17 8 16 9 15 10 14 11 6 12
REMARK SMILES IDX 7 13 8 14 9 15 13 16 11 17 10 18 12 20 4 22 21 24 18 26
REMARK H PARENT 10 19 12 21 4 23 21 25 18 27
REMARK Flexibility Score: inf
ROOT
ATOM      1  C   UNL     1      13.650  53.229  -2.607  1.00  0.00     0.180 A 
ATOM      2  C   UNL     1      12.696  54.018  -1.941  1.00  0.00     0.208 A 
ATOM      3  C   UNL     1      12.993  54.512  -0.661  1.00  0.00     0.238 A 
ATOM      4  O   UNL     1      12.106  55.153  -0.042  1.00  0.00    -0.285 OA
ATOM      5  C   UNL     1      14.262  54.259  -0.086  1.00  0.00     0.111 A 
ATOM      6  C   UNL     1      14.689  54.748   1.186  1.00  0.00     0.134 A 
ATOM      7  C   UNL     1      15.927  54.345   1.700  1.00  0.00     0.093 A 
ATOM      8  C   UNL     1      16.781  53.525   0.964  1.00  0.00     0.123 A 
ATOM      9  C   UNL     1      16.398  53.086  -0.303  1.00  0.00     0.094 A 
ATOM     10  C   UNL     1      15.152  53.439  -0.828  1.00  0.00     0.146 A 
ATOM     11  O   UNL     1      14.818  52.982  -2.029  1.00  0.00    -0.452 OA
ENDROOT
BRANCH   1  12
ATOM     12  C   UNL     1      13.402  52.661  -3.952  1.00  0.00     0.025 A 
ATOM     13  C   UNL     1      13.065  51.307  -4.125  1.00  0.00     0.016 A 
ATOM     14  C   UNL     1      12.862  50.789  -5.407  1.00  0.00     0.051 A 
ATOM     15  C   UNL     1      13.005  51.611  -6.532  1.00  0.00     0.157 A 
ATOM     16  C   UNL     1      13.565  53.475  -5.086  1.00  0.00     0.062 A 
ATOM     17  C   UNL     1      13.360  52.955  -6.372  1.00  0.00     0.158 A 
BRANCH  15  18
ATOM     18  O   UNL     1      12.800  51.097  -7.812  1.00  0.00    -0.504 OA
ATOM     19  H   UNL     1      12.100  51.486  -8.434  1.00  0.00     0.293 HD
ENDBRANCH  15  18
BRANCH  17  20
ATOM     20  O   UNL     1      13.509  53.769  -7.494  1.00  0.00    -0.504 OA
ATOM     21  H   UNL     1      13.208  53.466  -8.412  1.00  0.00     0.293 HD
ENDBRANCH  17  20
ENDBRANCH   1  12
BRANCH   2  22
ATOM     22  O   UNL     1      11.478  54.320  -2.559  1.00  0.00    -0.502 OA
ATOM     23  H   UNL     1      10.735  54.818  -2.082  1.00  0.00     0.293 HD
ENDBRANCH   2  22
BRANCH   6  24
ATOM     24  O   UNL     1      13.954  55.643   1.968  1.00  0.00    -0.507 OA
ATOM     25  H   UNL     1      14.121  55.828   2.946  1.00  0.00     0.293 HD
ENDBRANCH   6  24
BRANCH   8  26
ATOM     26  O   UNL     1      18.014  53.158   1.500  1.00  0.00    -0.508 OA
ATOM     27  H   UNL     1      18.144  52.273   1.975  1.00  0.00     0.293 HD
ENDBRANCH   8  26
TORSDOF 6
ENDMDL
MODEL 8
REMARK VINA RESULT:    -7.673      3.959      9.754
REMARK INTER + INTRA:          -8.936
REMARK INTER:                  -8.611
REMARK INTRA:                  -0.325
REMARK UNBOUND:                 0.307
REMARK SMILES O=c1c(O)c(-c2ccc(O)c(O)c2)oc2cc(O)cc(O)c12
REMARK SMILES IDX 5 1 3 2 2 3 1 4 22 5 20 6 19 7 17 8 16 9 15 10 14 11 6 12
REMARK SMILES IDX 7 13 8 14 9 15 13 16 11 17 10 18 12 20 4 22 21 24 18 26
REMARK H PARENT 10 19 12 21 4 23 21 25 18 27
REMARK Flexibility Score: inf
ROOT
ATOM      1  C   UNL     1      13.237  53.954  -2.322  1.00  0.00     0.180 A 
ATOM      2  C   UNL     1      13.690  54.756  -3.384  1.00  0.00     0.208 A 
ATOM      3  C   UNL     1      13.757  54.206  -4.674  1.00  0.00     0.238 A 
ATOM      4  O   UNL     1      14.233  54.906  -5.604  1.00  0.00    -0.285 OA
ATOM      5  C   UNL     1      13.315  52.878  -4.897  1.00  0.00     0.111 A 
ATOM      6  C   UNL     1      13.294  52.234  -6.170  1.00  0.00     0.134 A 
ATOM      7  C   UNL     1      12.938  50.882  -6.254  1.00  0.00     0.093 A 
ATOM      8  C   UNL     1      12.539  50.170  -5.123  1.00  0.00     0.123 A 
ATOM      9  C   UNL     1      12.502  50.806  -3.882  1.00  0.00     0.094 A 
ATOM     10  C   UNL     1      12.890  52.143  -3.759  1.00  0.00     0.146 A 
ATOM     11  O   UNL     1      12.861  52.703  -2.557  1.00  0.00    -0.452 OA
ENDROOT
BRANCH   1  12
ATOM     12  C   UNL     1      13.154  54.460  -0.932  1.00  0.00     0.025 A 
ATOM     13  C   UNL     1      14.272  54.448  -0.081  1.00  0.00     0.016 A 
ATOM     14  C   UNL     1      14.162  54.907   1.235  1.00  0.00     0.051 A 
ATOM     15  C   UNL     1      12.932  55.371   1.721  1.00  0.00     0.157 A 
ATOM     16  C   UNL     1      11.919  54.906  -0.433  1.00  0.00     0.062 A 
ATOM     17  C   UNL     1      11.808  55.368   0.886  1.00  0.00     0.158 A 
BRANCH  15  18
ATOM     18  O   UNL     1      12.819  55.832   3.032  1.00  0.00    -0.504 OA
ATOM     19  H   UNL     1      12.560  55.212   3.790  1.00  0.00     0.293 HD
ENDBRANCH  15  18
BRANCH  17  20
ATOM     20  O   UNL     1      10.584  55.822   1.374  1.00  0.00    -0.504 OA
ATOM     21  H   UNL     1       9.772  55.906   0.774  1.00  0.00     0.293 HD
ENDBRANCH  17  20
ENDBRANCH   1  12
BRANCH   2  22
ATOM     22  O   UNL     1      14.049  56.088  -3.156  1.00  0.00    -0.502 OA
ATOM     23  H   UNL     1      14.904  56.491  -3.522  1.00  0.00     0.293 HD
ENDBRANCH   2  22
BRANCH   6  24
ATOM     24  O   UNL     1      13.589  52.873  -7.378  1.00  0.00    -0.507 OA
ATOM     25  H   UNL     1      14.027  52.433  -8.173  1.00  0.00     0.293 HD
ENDBRANCH   6  24
BRANCH   8  26
ATOM     26  O   UNL     1      12.173  48.832  -5.246  1.00  0.00    -0.508 OA
ATOM     27  H   UNL     1      11.708  48.338  -4.493  1.00  0.00     0.293 HD
ENDBRANCH   8  26
TORSDOF 6
ENDMDL
MODEL 9
REMARK VINA RESULT:    -7.641      6.905     10.672
REMARK INTER + INTRA:          -8.897
REMARK INTER:                  -8.570
REMARK INTRA:                  -0.326
REMARK UNBOUND:                 0.307
REMARK SMILES O=c1c(O)c(-c2ccc(O)c(O)c2)oc2cc(O)cc(O)c12
REMARK SMILES IDX 5 1 3 2 2 3 1 4 22 5 20 6 19 7 17 8 16 9 15 10 14 11 6 12
REMARK SMILES IDX 7 13 8 14 9 15 13 16 11 17 10 18 12 20 4 22 21 24 18 26
REMARK H PARENT 10 19 12 21 4 23 21 25 18 27
REMARK Flexibility Score: inf
ROOT
ATOM      1  C   UNL     1      15.296  53.940  -3.262  1.00  0.00     0.180 A 
ATOM      2  C   UNL     1      15.015  55.279  -3.582  1.00  0.00     0.208 A 
ATOM      3  C   UNL     1      14.263  55.562  -4.734  1.00  0.00     0.238 A 
ATOM      4  O   UNL     1      14.080  56.764  -5.054  1.00  0.00    -0.285 OA
ATOM      5  C   UNL     1      13.752  54.500  -5.519  1.00  0.00     0.111 A 
ATOM      6  C   UNL     1      12.939  54.668  -6.681  1.00  0.00     0.134 A 
ATOM      7  C   UNL     1      12.580  53.547  -7.440  1.00  0.00     0.093 A 
ATOM      8  C   UNL     1      12.948  52.261  -7.046  1.00  0.00     0.123 A 
ATOM      9  C   UNL     1      13.695  52.081  -5.882  1.00  0.00     0.094 A 
ATOM     10  C   UNL     1      14.102  53.182  -5.124  1.00  0.00     0.146 A 
ATOM     11  O   UNL     1      14.830  52.967  -4.035  1.00  0.00    -0.452 OA
ENDROOT
BRANCH   1  12
ATOM     12  C   UNL     1      16.095  53.565  -2.073  1.00  0.00     0.025 A 
ATOM     13  C   UNL     1      17.500  53.536  -2.114  1.00  0.00     0.016 A 
ATOM     14  C   UNL     1      18.231  53.154  -0.985  1.00  0.00     0.051 A 
ATOM     15  C   UNL     1      17.570  52.784   0.193  1.00  0.00     0.157 A 
ATOM     16  C   UNL     1      15.437  53.172  -0.895  1.00  0.00     0.062 A 
ATOM     17  C   UNL     1      16.170  52.790   0.238  1.00  0.00     0.158 A 
BRANCH  15  18
ATOM     18  O   UNL     1      18.296  52.405   1.321  1.00  0.00    -0.504 OA
ATOM     19  H   UNL     1      18.201  52.896   2.202  1.00  0.00     0.293 HD
ENDBRANCH  15  18
BRANCH  17  20
ATOM     20  O   UNL     1      15.515  52.413   1.409  1.00  0.00    -0.504 OA
ATOM     21  H   UNL     1      14.604  52.785   1.649  1.00  0.00     0.293 HD
ENDBRANCH  17  20
ENDBRANCH   1  12
BRANCH   2  22
ATOM     22  O   UNL     1      15.464  56.310  -2.751  1.00  0.00    -0.502 OA
ATOM     23  H   UNL     1      15.249  57.285  -2.929  1.00  0.00     0.293 HD
ENDBRANCH   2  22
BRANCH   6  24
ATOM     24  O   UNL     1      12.441  55.898  -7.118  1.00  0.00    -0.507 OA
ATOM     25  H   UNL     1      11.563  56.029  -7.599  1.00  0.00     0.293 HD
ENDBRANCH   6  24
BRANCH   8  26
ATOM     26  O   UNL     1      12.558  51.167  -7.816  1.00  0.00    -0.508 OA
ATOM     27  H   UNL     1      13.234  50.597  -8.309  1.00  0.00     0.293 HD
ENDBRANCH   8  26
TORSDOF 6
ENDMDL
