MODEL 1
REMARK VINA RESULT:    -2.701      0.000      0.000
REMARK INTER + INTRA:         -13.208
REMARK INTER:                  -7.122
REMARK INTRA:                  -6.086
REMARK UNBOUND:                -6.086
REMARK SMILES CCCCCCCCCCCCCCCCCCCCCCCCCCCCCC(=O)[O-]
REMARK SMILES IDX 16 1 17 2 18 3 19 4 20 5 21 6 22 7 23 8 24 9 25 10 26 11
REMARK SMILES IDX 27 12 28 13 29 14 30 15 31 16 32 17 15 18 14 19 13 20 12 21
REMARK SMILES IDX 11 22 10 23 9 24 8 25 7 26 6 27 5 28 4 29 3 30 2 31 1 32
REMARK H PARENT
REMARK Flexibility Score: inf
ROOT
ATOM      1  C   UNL     1     143.360 146.948 145.942  1.00  0.00     0.000 C 
ENDROOT
BRANCH   1   2
ATOM      2  C   UNL     1     141.962 147.368 145.449  1.00  0.00     0.000 C 
BRANCH   2   3
ATOM      3  C   UNL     1     141.350 146.355 144.465  1.00  0.00     0.000 C 
BRANCH   3   4
ATOM      4  C   UNL     1     140.771 147.030 143.210  1.00  0.00     0.000 C 
BRANCH   4   5
ATOM      5  C   UNL     1     141.115 148.525 143.137  1.00  0.00     0.000 C 
BRANCH   5   6
ATOM      6  C   UNL     1     141.488 148.984 141.717  1.00  0.00     0.000 C 
BRANCH   6   7
ATOM      7  C   UNL     1     142.694 149.942 141.691  1.00  0.00     0.000 C 
BRANCH   7   8
ATOM      8  C   UNL     1     143.799 149.625 142.716  1.00  0.00     0.000 C 
BRANCH   8   9
ATOM      9  C   UNL     1     144.921 148.748 142.133  1.00  0.00     0.000 C 
BRANCH   9  10
ATOM     10  C   UNL     1     144.947 147.335 142.753  1.00  0.00     0.000 C 
BRANCH  10  11
ATOM     11  C   UNL     1     144.149 146.284 141.958  1.00  0.00     0.000 C 
BRANCH  11  12
ATOM     12  C   UNL     1     144.439 144.819 142.327  1.00  0.00     0.000 C 
BRANCH  12  13
ATOM     13  C   UNL     1     145.785 144.578 143.044  1.00  0.00     0.006 C 
BRANCH  13  14
ATOM     14  C   UNL     1     146.990 144.415 142.102  1.00  0.00     0.053 C 
BRANCH  14  15
ATOM     15  C   UNL     1     146.942 143.123 141.344  1.00  0.00     0.041 C 
ATOM     16  O   UNL     1     147.465 142.085 141.828  1.00  0.00    -0.550 OA
ATOM     17  O   UNL     1     146.354 143.072 140.086  1.00  0.00    -0.550 OA
ENDBRANCH  14  15
ENDBRANCH  13  14
ENDBRANCH  12  13
ENDBRANCH  11  12
ENDBRANCH  10  11
ENDBRANCH   9  10
ENDBRANCH   8   9
ENDBRANCH   7   8
ENDBRANCH   6   7
ENDBRANCH   5   6
ENDBRANCH   4   5
ENDBRANCH   3   4
ENDBRANCH   2   3
ENDBRANCH   1   2
BRANCH   1  18
ATOM     18  C   UNL     1     143.561 145.423 145.933  1.00  0.00     0.000 C 
BRANCH  18  19
ATOM     19  C   UNL     1     143.275 144.732 147.279  1.00  0.00     0.000 C 
BRANCH  19  20
ATOM     20  C   UNL     1     141.963 143.927 147.266  1.00  0.00     0.000 C 
BRANCH  20  21
ATOM     21  C   UNL     1     141.784 143.070 145.996  1.00  0.00     0.000 C 
BRANCH  21  22
ATOM     22  C   UNL     1     141.407 141.594 146.232  1.00  0.00     0.000 C 
BRANCH  22  23
ATOM     23  C   UNL     1     142.211 140.612 145.364  1.00  0.00     0.000 C 
BRANCH  23  24
ATOM     24  C   UNL     1     143.325 141.301 144.561  1.00  0.00    -0.000 C 
BRANCH  24  25
ATOM     25  C   UNL     1     144.750 140.968 145.051  1.00  0.00    -0.000 C 
BRANCH  25  26
ATOM     26  C   UNL     1     145.391 142.136 145.824  1.00  0.00    -0.000 C 
BRANCH  26  27
ATOM     27  C   UNL     1     145.573 141.829 147.326  1.00  0.00    -0.000 C 
BRANCH  27  28
ATOM     28  C   UNL     1     145.136 140.407 147.733  1.00  0.00    -0.000 C 
BRANCH  28  29
ATOM     29  C   UNL     1     143.918 140.337 148.676  1.00  0.00    -0.000 C 
BRANCH  29  30
ATOM     30  C   UNL     1     143.681 141.597 149.534  1.00  0.00    -0.000 C 
BRANCH  30  31
ATOM     31  C   UNL     1     142.578 141.406 150.586  1.00  0.00    -0.003 C 
ATOM     32  C   UNL     1     141.198 141.662 149.987  1.00  0.00     0.004 C 
ENDBRANCH  30  31
ENDBRANCH  29  30
ENDBRANCH  28  29
ENDBRANCH  27  28
ENDBRANCH  26  27
ENDBRANCH  25  26
ENDBRANCH  24  25
ENDBRANCH  23  24
ENDBRANCH  22  23
ENDBRANCH  21  22
ENDBRANCH  20  21
ENDBRANCH  19  20
ENDBRANCH  18  19
ENDBRANCH   1  18
TORSDOF 28
ENDMDL
MODEL 2
REMARK VINA RESULT:    -2.623      3.010      6.639
REMARK INTER + INTRA:         -13.003
REMARK INTER:                  -7.959
REMARK INTRA:                  -5.044
REMARK UNBOUND:                -6.086
REMARK SMILES CCCCCCCCCCCCCCCCCCCCCCCCCCCCCC(=O)[O-]
REMARK SMILES IDX 16 1 17 2 18 3 19 4 20 5 21 6 22 7 23 8 24 9 25 10 26 11
REMARK SMILES IDX 27 12 28 13 29 14 30 15 31 16 32 17 15 18 14 19 13 20 12 21
REMARK SMILES IDX 11 22 10 23 9 24 8 25 7 26 6 27 5 28 4 29 3 30 2 31 1 32
REMARK H PARENT
REMARK Flexibility Score: inf
ROOT
ATOM      1  C   UNL     1     141.222 143.354 150.067  1.00  0.00     0.000 C 
ENDROOT
BRANCH   1   2
ATOM      2  C   UNL     1     142.259 144.166 149.268  1.00  0.00     0.000 C 
BRANCH   2   3
ATOM      3  C   UNL     1     141.744 144.582 147.879  1.00  0.00     0.000 C 
BRANCH   3   4
ATOM      4  C   UNL     1     142.724 144.213 146.752  1.00  0.00     0.000 C 
BRANCH   4   5
ATOM      5  C   UNL     1     142.037 143.460 145.603  1.00  0.00     0.000 C 
BRANCH   5   6
ATOM      6  C   UNL     1     140.981 142.454 146.094  1.00  0.00     0.000 C 
BRANCH   6   7
ATOM      7  C   UNL     1     141.302 141.002 145.695  1.00  0.00     0.000 C 
BRANCH   7   8
ATOM      8  C   UNL     1     142.709 140.783 145.111  1.00  0.00     0.000 C 
BRANCH   8   9
ATOM      9  C   UNL     1     143.596 139.897 146.003  1.00  0.00     0.000 C 
BRANCH   9  10
ATOM     10  C   UNL     1     144.948 140.564 146.338  1.00  0.00     0.000 C 
BRANCH  10  11
ATOM     11  C   UNL     1     145.234 141.845 145.532  1.00  0.00     0.000 C 
BRANCH  11  12
ATOM     12  C   UNL     1     145.806 141.622 144.122  1.00  0.00     0.000 C 
BRANCH  12  13
ATOM     13  C   UNL     1     146.117 142.911 143.329  1.00  0.00     0.006 C 
BRANCH  13  14
ATOM     14  C   UNL     1     144.890 143.572 142.680  1.00  0.00     0.053 C 
BRANCH  14  15
ATOM     15  C   UNL     1     144.835 145.046 142.948  1.00  0.00     0.041 C 
ATOM     16  O   UNL     1     144.945 145.866 141.999  1.00  0.00    -0.550 OA
ATOM     17  O   UNL     1     144.701 145.516 144.248  1.00  0.00    -0.550 OA
ENDBRANCH  14  15
ENDBRANCH  13  14
ENDBRANCH  12  13
ENDBRANCH  11  12
ENDBRANCH  10  11
ENDBRANCH   9  10
ENDBRANCH   8   9
ENDBRANCH   7   8
ENDBRANCH   6   7
ENDBRANCH   5   6
ENDBRANCH   4   5
ENDBRANCH   3   4
ENDBRANCH   2   3
ENDBRANCH   1   2
BRANCH   1  18
ATOM     18  C   UNL     1     141.365 141.836 149.856  1.00  0.00     0.000 C 
BRANCH  18  19
ATOM     19  C   UNL     1     142.696 141.401 149.216  1.00  0.00     0.000 C 
BRANCH  19  20
ATOM     20  C   UNL     1     143.351 140.220 149.954  1.00  0.00     0.000 C 
BRANCH  20  21
ATOM     21  C   UNL     1     144.610 140.619 150.750  1.00  0.00     0.000 C 
BRANCH  21  22
ATOM     22  C   UNL     1     145.047 142.091 150.617  1.00  0.00     0.000 C 
BRANCH  22  23
ATOM     23  C   UNL     1     144.799 142.919 151.888  1.00  0.00     0.000 C 
BRANCH  23  24
ATOM     24  C   UNL     1     144.055 142.130 152.977  1.00  0.00    -0.000 C 
BRANCH  24  25
ATOM     25  C   UNL     1     142.594 142.581 153.192  1.00  0.00    -0.000 C 
BRANCH  25  26
ATOM     26  C   UNL     1     141.699 141.439 153.708  1.00  0.00    -0.000 C 
BRANCH  26  27
ATOM     27  C   UNL     1     140.194 141.757 153.586  1.00  0.00    -0.000 C 
BRANCH  27  28
ATOM     28  C   UNL     1     139.876 143.265 153.524  1.00  0.00    -0.000 C 
BRANCH  28  29
ATOM     29  C   UNL     1     139.928 144.005 154.876  1.00  0.00    -0.000 C 
BRANCH  29  30
ATOM     30  C   UNL     1     140.066 145.538 154.779  1.00  0.00    -0.000 C 
BRANCH  30  31
ATOM     31  C   UNL     1     141.501 146.028 155.027  1.00  0.00    -0.003 C 
ATOM     32  C   UNL     1     142.340 144.947 155.703  1.00  0.00     0.004 C 
ENDBRANCH  30  31
ENDBRANCH  29  30
ENDBRANCH  28  29
ENDBRANCH  27  28
ENDBRANCH  26  27
ENDBRANCH  25  26
ENDBRANCH  24  25
ENDBRANCH  23  24
ENDBRANCH  22  23
ENDBRANCH  21  22
ENDBRANCH  20  21
ENDBRANCH  19  20
ENDBRANCH  18  19
ENDBRANCH   1  18
TORSDOF 28
ENDMDL
MODEL 3
REMARK VINA RESULT:    -2.536      2.855      7.586
REMARK INTER + INTRA:         -12.772
REMARK INTER:                  -6.812
REMARK INTRA:                  -5.960
REMARK UNBOUND:                -6.086
REMARK SMILES CCCCCCCCCCCCCCCCCCCCCCCCCCCCCC(=O)[O-]
REMARK SMILES IDX 16 1 17 2 18 3 19 4 20 5 21 6 22 7 23 8 24 9 25 10 26 11
REMARK SMILES IDX 27 12 28 13 29 14 30 15 31 16 32 17 15 18 14 19 13 20 12 21
REMARK SMILES IDX 11 22 10 23 9 24 8 25 7 26 6 27 5 28 4 29 3 30 2 31 1 32
REMARK H PARENT
REMARK Flexibility Score: inf
ROOT
ATOM      1  C   UNL     1     146.654 143.549 146.092  1.00  0.00     0.000 C 
ENDROOT
BRANCH   1   2
ATOM      2  C   UNL     1     145.317 142.784 146.088  1.00  0.00     0.000 C 
BRANCH   2   3
ATOM      3  C   UNL     1     144.698 142.678 144.683  1.00  0.00     0.000 C 
BRANCH   3   4
ATOM      4  C   UNL     1     144.180 141.263 144.373  1.00  0.00     0.000 C 
BRANCH   4   5
ATOM      5  C   UNL     1     144.204 140.348 145.606  1.00  0.00     0.000 C 
BRANCH   5   6
ATOM      6  C   UNL     1     142.797 140.021 146.137  1.00  0.00     0.000 C 
BRANCH   6   7
ATOM      7  C   UNL     1     141.676 140.706 145.333  1.00  0.00     0.000 C 
BRANCH   7   8
ATOM      8  C   UNL     1     140.924 141.820 146.084  1.00  0.00     0.000 C 
BRANCH   8   9
ATOM      9  C   UNL     1     141.340 141.932 147.561  1.00  0.00     0.000 C 
BRANCH   9  10
ATOM     10  C   UNL     1     141.784 143.361 147.942  1.00  0.00     0.000 C 
BRANCH  10  11
ATOM     11  C   UNL     1     141.883 144.328 146.747  1.00  0.00     0.000 C 
BRANCH  11  12
ATOM     12  C   UNL     1     142.917 145.457 146.898  1.00  0.00     0.000 C 
BRANCH  12  13
ATOM     13  C   UNL     1     143.317 146.160 145.582  1.00  0.00     0.006 C 
BRANCH  13  14
ATOM     14  C   UNL     1     142.559 145.666 144.339  1.00  0.00     0.053 C 
BRANCH  14  15
ATOM     15  C   UNL     1     141.585 146.685 143.830  1.00  0.00     0.041 C 
ATOM     16  O   UNL     1     141.612 147.037 142.621  1.00  0.00    -0.550 OA
ATOM     17  O   UNL     1     140.673 147.274 144.696  1.00  0.00    -0.550 OA
ENDBRANCH  14  15
ENDBRANCH  13  14
ENDBRANCH  12  13
ENDBRANCH  11  12
ENDBRANCH  10  11
ENDBRANCH   9  10
ENDBRANCH   8   9
ENDBRANCH   7   8
ENDBRANCH   6   7
ENDBRANCH   5   6
ENDBRANCH   4   5
ENDBRANCH   3   4
ENDBRANCH   2   3
ENDBRANCH   1   2
BRANCH   1  18
ATOM     18  C   UNL     1     147.807 142.735 145.478  1.00  0.00     0.000 C 
BRANCH  18  19
ATOM     19  C   UNL     1     148.103 141.404 146.194  1.00  0.00     0.000 C 
BRANCH  19  20
ATOM     20  C   UNL     1     148.268 140.228 145.215  1.00  0.00     0.000 C 
BRANCH  20  21
ATOM     21  C   UNL     1     147.792 140.552 143.785  1.00  0.00     0.000 C 
BRANCH  21  22
ATOM     22  C   UNL     1     148.864 140.447 142.682  1.00  0.00     0.000 C 
BRANCH  22  23
ATOM     23  C   UNL     1     150.211 141.071 143.079  1.00  0.00     0.000 C 
BRANCH  23  24
ATOM     24  C   UNL     1     150.960 141.682 141.883  1.00  0.00    -0.000 C 
BRANCH  24  25
ATOM     25  C   UNL     1     151.149 143.211 141.975  1.00  0.00    -0.000 C 
BRANCH  25  26
ATOM     26  C   UNL     1     150.076 143.881 142.853  1.00  0.00    -0.000 C 
BRANCH  26  27
ATOM     27  C   UNL     1     149.155 144.828 142.054  1.00  0.00    -0.000 C 
BRANCH  27  28
ATOM     28  C   UNL     1     148.161 144.099 141.126  1.00  0.00    -0.000 C 
BRANCH  28  29
ATOM     29  C   UNL     1     146.934 143.485 141.828  1.00  0.00    -0.000 C 
BRANCH  29  30
ATOM     30  C   UNL     1     145.567 143.963 141.297  1.00  0.00    -0.000 C 
BRANCH  30  31
ATOM     31  C   UNL     1     145.116 145.293 141.917  1.00  0.00    -0.003 C 
ATOM     32  C   UNL     1     144.883 146.349 140.841  1.00  0.00     0.004 C 
ENDBRANCH  30  31
ENDBRANCH  29  30
ENDBRANCH  28  29
ENDBRANCH  27  28
ENDBRANCH  26  27
ENDBRANCH  25  26
ENDBRANCH  24  25
ENDBRANCH  23  24
ENDBRANCH  22  23
ENDBRANCH  21  22
ENDBRANCH  20  21
ENDBRANCH  19  20
ENDBRANCH  18  19
ENDBRANCH   1  18
TORSDOF 28
ENDMDL
MODEL 4
REMARK VINA RESULT:    -2.488      1.739      7.071
REMARK INTER + INTRA:         -12.645
REMARK INTER:                  -6.323
REMARK INTRA:                  -6.323
REMARK UNBOUND:                -6.086
REMARK SMILES CCCCCCCCCCCCCCCCCCCCCCCCCCCCCC(=O)[O-]
REMARK SMILES IDX 16 1 17 2 18 3 19 4 20 5 21 6 22 7 23 8 24 9 25 10 26 11
REMARK SMILES IDX 27 12 28 13 29 14 30 15 31 16 32 17 15 18 14 19 13 20 12 21
REMARK SMILES IDX 11 22 10 23 9 24 8 25 7 26 6 27 5 28 4 29 3 30 2 31 1 32
REMARK H PARENT
REMARK Flexibility Score: inf
ROOT
ATOM      1  C   UNL     1     144.663 146.723 148.773  1.00  0.00     0.000 C 
ENDROOT
BRANCH   1   2
ATOM      2  C   UNL     1     143.194 146.583 149.216  1.00  0.00     0.000 C 
BRANCH   2   3
ATOM      3  C   UNL     1     142.870 145.181 149.764  1.00  0.00     0.000 C 
BRANCH   3   4
ATOM      4  C   UNL     1     142.801 144.116 148.657  1.00  0.00     0.000 C 
BRANCH   4   5
ATOM      5  C   UNL     1     141.388 143.540 148.487  1.00  0.00     0.000 C 
BRANCH   5   6
ATOM      6  C   UNL     1     141.385 142.144 147.841  1.00  0.00     0.000 C 
BRANCH   6   7
ATOM      7  C   UNL     1     140.853 142.150 146.396  1.00  0.00     0.000 C 
BRANCH   7   8
ATOM      8  C   UNL     1     141.421 141.043 145.488  1.00  0.00     0.000 C 
BRANCH   8   9
ATOM      9  C   UNL     1     142.850 141.343 145.003  1.00  0.00     0.000 C 
BRANCH   9  10
ATOM     10  C   UNL     1     143.887 140.352 145.574  1.00  0.00     0.000 C 
BRANCH  10  11
ATOM     11  C   UNL     1     144.821 140.963 146.637  1.00  0.00     0.000 C 
BRANCH  11  12
ATOM     12  C   UNL     1     145.067 142.476 146.505  1.00  0.00     0.000 C 
BRANCH  12  13
ATOM     13  C   UNL     1     146.393 142.867 145.818  1.00  0.00     0.006 C 
BRANCH  13  14
ATOM     14  C   UNL     1     146.259 143.222 144.328  1.00  0.00     0.053 C 
BRANCH  14  15
ATOM     15  C   UNL     1     146.843 142.164 143.441  1.00  0.00     0.041 C 
ATOM     16  O   UNL     1     147.012 142.389 142.213  1.00  0.00    -0.550 OA
ATOM     17  O   UNL     1     147.167 140.916 143.960  1.00  0.00    -0.550 OA
ENDBRANCH  14  15
ENDBRANCH  13  14
ENDBRANCH  12  13
ENDBRANCH  11  12
ENDBRANCH  10  11
ENDBRANCH   9  10
ENDBRANCH   8   9
ENDBRANCH   7   8
ENDBRANCH   6   7
ENDBRANCH   5   6
ENDBRANCH   4   5
ENDBRANCH   3   4
ENDBRANCH   2   3
ENDBRANCH   1   2
BRANCH   1  18
ATOM     18  C   UNL     1     144.805 147.325 147.364  1.00  0.00     0.000 C 
BRANCH  18  19
ATOM     19  C   UNL     1     145.065 146.294 146.250  1.00  0.00     0.000 C 
BRANCH  19  20
ATOM     20  C   UNL     1     144.548 146.760 144.877  1.00  0.00     0.000 C 
BRANCH  20  21
ATOM     21  C   UNL     1     143.649 145.721 144.177  1.00  0.00     0.000 C 
BRANCH  21  22
ATOM     22  C   UNL     1     142.545 145.093 145.052  1.00  0.00     0.000 C 
BRANCH  22  23
ATOM     23  C   UNL     1     141.274 145.951 145.140  1.00  0.00     0.000 C 
BRANCH  23  24
ATOM     24  C   UNL     1     141.094 146.610 146.517  1.00  0.00    -0.000 C 
BRANCH  24  25
ATOM     25  C   UNL     1     140.661 148.090 146.452  1.00  0.00    -0.000 C 
BRANCH  25  26
ATOM     26  C   UNL     1     141.848 149.037 146.194  1.00  0.00    -0.000 C 
BRANCH  26  27
ATOM     27  C   UNL     1     141.950 149.480 144.719  1.00  0.00    -0.000 C 
BRANCH  27  28
ATOM     28  C   UNL     1     140.588 149.771 144.057  1.00  0.00    -0.000 C 
BRANCH  28  29
ATOM     29  C   UNL     1     140.428 149.238 142.619  1.00  0.00    -0.000 C 
BRANCH  29  30
ATOM     30  C   UNL     1     141.283 148.000 142.280  1.00  0.00    -0.000 C 
BRANCH  30  31
ATOM     31  C   UNL     1     142.225 148.231 141.089  1.00  0.00    -0.003 C 
ATOM     32  C   UNL     1     143.678 148.315 141.546  1.00  0.00     0.004 C 
ENDBRANCH  30  31
ENDBRANCH  29  30
ENDBRANCH  28  29
ENDBRANCH  27  28
ENDBRANCH  26  27
ENDBRANCH  25  26
ENDBRANCH  24  25
ENDBRANCH  23  24
ENDBRANCH  22  23
ENDBRANCH  21  22
ENDBRANCH  20  21
ENDBRANCH  19  20
ENDBRANCH  18  19
ENDBRANCH   1  18
TORSDOF 28
ENDMDL
MODEL 5
REMARK VINA RESULT:    -2.421      2.019      4.326
REMARK INTER + INTRA:         -12.469
REMARK INTER:                  -7.893
REMARK INTRA:                  -4.576
REMARK UNBOUND:                -6.086
REMARK SMILES CCCCCCCCCCCCCCCCCCCCCCCCCCCCCC(=O)[O-]
REMARK SMILES IDX 16 1 17 2 18 3 19 4 20 5 21 6 22 7 23 8 24 9 25 10 26 11
REMARK SMILES IDX 27 12 28 13 29 14 30 15 31 16 32 17 15 18 14 19 13 20 12 21
REMARK SMILES IDX 11 22 10 23 9 24 8 25 7 26 6 27 5 28 4 29 3 30 2 31 1 32
REMARK H PARENT
REMARK Flexibility Score: inf
ROOT
ATOM      1  C   UNL     1     144.431 142.661 144.404  1.00  0.00     0.000 C 
ENDROOT
BRANCH   1   2
ATOM      2  C   UNL     1     144.950 143.638 145.475  1.00  0.00     0.000 C 
BRANCH   2   3
ATOM      3  C   UNL     1     143.892 144.673 145.898  1.00  0.00     0.000 C 
BRANCH   3   4
ATOM      4  C   UNL     1     142.787 144.850 144.844  1.00  0.00     0.000 C 
BRANCH   4   5
ATOM      5  C   UNL     1     141.484 145.396 145.448  1.00  0.00     0.000 C 
BRANCH   5   6
ATOM      6  C   UNL     1     141.256 146.884 145.132  1.00  0.00     0.000 C 
BRANCH   6   7
ATOM      7  C   UNL     1     140.082 147.121 144.164  1.00  0.00     0.000 C 
BRANCH   7   8
ATOM      8  C   UNL     1     140.457 147.822 142.845  1.00  0.00     0.000 C 
BRANCH   8   9
ATOM      9  C   UNL     1     141.212 146.900 141.872  1.00  0.00     0.000 C 
BRANCH   9  10
ATOM     10  C   UNL     1     142.567 147.494 141.429  1.00  0.00     0.000 C 
BRANCH  10  11
ATOM     11  C   UNL     1     143.615 147.576 142.555  1.00  0.00     0.000 C 
BRANCH  11  12
ATOM     12  C   UNL     1     144.940 146.847 142.275  1.00  0.00     0.000 C 
BRANCH  12  13
ATOM     13  C   UNL     1     144.930 145.920 141.040  1.00  0.00     0.006 C 
BRANCH  13  14
ATOM     14  C   UNL     1     145.069 144.423 141.365  1.00  0.00     0.053 C 
BRANCH  14  15
ATOM     15  C   UNL     1     146.465 143.925 141.143  1.00  0.00     0.041 C 
ATOM     16  O   UNL     1     146.659 142.811 140.588  1.00  0.00    -0.550 OA
ATOM     17  O   UNL     1     147.551 144.671 141.582  1.00  0.00    -0.550 OA
ENDBRANCH  14  15
ENDBRANCH  13  14
ENDBRANCH  12  13
ENDBRANCH  11  12
ENDBRANCH  10  11
ENDBRANCH   9  10
ENDBRANCH   8   9
ENDBRANCH   7   8
ENDBRANCH   6   7
ENDBRANCH   5   6
ENDBRANCH   4   5
ENDBRANCH   3   4
ENDBRANCH   2   3
ENDBRANCH   1   2
BRANCH   1  18
ATOM     18  C   UNL     1     144.705 141.189 144.759  1.00  0.00     0.000 C 
BRANCH  18  19
ATOM     19  C   UNL     1     143.554 140.223 144.421  1.00  0.00     0.000 C 
BRANCH  19  20
ATOM     20  C   UNL     1     142.575 140.034 145.594  1.00  0.00     0.000 C 
BRANCH  20  21
ATOM     21  C   UNL     1     141.397 141.028 145.574  1.00  0.00     0.000 C 
BRANCH  21  22
ATOM     22  C   UNL     1     141.195 141.854 146.860  1.00  0.00     0.000 C 
BRANCH  22  23
ATOM     23  C   UNL     1     142.463 141.963 147.721  1.00  0.00     0.000 C 
BRANCH  23  24
ATOM     24  C   UNL     1     142.373 141.149 149.021  1.00  0.00    -0.000 C 
BRANCH  24  25
ATOM     25  C   UNL     1     141.158 141.507 149.903  1.00  0.00    -0.000 C 
BRANCH  25  26
ATOM     26  C   UNL     1     141.541 142.415 151.087  1.00  0.00    -0.000 C 
BRANCH  26  27
ATOM     27  C   UNL     1     142.025 143.810 150.638  1.00  0.00    -0.000 C 
BRANCH  27  28
ATOM     28  C   UNL     1     140.890 144.751 150.186  1.00  0.00    -0.000 C 
BRANCH  28  29
ATOM     29  C   UNL     1     141.140 145.495 148.859  1.00  0.00    -0.000 C 
BRANCH  29  30
ATOM     30  C   UNL     1     141.376 147.013 148.993  1.00  0.00    -0.000 C 
BRANCH  30  31
ATOM     31  C   UNL     1     140.263 147.726 149.777  1.00  0.00    -0.003 C 
ATOM     32  C   UNL     1     140.822 148.416 151.017  1.00  0.00     0.004 C 
ENDBRANCH  30  31
ENDBRANCH  29  30
ENDBRANCH  28  29
ENDBRANCH  27  28
ENDBRANCH  26  27
ENDBRANCH  25  26
ENDBRANCH  24  25
ENDBRANCH  23  24
ENDBRANCH  22  23
ENDBRANCH  21  22
ENDBRANCH  20  21
ENDBRANCH  19  20
ENDBRANCH  18  19
ENDBRANCH   1  18
TORSDOF 28
ENDMDL
MODEL 6
REMARK VINA RESULT:    -2.414      3.770      8.107
REMARK INTER + INTRA:         -12.450
REMARK INTER:                  -6.819
REMARK INTRA:                  -5.631
REMARK UNBOUND:                -6.086
REMARK SMILES CCCCCCCCCCCCCCCCCCCCCCCCCCCCCC(=O)[O-]
REMARK SMILES IDX 16 1 17 2 18 3 19 4 20 5 21 6 22 7 23 8 24 9 25 10 26 11
REMARK SMILES IDX 27 12 28 13 29 14 30 15 31 16 32 17 15 18 14 19 13 20 12 21
REMARK SMILES IDX 11 22 10 23 9 24 8 25 7 26 6 27 5 28 4 29 3 30 2 31 1 32
REMARK H PARENT
REMARK Flexibility Score: inf
ROOT
ATOM      1  C   UNL     1     142.277 145.282 151.889  1.00  0.00     0.000 C 
ENDROOT
BRANCH   1   2
ATOM      2  C   UNL     1     140.775 145.622 151.833  1.00  0.00     0.000 C 
BRANCH   2   3
ATOM      3  C   UNL     1     140.087 145.501 153.204  1.00  0.00     0.000 C 
BRANCH   3   4
ATOM      4  C   UNL     1     140.691 144.382 154.070  1.00  0.00     0.000 C 
BRANCH   4   5
ATOM      5  C   UNL     1     139.882 143.079 153.990  1.00  0.00     0.000 C 
BRANCH   5   6
ATOM      6  C   UNL     1     140.764 141.822 154.076  1.00  0.00     0.000 C 
BRANCH   6   7
ATOM      7  C   UNL     1     142.248 142.105 153.781  1.00  0.00     0.000 C 
BRANCH   7   8
ATOM      8  C   UNL     1     142.961 141.032 152.938  1.00  0.00     0.000 C 
BRANCH   8   9
ATOM      9  C   UNL     1     144.487 141.219 152.897  1.00  0.00     0.000 C 
BRANCH   9  10
ATOM     10  C   UNL     1     145.132 140.538 151.671  1.00  0.00     0.000 C 
BRANCH  10  11
ATOM     11  C   UNL     1     145.027 141.357 150.370  1.00  0.00     0.000 C 
BRANCH  11  12
ATOM     12  C   UNL     1     146.025 142.520 150.242  1.00  0.00     0.000 C 
BRANCH  12  13
ATOM     13  C   UNL     1     145.663 143.580 149.177  1.00  0.00     0.006 C 
BRANCH  13  14
ATOM     14  C   UNL     1     146.523 144.853 149.226  1.00  0.00     0.053 C 
BRANCH  14  15
ATOM     15  C   UNL     1     145.851 145.959 149.980  1.00  0.00     0.041 C 
ATOM     16  O   UNL     1     146.001 146.058 151.227  1.00  0.00    -0.550 OA
ATOM     17  O   UNL     1     145.027 146.860 149.316  1.00  0.00    -0.550 OA
ENDBRANCH  14  15
ENDBRANCH  13  14
ENDBRANCH  12  13
ENDBRANCH  11  12
ENDBRANCH  10  11
ENDBRANCH   9  10
ENDBRANCH   8   9
ENDBRANCH   7   8
ENDBRANCH   6   7
ENDBRANCH   5   6
ENDBRANCH   4   5
ENDBRANCH   3   4
ENDBRANCH   2   3
ENDBRANCH   1   2
BRANCH   1  18
ATOM     18  C   UNL     1     142.701 144.277 150.803  1.00  0.00     0.000 C 
BRANCH  18  19
ATOM     19  C   UNL     1     141.532 143.655 150.016  1.00  0.00     0.000 C 
BRANCH  19  20
ATOM     20  C   UNL     1     141.354 142.154 150.308  1.00  0.00     0.000 C 
BRANCH  20  21
ATOM     21  C   UNL     1     141.305 141.285 149.034  1.00  0.00     0.000 C 
BRANCH  21  22
ATOM     22  C   UNL     1     141.905 141.924 147.765  1.00  0.00     0.000 C 
BRANCH  22  23
ATOM     23  C   UNL     1     140.933 141.946 146.575  1.00  0.00     0.000 C 
BRANCH  23  24
ATOM     24  C   UNL     1     141.343 140.980 145.453  1.00  0.00    -0.000 C 
BRANCH  24  25
ATOM     25  C   UNL     1     142.499 140.030 145.833  1.00  0.00    -0.000 C 
BRANCH  25  26
ATOM     26  C   UNL     1     143.624 140.025 144.781  1.00  0.00    -0.000 C 
BRANCH  26  27
ATOM     27  C   UNL     1     144.087 141.446 144.394  1.00  0.00    -0.000 C 
BRANCH  27  28
ATOM     28  C   UNL     1     144.857 142.179 145.512  1.00  0.00    -0.000 C 
BRANCH  28  29
ATOM     29  C   UNL     1     144.651 143.706 145.561  1.00  0.00    -0.000 C 
BRANCH  29  30
ATOM     30  C   UNL     1     143.400 144.223 144.822  1.00  0.00    -0.000 C 
BRANCH  30  31
ATOM     31  C   UNL     1     142.800 145.481 145.466  1.00  0.00    -0.003 C 
ATOM     32  C   UNL     1     142.808 145.376 146.988  1.00  0.00     0.004 C 
ENDBRANCH  30  31
ENDBRANCH  29  30
ENDBRANCH  28  29
ENDBRANCH  27  28
ENDBRANCH  26  27
ENDBRANCH  25  26
ENDBRANCH  24  25
ENDBRANCH  23  24
ENDBRANCH  22  23
ENDBRANCH  21  22
ENDBRANCH  20  21
ENDBRANCH  19  20
ENDBRANCH  18  19
ENDBRANCH   1  18
TORSDOF 28
ENDMDL
MODEL 7
REMARK VINA RESULT:    -2.388      4.086      7.896
REMARK INTER + INTRA:         -12.383
REMARK INTER:                  -6.745
REMARK INTRA:                  -5.638
REMARK UNBOUND:                -6.086
REMARK SMILES CCCCCCCCCCCCCCCCCCCCCCCCCCCCCC(=O)[O-]
REMARK SMILES IDX 16 1 17 2 18 3 19 4 20 5 21 6 22 7 23 8 24 9 25 10 26 11
REMARK SMILES IDX 27 12 28 13 29 14 30 15 31 16 32 17 15 18 14 19 13 20 12 21
REMARK SMILES IDX 11 22 10 23 9 24 8 25 7 26 6 27 5 28 4 29 3 30 2 31 1 32
REMARK H PARENT
REMARK Flexibility Score: inf
ROOT
ATOM      1  C   UNL     1     146.857 144.323 144.736  1.00  0.00     0.000 C 
ENDROOT
BRANCH   1   2
ATOM      2  C   UNL     1     147.239 142.831 144.779  1.00  0.00     0.000 C 
BRANCH   2   3
ATOM      3  C   UNL     1     147.059 142.211 146.176  1.00  0.00     0.000 C 
BRANCH   3   4
ATOM      4  C   UNL     1     146.107 141.004 146.167  1.00  0.00     0.000 C 
BRANCH   4   5
ATOM      5  C   UNL     1     145.863 140.461 144.751  1.00  0.00     0.000 C 
BRANCH   5   6
ATOM      6  C   UNL     1     144.369 140.329 144.410  1.00  0.00     0.000 C 
BRANCH   6   7
ATOM      7  C   UNL     1     143.534 141.533 144.884  1.00  0.00     0.000 C 
BRANCH   7   8
ATOM      8  C   UNL     1     142.130 141.185 145.412  1.00  0.00     0.000 C 
BRANCH   8   9
ATOM      9  C   UNL     1     141.981 141.430 146.923  1.00  0.00     0.000 C 
BRANCH   9  10
ATOM     10  C   UNL     1     142.822 140.447 147.766  1.00  0.00     0.000 C 
BRANCH  10  11
ATOM     11  C   UNL     1     142.457 140.430 149.262  1.00  0.00     0.000 C 
BRANCH  11  12
ATOM     12  C   UNL     1     141.323 141.385 149.674  1.00  0.00     0.000 C 
BRANCH  12  13
ATOM     13  C   UNL     1     141.577 142.180 150.974  1.00  0.00     0.006 C 
BRANCH  13  14
ATOM     14  C   UNL     1     140.310 142.495 151.786  1.00  0.00     0.053 C 
BRANCH  14  15
ATOM     15  C   UNL     1     140.577 142.517 153.261  1.00  0.00     0.041 C 
ATOM     16  O   UNL     1     140.457 143.591 153.910  1.00  0.00    -0.550 OA
ATOM     17  O   UNL     1     140.995 141.365 153.914  1.00  0.00    -0.550 OA
ENDBRANCH  14  15
ENDBRANCH  13  14
ENDBRANCH  12  13
ENDBRANCH  11  12
ENDBRANCH  10  11
ENDBRANCH   9  10
ENDBRANCH   8   9
ENDBRANCH   7   8
ENDBRANCH   6   7
ENDBRANCH   5   6
ENDBRANCH   4   5
ENDBRANCH   3   4
ENDBRANCH   2   3
ENDBRANCH   1   2
BRANCH   1  18
ATOM     18  C   UNL     1     146.642 144.842 143.304  1.00  0.00     0.000 C 
BRANCH  18  19
ATOM     19  C   UNL     1     145.900 143.865 142.373  1.00  0.00     0.000 C 
BRANCH  19  20
ATOM     20  C   UNL     1     144.381 144.110 142.346  1.00  0.00     0.000 C 
BRANCH  20  21
ATOM     21  C   UNL     1     143.999 145.597 142.497  1.00  0.00     0.000 C 
BRANCH  21  22
ATOM     22  C   UNL     1     142.845 145.896 143.475  1.00  0.00     0.000 C 
BRANCH  22  23
ATOM     23  C   UNL     1     142.869 145.018 144.736  1.00  0.00     0.000 C 
BRANCH  23  24
ATOM     24  C   UNL     1     141.819 145.439 145.776  1.00  0.00    -0.000 C 
BRANCH  24  25
ATOM     25  C   UNL     1     142.209 145.107 147.232  1.00  0.00    -0.000 C 
BRANCH  25  26
ATOM     26  C   UNL     1     143.599 145.656 147.605  1.00  0.00    -0.000 C 
BRANCH  26  27
ATOM     27  C   UNL     1     144.668 144.548 147.722  1.00  0.00    -0.000 C 
BRANCH  27  28
ATOM     28  C   UNL     1     144.378 143.513 148.829  1.00  0.00    -0.000 C 
BRANCH  28  29
ATOM     29  C   UNL     1     145.604 143.064 149.648  1.00  0.00    -0.000 C 
BRANCH  29  30
ATOM     30  C   UNL     1     145.279 142.330 150.965  1.00  0.00    -0.000 C 
BRANCH  30  31
ATOM     31  C   UNL     1     145.669 140.844 150.934  1.00  0.00    -0.003 C 
ATOM     32  C   UNL     1     146.691 140.568 149.835  1.00  0.00     0.004 C 
ENDBRANCH  30  31
ENDBRANCH  29  30
ENDBRANCH  28  29
ENDBRANCH  27  28
ENDBRANCH  26  27
ENDBRANCH  25  26
ENDBRANCH  24  25
ENDBRANCH  23  24
ENDBRANCH  22  23
ENDBRANCH  21  22
ENDBRANCH  20  21
ENDBRANCH  19  20
ENDBRANCH  18  19
ENDBRANCH   1  18
TORSDOF 28
ENDMDL
MODEL 8
REMARK VINA RESULT:    -2.362      1.396      2.410
REMARK INTER + INTRA:         -12.314
REMARK INTER:                  -6.819
REMARK INTRA:                  -5.495
REMARK UNBOUND:                -6.086
REMARK SMILES CCCCCCCCCCCCCCCCCCCCCCCCCCCCCC(=O)[O-]
REMARK SMILES IDX 16 1 17 2 18 3 19 4 20 5 21 6 22 7 23 8 24 9 25 10 26 11
REMARK SMILES IDX 27 12 28 13 29 14 30 15 31 16 32 17 15 18 14 19 13 20 12 21
REMARK SMILES IDX 11 22 10 23 9 24 8 25 7 26 6 27 5 28 4 29 3 30 2 31 1 32
REMARK H PARENT
REMARK Flexibility Score: inf
ROOT
ATOM      1  C   UNL     1     141.889 144.116 147.419  1.00  0.00     0.000 C 
ENDROOT
BRANCH   1   2
ATOM      2  C   UNL     1     141.751 144.343 145.902  1.00  0.00     0.000 C 
BRANCH   2   3
ATOM      3  C   UNL     1     141.584 145.829 145.537  1.00  0.00     0.000 C 
BRANCH   3   4
ATOM      4  C   UNL     1     142.122 146.154 144.133  1.00  0.00     0.000 C 
BRANCH   4   5
ATOM      5  C   UNL     1     141.136 146.997 143.310  1.00  0.00     0.000 C 
BRANCH   5   6
ATOM      6  C   UNL     1     141.444 146.975 141.803  1.00  0.00     0.000 C 
BRANCH   6   7
ATOM      7  C   UNL     1     142.075 148.285 141.297  1.00  0.00     0.000 C 
BRANCH   7   8
ATOM      8  C   UNL     1     143.560 148.473 141.656  1.00  0.00     0.000 C 
BRANCH   8   9
ATOM      9  C   UNL     1     144.474 147.432 140.985  1.00  0.00     0.000 C 
BRANCH   9  10
ATOM     10  C   UNL     1     145.033 146.403 141.990  1.00  0.00     0.000 C 
BRANCH  10  11
ATOM     11  C   UNL     1     144.681 144.941 141.655  1.00  0.00     0.000 C 
BRANCH  11  12
ATOM     12  C   UNL     1     145.883 143.999 141.473  1.00  0.00     0.000 C 
BRANCH  12  13
ATOM     13  C   UNL     1     147.264 144.642 141.733  1.00  0.00     0.006 C 
BRANCH  13  14
ATOM     14  C   UNL     1     148.330 143.670 142.265  1.00  0.00     0.053 C 
BRANCH  14  15
ATOM     15  C   UNL     1     148.563 142.522 141.331  1.00  0.00     0.041 C 
ATOM     16  O   UNL     1     148.516 141.338 141.759  1.00  0.00    -0.550 OA
ATOM     17  O   UNL     1     148.870 142.756 139.997  1.00  0.00    -0.550 OA
ENDBRANCH  14  15
ENDBRANCH  13  14
ENDBRANCH  12  13
ENDBRANCH  11  12
ENDBRANCH  10  11
ENDBRANCH   9  10
ENDBRANCH   8   9
ENDBRANCH   7   8
ENDBRANCH   6   7
ENDBRANCH   5   6
ENDBRANCH   4   5
ENDBRANCH   3   4
ENDBRANCH   2   3
ENDBRANCH   1   2
BRANCH   1  18
ATOM     18  C   UNL     1     143.209 144.669 147.986  1.00  0.00     0.000 C 
BRANCH  18  19
ATOM     19  C   UNL     1     144.477 144.002 147.421  1.00  0.00     0.000 C 
BRANCH  19  20
ATOM     20  C   UNL     1     145.277 144.938 146.496  1.00  0.00     0.000 C 
BRANCH  20  21
ATOM     21  C   UNL     1     145.728 144.262 145.185  1.00  0.00     0.000 C 
BRANCH  21  22
ATOM     22  C   UNL     1     146.208 142.803 145.315  1.00  0.00     0.000 C 
BRANCH  22  23
ATOM     23  C   UNL     1     145.535 141.848 144.318  1.00  0.00     0.000 C 
BRANCH  23  24
ATOM     24  C   UNL     1     144.000 141.922 144.363  1.00  0.00    -0.000 C 
BRANCH  24  25
ATOM     25  C   UNL     1     143.316 140.582 144.708  1.00  0.00    -0.000 C 
BRANCH  25  26
ATOM     26  C   UNL     1     142.448 140.677 145.976  1.00  0.00    -0.000 C 
BRANCH  26  27
ATOM     27  C   UNL     1     143.272 140.550 147.276  1.00  0.00    -0.000 C 
BRANCH  27  28
ATOM     28  C   UNL     1     142.424 140.613 148.563  1.00  0.00    -0.000 C 
BRANCH  28  29
ATOM     29  C   UNL     1     143.226 140.622 149.880  1.00  0.00    -0.000 C 
BRANCH  29  30
ATOM     30  C   UNL     1     143.342 141.998 150.567  1.00  0.00    -0.000 C 
BRANCH  30  31
ATOM     31  C   UNL     1     141.977 142.633 150.871  1.00  0.00    -0.003 C 
ATOM     32  C   UNL     1     142.140 143.960 151.606  1.00  0.00     0.004 C 
ENDBRANCH  30  31
ENDBRANCH  29  30
ENDBRANCH  28  29
ENDBRANCH  27  28
ENDBRANCH  26  27
ENDBRANCH  25  26
ENDBRANCH  24  25
ENDBRANCH  23  24
ENDBRANCH  22  23
ENDBRANCH  21  22
ENDBRANCH  20  21
ENDBRANCH  19  20
ENDBRANCH  18  19
ENDBRANCH   1  18
TORSDOF 28
ENDMDL
MODEL 9
REMARK VINA RESULT:    -2.319      3.663      8.135
REMARK INTER + INTRA:         -12.200
REMARK INTER:                  -6.171
REMARK INTRA:                  -6.029
REMARK UNBOUND:                -6.086
REMARK SMILES CCCCCCCCCCCCCCCCCCCCCCCCCCCCCC(=O)[O-]
REMARK SMILES IDX 16 1 17 2 18 3 19 4 20 5 21 6 22 7 23 8 24 9 25 10 26 11
REMARK SMILES IDX 27 12 28 13 29 14 30 15 31 16 32 17 15 18 14 19 13 20 12 21
REMARK SMILES IDX 11 22 10 23 9 24 8 25 7 26 6 27 5 28 4 29 3 30 2 31 1 32
REMARK H PARENT
REMARK Flexibility Score: inf
ROOT
ATOM      1  C   UNL     1     143.824 144.894 147.068  1.00  0.00     0.000 C 
ENDROOT
BRANCH   1   2
ATOM      2  C   UNL     1     143.100 144.058 148.140  1.00  0.00     0.000 C 
BRANCH   2   3
ATOM      3  C   UNL     1     141.570 144.070 147.970  1.00  0.00     0.000 C 
BRANCH   3   4
ATOM      4  C   UNL     1     141.021 142.718 147.485  1.00  0.00     0.000 C 
BRANCH   4   5
ATOM      5  C   UNL     1     141.157 142.542 145.965  1.00  0.00     0.000 C 
BRANCH   5   6
ATOM      6  C   UNL     1     140.875 141.103 145.502  1.00  0.00     0.000 C 
BRANCH   6   7
ATOM      7  C   UNL     1     142.137 140.220 145.477  1.00  0.00     0.000 C 
BRANCH   7   8
ATOM      8  C   UNL     1     143.469 140.990 145.414  1.00  0.00     0.000 C 
BRANCH   8   9
ATOM      9  C   UNL     1     144.304 140.849 146.699  1.00  0.00     0.000 C 
BRANCH   9  10
ATOM     10  C   UNL     1     143.666 139.875 147.712  1.00  0.00     0.000 C 
BRANCH  10  11
ATOM     11  C   UNL     1     143.279 140.528 149.053  1.00  0.00     0.000 C 
BRANCH  11  12
ATOM     12  C   UNL     1     144.441 141.169 149.832  1.00  0.00     0.000 C 
BRANCH  12  13
ATOM     13  C   UNL     1     144.034 141.906 151.127  1.00  0.00     0.006 C 
BRANCH  13  14
ATOM     14  C   UNL     1     142.756 141.369 151.792  1.00  0.00     0.053 C 
BRANCH  14  15
ATOM     15  C   UNL     1     141.706 142.429 151.935  1.00  0.00     0.041 C 
ATOM     16  O   UNL     1     141.916 143.434 152.666  1.00  0.00    -0.550 OA
ATOM     17  O   UNL     1     140.482 142.292 151.293  1.00  0.00    -0.550 OA
ENDBRANCH  14  15
ENDBRANCH  13  14
ENDBRANCH  12  13
ENDBRANCH  11  12
ENDBRANCH  10  11
ENDBRANCH   9  10
ENDBRANCH   8   9
ENDBRANCH   7   8
ENDBRANCH   6   7
ENDBRANCH   5   6
ENDBRANCH   4   5
ENDBRANCH   3   4
ENDBRANCH   2   3
ENDBRANCH   1   2
BRANCH   1  18
ATOM     18  C   UNL     1     142.887 145.882 146.351  1.00  0.00     0.000 C 
BRANCH  18  19
ATOM     19  C   UNL     1     142.842 145.725 144.819  1.00  0.00     0.000 C 
BRANCH  19  20
ATOM     20  C   UNL     1     143.566 144.457 144.332  1.00  0.00     0.000 C 
BRANCH  20  21
ATOM     21  C   UNL     1     144.038 144.547 142.867  1.00  0.00     0.000 C 
BRANCH  21  22
ATOM     22  C   UNL     1     145.166 143.576 142.465  1.00  0.00     0.000 C 
BRANCH  22  23
ATOM     23  C   UNL     1     145.943 143.014 143.665  1.00  0.00     0.000 C 
BRANCH  23  24
ATOM     24  C   UNL     1     147.364 143.591 143.779  1.00  0.00    -0.000 C 
BRANCH  24  25
ATOM     25  C   UNL     1     147.611 144.403 145.069  1.00  0.00    -0.000 C 
BRANCH  25  26
ATOM     26  C   UNL     1     147.777 145.908 144.790  1.00  0.00    -0.000 C 
BRANCH  26  27
ATOM     27  C   UNL     1     146.427 146.648 144.676  1.00  0.00    -0.000 C 
BRANCH  27  28
ATOM     28  C   UNL     1     146.371 147.674 143.525  1.00  0.00    -0.000 C 
BRANCH  28  29
ATOM     29  C   UNL     1     147.312 147.385 142.339  1.00  0.00    -0.000 C 
BRANCH  29  30
ATOM     30  C   UNL     1     146.699 146.530 141.210  1.00  0.00    -0.000 C 
BRANCH  30  31
ATOM     31  C   UNL     1     147.704 145.548 140.590  1.00  0.00    -0.003 C 
ATOM     32  C   UNL     1     149.071 145.668 141.257  1.00  0.00     0.004 C 
ENDBRANCH  30  31
ENDBRANCH  29  30
ENDBRANCH  28  29
ENDBRANCH  27  28
ENDBRANCH  26  27
ENDBRANCH  25  26
ENDBRANCH  24  25
ENDBRANCH  23  24
ENDBRANCH  22  23
ENDBRANCH  21  22
ENDBRANCH  20  21
ENDBRANCH  19  20
ENDBRANCH  18  19
ENDBRANCH   1  18
TORSDOF 28
ENDMDL
