MODEL 1
REMARK VINA RESULT:    -4.827      0.000      0.000
REMARK INTER + INTRA:          -6.134
REMARK INTER:                  -5.956
REMARK INTRA:                  -0.178
REMARK UNBOUND:                -0.178
REMARK SMILES C=CC[C@@H](C)C(=O)CC
REMARK SMILES IDX 4 1 5 2 6 3 7 4 8 5 9 6 3 7 2 8 1 9
REMARK H PARENT
REMARK Flexibility Score: inf
ROOT
ATOM      1  C   UNL     1      13.314 -15.827 -28.604  1.00  0.00     0.057 C 
ATOM      2  C   UNL     1      13.766 -16.240 -30.009  1.00  0.00     0.016 C 
ENDROOT
BRANCH   1   3
ATOM      3  C   UNL     1      13.337 -17.029 -27.679  1.00  0.00     0.135 C 
ATOM      4  O   UNL     1      14.001 -18.011 -27.978  1.00  0.00    -0.299 OA
BRANCH   3   5
ATOM      5  C   UNL     1      12.539 -17.043 -26.401  1.00  0.00     0.072 C 
ATOM      6  C   UNL     1      11.239 -17.820 -26.576  1.00  0.00     0.012 C 
ENDBRANCH   3   5
ENDBRANCH   1   3
BRANCH   1   7
ATOM      7  C   UNL     1      14.204 -14.689 -28.062  1.00  0.00     0.038 C 
BRANCH   7   8
ATOM      8  C   UNL     1      15.048 -14.063 -29.142  1.00  0.00    -0.034 C 
ATOM      9  C   UNL     1      15.639 -12.876 -28.975  1.00  0.00     0.004 C 
ENDBRANCH   7   8
ENDBRANCH   1   7
TORSDOF 4
ENDMDL
MODEL 2
REMARK VINA RESULT:    -4.576      1.712      2.227
REMARK INTER + INTRA:          -5.824
REMARK INTER:                  -5.582
REMARK INTRA:                  -0.242
REMARK UNBOUND:                -0.178
REMARK SMILES C=CC[C@@H](C)C(=O)CC
REMARK SMILES IDX 4 1 5 2 6 3 7 4 8 5 9 6 3 7 2 8 1 9
REMARK H PARENT
REMARK Flexibility Score: inf
ROOT
ATOM      1  C   UNL     1      13.523 -16.649 -27.987  1.00  0.00     0.057 C 
ATOM      2  C   UNL     1      13.871 -16.382 -26.518  1.00  0.00     0.016 C 
ENDROOT
BRANCH   1   3
ATOM      3  C   UNL     1      12.109 -17.184 -28.094  1.00  0.00     0.135 C 
ATOM      4  O   UNL     1      11.843 -18.288 -27.639  1.00  0.00    -0.299 OA
BRANCH   3   5
ATOM      5  C   UNL     1      11.024 -16.387 -28.770  1.00  0.00     0.072 C 
ATOM      6  C   UNL     1      10.587 -17.051 -30.071  1.00  0.00     0.012 C 
ENDBRANCH   3   5
ENDBRANCH   1   3
BRANCH   1   7
ATOM      7  C   UNL     1      13.700 -15.365 -28.826  1.00  0.00     0.038 C 
BRANCH   7   8
ATOM      8  C   UNL     1      14.523 -14.326 -28.110  1.00  0.00    -0.034 C 
ATOM      9  C   UNL     1      15.270 -13.440 -28.773  1.00  0.00     0.004 C 
ENDBRANCH   7   8
ENDBRANCH   1   7
TORSDOF 4
ENDMDL
MODEL 3
REMARK VINA RESULT:    -4.549      1.686      3.798
REMARK INTER + INTRA:          -5.791
REMARK INTER:                  -5.329
REMARK INTRA:                  -0.462
REMARK UNBOUND:                -0.178
REMARK SMILES C=CC[C@@H](C)C(=O)CC
REMARK SMILES IDX 4 1 5 2 6 3 7 4 8 5 9 6 3 7 2 8 1 9
REMARK H PARENT
REMARK Flexibility Score: inf
ROOT
ATOM      1  C   UNL     1      13.007 -15.800 -28.255  1.00  0.00     0.057 C 
ATOM      2  C   UNL     1      14.168 -14.803 -28.314  1.00  0.00     0.016 C 
ENDROOT
BRANCH   1   3
ATOM      3  C   UNL     1      12.826 -16.465 -29.605  1.00  0.00     0.135 C 
ATOM      4  O   UNL     1      13.775 -16.545 -30.372  1.00  0.00    -0.299 OA
BRANCH   3   5
ATOM      5  C   UNL     1      11.489 -17.016 -30.030  1.00  0.00     0.072 C 
ATOM      6  C   UNL     1      10.357 -16.081 -29.618  1.00  0.00     0.012 C 
ENDBRANCH   3   5
ENDBRANCH   1   3
BRANCH   1   7
ATOM      7  C   UNL     1      13.248 -16.846 -27.145  1.00  0.00     0.038 C 
BRANCH   7   8
ATOM      8  C   UNL     1      12.049 -17.010 -26.248  1.00  0.00    -0.034 C 
ATOM      9  C   UNL     1      11.140 -17.967 -26.454  1.00  0.00     0.004 C 
ENDBRANCH   7   8
ENDBRANCH   1   7
TORSDOF 4
ENDMDL
MODEL 4
REMARK VINA RESULT:    -4.509      1.703      2.301
REMARK INTER + INTRA:          -5.741
REMARK INTER:                  -5.492
REMARK INTRA:                  -0.250
REMARK UNBOUND:                -0.178
REMARK SMILES C=CC[C@@H](C)C(=O)CC
REMARK SMILES IDX 4 1 5 2 6 3 7 4 8 5 9 6 3 7 2 8 1 9
REMARK H PARENT
REMARK Flexibility Score: inf
ROOT
ATOM      1  C   UNL     1      13.696 -16.672 -28.050  1.00  0.00     0.057 C 
ATOM      2  C   UNL     1      14.006 -16.425 -26.570  1.00  0.00     0.016 C 
ENDROOT
BRANCH   1   3
ATOM      3  C   UNL     1      12.353 -17.362 -28.188  1.00  0.00     0.135 C 
ATOM      4  O   UNL     1      11.324 -16.721 -28.028  1.00  0.00    -0.299 OA
BRANCH   3   5
ATOM      5  C   UNL     1      12.261 -18.832 -28.505  1.00  0.00     0.072 C 
ATOM      6  C   UNL     1      13.614 -19.383 -28.942  1.00  0.00     0.012 C 
ENDBRANCH   3   5
ENDBRANCH   1   3
BRANCH   1   7
ATOM      7  C   UNL     1      13.727 -15.346 -28.838  1.00  0.00     0.038 C 
BRANCH   7   8
ATOM      8  C   UNL     1      14.550 -14.291 -28.145  1.00  0.00    -0.034 C 
ATOM      9  C   UNL     1      15.295 -13.418 -28.828  1.00  0.00     0.004 C 
ENDBRANCH   7   8
ENDBRANCH   1   7
TORSDOF 4
ENDMDL
MODEL 5
REMARK VINA RESULT:    -4.472      9.359     10.139
REMARK INTER + INTRA:          -5.696
REMARK INTER:                  -5.478
REMARK INTRA:                  -0.219
REMARK UNBOUND:                -0.178
REMARK SMILES C=CC[C@@H](C)C(=O)CC
REMARK SMILES IDX 4 1 5 2 6 3 7 4 8 5 9 6 3 7 2 8 1 9
REMARK H PARENT
REMARK Flexibility Score: inf
ROOT
ATOM      1  C   UNL     1       9.575  -9.055 -34.578  1.00  0.00     0.057 C 
ATOM      2  C   UNL     1       9.572  -7.784 -35.434  1.00  0.00     0.016 C 
ENDROOT
BRANCH   1   3
ATOM      3  C   UNL     1       9.594 -10.280 -35.471  1.00  0.00     0.135 C 
ATOM      4  O   UNL     1       9.041 -10.244 -36.561  1.00  0.00    -0.299 OA
BRANCH   3   5
ATOM      5  C   UNL     1      10.269 -11.554 -35.031  1.00  0.00     0.072 C 
ATOM      6  C   UNL     1      11.318 -11.995 -36.046  1.00  0.00     0.012 C 
ENDBRANCH   3   5
ENDBRANCH   1   3
BRANCH   1   7
ATOM      7  C   UNL     1      10.775  -9.051 -33.609  1.00  0.00     0.038 C 
BRANCH   7   8
ATOM      8  C   UNL     1      11.044  -7.682 -33.040  1.00  0.00    -0.034 C 
ATOM      9  C   UNL     1      11.769  -7.509 -31.932  1.00  0.00     0.004 C 
ENDBRANCH   7   8
ENDBRANCH   1   7
TORSDOF 4
ENDMDL
MODEL 6
REMARK VINA RESULT:    -4.418      2.103      3.010
REMARK INTER + INTRA:          -5.630
REMARK INTER:                  -5.236
REMARK INTRA:                  -0.394
REMARK UNBOUND:                -0.178
REMARK SMILES C=CC[C@@H](C)C(=O)CC
REMARK SMILES IDX 4 1 5 2 6 3 7 4 8 5 9 6 3 7 2 8 1 9
REMARK H PARENT
REMARK Flexibility Score: inf
ROOT
ATOM      1  C   UNL     1      12.443 -16.909 -29.766  1.00  0.00     0.057 C 
ATOM      2  C   UNL     1      13.680 -16.598 -30.615  1.00  0.00     0.016 C 
ENDROOT
BRANCH   1   3
ATOM      3  C   UNL     1      12.482 -18.352 -29.304  1.00  0.00     0.135 C 
ATOM      4  O   UNL     1      11.806 -18.700 -28.346  1.00  0.00    -0.299 OA
BRANCH   3   5
ATOM      5  C   UNL     1      13.355 -19.368 -29.994  1.00  0.00     0.072 C 
ATOM      6  C   UNL     1      14.135 -20.197 -28.980  1.00  0.00     0.012 C 
ENDBRANCH   3   5
ENDBRANCH   1   3
BRANCH   1   7
ATOM      7  C   UNL     1      12.351 -15.940 -28.568  1.00  0.00     0.038 C 
BRANCH   7   8
ATOM      8  C   UNL     1      13.705 -15.624 -27.988  1.00  0.00    -0.034 C 
ATOM      9  C   UNL     1      14.109 -16.135 -26.822  1.00  0.00     0.004 C 
ENDBRANCH   7   8
ENDBRANCH   1   7
TORSDOF 4
ENDMDL
MODEL 7
REMARK VINA RESULT:    -4.321      2.832      4.463
REMARK INTER + INTRA:          -5.510
REMARK INTER:                  -5.010
REMARK INTRA:                  -0.500
REMARK UNBOUND:                -0.178
REMARK SMILES C=CC[C@@H](C)C(=O)CC
REMARK SMILES IDX 4 1 5 2 6 3 7 4 8 5 9 6 3 7 2 8 1 9
REMARK H PARENT
REMARK Flexibility Score: inf
ROOT
ATOM      1  C   UNL     1      12.636 -19.887 -29.073  1.00  0.00     0.057 C 
ATOM      2  C   UNL     1      14.117 -20.260 -28.945  1.00  0.00     0.016 C 
ENDROOT
BRANCH   1   3
ATOM      3  C   UNL     1      12.380 -18.551 -28.405  1.00  0.00     0.135 C 
ATOM      4  O   UNL     1      11.253 -18.272 -28.021  1.00  0.00    -0.299 OA
BRANCH   3   5
ATOM      5  C   UNL     1      13.488 -17.547 -28.218  1.00  0.00     0.072 C 
ATOM      6  C   UNL     1      13.125 -16.207 -28.848  1.00  0.00     0.012 C 
ENDBRANCH   3   5
ENDBRANCH   1   3
BRANCH   1   7
ATOM      7  C   UNL     1      12.212 -19.860 -30.557  1.00  0.00     0.038 C 
BRANCH   7   8
ATOM      8  C   UNL     1      13.343 -19.454 -31.465  1.00  0.00    -0.034 C 
ATOM      9  C   UNL     1      13.391 -18.247 -32.035  1.00  0.00     0.004 C 
ENDBRANCH   7   8
ENDBRANCH   1   7
TORSDOF 4
ENDMDL
MODEL 8
REMARK VINA RESULT:    -4.180      1.220      2.672
REMARK INTER + INTRA:          -5.336
REMARK INTER:                  -5.032
REMARK INTRA:                  -0.304
REMARK UNBOUND:                -0.178
REMARK SMILES C=CC[C@@H](C)C(=O)CC
REMARK SMILES IDX 4 1 5 2 6 3 7 4 8 5 9 6 3 7 2 8 1 9
REMARK H PARENT
REMARK Flexibility Score: inf
ROOT
ATOM      1  C   UNL     1      13.703 -16.333 -28.998  1.00  0.00     0.057 C 
ATOM      2  C   UNL     1      13.772 -14.903 -28.450  1.00  0.00     0.016 C 
ENDROOT
BRANCH   1   3
ATOM      3  C   UNL     1      13.613 -17.322 -27.852  1.00  0.00     0.135 C 
ATOM      4  O   UNL     1      14.087 -18.441 -27.980  1.00  0.00    -0.299 OA
BRANCH   3   5
ATOM      5  C   UNL     1      12.931 -16.956 -26.559  1.00  0.00     0.072 C 
ATOM      6  C   UNL     1      11.519 -17.530 -26.504  1.00  0.00     0.012 C 
ENDBRANCH   3   5
ENDBRANCH   1   3
BRANCH   1   7
ATOM      7  C   UNL     1      12.508 -16.485 -29.963  1.00  0.00     0.038 C 
BRANCH   7   8
ATOM      8  C   UNL     1      12.854 -17.317 -31.170  1.00  0.00    -0.034 C 
ATOM      9  C   UNL     1      13.725 -16.894 -32.091  1.00  0.00     0.004 C 
ENDBRANCH   7   8
ENDBRANCH   1   7
TORSDOF 4
ENDMDL
MODEL 9
REMARK VINA RESULT:    -4.114      2.795      4.566
REMARK INTER + INTRA:          -5.254
REMARK INTER:                  -4.776
REMARK INTRA:                  -0.478
REMARK UNBOUND:                -0.178
REMARK SMILES C=CC[C@@H](C)C(=O)CC
REMARK SMILES IDX 4 1 5 2 6 3 7 4 8 5 9 6 3 7 2 8 1 9
REMARK H PARENT
REMARK Flexibility Score: inf
ROOT
ATOM      1  C   UNL     1      13.413 -17.637 -31.031  1.00  0.00     0.057 C 
ATOM      2  C   UNL     1      13.886 -16.911 -32.295  1.00  0.00     0.016 C 
ENDROOT
BRANCH   1   3
ATOM      3  C   UNL     1      12.109 -17.037 -30.546  1.00  0.00     0.135 C 
ATOM      4  O   UNL     1      11.143 -17.000 -31.296  1.00  0.00    -0.299 OA
BRANCH   3   5
ATOM      5  C   UNL     1      11.982 -16.465 -29.158  1.00  0.00     0.072 C 
ATOM      6  C   UNL     1      13.295 -15.837 -28.703  1.00  0.00     0.012 C 
ENDBRANCH   3   5
ENDBRANCH   1   3
BRANCH   1   7
ATOM      7  C   UNL     1      13.267 -19.150 -31.300  1.00  0.00     0.038 C 
BRANCH   7   8
ATOM      8  C   UNL     1      13.148 -19.945 -30.026  1.00  0.00    -0.034 C 
ATOM      9  C   UNL     1      14.081 -19.891 -29.072  1.00  0.00     0.004 C 
ENDBRANCH   7   8
ENDBRANCH   1   7
TORSDOF 4
ENDMDL
