MODEL 1
REMARK VINA RESULT:    -3.423      0.000      0.000
REMARK INTER + INTRA:          -3.832
REMARK INTER:                  -3.823
REMARK INTRA:                  -0.008
REMARK UNBOUND:                -0.008
REMARK SMILES CCCC(=O)[O-]
REMARK SMILES IDX 3 1 4 2 5 3 6 4 2 5 1 6
REMARK H PARENT
REMARK Flexibility Score: inf
ROOT
ATOM      1  C   UNL     1      19.736 -21.964  14.100  1.00  0.00     0.052 C 
ENDROOT
BRANCH   1   2
ATOM      2  C   UNL     1      20.137 -23.392  14.312  1.00  0.00     0.041 C 
ATOM      3  O   UNL     1      20.260 -23.849  15.478  1.00  0.00    -0.550 OA
ATOM      4  O   UNL     1      20.342 -24.227  13.220  1.00  0.00    -0.550 OA
ENDBRANCH   1   2
BRANCH   1   5
ATOM      5  C   UNL     1      20.289 -21.049  15.201  1.00  0.00     0.003 C 
ATOM      6  C   UNL     1      20.055 -19.569  14.899  1.00  0.00     0.004 C 
ENDBRANCH   1   5
TORSDOF 2
ENDMDL
MODEL 2
REMARK VINA RESULT:    -3.318      3.201      3.892
REMARK INTER + INTRA:          -3.714
REMARK INTER:                  -3.709
REMARK INTRA:                  -0.005
REMARK UNBOUND:                -0.008
REMARK SMILES CCCC(=O)[O-]
REMARK SMILES IDX 3 1 4 2 5 3 6 4 2 5 1 6
REMARK H PARENT
REMARK Flexibility Score: inf
ROOT
ATOM      1  C   UNL     1      19.589 -20.747  14.790  1.00  0.00     0.052 C 
ENDROOT
BRANCH   1   2
ATOM      2  C   UNL     1      19.975 -19.300  14.848  1.00  0.00     0.041 C 
ATOM      3  O   UNL     1      20.049 -18.709  15.957  1.00  0.00    -0.550 OA
ATOM      4  O   UNL     1      20.287 -18.615  13.680  1.00  0.00    -0.550 OA
ENDBRANCH   1   2
BRANCH   1   5
ATOM      5  C   UNL     1      20.777 -21.666  15.103  1.00  0.00     0.003 C 
ATOM      6  C   UNL     1      20.513 -23.116  14.700  1.00  0.00     0.004 C 
ENDBRANCH   1   5
TORSDOF 2
ENDMDL
MODEL 3
REMARK VINA RESULT:    -3.054      2.060      3.684
REMARK INTER + INTRA:          -3.420
REMARK INTER:                  -3.410
REMARK INTRA:                  -0.009
REMARK UNBOUND:                -0.008
REMARK SMILES CCCC(=O)[O-]
REMARK SMILES IDX 3 1 4 2 5 3 6 4 2 5 1 6
REMARK H PARENT
REMARK Flexibility Score: inf
ROOT
ATOM      1  C   UNL     1      20.520 -23.492  14.377  1.00  0.00     0.052 C 
ENDROOT
BRANCH   1   2
ATOM      2  C   UNL     1      20.042 -22.076  14.493  1.00  0.00     0.041 C 
ATOM      3  O   UNL     1      18.948 -21.733  13.973  1.00  0.00    -0.550 OA
ATOM      4  O   UNL     1      20.790 -21.144  15.203  1.00  0.00    -0.550 OA
ENDBRANCH   1   2
BRANCH   1   5
ATOM      5  C   UNL     1      19.942 -24.188  13.138  1.00  0.00     0.003 C 
ATOM      6  C   UNL     1      20.517 -25.589  12.936  1.00  0.00     0.004 C 
ENDBRANCH   1   5
TORSDOF 2
ENDMDL
MODEL 4
REMARK VINA RESULT:    -2.773      2.458      4.442
REMARK INTER + INTRA:          -3.106
REMARK INTER:                  -3.095
REMARK INTRA:                  -0.011
REMARK UNBOUND:                -0.008
REMARK SMILES CCCC(=O)[O-]
REMARK SMILES IDX 3 1 4 2 5 3 6 4 2 5 1 6
REMARK H PARENT
REMARK Flexibility Score: inf
ROOT
ATOM      1  C   UNL     1      20.177 -25.050  12.944  1.00  0.00     0.052 C 
ENDROOT
BRANCH   1   2
ATOM      2  C   UNL     1      20.119 -23.862  13.856  1.00  0.00     0.041 C 
ATOM      3  O   UNL     1      19.971 -22.706  13.381  1.00  0.00    -0.550 OA
ATOM      4  O   UNL     1      20.195 -24.037  15.232  1.00  0.00    -0.550 OA
ENDBRANCH   1   2
BRANCH   1   5
ATOM      5  C   UNL     1      21.167 -26.107  13.449  1.00  0.00     0.003 C 
ATOM      6  C   UNL     1      20.879 -27.495  12.875  1.00  0.00     0.004 C 
ENDBRANCH   1   5
TORSDOF 2
ENDMDL
MODEL 5
REMARK VINA RESULT:    -2.597     17.175     17.632
REMARK INTER + INTRA:          -2.909
REMARK INTER:                  -2.899
REMARK INTRA:                  -0.010
REMARK UNBOUND:                -0.008
REMARK SMILES CCCC(=O)[O-]
REMARK SMILES IDX 3 1 4 2 5 3 6 4 2 5 1 6
REMARK H PARENT
REMARK Flexibility Score: inf
ROOT
ATOM      1  C   UNL     1      23.009 -21.067  32.404  1.00  0.00     0.052 C 
ENDROOT
BRANCH   1   2
ATOM      2  C   UNL     1      23.977 -20.550  31.382  1.00  0.00     0.041 C 
ATOM      3  O   UNL     1      24.279 -19.328  31.358  1.00  0.00    -0.550 OA
ATOM      4  O   UNL     1      24.571 -21.425  30.480  1.00  0.00    -0.550 OA
ENDBRANCH   1   2
BRANCH   1   5
ATOM      5  C   UNL     1      22.253 -22.302  31.897  1.00  0.00     0.003 C 
ATOM      6  C   UNL     1      20.762 -22.247  32.227  1.00  0.00     0.004 C 
ENDBRANCH   1   5
TORSDOF 2
ENDMDL
MODEL 6
REMARK VINA RESULT:    -2.535     21.046     21.946
REMARK INTER + INTRA:          -2.840
REMARK INTER:                  -2.807
REMARK INTRA:                  -0.033
REMARK UNBOUND:                -0.008
REMARK SMILES CCCC(=O)[O-]
REMARK SMILES IDX 3 1 4 2 5 3 6 4 2 5 1 6
REMARK H PARENT
REMARK Flexibility Score: inf
ROOT
ATOM      1  C   UNL     1      16.009 -35.470  31.266  1.00  0.00     0.052 C 
ENDROOT
BRANCH   1   2
ATOM      2  C   UNL     1      16.764 -36.047  30.106  1.00  0.00     0.041 C 
ATOM      3  O   UNL     1      17.449 -35.298  29.362  1.00  0.00    -0.550 OA
ATOM      4  O   UNL     1      16.737 -37.416  29.869  1.00  0.00    -0.550 OA
ENDBRANCH   1   2
BRANCH   1   5
ATOM      5  C   UNL     1      15.480 -36.566  32.201  1.00  0.00     0.003 C 
ATOM      6  C   UNL     1      13.958 -36.535  32.331  1.00  0.00     0.004 C 
ENDBRANCH   1   5
TORSDOF 2
ENDMDL
MODEL 7
REMARK VINA RESULT:    -2.500     21.295     22.243
REMARK INTER + INTRA:          -2.801
REMARK INTER:                  -2.773
REMARK INTRA:                  -0.027
REMARK UNBOUND:                -0.008
REMARK SMILES CCCC(=O)[O-]
REMARK SMILES IDX 3 1 4 2 5 3 6 4 2 5 1 6
REMARK H PARENT
REMARK Flexibility Score: inf
ROOT
ATOM      1  C   UNL     1      15.939 -36.818  31.253  1.00  0.00     0.052 C 
ENDROOT
BRANCH   1   2
ATOM      2  C   UNL     1      16.260 -35.472  30.678  1.00  0.00     0.041 C 
ATOM      3  O   UNL     1      17.109 -35.363  29.755  1.00  0.00    -0.550 OA
ATOM      4  O   UNL     1      15.595 -34.342  31.139  1.00  0.00    -0.550 OA
ENDBRANCH   1   2
BRANCH   1   5
ATOM      5  C   UNL     1      15.080 -36.707  32.519  1.00  0.00     0.003 C 
ATOM      6  C   UNL     1      13.603 -36.989  32.246  1.00  0.00     0.004 C 
ENDBRANCH   1   5
TORSDOF 2
ENDMDL
MODEL 8
REMARK VINA RESULT:    -2.432     15.931     16.909
REMARK INTER + INTRA:          -2.725
REMARK INTER:                  -2.687
REMARK INTRA:                  -0.039
REMARK UNBOUND:                -0.008
REMARK SMILES CCCC(=O)[O-]
REMARK SMILES IDX 3 1 4 2 5 3 6 4 2 5 1 6
REMARK H PARENT
REMARK Flexibility Score: inf
ROOT
ATOM      1  C   UNL     1       7.450 -33.309  18.067  1.00  0.00     0.052 C 
ENDROOT
BRANCH   1   2
ATOM      2  C   UNL     1       8.602 -32.485  17.578  1.00  0.00     0.041 C 
ATOM      3  O   UNL     1       8.852 -32.414  16.346  1.00  0.00    -0.550 OA
ATOM      4  O   UNL     1       9.380 -31.770  18.481  1.00  0.00    -0.550 OA
ENDBRANCH   1   2
BRANCH   1   5
ATOM      5  C   UNL     1       7.457 -34.716  17.457  1.00  0.00     0.003 C 
ATOM      6  C   UNL     1       6.294 -34.937  16.489  1.00  0.00     0.004 C 
ENDBRANCH   1   5
TORSDOF 2
ENDMDL
MODEL 9
REMARK VINA RESULT:    -2.430     21.156     21.897
REMARK INTER + INTRA:          -2.722
REMARK INTER:                  -2.714
REMARK INTRA:                  -0.008
REMARK UNBOUND:                -0.008
REMARK SMILES CCCC(=O)[O-]
REMARK SMILES IDX 3 1 4 2 5 3 6 4 2 5 1 6
REMARK H PARENT
REMARK Flexibility Score: inf
ROOT
ATOM      1  C   UNL     1      16.717 -36.039  30.112  1.00  0.00     0.052 C 
ENDROOT
BRANCH   1   2
ATOM      2  C   UNL     1      15.933 -35.471  31.256  1.00  0.00     0.041 C 
ATOM      3  O   UNL     1      15.551 -34.272  31.227  1.00  0.00    -0.550 OA
ATOM      4  O   UNL     1      15.596 -36.276  32.337  1.00  0.00    -0.550 OA
ENDBRANCH   1   2
BRANCH   1   5
ATOM      5  C   UNL     1      16.604 -37.568  30.048  1.00  0.00     0.003 C 
ATOM      6  C   UNL     1      17.009 -38.125  28.683  1.00  0.00     0.004 C 
ENDBRANCH   1   5
TORSDOF 2
ENDMDL
