MODEL 1
REMARK VINA RESULT:    -7.096      0.000      0.000
REMARK INTER + INTRA:         -11.032
REMARK INTER:                  -9.586
REMARK INTRA:                  -1.446
REMARK UNBOUND:                -1.446
REMARK SMILES CC[C@H](CC[C@@H](C)[C@H]1CC[C@H]2[C@H]3CC(=O)C4=CC(=O)CC[C@@]4(C)[C@@H]3CC[C@@]12C)C(C)C
REMARK SMILES IDX 4 1 3 2 2 3 1 4 29 5 30 6 31 7 5 8 6 9 7 10 8 11 9 12 27 13
REMARK SMILES IDX 10 14 11 15 26 16 28 17 12 18 25 19 24 20 13 21 22 22 14 23
REMARK SMILES IDX 16 24 21 25 23 26 15 27 17 28 20 29 18 30 19 31
REMARK H PARENT
REMARK Flexibility Score: inf
ROOT
ATOM      1  C   UNL     1      -4.349  -6.950   3.022  1.00  0.00     0.004 C 
ENDROOT
BRANCH   1   2
ATOM      2  C   UNL     1      -3.254  -7.427   4.017  1.00  0.00    -0.009 C 
BRANCH   2   3
ATOM      3  C   UNL     1      -3.409  -8.956   4.263  1.00  0.00     0.000 C 
ATOM      4  C   UNL     1      -4.380  -9.316   5.388  1.00  0.00     0.004 C 
ENDBRANCH   2   3
BRANCH   2   5
ATOM      5  C   UNL     1      -1.830  -6.973   3.526  1.00  0.00    -0.014 C 
ATOM      6  C   UNL     1      -1.893  -6.067   2.286  1.00  0.00     0.007 C 
ATOM      7  C   UNL     1      -0.954  -6.341   4.621  1.00  0.00     0.007 C 
ENDBRANCH   2   5
ENDBRANCH   1   2
BRANCH   1   8
ATOM      8  C   UNL     1      -5.180  -5.773   3.583  1.00  0.00     0.004 C 
BRANCH   8   9
ATOM      9  C   UNL     1      -5.227  -4.523   2.659  1.00  0.00    -0.011 C 
ATOM     10  C   UNL     1      -6.344  -4.691   1.612  1.00  0.00     0.008 C 
BRANCH   9  11
ATOM     11  C   UNL     1      -5.336  -3.176   3.459  1.00  0.00    -0.002 C 
ATOM     12  C   UNL     1      -5.564  -3.415   4.964  1.00  0.00     0.005 C 
ATOM     13  C   UNL     1      -4.132  -2.180   3.397  1.00  0.00    -0.026 C 
ATOM     14  C   UNL     1      -4.923  -2.249   5.711  1.00  0.00     0.005 C 
ATOM     15  C   UNL     1      -4.380  -1.295   4.641  1.00  0.00    -0.001 C 
ATOM     16  C   UNL     1      -2.770  -2.921   3.530  1.00  0.00     0.007 C 
ATOM     17  C   UNL     1      -4.171  -1.306   2.115  1.00  0.00     0.012 C 
ATOM     18  C   UNL     1      -3.165  -0.416   5.083  1.00  0.00     0.004 C 
ATOM     19  C   UNL     1      -1.605  -1.979   3.837  1.00  0.00     0.005 C 
ATOM     20  C   UNL     1      -1.825  -1.206   5.162  1.00  0.00     0.003 C 
ATOM     21  C   UNL     1      -3.472   0.304   6.408  1.00  0.00     0.085 C 
ATOM     22  C   UNL     1      -0.588  -0.293   5.554  1.00  0.00    -0.000 C 
ATOM     23  C   UNL     1      -2.321   1.140   6.855  1.00  0.00     0.159 C 
ATOM     24  C   UNL     1      -0.946   0.611   6.740  1.00  0.00     0.005 C 
ATOM     25  C   UNL     1       0.615  -1.209   5.953  1.00  0.00     0.020 C 
ATOM     26  C   UNL     1      -0.162   0.629   4.379  1.00  0.00     0.017 C 
ATOM     27  O   UNL     1      -2.538   2.253   7.405  1.00  0.00    -0.295 OA
ATOM     28  C   UNL     1      -0.010   1.025   7.617  1.00  0.00     0.055 C 
ATOM     29  C   UNL     1       1.812  -0.427   6.510  1.00  0.00     0.081 C 
ATOM     30  C   UNL     1       1.377   0.544   7.561  1.00  0.00     0.156 C 
ATOM     31  O   UNL     1       2.219   0.983   8.388  1.00  0.00    -0.295 OA
ENDBRANCH   9  11
ENDBRANCH   8   9
ENDBRANCH   1   8
TORSDOF 6
ENDMDL
MODEL 2
REMARK VINA RESULT:    -7.075      2.515      4.979
REMARK INTER + INTRA:         -11.002
REMARK INTER:                  -8.903
REMARK INTRA:                  -2.100
REMARK UNBOUND:                -1.446
REMARK SMILES CC[C@H](CC[C@@H](C)[C@H]1CC[C@H]2[C@H]3CC(=O)C4=CC(=O)CC[C@@]4(C)[C@@H]3CC[C@@]12C)C(C)C
REMARK SMILES IDX 4 1 3 2 2 3 1 4 29 5 30 6 31 7 5 8 6 9 7 10 8 11 9 12 27 13
REMARK SMILES IDX 10 14 11 15 26 16 28 17 12 18 25 19 24 20 13 21 22 22 14 23
REMARK SMILES IDX 16 24 21 25 23 26 15 27 17 28 20 29 18 30 19 31
REMARK H PARENT
REMARK Flexibility Score: inf
ROOT
ATOM      1  C   UNL     1      -4.999  -5.740   3.409  1.00  0.00     0.004 C 
ENDROOT
BRANCH   1   2
ATOM      2  C   UNL     1      -5.753  -4.769   2.457  1.00  0.00    -0.009 C 
BRANCH   2   3
ATOM      3  C   UNL     1      -7.051  -5.455   1.941  1.00  0.00     0.000 C 
ATOM      4  C   UNL     1      -8.126  -4.482   1.455  1.00  0.00     0.004 C 
ENDBRANCH   2   3
BRANCH   2   5
ATOM      5  C   UNL     1      -5.967  -3.374   3.151  1.00  0.00    -0.014 C 
ATOM      6  C   UNL     1      -5.566  -3.383   4.635  1.00  0.00     0.007 C 
ATOM      7  C   UNL     1      -5.312  -2.193   2.416  1.00  0.00     0.007 C 
ENDBRANCH   2   5
ENDBRANCH   1   2
BRANCH   1   8
ATOM      8  C   UNL     1      -3.726  -6.329   2.759  1.00  0.00     0.004 C 
BRANCH   8   9
ATOM      9  C   UNL     1      -2.405  -5.980   3.503  1.00  0.00    -0.011 C 
ATOM     10  C   UNL     1      -1.651  -7.275   3.859  1.00  0.00     0.008 C 
BRANCH   9  11
ATOM     11  C   UNL     1      -1.516  -4.951   2.717  1.00  0.00    -0.002 C 
ATOM     12  C   UNL     1      -2.162  -4.530   1.383  1.00  0.00     0.005 C 
ATOM     13  C   UNL     1      -1.152  -3.602   3.420  1.00  0.00    -0.026 C 
ATOM     14  C   UNL     1      -1.713  -3.102   1.092  1.00  0.00     0.005 C 
ATOM     15  C   UNL     1      -0.753  -2.710   2.221  1.00  0.00    -0.001 C 
ATOM     16  C   UNL     1      -2.380  -2.992   4.156  1.00  0.00     0.007 C 
ATOM     17  C   UNL     1       0.056  -3.760   4.382  1.00  0.00     0.012 C 
ATOM     18  C   UNL     1      -0.670  -1.180   2.530  1.00  0.00     0.004 C 
ATOM     19  C   UNL     1      -2.176  -1.525   4.541  1.00  0.00     0.005 C 
ATOM     20  C   UNL     1      -1.911  -0.637   3.299  1.00  0.00     0.003 C 
ATOM     21  C   UNL     1      -0.414  -0.381   1.240  1.00  0.00     0.085 C 
ATOM     22  C   UNL     1      -1.792   0.903   3.660  1.00  0.00    -0.000 C 
ATOM     23  C   UNL     1      -0.345   1.084   1.510  1.00  0.00     0.159 C 
ATOM     24  C   UNL     1      -1.311   1.702   2.442  1.00  0.00     0.005 C 
ATOM     25  C   UNL     1      -3.196   1.435   4.098  1.00  0.00     0.020 C 
ATOM     26  C   UNL     1      -0.773   1.146   4.807  1.00  0.00     0.017 C 
ATOM     27  O   UNL     1       0.482   1.794   0.876  1.00  0.00    -0.295 OA
ATOM     28  C   UNL     1      -1.660   2.991   2.263  1.00  0.00     0.055 C 
ATOM     29  C   UNL     1      -3.230   2.954   4.309  1.00  0.00     0.081 C 
ATOM     30  C   UNL     1      -2.612   3.671   3.151  1.00  0.00     0.156 C 
ATOM     31  O   UNL     1      -2.885   4.885   2.955  1.00  0.00    -0.295 OA
ENDBRANCH   9  11
ENDBRANCH   8   9
ENDBRANCH   1   8
TORSDOF 6
ENDMDL
MODEL 3
REMARK VINA RESULT:    -6.803     10.570     14.400
REMARK INTER + INTRA:         -10.635
REMARK INTER:                  -8.300
REMARK INTRA:                  -2.335
REMARK UNBOUND:                -1.446
REMARK SMILES CC[C@H](CC[C@@H](C)[C@H]1CC[C@H]2[C@H]3CC(=O)C4=CC(=O)CC[C@@]4(C)[C@@H]3CC[C@@]12C)C(C)C
REMARK SMILES IDX 4 1 3 2 2 3 1 4 29 5 30 6 31 7 5 8 6 9 7 10 8 11 9 12 27 13
REMARK SMILES IDX 10 14 11 15 26 16 28 17 12 18 25 19 24 20 13 21 22 22 14 23
REMARK SMILES IDX 16 24 21 25 23 26 15 27 17 28 20 29 18 30 19 31
REMARK H PARENT
REMARK Flexibility Score: inf
ROOT
ATOM      1  C   UNL     1      -1.134  -1.801  14.808  1.00  0.00     0.004 C 
ENDROOT
BRANCH   1   2
ATOM      2  C   UNL     1      -2.034  -0.585  14.451  1.00  0.00    -0.009 C 
BRANCH   2   3
ATOM      3  C   UNL     1      -3.127  -0.411  15.544  1.00  0.00     0.000 C 
ATOM      4  C   UNL     1      -2.939  -1.307  16.769  1.00  0.00     0.004 C 
ENDBRANCH   2   3
BRANCH   2   5
ATOM      5  C   UNL     1      -1.153   0.690  14.180  1.00  0.00    -0.014 C 
ATOM      6  C   UNL     1      -1.166   1.118  12.705  1.00  0.00     0.007 C 
ATOM      7  C   UNL     1      -1.466   1.884  15.098  1.00  0.00     0.007 C 
ENDBRANCH   2   5
ENDBRANCH   1   2
BRANCH   1   8
ATOM      8  C   UNL     1       0.372  -1.458  14.739  1.00  0.00     0.004 C 
BRANCH   8   9
ATOM      9  C   UNL     1       1.159  -1.761  16.047  1.00  0.00    -0.011 C 
ATOM     10  C   UNL     1       2.004  -3.035  15.862  1.00  0.00     0.008 C 
BRANCH   9  11
ATOM     11  C   UNL     1       2.003  -0.535  16.549  1.00  0.00    -0.002 C 
ATOM     12  C   UNL     1       2.159   0.544  15.460  1.00  0.00     0.005 C 
ATOM     13  C   UNL     1       1.494   0.246  17.806  1.00  0.00    -0.026 C 
ATOM     14  C   UNL     1       2.267   1.892  16.168  1.00  0.00     0.005 C 
ATOM     15  C   UNL     1       2.240   1.595  17.671  1.00  0.00    -0.001 C 
ATOM     16  C   UNL     1      -0.044   0.477  17.752  1.00  0.00     0.007 C 
ATOM     17  C   UNL     1       1.910  -0.454  19.127  1.00  0.00     0.012 C 
ATOM     18  C   UNL     1       1.692   2.749  18.572  1.00  0.00     0.004 C 
ATOM     19  C   UNL     1      -0.525   1.530  18.751  1.00  0.00     0.005 C 
ATOM     20  C   UNL     1       0.144   2.906  18.503  1.00  0.00     0.003 C 
ATOM     21  C   UNL     1       2.406   4.073  18.249  1.00  0.00     0.085 C 
ATOM     22  C   UNL     1      -0.409   4.040  19.465  1.00  0.00    -0.000 C 
ATOM     23  C   UNL     1       1.889   5.191  19.089  1.00  0.00     0.159 C 
ATOM     24  C   UNL     1       0.437   5.313  19.331  1.00  0.00     0.005 C 
ATOM     25  C   UNL     1      -1.888   4.365  19.073  1.00  0.00     0.020 C 
ATOM     26  C   UNL     1      -0.359   3.603  20.954  1.00  0.00     0.017 C 
ATOM     27  O   UNL     1       2.688   6.070  19.513  1.00  0.00    -0.295 OA
ATOM     28  C   UNL     1      -0.092   6.534  19.540  1.00  0.00     0.055 C 
ATOM     29  C   UNL     1      -2.465   5.567  19.832  1.00  0.00     0.081 C 
ATOM     30  C   UNL     1      -1.527   6.731  19.789  1.00  0.00     0.156 C 
ATOM     31  O   UNL     1      -1.966   7.891  20.005  1.00  0.00    -0.295 OA
ENDBRANCH   9  11
ENDBRANCH   8   9
ENDBRANCH   1   8
TORSDOF 6
ENDMDL
MODEL 4
REMARK VINA RESULT:    -6.701      3.104      7.912
REMARK INTER + INTRA:         -10.498
REMARK INTER:                  -8.495
REMARK INTRA:                  -2.002
REMARK UNBOUND:                -1.446
REMARK SMILES CC[C@H](CC[C@@H](C)[C@H]1CC[C@H]2[C@H]3CC(=O)C4=CC(=O)CC[C@@]4(C)[C@@H]3CC[C@@]12C)C(C)C
REMARK SMILES IDX 4 1 3 2 2 3 1 4 29 5 30 6 31 7 5 8 6 9 7 10 8 11 9 12 27 13
REMARK SMILES IDX 10 14 11 15 26 16 28 17 12 18 25 19 24 20 13 21 22 22 14 23
REMARK SMILES IDX 16 24 21 25 23 26 15 27 17 28 20 29 18 30 19 31
REMARK H PARENT
REMARK Flexibility Score: inf
ROOT
ATOM      1  C   UNL     1      -1.565   1.621   8.075  1.00  0.00     0.004 C 
ENDROOT
BRANCH   1   2
ATOM      2  C   UNL     1      -2.877   0.963   7.562  1.00  0.00    -0.009 C 
BRANCH   2   3
ATOM      3  C   UNL     1      -3.389  -0.059   8.616  1.00  0.00     0.000 C 
ATOM      4  C   UNL     1      -3.421  -1.507   8.125  1.00  0.00     0.004 C 
ENDBRANCH   2   3
BRANCH   2   5
ATOM      5  C   UNL     1      -3.916   2.066   7.142  1.00  0.00    -0.014 C 
ATOM      6  C   UNL     1      -3.627   2.656   5.753  1.00  0.00     0.007 C 
ATOM      7  C   UNL     1      -5.386   1.627   7.253  1.00  0.00     0.007 C 
ENDBRANCH   2   5
ENDBRANCH   1   2
BRANCH   1   8
ATOM      8  C   UNL     1      -0.348   0.674   7.957  1.00  0.00     0.004 C 
BRANCH   8   9
ATOM      9  C   UNL     1       0.411   0.770   6.603  1.00  0.00    -0.011 C 
ATOM     10  C   UNL     1       1.749   1.506   6.807  1.00  0.00     0.008 C 
BRANCH   9  11
ATOM     11  C   UNL     1       0.580  -0.623   5.898  1.00  0.00    -0.002 C 
ATOM     12  C   UNL     1       0.326  -1.795   6.866  1.00  0.00     0.005 C 
ATOM     13  C   UNL     1      -0.319  -0.937   4.657  1.00  0.00    -0.026 C 
ATOM     14  C   UNL     1      -0.231  -2.952   6.042  1.00  0.00     0.005 C 
ATOM     15  C   UNL     1      -0.242  -2.480   4.584  1.00  0.00    -0.001 C 
ATOM     16  C   UNL     1      -1.790  -0.485   4.888  1.00  0.00     0.007 C 
ATOM     17  C   UNL     1       0.259  -0.320   3.355  1.00  0.00     0.012 C 
ATOM     18  C   UNL     1      -1.314  -3.155   3.669  1.00  0.00     0.004 C 
ATOM     19  C   UNL     1      -2.765  -1.086   3.875  1.00  0.00     0.005 C 
ATOM     20  C   UNL     1      -2.760  -2.635   3.922  1.00  0.00     0.003 C 
ATOM     21  C   UNL     1      -1.238  -4.688   3.788  1.00  0.00     0.085 C 
ATOM     22  C   UNL     1      -3.832  -3.283   2.950  1.00  0.00    -0.000 C 
ATOM     23  C   UNL     1      -2.263  -5.353   2.932  1.00  0.00     0.159 C 
ATOM     24  C   UNL     1      -3.632  -4.802   2.869  1.00  0.00     0.005 C 
ATOM     25  C   UNL     1      -5.266  -2.985   3.499  1.00  0.00     0.020 C 
ATOM     26  C   UNL     1      -3.711  -2.722   1.507  1.00  0.00     0.017 C 
ATOM     27  O   UNL     1      -1.973  -6.428   2.339  1.00  0.00    -0.295 OA
ATOM     28  C   UNL     1      -4.663  -5.636   2.630  1.00  0.00     0.055 C 
ATOM     29  C   UNL     1      -6.374  -3.709   2.724  1.00  0.00     0.081 C 
ATOM     30  C   UNL     1      -6.050  -5.159   2.551  1.00  0.00     0.156 C 
ATOM     31  O   UNL     1      -6.974  -5.976   2.298  1.00  0.00    -0.295 OA
ENDBRANCH   9  11
ENDBRANCH   8   9
ENDBRANCH   1   8
TORSDOF 6
ENDMDL
MODEL 5
REMARK VINA RESULT:    -6.649      3.078      7.901
REMARK INTER + INTRA:         -10.428
REMARK INTER:                  -8.157
REMARK INTRA:                  -2.270
REMARK UNBOUND:                -1.446
REMARK SMILES CC[C@H](CC[C@@H](C)[C@H]1CC[C@H]2[C@H]3CC(=O)C4=CC(=O)CC[C@@]4(C)[C@@H]3CC[C@@]12C)C(C)C
REMARK SMILES IDX 4 1 3 2 2 3 1 4 29 5 30 6 31 7 5 8 6 9 7 10 8 11 9 12 27 13
REMARK SMILES IDX 10 14 11 15 26 16 28 17 12 18 25 19 24 20 13 21 22 22 14 23
REMARK SMILES IDX 16 24 21 25 23 26 15 27 17 28 20 29 18 30 19 31
REMARK H PARENT
REMARK Flexibility Score: inf
ROOT
ATOM      1  C   UNL     1      -1.280   1.539   8.280  1.00  0.00     0.004 C 
ENDROOT
BRANCH   1   2
ATOM      2  C   UNL     1      -2.549   0.760   8.727  1.00  0.00    -0.009 C 
BRANCH   2   3
ATOM      3  C   UNL     1      -3.795   1.340   7.998  1.00  0.00     0.000 C 
ATOM      4  C   UNL     1      -3.468   2.163   6.752  1.00  0.00     0.004 C 
ENDBRANCH   2   3
BRANCH   2   5
ATOM      5  C   UNL     1      -2.333  -0.788   8.550  1.00  0.00    -0.014 C 
ATOM      6  C   UNL     1      -2.059  -1.504   9.882  1.00  0.00     0.007 C 
ATOM      7  C   UNL     1      -3.451  -1.499   7.768  1.00  0.00     0.007 C 
ENDBRANCH   2   5
ENDBRANCH   1   2
BRANCH   1   8
ATOM      8  C   UNL     1      -0.058   0.611   8.087  1.00  0.00     0.004 C 
BRANCH   8   9
ATOM      9  C   UNL     1       0.643   0.753   6.706  1.00  0.00    -0.011 C 
ATOM     10  C   UNL     1       1.979   1.500   6.875  1.00  0.00     0.008 C 
BRANCH   9  11
ATOM     11  C   UNL     1       0.800  -0.619   5.957  1.00  0.00    -0.002 C 
ATOM     12  C   UNL     1       0.611  -1.819   6.905  1.00  0.00     0.005 C 
ATOM     13  C   UNL     1      -0.153  -0.916   4.753  1.00  0.00    -0.026 C 
ATOM     14  C   UNL     1       0.033  -2.964   6.079  1.00  0.00     0.005 C 
ATOM     15  C   UNL     1      -0.055  -2.456   4.636  1.00  0.00    -0.001 C 
ATOM     16  C   UNL     1      -1.618  -0.495   5.066  1.00  0.00     0.007 C 
ATOM     17  C   UNL     1       0.351  -0.257   3.441  1.00  0.00     0.012 C 
ATOM     18  C   UNL     1      -1.160  -3.126   3.756  1.00  0.00     0.004 C 
ATOM     19  C   UNL     1      -2.632  -1.087   4.086  1.00  0.00     0.005 C 
ATOM     20  C   UNL     1      -2.600  -2.637   4.092  1.00  0.00     0.003 C 
ATOM     21  C   UNL     1      -1.055  -4.659   3.831  1.00  0.00     0.085 C 
ATOM     22  C   UNL     1      -3.708  -3.278   3.155  1.00  0.00    -0.000 C 
ATOM     23  C   UNL     1      -2.109  -5.320   3.008  1.00  0.00     0.159 C 
ATOM     24  C   UNL     1      -3.488  -4.790   3.025  1.00  0.00     0.005 C 
ATOM     25  C   UNL     1      -5.118  -3.017   3.780  1.00  0.00     0.020 C 
ATOM     26  C   UNL     1      -3.665  -2.678   1.723  1.00  0.00     0.017 C 
ATOM     27  O   UNL     1      -1.831  -6.374   2.374  1.00  0.00    -0.295 OA
ATOM     28  C   UNL     1      -4.516  -5.635   2.814  1.00  0.00     0.055 C 
ATOM     29  C   UNL     1      -6.251  -3.740   3.040  1.00  0.00     0.081 C 
ATOM     30  C   UNL     1      -5.913  -5.180   2.814  1.00  0.00     0.156 C 
ATOM     31  O   UNL     1      -6.835  -6.006   2.584  1.00  0.00    -0.295 OA
ENDBRANCH   9  11
ENDBRANCH   8   9
ENDBRANCH   1   8
TORSDOF 6
ENDMDL
MODEL 6
REMARK VINA RESULT:    -6.630     13.871     17.381
REMARK INTER + INTRA:         -10.402
REMARK INTER:                  -8.245
REMARK INTRA:                  -2.157
REMARK UNBOUND:                -1.446
REMARK SMILES CC[C@H](CC[C@@H](C)[C@H]1CC[C@H]2[C@H]3CC(=O)C4=CC(=O)CC[C@@]4(C)[C@@H]3CC[C@@]12C)C(C)C
REMARK SMILES IDX 4 1 3 2 2 3 1 4 29 5 30 6 31 7 5 8 6 9 7 10 8 11 9 12 27 13
REMARK SMILES IDX 10 14 11 15 26 16 28 17 12 18 25 19 24 20 13 21 22 22 14 23
REMARK SMILES IDX 16 24 21 25 23 26 15 27 17 28 20 29 18 30 19 31
REMARK H PARENT
REMARK Flexibility Score: inf
ROOT
ATOM      1  C   UNL     1      -0.455   6.491  19.281  1.00  0.00     0.004 C 
ENDROOT
BRANCH   1   2
ATOM      2  C   UNL     1      -1.288   5.942  20.473  1.00  0.00    -0.009 C 
BRANCH   2   3
ATOM      3  C   UNL     1      -2.088   7.107  21.125  1.00  0.00     0.000 C 
ATOM      4  C   UNL     1      -3.606   6.980  20.991  1.00  0.00     0.004 C 
ENDBRANCH   2   3
BRANCH   2   5
ATOM      5  C   UNL     1      -2.155   4.712  20.017  1.00  0.00    -0.014 C 
ATOM      6  C   UNL     1      -2.268   4.601  18.488  1.00  0.00     0.007 C 
ATOM      7  C   UNL     1      -1.723   3.369  20.631  1.00  0.00     0.007 C 
ENDBRANCH   2   5
ENDBRANCH   1   2
BRANCH   1   8
ATOM      8  C   UNL     1       1.056   6.559  19.603  1.00  0.00     0.004 C 
BRANCH   8   9
ATOM      9  C   UNL     1       1.955   5.736  18.635  1.00  0.00    -0.011 C 
ATOM     10  C   UNL     1       3.074   6.633  18.076  1.00  0.00     0.008 C 
BRANCH   9  11
ATOM     11  C   UNL     1       2.498   4.413  19.284  1.00  0.00    -0.002 C 
ATOM     12  C   UNL     1       2.042   4.258  20.748  1.00  0.00     0.005 C 
ATOM     13  C   UNL     1       2.124   3.052  18.609  1.00  0.00    -0.026 C 
ATOM     14  C   UNL     1       1.926   2.763  21.031  1.00  0.00     0.005 C 
ATOM     15  C   UNL     1       2.376   2.043  19.755  1.00  0.00    -0.001 C 
ATOM     16  C   UNL     1       0.627   3.017  18.185  1.00  0.00     0.007 C 
ATOM     17  C   UNL     1       3.054   2.728  17.410  1.00  0.00     0.012 C 
ATOM     18  C   UNL     1       1.763   0.622  19.535  1.00  0.00     0.004 C 
ATOM     19  C   UNL     1       0.131   1.606  17.863  1.00  0.00     0.005 C 
ATOM     20  C   UNL     1       0.275   0.654  19.077  1.00  0.00     0.003 C 
ATOM     21  C   UNL     1       1.947  -0.246  20.792  1.00  0.00     0.085 C 
ATOM     22  C   UNL     1      -0.320  -0.790  18.799  1.00  0.00    -0.000 C 
ATOM     23  C   UNL     1       1.357  -1.603  20.609  1.00  0.00     0.159 C 
ATOM     24  C   UNL     1       0.047  -1.747  19.940  1.00  0.00     0.005 C 
ATOM     25  C   UNL     1      -1.878  -0.688  18.698  1.00  0.00     0.020 C 
ATOM     26  C   UNL     1       0.240  -1.398  17.484  1.00  0.00     0.017 C 
ATOM     27  O   UNL     1       1.941  -2.606  21.102  1.00  0.00    -0.295 OA
ATOM     28  C   UNL     1      -0.746  -2.785  20.271  1.00  0.00     0.055 C 
ATOM     29  C   UNL     1      -2.568  -2.055  18.598  1.00  0.00     0.081 C 
ATOM     30  C   UNL     1      -2.060  -2.992  19.646  1.00  0.00     0.156 C 
ATOM     31  O   UNL     1      -2.750  -3.993  19.972  1.00  0.00    -0.295 OA
ENDBRANCH   9  11
ENDBRANCH   8   9
ENDBRANCH   1   8
TORSDOF 6
ENDMDL
MODEL 7
REMARK VINA RESULT:    -6.616      3.036      8.444
REMARK INTER + INTRA:         -10.384
REMARK INTER:                  -8.461
REMARK INTRA:                  -1.923
REMARK UNBOUND:                -1.446
REMARK SMILES CC[C@H](CC[C@@H](C)[C@H]1CC[C@H]2[C@H]3CC(=O)C4=CC(=O)CC[C@@]4(C)[C@@H]3CC[C@@]12C)C(C)C
REMARK SMILES IDX 4 1 3 2 2 3 1 4 29 5 30 6 31 7 5 8 6 9 7 10 8 11 9 12 27 13
REMARK SMILES IDX 10 14 11 15 26 16 28 17 12 18 25 19 24 20 13 21 22 22 14 23
REMARK SMILES IDX 16 24 21 25 23 26 15 27 17 28 20 29 18 30 19 31
REMARK H PARENT
REMARK Flexibility Score: inf
ROOT
ATOM      1  C   UNL     1      -0.018   0.604   9.367  1.00  0.00     0.004 C 
ENDROOT
BRANCH   1   2
ATOM      2  C   UNL     1      -0.590   2.016   9.056  1.00  0.00    -0.009 C 
BRANCH   2   3
ATOM      3  C   UNL     1      -2.066   1.884   8.583  1.00  0.00     0.000 C 
ATOM      4  C   UNL     1      -2.746   0.579   9.000  1.00  0.00     0.004 C 
ENDBRANCH   2   3
BRANCH   2   5
ATOM      5  C   UNL     1      -0.366   2.981  10.278  1.00  0.00    -0.014 C 
ATOM      6  C   UNL     1      -0.547   2.275  11.631  1.00  0.00     0.007 C 
ATOM      7  C   UNL     1       0.963   3.754  10.239  1.00  0.00     0.007 C 
ENDBRANCH   2   5
ENDBRANCH   1   2
BRANCH   1   8
ATOM      8  C   UNL     1       1.331   0.347   8.657  1.00  0.00     0.004 C 
BRANCH   8   9
ATOM      9  C   UNL     1       1.375   0.817   7.174  1.00  0.00    -0.011 C 
ATOM     10  C   UNL     1       2.531   1.816   6.978  1.00  0.00     0.008 C 
BRANCH   9  11
ATOM     11  C   UNL     1       1.420  -0.378   6.156  1.00  0.00    -0.002 C 
ATOM     12  C   UNL     1       1.438  -1.744   6.870  1.00  0.00     0.005 C 
ATOM     13  C   UNL     1       0.267  -0.499   5.106  1.00  0.00    -0.026 C 
ATOM     14  C   UNL     1       0.742  -2.745   5.953  1.00  0.00     0.005 C 
ATOM     15  C   UNL     1       0.375  -1.980   4.675  1.00  0.00    -0.001 C 
ATOM     16  C   UNL     1      -1.124  -0.229   5.752  1.00  0.00     0.007 C 
ATOM     17  C   UNL     1       0.504   0.424   3.880  1.00  0.00     0.012 C 
ATOM     18  C   UNL     1      -0.859  -2.536   3.893  1.00  0.00     0.004 C 
ATOM     19  C   UNL     1      -2.289  -0.684   4.871  1.00  0.00     0.005 C 
ATOM     20  C   UNL     1      -2.222  -2.203   4.569  1.00  0.00     0.003 C 
ATOM     21  C   UNL     1      -0.707  -4.047   3.647  1.00  0.00     0.085 C 
ATOM     22  C   UNL     1      -3.470  -2.719   3.737  1.00  0.00    -0.000 C 
ATOM     23  C   UNL     1      -1.881  -4.601   2.912  1.00  0.00     0.159 C 
ATOM     24  C   UNL     1      -3.244  -4.165   3.277  1.00  0.00     0.005 C 
ATOM     25  C   UNL     1      -4.744  -2.663   4.642  1.00  0.00     0.020 C 
ATOM     26  C   UNL     1      -3.707  -1.859   2.466  1.00  0.00     0.017 C 
ATOM     27  O   UNL     1      -1.703  -5.500   2.045  1.00  0.00    -0.295 OA
ATOM     28  C   UNL     1      -4.274  -5.014   3.092  1.00  0.00     0.055 C 
ATOM     29  C   UNL     1      -5.979  -3.298   3.989  1.00  0.00     0.081 C 
ATOM     30  C   UNL     1      -5.657  -4.648   3.429  1.00  0.00     0.156 C 
ATOM     31  O   UNL     1      -6.586  -5.468   3.211  1.00  0.00    -0.295 OA
ENDBRANCH   9  11
ENDBRANCH   8   9
ENDBRANCH   1   8
TORSDOF 6
ENDMDL
MODEL 8
REMARK VINA RESULT:    -6.587      3.208      7.611
REMARK INTER + INTRA:         -10.344
REMARK INTER:                  -8.249
REMARK INTRA:                  -2.094
REMARK UNBOUND:                -1.446
REMARK SMILES CC[C@H](CC[C@@H](C)[C@H]1CC[C@H]2[C@H]3CC(=O)C4=CC(=O)CC[C@@]4(C)[C@@H]3CC[C@@]12C)C(C)C
REMARK SMILES IDX 4 1 3 2 2 3 1 4 29 5 30 6 31 7 5 8 6 9 7 10 8 11 9 12 27 13
REMARK SMILES IDX 10 14 11 15 26 16 28 17 12 18 25 19 24 20 13 21 22 22 14 23
REMARK SMILES IDX 16 24 21 25 23 26 15 27 17 28 20 29 18 30 19 31
REMARK H PARENT
REMARK Flexibility Score: inf
ROOT
ATOM      1  C   UNL     1      -4.436   1.851   7.648  1.00  0.00     0.004 C 
ENDROOT
BRANCH   1   2
ATOM      2  C   UNL     1      -4.020   0.434   8.134  1.00  0.00    -0.009 C 
BRANCH   2   3
ATOM      3  C   UNL     1      -3.019   0.566   9.317  1.00  0.00     0.000 C 
ATOM      4  C   UNL     1      -1.698  -0.176   9.110  1.00  0.00     0.004 C 
ENDBRANCH   2   3
BRANCH   2   5
ATOM      5  C   UNL     1      -5.293  -0.440   8.431  1.00  0.00    -0.014 C 
ATOM      6  C   UNL     1      -6.604   0.335   8.233  1.00  0.00     0.007 C 
ATOM      7  C   UNL     1      -5.331  -1.781   7.678  1.00  0.00     0.007 C 
ENDBRANCH   2   5
ENDBRANCH   1   2
BRANCH   1   8
ATOM      8  C   UNL     1      -3.290   2.579   6.908  1.00  0.00     0.004 C 
BRANCH   8   9
ATOM      9  C   UNL     1      -3.454   2.625   5.361  1.00  0.00    -0.011 C 
ATOM     10  C   UNL     1      -3.253   4.067   4.860  1.00  0.00     0.008 C 
BRANCH   9  11
ATOM     11  C   UNL     1      -2.538   1.586   4.620  1.00  0.00    -0.002 C 
ATOM     12  C   UNL     1      -1.687   0.761   5.604  1.00  0.00     0.005 C 
ATOM     13  C   UNL     1      -3.223   0.520   3.703  1.00  0.00    -0.026 C 
ATOM     14  C   UNL     1      -1.461  -0.609   4.971  1.00  0.00     0.005 C 
ATOM     15  C   UNL     1      -2.124  -0.562   3.590  1.00  0.00    -0.001 C 
ATOM     16  C   UNL     1      -4.495  -0.076   4.372  1.00  0.00     0.007 C 
ATOM     17  C   UNL     1      -3.545   1.091   2.296  1.00  0.00     0.012 C 
ATOM     18  C   UNL     1      -2.605  -1.941   3.031  1.00  0.00     0.004 C 
ATOM     19  C   UNL     1      -4.983  -1.357   3.692  1.00  0.00     0.005 C 
ATOM     20  C   UNL     1      -3.902  -2.467   3.715  1.00  0.00     0.003 C 
ATOM     21  C   UNL     1      -1.471  -2.979   3.102  1.00  0.00     0.085 C 
ATOM     22  C   UNL     1      -4.415  -3.837   3.101  1.00  0.00    -0.000 C 
ATOM     23  C   UNL     1      -1.913  -4.306   2.585  1.00  0.00     0.159 C 
ATOM     24  C   UNL     1      -3.250  -4.822   2.944  1.00  0.00     0.005 C 
ATOM     25  C   UNL     1      -5.484  -4.457   4.061  1.00  0.00     0.020 C 
ATOM     26  C   UNL     1      -5.046  -3.635   1.696  1.00  0.00     0.017 C 
ATOM     27  O   UNL     1      -1.108  -5.012   1.918  1.00  0.00    -0.295 OA
ATOM     28  C   UNL     1      -3.440  -6.154   3.015  1.00  0.00     0.055 C 
ATOM     29  C   UNL     1      -5.924  -5.866   3.646  1.00  0.00     0.081 C 
ATOM     30  C   UNL     1      -4.742  -6.739   3.364  1.00  0.00     0.156 C 
ATOM     31  O   UNL     1      -4.873  -7.990   3.390  1.00  0.00    -0.295 OA
ENDBRANCH   9  11
ENDBRANCH   8   9
ENDBRANCH   1   8
TORSDOF 6
ENDMDL
MODEL 9
REMARK VINA RESULT:    -6.454     10.466     12.970
REMARK INTER + INTRA:         -10.164
REMARK INTER:                  -9.798
REMARK INTRA:                  -0.367
REMARK UNBOUND:                -1.446
REMARK SMILES CC[C@H](CC[C@@H](C)[C@H]1CC[C@H]2[C@H]3CC(=O)C4=CC(=O)CC[C@@]4(C)[C@@H]3CC[C@@]12C)C(C)C
REMARK SMILES IDX 4 1 3 2 2 3 1 4 29 5 30 6 31 7 5 8 6 9 7 10 8 11 9 12 27 13
REMARK SMILES IDX 10 14 11 15 26 16 28 17 12 18 25 19 24 20 13 21 22 22 14 23
REMARK SMILES IDX 16 24 21 25 23 26 15 27 17 28 20 29 18 30 19 31
REMARK H PARENT
REMARK Flexibility Score: inf
ROOT
ATOM      1  C   UNL     1      -4.360  -4.468  15.196  1.00  0.00     0.004 C 
ENDROOT
BRANCH   1   2
ATOM      2  C   UNL     1      -4.926  -5.288  14.002  1.00  0.00    -0.009 C 
BRANCH   2   3
ATOM      3  C   UNL     1      -6.480  -5.275  14.056  1.00  0.00     0.000 C 
ATOM      4  C   UNL     1      -7.120  -6.663  14.105  1.00  0.00     0.004 C 
ENDBRANCH   2   3
BRANCH   2   5
ATOM      5  C   UNL     1      -4.301  -4.788  12.648  1.00  0.00    -0.014 C 
ATOM      6  C   UNL     1      -3.159  -5.690  12.154  1.00  0.00     0.007 C 
ATOM      7  C   UNL     1      -5.327  -4.543  11.529  1.00  0.00     0.007 C 
ENDBRANCH   2   5
ENDBRANCH   1   2
BRANCH   1   8
ATOM      8  C   UNL     1      -3.568  -3.224  14.732  1.00  0.00     0.004 C 
BRANCH   8   9
ATOM      9  C   UNL     1      -3.560  -2.051  15.753  1.00  0.00    -0.011 C 
ATOM     10  C   UNL     1      -4.532  -2.359  16.908  1.00  0.00     0.008 C 
BRANCH   9  11
ATOM     11  C   UNL     1      -2.116  -1.685  16.251  1.00  0.00    -0.002 C 
ATOM     12  C   UNL     1      -1.288  -0.985  15.155  1.00  0.00     0.005 C 
ATOM     13  C   UNL     1      -1.979  -0.754  17.500  1.00  0.00    -0.026 C 
ATOM     14  C   UNL     1      -0.315  -0.041  15.854  1.00  0.00     0.005 C 
ATOM     15  C   UNL     1      -0.528  -0.235  17.360  1.00  0.00    -0.001 C 
ATOM     16  C   UNL     1      -2.981   0.435  17.440  1.00  0.00     0.007 C 
ATOM     17  C   UNL     1      -2.127  -1.545  18.828  1.00  0.00     0.012 C 
ATOM     18  C   UNL     1      -0.175   0.999  18.251  1.00  0.00     0.004 C 
ATOM     19  C   UNL     1      -2.644   1.550  18.431  1.00  0.00     0.005 C 
ATOM     20  C   UNL     1      -1.234   2.140  18.176  1.00  0.00     0.003 C 
ATOM     21  C   UNL     1       1.235   1.518  17.922  1.00  0.00     0.085 C 
ATOM     22  C   UNL     1      -0.897   3.362  19.129  1.00  0.00    -0.000 C 
ATOM     23  C   UNL     1       1.588   2.705  18.753  1.00  0.00     0.159 C 
ATOM     24  C   UNL     1       0.578   3.758  18.990  1.00  0.00     0.005 C 
ATOM     25  C   UNL     1      -1.793   4.581  18.730  1.00  0.00     0.020 C 
ATOM     26  C   UNL     1      -1.145   3.012  20.621  1.00  0.00     0.017 C 
ATOM     27  O   UNL     1       2.769   2.840  19.174  1.00  0.00    -0.295 OA
ATOM     28  C   UNL     1       0.989   5.026  19.189  1.00  0.00     0.055 C 
ATOM     29  C   UNL     1      -1.431   5.870  19.479  1.00  0.00     0.081 C 
ATOM     30  C   UNL     1       0.043   6.123  19.432  1.00  0.00     0.156 C 
ATOM     31  O   UNL     1       0.480   7.285  19.640  1.00  0.00    -0.295 OA
ENDBRANCH   9  11
ENDBRANCH   8   9
ENDBRANCH   1   8
TORSDOF 6
ENDMDL
