MODEL 1
REMARK VINA RESULT:    -3.911      0.000      0.000
REMARK INTER + INTRA:          -5.457
REMARK INTER:                  -5.283
REMARK INTRA:                  -0.174
REMARK UNBOUND:                -0.174
REMARK SMILES CCCCCCCC(=O)[O-]
REMARK SMILES IDX 5 1 6 2 7 3 8 4 9 5 10 6 4 7 3 8 2 9 1 10
REMARK H PARENT
REMARK Flexibility Score: inf
ROOT
ATOM      1  C   UNL     1      -4.473  -2.658   5.110  1.00  0.00     0.000 C 
ENDROOT
BRANCH   1   2
ATOM      2  C   UNL     1      -5.105  -3.507   3.988  1.00  0.00     0.006 C 
BRANCH   2   3
ATOM      3  C   UNL     1      -4.997  -2.892   2.584  1.00  0.00     0.053 C 
BRANCH   3   4
ATOM      4  C   UNL     1      -4.880  -3.940   1.520  1.00  0.00     0.041 C 
ATOM      5  O   UNL     1      -5.063  -5.153   1.803  1.00  0.00    -0.550 OA
ATOM      6  O   UNL     1      -4.534  -3.581   0.223  1.00  0.00    -0.550 OA
ENDBRANCH   3   4
ENDBRANCH   2   3
ENDBRANCH   1   2
BRANCH   1   7
ATOM      7  C   UNL     1      -3.776  -1.369   4.639  1.00  0.00     0.000 C 
BRANCH   7   8
ATOM      8  C   UNL     1      -3.084  -0.611   5.781  1.00  0.00    -0.000 C 
BRANCH   8   9
ATOM      9  C   UNL     1      -2.083   0.412   5.232  1.00  0.00    -0.003 C 
ATOM     10  C   UNL     1      -0.649   0.025   5.584  1.00  0.00     0.004 C 
ENDBRANCH   8   9
ENDBRANCH   7   8
ENDBRANCH   1   7
TORSDOF 6
ENDMDL
MODEL 2
REMARK VINA RESULT:    -3.831      0.626      1.259
REMARK INTER + INTRA:          -5.349
REMARK INTER:                  -5.141
REMARK INTRA:                  -0.208
REMARK UNBOUND:                -0.174
REMARK SMILES CCCCCCCC(=O)[O-]
REMARK SMILES IDX 5 1 6 2 7 3 8 4 9 5 10 6 4 7 3 8 2 9 1 10
REMARK H PARENT
REMARK Flexibility Score: inf
ROOT
ATOM      1  C   UNL     1      -4.128  -1.748   4.310  1.00  0.00     0.000 C 
ENDROOT
BRANCH   1   2
ATOM      2  C   UNL     1      -4.857  -2.930   3.638  1.00  0.00     0.006 C 
BRANCH   2   3
ATOM      3  C   UNL     1      -5.190  -2.714   2.153  1.00  0.00     0.053 C 
BRANCH   3   4
ATOM      4  C   UNL     1      -4.911  -3.936   1.333  1.00  0.00     0.041 C 
ATOM      5  O   UNL     1      -4.484  -3.824   0.154  1.00  0.00    -0.550 OA
ATOM      6  O   UNL     1      -5.156  -5.199   1.858  1.00  0.00    -0.550 OA
ENDBRANCH   3   4
ENDBRANCH   2   3
ENDBRANCH   1   2
BRANCH   1   7
ATOM      7  C   UNL     1      -4.054  -1.816   5.846  1.00  0.00     0.000 C 
BRANCH   7   8
ATOM      8  C   UNL     1      -2.920  -0.962   6.429  1.00  0.00    -0.000 C 
BRANCH   8   9
ATOM      9  C   UNL     1      -2.542   0.175   5.473  1.00  0.00    -0.003 C 
ATOM     10  C   UNL     1      -1.042   0.185   5.192  1.00  0.00     0.004 C 
ENDBRANCH   8   9
ENDBRANCH   7   8
ENDBRANCH   1   7
TORSDOF 6
ENDMDL
MODEL 3
REMARK VINA RESULT:    -3.817      2.782      4.398
REMARK INTER + INTRA:          -5.330
REMARK INTER:                  -5.042
REMARK INTRA:                  -0.289
REMARK UNBOUND:                -0.174
REMARK SMILES CCCCCCCC(=O)[O-]
REMARK SMILES IDX 5 1 6 2 7 3 8 4 9 5 10 6 4 7 3 8 2 9 1 10
REMARK H PARENT
REMARK Flexibility Score: inf
ROOT
ATOM      1  C   UNL     1      -4.850  -3.557   0.416  1.00  0.00     0.000 C 
ENDROOT
BRANCH   1   2
ATOM      2  C   UNL     1      -5.047  -5.083   0.304  1.00  0.00     0.006 C 
BRANCH   2   3
ATOM      3  C   UNL     1      -6.254  -5.510  -0.547  1.00  0.00     0.053 C 
BRANCH   3   4
ATOM      4  C   UNL     1      -5.989  -5.359  -2.013  1.00  0.00     0.041 C 
ATOM      5  O   UNL     1      -6.497  -4.402  -2.654  1.00  0.00    -0.550 OA
ATOM      6  O   UNL     1      -5.207  -6.295  -2.679  1.00  0.00    -0.550 OA
ENDBRANCH   3   4
ENDBRANCH   2   3
ENDBRANCH   1   2
BRANCH   1   7
ATOM      7  C   UNL     1      -4.983  -2.985   1.839  1.00  0.00     0.000 C 
BRANCH   7   8
ATOM      8  C   UNL     1      -5.169  -4.074   2.906  1.00  0.00    -0.000 C 
BRANCH   8   9
ATOM      9  C   UNL     1      -5.037  -3.487   4.316  1.00  0.00    -0.003 C 
ATOM     10  C   UNL     1      -4.429  -2.087   4.277  1.00  0.00     0.004 C 
ENDBRANCH   8   9
ENDBRANCH   7   8
ENDBRANCH   1   7
TORSDOF 6
ENDMDL
MODEL 4
REMARK VINA RESULT:    -3.707      3.497      5.236
REMARK INTER + INTRA:          -5.182
REMARK INTER:                  -5.018
REMARK INTRA:                  -0.164
REMARK UNBOUND:                -0.174
REMARK SMILES CCCCCCCC(=O)[O-]
REMARK SMILES IDX 5 1 6 2 7 3 8 4 9 5 10 6 4 7 3 8 2 9 1 10
REMARK H PARENT
REMARK Flexibility Score: inf
ROOT
ATOM      1  C   UNL     1      -5.191  -5.271  -0.103  1.00  0.00     0.000 C 
ENDROOT
BRANCH   1   2
ATOM      2  C   UNL     1      -6.717  -5.422  -0.276  1.00  0.00     0.006 C 
BRANCH   2   3
ATOM      3  C   UNL     1      -7.157  -5.911  -1.665  1.00  0.00     0.053 C 
BRANCH   3   4
ATOM      4  C   UNL     1      -6.187  -5.512  -2.733  1.00  0.00     0.041 C 
ATOM      5  O   UNL     1      -6.277  -4.382  -3.280  1.00  0.00    -0.550 OA
ATOM      6  O   UNL     1      -5.203  -6.400  -3.149  1.00  0.00    -0.550 OA
ENDBRANCH   3   4
ENDBRANCH   2   3
ENDBRANCH   1   2
BRANCH   1   7
ATOM      7  C   UNL     1      -4.753  -4.243   0.956  1.00  0.00     0.000 C 
BRANCH   7   8
ATOM      8  C   UNL     1      -5.354  -4.519   2.342  1.00  0.00    -0.000 C 
BRANCH   8   9
ATOM      9  C   UNL     1      -5.121  -3.334   3.286  1.00  0.00    -0.003 C 
ATOM     10  C   UNL     1      -4.830  -2.056   2.505  1.00  0.00     0.004 C 
ENDBRANCH   8   9
ENDBRANCH   7   8
ENDBRANCH   1   7
TORSDOF 6
ENDMDL
MODEL 5
REMARK VINA RESULT:    -3.660      3.644      5.698
REMARK INTER + INTRA:          -5.119
REMARK INTER:                  -4.704
REMARK INTRA:                  -0.415
REMARK UNBOUND:                -0.174
REMARK SMILES CCCCCCCC(=O)[O-]
REMARK SMILES IDX 5 1 6 2 7 3 8 4 9 5 10 6 4 7 3 8 2 9 1 10
REMARK H PARENT
REMARK Flexibility Score: inf
ROOT
ATOM      1  C   UNL     1      -5.287  -3.559   2.856  1.00  0.00     0.000 C 
ENDROOT
BRANCH   1   2
ATOM      2  C   UNL     1      -4.973  -2.413   1.873  1.00  0.00     0.006 C 
BRANCH   2   3
ATOM      3  C   UNL     1      -6.156  -1.474   1.588  1.00  0.00     0.053 C 
BRANCH   3   4
ATOM      4  C   UNL     1      -6.152  -0.981   0.174  1.00  0.00     0.041 C 
ATOM      5  O   UNL     1      -6.523   0.193  -0.089  1.00  0.00    -0.550 OA
ATOM      6  O   UNL     1      -5.770  -1.829  -0.859  1.00  0.00    -0.550 OA
ENDBRANCH   3   4
ENDBRANCH   2   3
ENDBRANCH   1   2
BRANCH   1   7
ATOM      7  C   UNL     1      -5.303  -4.967   2.233  1.00  0.00     0.000 C 
BRANCH   7   8
ATOM      8  C   UNL     1      -4.946  -4.964   0.740  1.00  0.00    -0.000 C 
BRANCH   8   9
ATOM      9  C   UNL     1      -6.158  -5.355  -0.114  1.00  0.00    -0.003 C 
ATOM     10  C   UNL     1      -5.762  -5.559  -1.573  1.00  0.00     0.004 C 
ENDBRANCH   8   9
ENDBRANCH   7   8
ENDBRANCH   1   7
TORSDOF 6
ENDMDL
MODEL 6
REMARK VINA RESULT:    -3.609      3.072      4.496
REMARK INTER + INTRA:          -5.049
REMARK INTER:                  -4.861
REMARK INTRA:                  -0.188
REMARK UNBOUND:                -0.174
REMARK SMILES CCCCCCCC(=O)[O-]
REMARK SMILES IDX 5 1 6 2 7 3 8 4 9 5 10 6 4 7 3 8 2 9 1 10
REMARK H PARENT
REMARK Flexibility Score: inf
ROOT
ATOM      1  C   UNL     1      -4.792  -4.811   1.122  1.00  0.00     0.000 C 
ENDROOT
BRANCH   1   2
ATOM      2  C   UNL     1      -5.342  -4.479  -0.280  1.00  0.00     0.006 C 
BRANCH   2   3
ATOM      3  C   UNL     1      -6.161  -5.606  -0.928  1.00  0.00     0.053 C 
BRANCH   3   4
ATOM      4  C   UNL     1      -6.008  -5.626  -2.418  1.00  0.00     0.041 C 
ATOM      5  O   UNL     1      -5.171  -6.396  -2.958  1.00  0.00    -0.550 OA
ATOM      6  O   UNL     1      -6.764  -4.768  -3.208  1.00  0.00    -0.550 OA
ENDBRANCH   3   4
ENDBRANCH   2   3
ENDBRANCH   1   2
BRANCH   1   7
ATOM      7  C   UNL     1      -5.461  -4.052   2.282  1.00  0.00     0.000 C 
BRANCH   7   8
ATOM      8  C   UNL     1      -5.035  -2.579   2.358  1.00  0.00    -0.000 C 
BRANCH   8   9
ATOM      9  C   UNL     1      -4.536  -2.224   3.763  1.00  0.00    -0.003 C 
ATOM     10  C   UNL     1      -4.743  -3.385   4.732  1.00  0.00     0.004 C 
ENDBRANCH   8   9
ENDBRANCH   7   8
ENDBRANCH   1   7
TORSDOF 6
ENDMDL
MODEL 7
REMARK VINA RESULT:    -3.556      4.531      6.397
REMARK INTER + INTRA:          -4.978
REMARK INTER:                  -4.749
REMARK INTRA:                  -0.229
REMARK UNBOUND:                -0.174
REMARK SMILES CCCCCCCC(=O)[O-]
REMARK SMILES IDX 5 1 6 2 7 3 8 4 9 5 10 6 4 7 3 8 2 9 1 10
REMARK H PARENT
REMARK Flexibility Score: inf
ROOT
ATOM      1  C   UNL     1       0.924  -1.096   6.641  1.00  0.00     0.000 C 
ENDROOT
BRANCH   1   2
ATOM      2  C   UNL     1       1.314  -1.130   5.148  1.00  0.00     0.006 C 
BRANCH   2   3
ATOM      3  C   UNL     1       2.758  -1.579   4.875  1.00  0.00     0.053 C 
BRANCH   3   4
ATOM      4  C   UNL     1       3.095  -1.524   3.417  1.00  0.00     0.041 C 
ATOM      5  O   UNL     1       2.413  -2.176   2.584  1.00  0.00    -0.550 OA
ATOM      6  O   UNL     1       4.184  -0.780   2.980  1.00  0.00    -0.550 OA
ENDBRANCH   3   4
ENDBRANCH   2   3
ENDBRANCH   1   2
BRANCH   1   7
ATOM      7  C   UNL     1      -0.478  -0.533   6.936  1.00  0.00     0.000 C 
BRANCH   7   8
ATOM      8  C   UNL     1      -0.865   0.627   6.009  1.00  0.00    -0.000 C 
BRANCH   8   9
ATOM      9  C   UNL     1      -2.036   0.236   5.101  1.00  0.00    -0.003 C 
ATOM     10  C   UNL     1      -3.183  -0.366   5.908  1.00  0.00     0.004 C 
ENDBRANCH   8   9
ENDBRANCH   7   8
ENDBRANCH   1   7
TORSDOF 6
ENDMDL
MODEL 8
REMARK VINA RESULT:    -3.511      3.203      6.207
REMARK INTER + INTRA:          -4.917
REMARK INTER:                  -4.637
REMARK INTRA:                  -0.280
REMARK UNBOUND:                -0.174
REMARK SMILES CCCCCCCC(=O)[O-]
REMARK SMILES IDX 5 1 6 2 7 3 8 4 9 5 10 6 4 7 3 8 2 9 1 10
REMARK H PARENT
REMARK Flexibility Score: inf
ROOT
ATOM      1  C   UNL     1      -4.799  -3.362   0.518  1.00  0.00     0.000 C 
ENDROOT
BRANCH   1   2
ATOM      2  C   UNL     1      -4.851  -2.686   1.904  1.00  0.00     0.006 C 
BRANCH   2   3
ATOM      3  C   UNL     1      -5.251  -3.621   3.056  1.00  0.00     0.053 C 
BRANCH   3   4
ATOM      4  C   UNL     1      -4.732  -3.137   4.375  1.00  0.00     0.041 C 
ATOM      5  O   UNL     1      -4.226  -1.989   4.475  1.00  0.00    -0.550 OA
ATOM      6  O   UNL     1      -4.776  -3.968   5.488  1.00  0.00    -0.550 OA
ENDBRANCH   3   4
ENDBRANCH   2   3
ENDBRANCH   1   2
BRANCH   1   7
ATOM      7  C   UNL     1      -5.019  -4.886   0.528  1.00  0.00     0.000 C 
BRANCH   7   8
ATOM      8  C   UNL     1      -5.535  -5.424  -0.814  1.00  0.00    -0.000 C 
BRANCH   8   9
ATOM      9  C   UNL     1      -7.053  -5.631  -0.775  1.00  0.00    -0.003 C 
ATOM     10  C   UNL     1      -7.606  -5.395   0.628  1.00  0.00     0.004 C 
ENDBRANCH   8   9
ENDBRANCH   7   8
ENDBRANCH   1   7
TORSDOF 6
ENDMDL
MODEL 9
REMARK VINA RESULT:    -3.410      3.751      5.756
REMARK INTER + INTRA:          -4.780
REMARK INTER:                  -4.620
REMARK INTRA:                  -0.160
REMARK UNBOUND:                -0.174
REMARK SMILES CCCCCCCC(=O)[O-]
REMARK SMILES IDX 5 1 6 2 7 3 8 4 9 5 10 6 4 7 3 8 2 9 1 10
REMARK H PARENT
REMARK Flexibility Score: inf
ROOT
ATOM      1  C   UNL     1      -3.973  -1.701   5.725  1.00  0.00     0.000 C 
ENDROOT
BRANCH   1   2
ATOM      2  C   UNL     1      -3.140  -0.602   6.416  1.00  0.00     0.006 C 
BRANCH   2   3
ATOM      3  C   UNL     1      -2.236   0.205   5.470  1.00  0.00     0.053 C 
BRANCH   3   4
ATOM      4  C   UNL     1      -0.795   0.129   5.871  1.00  0.00     0.041 C 
ATOM      5  O   UNL     1       0.064  -0.315   5.065  1.00  0.00    -0.550 OA
ATOM      6  O   UNL     1      -0.405   0.516   7.148  1.00  0.00    -0.550 OA
ENDBRANCH   3   4
ENDBRANCH   2   3
ENDBRANCH   1   2
BRANCH   1   7
ATOM      7  C   UNL     1      -4.117  -1.547   4.200  1.00  0.00     0.000 C 
BRANCH   7   8
ATOM      8  C   UNL     1      -4.827  -2.740   3.543  1.00  0.00    -0.000 C 
BRANCH   8   9
ATOM      9  C   UNL     1      -4.978  -2.523   2.033  1.00  0.00    -0.003 C 
ATOM     10  C   UNL     1      -4.899  -3.846   1.275  1.00  0.00     0.004 C 
ENDBRANCH   8   9
ENDBRANCH   7   8
ENDBRANCH   1   7
TORSDOF 6
ENDMDL
