MODEL 1
REMARK VINA RESULT:    -5.062      0.000      0.000
REMARK INTER + INTRA:          -5.626
REMARK INTER:                  -5.506
REMARK INTRA:                  -0.120
REMARK UNBOUND:                -0.120
REMARK SMILES CC(C)(C)[C@@H]1C=C[C@H](O)CC1
REMARK SMILES IDX 5 1 11 2 10 3 8 4 7 5 6 6 2 7 1 8 3 9 4 10 9 11
REMARK H PARENT 9 12
REMARK Flexibility Score: inf
ROOT
ATOM      1  C   UNL     1     124.771 117.936 114.863  1.00  0.00     0.017 C 
ATOM      2  C   UNL     1     124.636 116.449 115.316  1.00  0.00     0.011 C 
ATOM      3  C   UNL     1     123.451 116.207 116.258  1.00  0.00     0.037 C 
ATOM      4  C   UNL     1     122.144 116.644 115.597  1.00  0.00     0.137 C 
ATOM      5  C   UNL     1     122.246 118.053 115.075  1.00  0.00     0.000 C 
ATOM      6  C   UNL     1     123.409 118.604 114.694  1.00  0.00    -0.025 C 
ENDROOT
BRANCH   1   7
ATOM      7  C   UNL     1     125.782 118.805 115.716  1.00  0.00    -0.032 C 
ATOM      8  C   UNL     1     127.245 118.418 115.383  1.00  0.00     0.011 C 
ATOM      9  C   UNL     1     125.627 120.309 115.372  1.00  0.00     0.011 C 
ATOM     10  C   UNL     1     125.554 118.632 117.232  1.00  0.00     0.011 C 
ENDBRANCH   1   7
BRANCH   4  11
ATOM     11  O   UNL     1     121.104 116.556 116.534  1.00  0.00    -0.389 OA
ATOM     12  H   UNL     1     120.408 117.207 116.254  1.00  0.00     0.211 HD
ENDBRANCH   4  11
TORSDOF 2
ENDMDL
MODEL 2
REMARK VINA RESULT:    -4.609     15.294     16.858
REMARK INTER + INTRA:          -5.133
REMARK INTER:                  -4.851
REMARK INTRA:                  -0.282
REMARK UNBOUND:                -0.120
REMARK SMILES CC(C)(C)[C@@H]1C=C[C@H](O)CC1
REMARK SMILES IDX 5 1 11 2 10 3 8 4 7 5 6 6 2 7 1 8 3 9 4 10 9 11
REMARK H PARENT 9 12
REMARK Flexibility Score: inf
ROOT
ATOM      1  C   UNL     1     113.163 116.530 127.057  1.00  0.00     0.017 C 
ATOM      2  C   UNL     1     114.279 117.210 127.909  1.00  0.00     0.011 C 
ATOM      3  C   UNL     1     113.733 118.004 129.102  1.00  0.00     0.037 C 
ATOM      4  C   UNL     1     112.898 117.102 130.009  1.00  0.00     0.137 C 
ATOM      5  C   UNL     1     111.848 116.364 129.220  1.00  0.00     0.000 C 
ATOM      6  C   UNL     1     111.996 116.059 127.920  1.00  0.00    -0.025 C 
ENDROOT
BRANCH   1   7
ATOM      7  C   UNL     1     112.698 117.353 125.788  1.00  0.00    -0.032 C 
ATOM      8  C   UNL     1     113.899 118.103 125.158  1.00  0.00     0.011 C 
ATOM      9  C   UNL     1     112.144 116.400 124.698  1.00  0.00     0.011 C 
ATOM     10  C   UNL     1     111.599 118.378 126.136  1.00  0.00     0.011 C 
ENDBRANCH   1   7
BRANCH   4  11
ATOM     11  O   UNL     1     112.286 117.885 130.999  1.00  0.00    -0.389 OA
ATOM     12  H   UNL     1     112.430 118.834 130.745  1.00  0.00     0.211 HD
ENDBRANCH   4  11
TORSDOF 2
ENDMDL
MODEL 3
REMARK VINA RESULT:    -4.587     15.858     17.374
REMARK INTER + INTRA:          -5.109
REMARK INTER:                  -4.827
REMARK INTRA:                  -0.282
REMARK UNBOUND:                -0.120
REMARK SMILES CC(C)(C)[C@@H]1C=C[C@H](O)CC1
REMARK SMILES IDX 5 1 11 2 10 3 8 4 7 5 6 6 2 7 1 8 3 9 4 10 9 11
REMARK H PARENT 9 12
REMARK Flexibility Score: inf
ROOT
ATOM      1  C   UNL     1     112.726 116.222 128.674  1.00  0.00     0.017 C 
ATOM      2  C   UNL     1     111.301 116.803 128.420  1.00  0.00     0.011 C 
ATOM      3  C   UNL     1     111.302 118.043 127.518  1.00  0.00     0.037 C 
ATOM      4  C   UNL     1     111.954 117.725 126.173  1.00  0.00     0.137 C 
ATOM      5  C   UNL     1     113.307 117.092 126.362  1.00  0.00     0.000 C 
ATOM      6  C   UNL     1     113.627 116.374 127.451  1.00  0.00    -0.025 C 
ENDROOT
BRANCH   1   7
ATOM      7  C   UNL     1     113.417 116.707 130.012  1.00  0.00    -0.032 C 
ATOM      8  C   UNL     1     112.351 117.184 131.031  1.00  0.00     0.011 C 
ATOM      9  C   UNL     1     114.184 115.537 130.680  1.00  0.00     0.011 C 
ATOM     10  C   UNL     1     114.415 117.857 129.762  1.00  0.00     0.011 C 
ENDBRANCH   1   7
BRANCH   4  11
ATOM     11  O   UNL     1     112.081 118.910 125.432  1.00  0.00    -0.389 OA
ATOM     12  H   UNL     1     112.272 119.636 126.082  1.00  0.00     0.211 HD
ENDBRANCH   4  11
TORSDOF 2
ENDMDL
MODEL 4
REMARK VINA RESULT:    -4.436      1.558      2.308
REMARK INTER + INTRA:          -4.945
REMARK INTER:                  -4.704
REMARK INTRA:                  -0.241
REMARK UNBOUND:                -0.120
REMARK SMILES CC(C)(C)[C@@H]1C=C[C@H](O)CC1
REMARK SMILES IDX 5 1 11 2 10 3 8 4 7 5 6 6 2 7 1 8 3 9 4 10 9 11
REMARK H PARENT 9 12
REMARK Flexibility Score: inf
ROOT
ATOM      1  C   UNL     1     123.815 116.843 116.327  1.00  0.00     0.017 C 
ATOM      2  C   UNL     1     123.761 117.089 117.867  1.00  0.00     0.011 C 
ATOM      3  C   UNL     1     122.433 117.693 118.339  1.00  0.00     0.037 C 
ATOM      4  C   UNL     1     121.264 116.793 117.941  1.00  0.00     0.137 C 
ATOM      5  C   UNL     1     121.311 116.463 116.472  1.00  0.00     0.000 C 
ATOM      6  C   UNL     1     122.455 116.428 115.771  1.00  0.00    -0.025 C 
ENDROOT
BRANCH   1   7
ATOM      7  C   UNL     1     124.498 117.998 115.489  1.00  0.00    -0.032 C 
ATOM      8  C   UNL     1     125.545 117.410 114.509  1.00  0.00     0.011 C 
ATOM      9  C   UNL     1     123.443 118.738 114.627  1.00  0.00     0.011 C 
ATOM     10  C   UNL     1     125.192 119.035 116.396  1.00  0.00     0.011 C 
ENDBRANCH   1   7
BRANCH   4  11
ATOM     11  O   UNL     1     120.059 117.443 118.246  1.00  0.00    -0.389 OA
ATOM     12  H   UNL     1     120.142 117.783 119.175  1.00  0.00     0.211 HD
ENDBRANCH   4  11
TORSDOF 2
ENDMDL
MODEL 5
REMARK VINA RESULT:    -4.423     13.645     15.220
REMARK INTER + INTRA:          -4.930
REMARK INTER:                  -4.647
REMARK INTRA:                  -0.283
REMARK UNBOUND:                -0.120
REMARK SMILES CC(C)(C)[C@@H]1C=C[C@H](O)CC1
REMARK SMILES IDX 5 1 11 2 10 3 8 4 7 5 6 6 2 7 1 8 3 9 4 10 9 11
REMARK H PARENT 9 12
REMARK Flexibility Score: inf
ROOT
ATOM      1  C   UNL     1     112.013 117.632 125.351  1.00  0.00     0.017 C 
ATOM      2  C   UNL     1     111.219 118.974 125.413  1.00  0.00     0.011 C 
ATOM      3  C   UNL     1     111.348 119.814 124.136  1.00  0.00     0.037 C 
ATOM      4  C   UNL     1     110.878 119.017 122.921  1.00  0.00     0.137 C 
ATOM      5  C   UNL     1     111.563 117.677 122.855  1.00  0.00     0.000 C 
ATOM      6  C   UNL     1     112.013 117.036 123.946  1.00  0.00    -0.025 C 
ENDROOT
BRANCH   1   7
ATOM      7  C   UNL     1     113.455 117.679 126.001  1.00  0.00    -0.032 C 
ATOM      8  C   UNL     1     113.545 118.828 127.037  1.00  0.00     0.011 C 
ATOM      9  C   UNL     1     113.746 116.362 126.766  1.00  0.00     0.011 C 
ATOM     10  C   UNL     1     114.559 117.875 124.942  1.00  0.00     0.011 C 
ENDBRANCH   1   7
BRANCH   4  11
ATOM     11  O   UNL     1     111.153 119.750 121.756  1.00  0.00    -0.389 OA
ATOM     12  H   UNL     1     110.335 120.272 121.545  1.00  0.00     0.211 HD
ENDBRANCH   4  11
TORSDOF 2
ENDMDL
MODEL 6
REMARK VINA RESULT:    -4.317     12.659     13.737
REMARK INTER + INTRA:          -4.816
REMARK INTER:                  -4.555
REMARK INTRA:                  -0.260
REMARK UNBOUND:                -0.120
REMARK SMILES CC(C)(C)[C@@H]1C=C[C@H](O)CC1
REMARK SMILES IDX 5 1 11 2 10 3 8 4 7 5 6 6 2 7 1 8 3 9 4 10 9 11
REMARK H PARENT 9 12
REMARK Flexibility Score: inf
ROOT
ATOM      1  C   UNL     1     116.419 123.441 123.990  1.00  0.00     0.017 C 
ATOM      2  C   UNL     1     115.186 123.961 124.791  1.00  0.00     0.011 C 
ATOM      3  C   UNL     1     115.506 124.285 126.256  1.00  0.00     0.037 C 
ATOM      4  C   UNL     1     116.626 125.321 126.341  1.00  0.00     0.137 C 
ATOM      5  C   UNL     1     117.818 124.901 125.522  1.00  0.00     0.000 C 
ATOM      6  C   UNL     1     117.714 124.112 124.440  1.00  0.00    -0.025 C 
ENDROOT
BRANCH   1   7
ATOM      7  C   UNL     1     116.540 121.866 123.898  1.00  0.00    -0.032 C 
ATOM      8  C   UNL     1     117.222 121.300 125.169  1.00  0.00     0.011 C 
ATOM      9  C   UNL     1     115.133 121.218 123.819  1.00  0.00     0.011 C 
ATOM     10  C   UNL     1     117.346 121.421 122.660  1.00  0.00     0.011 C 
ENDBRANCH   1   7
BRANCH   4  11
ATOM     11  O   UNL     1     117.003 125.481 127.684  1.00  0.00    -0.389 OA
ATOM     12  H   UNL     1     116.858 126.436 127.912  1.00  0.00     0.211 HD
ENDBRANCH   4  11
TORSDOF 2
ENDMDL
MODEL 7
REMARK VINA RESULT:    -4.282     15.505     16.991
REMARK INTER + INTRA:          -4.777
REMARK INTER:                  -4.526
REMARK INTRA:                  -0.251
REMARK UNBOUND:                -0.120
REMARK SMILES CC(C)(C)[C@@H]1C=C[C@H](O)CC1
REMARK SMILES IDX 5 1 11 2 10 3 8 4 7 5 6 6 2 7 1 8 3 9 4 10 9 11
REMARK H PARENT 9 12
REMARK Flexibility Score: inf
ROOT
ATOM      1  C   UNL     1     112.356 118.451 127.806  1.00  0.00     0.017 C 
ATOM      2  C   UNL     1     111.351 117.300 128.120  1.00  0.00     0.011 C 
ATOM      3  C   UNL     1     112.025 116.041 128.680  1.00  0.00     0.037 C 
ATOM      4  C   UNL     1     112.808 116.373 129.949  1.00  0.00     0.137 C 
ATOM      5  C   UNL     1     113.744 117.530 129.720  1.00  0.00     0.000 C 
ATOM      6  C   UNL     1     113.509 118.486 128.806  1.00  0.00    -0.025 C 
ENDROOT
BRANCH   1   7
ATOM      7  C   UNL     1     112.842 118.522 126.302  1.00  0.00    -0.032 C 
ATOM      8  C   UNL     1     112.778 119.980 125.781  1.00  0.00     0.011 C 
ATOM      9  C   UNL     1     114.322 118.071 126.189  1.00  0.00     0.011 C 
ATOM     10  C   UNL     1     111.993 117.625 125.379  1.00  0.00     0.011 C 
ENDBRANCH   1   7
BRANCH   4  11
ATOM     11  O   UNL     1     113.536 115.242 130.348  1.00  0.00    -0.389 OA
ATOM     12  H   UNL     1     114.388 115.572 130.738  1.00  0.00     0.211 HD
ENDBRANCH   4  11
TORSDOF 2
ENDMDL
MODEL 8
REMARK VINA RESULT:    -4.278     15.241     16.811
REMARK INTER + INTRA:          -4.773
REMARK INTER:                  -4.505
REMARK INTRA:                  -0.268
REMARK UNBOUND:                -0.120
REMARK SMILES CC(C)(C)[C@@H]1C=C[C@H](O)CC1
REMARK SMILES IDX 5 1 11 2 10 3 8 4 7 5 6 6 2 7 1 8 3 9 4 10 9 11
REMARK H PARENT 9 12
REMARK Flexibility Score: inf
ROOT
ATOM      1  C   UNL     1     112.067 117.486 127.226  1.00  0.00     0.017 C 
ATOM      2  C   UNL     1     111.782 116.261 128.149  1.00  0.00     0.011 C 
ATOM      3  C   UNL     1     112.922 115.962 129.130  1.00  0.00     0.037 C 
ATOM      4  C   UNL     1     113.211 117.183 130.002  1.00  0.00     0.137 C 
ATOM      5  C   UNL     1     113.423 118.413 129.159  1.00  0.00     0.000 C 
ATOM      6  C   UNL     1     112.862 118.570 127.949  1.00  0.00    -0.025 C 
ENDROOT
BRANCH   1   7
ATOM      7  C   UNL     1     112.664 117.128 125.805  1.00  0.00    -0.032 C 
ATOM      8  C   UNL     1     112.446 115.626 125.488  1.00  0.00     0.011 C 
ATOM      9  C   UNL     1     111.939 117.930 124.694  1.00  0.00     0.011 C 
ATOM     10  C   UNL     1     114.173 117.440 125.718  1.00  0.00     0.011 C 
ENDBRANCH   1   7
BRANCH   4  11
ATOM     11  O   UNL     1     114.355 116.934 130.777  1.00  0.00    -0.389 OA
ATOM     12  H   UNL     1     114.730 117.818 131.028  1.00  0.00     0.211 HD
ENDBRANCH   4  11
TORSDOF 2
ENDMDL
MODEL 9
REMARK VINA RESULT:    -4.275     14.660     15.828
REMARK INTER + INTRA:          -4.770
REMARK INTER:                  -4.483
REMARK INTRA:                  -0.287
REMARK UNBOUND:                -0.120
REMARK SMILES CC(C)(C)[C@@H]1C=C[C@H](O)CC1
REMARK SMILES IDX 5 1 11 2 10 3 8 4 7 5 6 6 2 7 1 8 3 9 4 10 9 11
REMARK H PARENT 9 12
REMARK Flexibility Score: inf
ROOT
ATOM      1  C   UNL     1     111.986 117.474 126.726  1.00  0.00     0.017 C 
ATOM      2  C   UNL     1     111.541 118.338 125.506  1.00  0.00     0.011 C 
ATOM      3  C   UNL     1     112.310 118.014 124.219  1.00  0.00     0.037 C 
ATOM      4  C   UNL     1     112.155 116.536 123.862  1.00  0.00     0.137 C 
ATOM      5  C   UNL     1     112.504 115.656 125.033  1.00  0.00     0.000 C 
ATOM      6  C   UNL     1     112.370 116.057 126.308  1.00  0.00    -0.025 C 
ENDROOT
BRANCH   1   7
ATOM      7  C   UNL     1     113.062 118.152 127.668  1.00  0.00    -0.032 C 
ATOM      8  C   UNL     1     112.874 119.690 127.686  1.00  0.00     0.011 C 
ATOM      9  C   UNL     1     112.887 117.662 129.129  1.00  0.00     0.011 C 
ATOM     10  C   UNL     1     114.503 117.832 127.221  1.00  0.00     0.011 C 
ENDBRANCH   1   7
BRANCH   4  11
ATOM     11  O   UNL     1     112.991 116.236 122.775  1.00  0.00    -0.389 OA
ATOM     12  H   UNL     1     113.810 115.818 123.149  1.00  0.00     0.211 HD
ENDBRANCH   4  11
TORSDOF 2
ENDMDL
