MODEL 1
REMARK VINA RESULT:    -5.989      0.000      0.000
REMARK INTER + INTRA:          -8.535
REMARK INTER:                  -8.089
REMARK INTRA:                  -0.445
REMARK UNBOUND:                -0.445
REMARK SMILES COc1ccc(-c2cc(=O)c3c(OC)c(OC)c(OC)c(OC)c3o2)cc1
REMARK SMILES IDX 7 1 8 2 9 3 10 4 11 5 24 6 25 7 21 8 18 9 15 10 12 11 6 12
REMARK SMILES IDX 3 13 4 14 27 15 5 16 26 17 2 18 1 19 22 20 23 21 13 22 14 23
REMARK SMILES IDX 19 24 20 25 16 26 17 27
REMARK H PARENT
REMARK Flexibility Score: inf
ROOT
ATOM      1  C   UNL     1       9.466 -11.824 -24.589  1.00  0.00     0.138 A 
ATOM      2  C   UNL     1       9.850 -11.597 -23.261  1.00  0.00     0.100 A 
ATOM      3  C   UNL     1      10.148 -12.684 -22.440  1.00  0.00     0.197 A 
ATOM      4  O   UNL     1      10.464 -12.467 -21.239  1.00  0.00    -0.289 OA
ATOM      5  C   UNL     1      10.071 -13.995 -22.960  1.00  0.00     0.115 A 
ATOM      6  C   UNL     1       9.660 -14.142 -24.299  1.00  0.00     0.188 A 
ATOM      7  O   UNL     1       9.381 -13.072 -25.039  1.00  0.00    -0.452 OA
ATOM      8  C   UNL     1       9.545 -15.409 -24.883  1.00  0.00     0.209 A 
ATOM      9  C   UNL     1       9.803 -16.571 -24.111  1.00  0.00     0.211 A 
ATOM     10  C   UNL     1      10.198 -16.434 -22.753  1.00  0.00     0.208 A 
ATOM     11  C   UNL     1      10.388 -15.143 -22.204  1.00  0.00     0.179 A 
ENDROOT
BRANCH   1  12
ATOM     12  C   UNL     1       9.136 -10.707 -25.507  1.00  0.00     0.018 A 
ATOM     13  C   UNL     1       8.525  -8.618 -27.307  1.00  0.00     0.118 A 
ATOM     14  C   UNL     1       8.398  -9.953 -27.700  1.00  0.00     0.047 A 
ATOM     15  C   UNL     1       8.968  -8.328 -26.003  1.00  0.00     0.047 A 
ATOM     16  C   UNL     1       8.706 -10.989 -26.814  1.00  0.00     0.016 A 
ATOM     17  C   UNL     1       9.271  -9.363 -25.113  1.00  0.00     0.016 A 
BRANCH  13  18
ATOM     18  O   UNL     1       8.206  -7.615 -28.235  1.00  0.00    -0.497 OA
ATOM     19  C   UNL     1       8.220  -6.220 -27.948  1.00  0.00     0.278 C 
ENDBRANCH  13  18
ENDBRANCH   1  12
BRANCH   8  20
ATOM     20  O   UNL     1       9.159 -15.437 -26.239  1.00  0.00    -0.490 OA
ATOM     21  C   UNL     1       7.875 -15.759 -26.762  1.00  0.00     0.278 C 
ENDBRANCH   8  20
BRANCH  11  22
ATOM     22  O   UNL     1      10.926 -15.005 -20.922  1.00  0.00    -0.492 OA
ATOM     23  C   UNL     1      10.127 -15.223 -19.764  1.00  0.00     0.278 C 
ENDBRANCH  11  22
BRANCH   9  24
ATOM     24  O   UNL     1       9.640 -17.826 -24.730  1.00  0.00    -0.490 OA
ATOM     25  C   UNL     1      10.632 -18.609 -25.386  1.00  0.00     0.279 C 
ENDBRANCH   9  24
BRANCH  10  26
ATOM     26  O   UNL     1      10.398 -17.591 -21.979  1.00  0.00    -0.490 OA
ATOM     27  C   UNL     1       9.382 -18.503 -21.568  1.00  0.00     0.278 C 
ENDBRANCH  10  26
TORSDOF 6
ENDMDL
MODEL 2
REMARK VINA RESULT:    -5.425      4.690      8.580
REMARK INTER + INTRA:          -7.774
REMARK INTER:                  -7.104
REMARK INTRA:                  -0.670
REMARK UNBOUND:                -0.445
REMARK SMILES COc1ccc(-c2cc(=O)c3c(OC)c(OC)c(OC)c(OC)c3o2)cc1
REMARK SMILES IDX 7 1 8 2 9 3 10 4 11 5 24 6 25 7 21 8 18 9 15 10 12 11 6 12
REMARK SMILES IDX 3 13 4 14 27 15 5 16 26 17 2 18 1 19 22 20 23 21 13 22 14 23
REMARK SMILES IDX 19 24 20 25 16 26 17 27
REMARK H PARENT
REMARK Flexibility Score: inf
ROOT
ATOM      1  C   UNL     1      11.163 -16.993 -26.234  1.00  0.00     0.138 A 
ATOM      2  C   UNL     1      10.040 -17.138 -27.059  1.00  0.00     0.100 A 
ATOM      3  C   UNL     1      10.219 -17.428 -28.411  1.00  0.00     0.197 A 
ATOM      4  O   UNL     1       9.202 -17.527 -29.149  1.00  0.00    -0.289 OA
ATOM      5  C   UNL     1      11.525 -17.583 -28.927  1.00  0.00     0.115 A 
ATOM      6  C   UNL     1      12.603 -17.404 -28.038  1.00  0.00     0.188 A 
ATOM      7  O   UNL     1      12.379 -17.122 -26.757  1.00  0.00    -0.452 OA
ATOM      8  C   UNL     1      13.927 -17.527 -28.476  1.00  0.00     0.209 A 
ATOM      9  C   UNL     1      14.199 -17.794 -29.842  1.00  0.00     0.211 A 
ATOM     10  C   UNL     1      13.119 -17.955 -30.751  1.00  0.00     0.208 A 
ATOM     11  C   UNL     1      11.787 -17.909 -30.275  1.00  0.00     0.179 A 
ENDROOT
BRANCH   1  12
ATOM     12  C   UNL     1      11.035 -16.683 -24.789  1.00  0.00     0.018 A 
ATOM     13  C   UNL     1      10.770 -16.155 -22.027  1.00  0.00     0.118 A 
ATOM     14  C   UNL     1      11.104 -17.436 -22.476  1.00  0.00     0.047 A 
ATOM     15  C   UNL     1      10.561 -15.132 -22.971  1.00  0.00     0.047 A 
ATOM     16  C   UNL     1      11.229 -17.702 -23.842  1.00  0.00     0.016 A 
ATOM     17  C   UNL     1      10.692 -15.395 -24.338  1.00  0.00     0.016 A 
BRANCH  13  18
ATOM     18  O   UNL     1      10.654 -15.940 -20.645  1.00  0.00    -0.497 OA
ATOM     19  C   UNL     1      10.668 -14.658 -20.026  1.00  0.00     0.278 C 
ENDBRANCH  13  18
ENDBRANCH   1  12
BRANCH   8  20
ATOM     20  O   UNL     1      14.925 -17.362 -27.493  1.00  0.00    -0.490 OA
ATOM     21  C   UNL     1      15.818 -16.263 -27.350  1.00  0.00     0.278 C 
ENDBRANCH   8  20
BRANCH  11  22
ATOM     22  O   UNL     1      10.730 -18.222 -31.132  1.00  0.00    -0.492 OA
ATOM     23  C   UNL     1      10.466 -19.569 -31.509  1.00  0.00     0.278 C 
ENDBRANCH  11  22
BRANCH   9  24
ATOM     24  O   UNL     1      15.547 -17.874 -30.244  1.00  0.00    -0.490 OA
ATOM     25  C   UNL     1      16.389 -19.022 -30.245  1.00  0.00     0.279 C 
ENDBRANCH   9  24
BRANCH  10  26
ATOM     26  O   UNL     1      13.398 -18.164 -32.113  1.00  0.00    -0.490 OA
ATOM     27  C   UNL     1      13.527 -17.146 -33.103  1.00  0.00     0.278 C 
ENDBRANCH  10  26
TORSDOF 6
ENDMDL
MODEL 3
REMARK VINA RESULT:    -5.226      1.293      3.537
REMARK INTER + INTRA:          -7.505
REMARK INTER:                  -7.096
REMARK INTRA:                  -0.408
REMARK UNBOUND:                -0.445
REMARK SMILES COc1ccc(-c2cc(=O)c3c(OC)c(OC)c(OC)c(OC)c3o2)cc1
REMARK SMILES IDX 7 1 8 2 9 3 10 4 11 5 24 6 25 7 21 8 18 9 15 10 12 11 6 12
REMARK SMILES IDX 3 13 4 14 27 15 5 16 26 17 2 18 1 19 22 20 23 21 13 22 14 23
REMARK SMILES IDX 19 24 20 25 16 26 17 27
REMARK H PARENT
REMARK Flexibility Score: inf
ROOT
ATOM      1  C   UNL     1       8.669 -11.735 -25.369  1.00  0.00     0.138 A 
ATOM      2  C   UNL     1       8.258 -12.762 -26.229  1.00  0.00     0.100 A 
ATOM      3  C   UNL     1       8.219 -14.074 -25.757  1.00  0.00     0.197 A 
ATOM      4  O   UNL     1       7.876 -14.992 -26.549  1.00  0.00    -0.289 OA
ATOM      5  C   UNL     1       8.581 -14.347 -24.419  1.00  0.00     0.115 A 
ATOM      6  C   UNL     1       9.001 -13.263 -23.622  1.00  0.00     0.188 A 
ATOM      7  O   UNL     1       9.026 -12.031 -24.123  1.00  0.00    -0.452 OA
ATOM      8  C   UNL     1       9.389 -13.455 -22.291  1.00  0.00     0.209 A 
ATOM      9  C   UNL     1       9.405 -14.761 -21.739  1.00  0.00     0.211 A 
ATOM     10  C   UNL     1       9.004 -15.864 -22.541  1.00  0.00     0.208 A 
ATOM     11  C   UNL     1       8.537 -15.641 -23.858  1.00  0.00     0.179 A 
ENDROOT
BRANCH   1  12
ATOM     12  C   UNL     1       8.732 -10.322 -25.816  1.00  0.00     0.018 A 
ATOM     13  C   UNL     1       8.854  -7.653 -26.730  1.00  0.00     0.118 A 
ATOM     14  C   UNL     1       8.251  -8.642 -27.510  1.00  0.00     0.047 A 
ATOM     15  C   UNL     1       9.406  -8.004 -25.484  1.00  0.00     0.047 A 
ATOM     16  C   UNL     1       8.195  -9.966 -27.064  1.00  0.00     0.016 A 
ATOM     17  C   UNL     1       9.345  -9.327 -25.033  1.00  0.00     0.016 A 
BRANCH  13  18
ATOM     18  O   UNL     1       8.887  -6.339 -27.225  1.00  0.00    -0.497 OA
ATOM     19  C   UNL     1       8.293  -5.927 -28.452  1.00  0.00     0.278 C 
ENDBRANCH  13  18
ENDBRANCH   1  12
BRANCH   8  20
ATOM     20  O   UNL     1       9.757 -12.295 -21.578  1.00  0.00    -0.490 OA
ATOM     21  C   UNL     1      11.040 -11.683 -21.534  1.00  0.00     0.278 C 
ENDBRANCH   8  20
BRANCH  11  22
ATOM     22  O   UNL     1       7.995 -16.698 -24.592  1.00  0.00    -0.492 OA
ATOM     23  C   UNL     1       8.833 -17.597 -25.311  1.00  0.00     0.278 C 
ENDBRANCH  11  22
BRANCH   9  24
ATOM     24  O   UNL     1       9.837 -14.910 -20.407  1.00  0.00    -0.490 OA
ATOM     25  C   UNL     1      11.157 -15.178 -19.944  1.00  0.00     0.279 C 
ENDBRANCH   9  24
BRANCH  10  26
ATOM     26  O   UNL     1       9.075 -17.161 -22.004  1.00  0.00    -0.490 OA
ATOM     27  C   UNL     1      10.187 -18.047 -22.111  1.00  0.00     0.278 C 
ENDBRANCH  10  26
TORSDOF 6
ENDMDL
MODEL 4
REMARK VINA RESULT:    -4.984     16.397     18.987
REMARK INTER + INTRA:          -7.177
REMARK INTER:                  -6.531
REMARK INTRA:                  -0.646
REMARK UNBOUND:                -0.445
REMARK SMILES COc1ccc(-c2cc(=O)c3c(OC)c(OC)c(OC)c(OC)c3o2)cc1
REMARK SMILES IDX 7 1 8 2 9 3 10 4 11 5 24 6 25 7 21 8 18 9 15 10 12 11 6 12
REMARK SMILES IDX 3 13 4 14 27 15 5 16 26 17 2 18 1 19 22 20 23 21 13 22 14 23
REMARK SMILES IDX 19 24 20 25 16 26 17 27
REMARK H PARENT
REMARK Flexibility Score: inf
ROOT
ATOM      1  C   UNL     1      24.807  -2.958 -28.874  1.00  0.00     0.138 A 
ATOM      2  C   UNL     1      24.975  -2.097 -29.966  1.00  0.00     0.100 A 
ATOM      3  C   UNL     1      24.375  -2.413 -31.184  1.00  0.00     0.197 A 
ATOM      4  O   UNL     1      24.559  -1.645 -32.167  1.00  0.00    -0.289 OA
ATOM      5  C   UNL     1      23.597  -3.587 -31.298  1.00  0.00     0.115 A 
ATOM      6  C   UNL     1      23.490  -4.411 -30.159  1.00  0.00     0.188 A 
ATOM      7  O   UNL     1      24.087  -4.067 -29.022  1.00  0.00    -0.452 OA
ATOM      8  C   UNL     1      22.749  -5.598 -30.196  1.00  0.00     0.209 A 
ATOM      9  C   UNL     1      22.128  -6.008 -31.403  1.00  0.00     0.211 A 
ATOM     10  C   UNL     1      22.248  -5.195 -32.562  1.00  0.00     0.208 A 
ATOM     11  C   UNL     1      22.932  -3.958 -32.485  1.00  0.00     0.179 A 
ENDROOT
BRANCH   1  12
ATOM     12  C   UNL     1      25.422  -2.674 -27.554  1.00  0.00     0.018 A 
ATOM     13  C   UNL     1      26.534  -2.129 -25.017  1.00  0.00     0.118 A 
ATOM     14  C   UNL     1      25.302  -2.777 -25.126  1.00  0.00     0.047 A 
ATOM     15  C   UNL     1      27.213  -1.745 -26.189  1.00  0.00     0.047 A 
ATOM     16  C   UNL     1      24.745  -3.043 -26.381  1.00  0.00     0.016 A 
ATOM     17  C   UNL     1      26.660  -2.015 -27.445  1.00  0.00     0.016 A 
BRANCH  13  18
ATOM     18  O   UNL     1      27.049  -1.883 -23.734  1.00  0.00    -0.497 OA
ATOM     19  C   UNL     1      26.250  -1.637 -22.581  1.00  0.00     0.278 C 
ENDBRANCH  13  18
ENDBRANCH   1  12
BRANCH   8  20
ATOM     20  O   UNL     1      22.681  -6.325 -28.990  1.00  0.00    -0.490 OA
ATOM     21  C   UNL     1      23.499  -7.423 -28.600  1.00  0.00     0.278 C 
ENDBRANCH   8  20
BRANCH  11  22
ATOM     22  O   UNL     1      22.917  -3.086 -33.576  1.00  0.00    -0.492 OA
ATOM     23  C   UNL     1      21.843  -2.172 -33.770  1.00  0.00     0.278 C 
ENDBRANCH  11  22
BRANCH   9  24
ATOM     24  O   UNL     1      21.423  -7.228 -31.402  1.00  0.00    -0.490 OA
ATOM     25  C   UNL     1      21.878  -8.497 -31.859  1.00  0.00     0.279 C 
ENDBRANCH   9  24
BRANCH  10  26
ATOM     26  O   UNL     1      21.676  -5.636 -33.769  1.00  0.00    -0.490 OA
ATOM     27  C   UNL     1      20.300  -5.533 -34.125  1.00  0.00     0.278 C 
ENDBRANCH  10  26
TORSDOF 6
ENDMDL
MODEL 5
REMARK VINA RESULT:    -4.845     14.873     17.711
REMARK INTER + INTRA:          -6.990
REMARK INTER:                  -6.424
REMARK INTRA:                  -0.566
REMARK UNBOUND:                -0.445
REMARK SMILES COc1ccc(-c2cc(=O)c3c(OC)c(OC)c(OC)c(OC)c3o2)cc1
REMARK SMILES IDX 7 1 8 2 9 3 10 4 11 5 24 6 25 7 21 8 18 9 15 10 12 11 6 12
REMARK SMILES IDX 3 13 4 14 27 15 5 16 26 17 2 18 1 19 22 20 23 21 13 22 14 23
REMARK SMILES IDX 19 24 20 25 16 26 17 27
REMARK H PARENT
REMARK Flexibility Score: inf
ROOT
ATOM      1  C   UNL     1      22.161  -7.848 -31.108  1.00  0.00     0.138 A 
ATOM      2  C   UNL     1      21.679  -7.084 -32.178  1.00  0.00     0.100 A 
ATOM      3  C   UNL     1      21.754  -5.693 -32.113  1.00  0.00     0.197 A 
ATOM      4  O   UNL     1      21.290  -5.017 -33.070  1.00  0.00    -0.289 OA
ATOM      5  C   UNL     1      22.326  -5.075 -30.979  1.00  0.00     0.115 A 
ATOM      6  C   UNL     1      22.772  -5.912 -29.936  1.00  0.00     0.188 A 
ATOM      7  O   UNL     1      22.671  -7.234 -30.044  1.00  0.00    -0.452 OA
ATOM      8  C   UNL     1      23.336  -5.375 -28.773  1.00  0.00     0.209 A 
ATOM      9  C   UNL     1      23.426  -3.968 -28.613  1.00  0.00     0.211 A 
ATOM     10  C   UNL     1      22.959  -3.116 -29.650  1.00  0.00     0.208 A 
ATOM     11  C   UNL     1      22.467  -3.677 -30.852  1.00  0.00     0.179 A 
ENDROOT
BRANCH   1  12
ATOM     12  C   UNL     1      22.106  -9.331 -31.120  1.00  0.00     0.018 A 
ATOM     13  C   UNL     1      22.066 -12.154 -31.152  1.00  0.00     0.118 A 
ATOM     14  C   UNL     1      23.185 -11.466 -30.675  1.00  0.00     0.047 A 
ATOM     15  C   UNL     1      20.961 -11.421 -31.623  1.00  0.00     0.047 A 
ATOM     16  C   UNL     1      23.210 -10.069 -30.664  1.00  0.00     0.016 A 
ATOM     17  C   UNL     1      20.982 -10.023 -31.607  1.00  0.00     0.016 A 
BRANCH  13  18
ATOM     18  O   UNL     1      22.091 -13.558 -31.145  1.00  0.00    -0.497 OA
ATOM     19  C   UNL     1      22.212 -14.366 -32.311  1.00  0.00     0.278 C 
ENDBRANCH  13  18
ENDBRANCH   1  12
BRANCH   8  20
ATOM     20  O   UNL     1      23.779  -6.305 -27.811  1.00  0.00    -0.490 OA
ATOM     21  C   UNL     1      23.168  -6.609 -26.562  1.00  0.00     0.278 C 
ENDBRANCH   8  20
BRANCH  11  22
ATOM     22  O   UNL     1      22.156  -2.847 -31.931  1.00  0.00    -0.492 OA
ATOM     23  C   UNL     1      23.171  -2.376 -32.812  1.00  0.00     0.278 C 
ENDBRANCH  11  22
BRANCH   9  24
ATOM     24  O   UNL     1      23.968  -3.473 -27.411  1.00  0.00    -0.490 OA
ATOM     25  C   UNL     1      25.307  -3.053 -27.167  1.00  0.00     0.279 C 
ENDBRANCH   9  24
BRANCH  10  26
ATOM     26  O   UNL     1      23.001  -1.724 -29.460  1.00  0.00    -0.490 OA
ATOM     27  C   UNL     1      24.108  -0.875 -29.758  1.00  0.00     0.278 C 
ENDBRANCH  10  26
TORSDOF 6
ENDMDL
MODEL 6
REMARK VINA RESULT:    -4.772     14.927     16.028
REMARK INTER + INTRA:          -6.891
REMARK INTER:                  -6.237
REMARK INTRA:                  -0.653
REMARK UNBOUND:                -0.445
REMARK SMILES COc1ccc(-c2cc(=O)c3c(OC)c(OC)c(OC)c(OC)c3o2)cc1
REMARK SMILES IDX 7 1 8 2 9 3 10 4 11 5 24 6 25 7 21 8 18 9 15 10 12 11 6 12
REMARK SMILES IDX 3 13 4 14 27 15 5 16 26 17 2 18 1 19 22 20 23 21 13 22 14 23
REMARK SMILES IDX 19 24 20 25 16 26 17 27
REMARK H PARENT
REMARK Flexibility Score: inf
ROOT
ATOM      1  C   UNL     1      22.960  -7.789 -29.805  1.00  0.00     0.138 A 
ATOM      2  C   UNL     1      22.417  -7.366 -31.025  1.00  0.00     0.100 A 
ATOM      3  C   UNL     1      22.116  -8.312 -32.004  1.00  0.00     0.197 A 
ATOM      4  O   UNL     1      21.656  -7.915 -33.108  1.00  0.00    -0.289 OA
ATOM      5  C   UNL     1      22.350  -9.681 -31.749  1.00  0.00     0.115 A 
ATOM      6  C   UNL     1      22.915 -10.026 -30.505  1.00  0.00     0.188 A 
ATOM      7  O   UNL     1      23.190  -9.084 -29.607  1.00  0.00    -0.452 OA
ATOM      8  C   UNL     1      23.191 -11.360 -30.183  1.00  0.00     0.209 A 
ATOM      9  C   UNL     1      22.940 -12.384 -31.131  1.00  0.00     0.211 A 
ATOM     10  C   UNL     1      22.390 -12.044 -32.397  1.00  0.00     0.208 A 
ATOM     11  C   UNL     1      22.043 -10.701 -32.674  1.00  0.00     0.179 A 
ENDROOT
BRANCH   1  12
ATOM     12  C   UNL     1      23.301  -6.828 -28.727  1.00  0.00     0.018 A 
ATOM     13  C   UNL     1      23.912  -5.032 -26.636  1.00  0.00     0.118 A 
ATOM     14  C   UNL     1      23.609  -6.367 -26.358  1.00  0.00     0.047 A 
ATOM     15  C   UNL     1      23.903  -4.591 -27.972  1.00  0.00     0.047 A 
ATOM     16  C   UNL     1      23.299  -7.257 -27.390  1.00  0.00     0.016 A 
ATOM     17  C   UNL     1      23.599  -5.482 -29.007  1.00  0.00     0.016 A 
BRANCH  13  18
ATOM     18  O   UNL     1      24.213  -4.178 -25.563  1.00  0.00    -0.497 OA
ATOM     19  C   UNL     1      25.066  -3.042 -25.654  1.00  0.00     0.278 C 
ENDBRANCH  13  18
ENDBRANCH   1  12
BRANCH   8  20
ATOM     20  O   UNL     1      23.723 -11.592 -28.898  1.00  0.00    -0.490 OA
ATOM     21  C   UNL     1      25.082 -11.848 -28.563  1.00  0.00     0.278 C 
ENDBRANCH   8  20
BRANCH  11  22
ATOM     22  O   UNL     1      21.359 -10.388 -33.851  1.00  0.00    -0.492 OA
ATOM     23  C   UNL     1      19.951 -10.573 -33.954  1.00  0.00     0.278 C 
ENDBRANCH  11  22
BRANCH   9  24
ATOM     24  O   UNL     1      23.266 -13.708 -30.777  1.00  0.00    -0.490 OA
ATOM     25  C   UNL     1      24.435 -14.441 -31.129  1.00  0.00     0.279 C 
ENDBRANCH   9  24
BRANCH  10  26
ATOM     26  O   UNL     1      22.197 -13.058 -33.352  1.00  0.00    -0.490 OA
ATOM     27  C   UNL     1      21.109 -13.979 -33.381  1.00  0.00     0.278 C 
ENDBRANCH  10  26
TORSDOF 6
ENDMDL
MODEL 7
REMARK VINA RESULT:    -4.639     15.155     17.476
REMARK INTER + INTRA:          -6.712
REMARK INTER:                  -6.061
REMARK INTRA:                  -0.652
REMARK UNBOUND:                -0.445
REMARK SMILES COc1ccc(-c2cc(=O)c3c(OC)c(OC)c(OC)c(OC)c3o2)cc1
REMARK SMILES IDX 7 1 8 2 9 3 10 4 11 5 24 6 25 7 21 8 18 9 15 10 12 11 6 12
REMARK SMILES IDX 3 13 4 14 27 15 5 16 26 17 2 18 1 19 22 20 23 21 13 22 14 23
REMARK SMILES IDX 19 24 20 25 16 26 17 27
REMARK H PARENT
REMARK Flexibility Score: inf
ROOT
ATOM      1  C   UNL     1      23.124 -10.339 -30.581  1.00  0.00     0.138 A 
ATOM      2  C   UNL     1      22.461 -10.146 -31.800  1.00  0.00     0.100 A 
ATOM      3  C   UNL     1      22.044  -8.863 -32.155  1.00  0.00     0.197 A 
ATOM      4  O   UNL     1      21.424  -8.707 -33.241  1.00  0.00    -0.289 OA
ATOM      5  C   UNL     1      22.306  -7.778 -31.290  1.00  0.00     0.115 A 
ATOM      6  C   UNL     1      22.960  -8.056 -30.073  1.00  0.00     0.188 A 
ATOM      7  O   UNL     1      23.332  -9.299 -29.779  1.00  0.00    -0.452 OA
ATOM      8  C   UNL     1      23.242  -7.037 -29.157  1.00  0.00     0.209 A 
ATOM      9  C   UNL     1      22.829  -5.707 -29.426  1.00  0.00     0.211 A 
ATOM     10  C   UNL     1      22.149  -5.420 -30.641  1.00  0.00     0.208 A 
ATOM     11  C   UNL     1      21.945  -6.448 -31.592  1.00  0.00     0.179 A 
ENDROOT
BRANCH   1  12
ATOM     12  C   UNL     1      23.588 -11.681 -30.150  1.00  0.00     0.018 A 
ATOM     13  C   UNL     1      24.510 -14.205 -29.284  1.00  0.00     0.118 A 
ATOM     14  C   UNL     1      24.413 -13.139 -28.385  1.00  0.00     0.047 A 
ATOM     15  C   UNL     1      24.149 -14.003 -30.629  1.00  0.00     0.047 A 
ATOM     16  C   UNL     1      23.963 -11.887 -28.812  1.00  0.00     0.016 A 
ATOM     17  C   UNL     1      23.693 -12.751 -31.056  1.00  0.00     0.016 A 
BRANCH  13  18
ATOM     18  O   UNL     1      24.971 -15.442 -28.805  1.00  0.00    -0.497 OA
ATOM     19  C   UNL     1      24.175 -16.621 -28.729  1.00  0.00     0.278 C 
ENDBRANCH  13  18
ENDBRANCH   1  12
BRANCH   8  20
ATOM     20  O   UNL     1      23.931  -7.424 -27.989  1.00  0.00    -0.490 OA
ATOM     21  C   UNL     1      23.383  -7.615 -26.690  1.00  0.00     0.278 C 
ENDBRANCH   8  20
BRANCH  11  22
ATOM     22  O   UNL     1      21.421  -6.138 -32.849  1.00  0.00    -0.492 OA
ATOM     23  C   UNL     1      22.252  -5.629 -33.887  1.00  0.00     0.278 C 
ENDBRANCH  11  22
BRANCH   9  24
ATOM     24  O   UNL     1      23.102  -4.721 -28.459  1.00  0.00    -0.490 OA
ATOM     25  C   UNL     1      24.268  -3.912 -28.345  1.00  0.00     0.279 C 
ENDBRANCH   9  24
BRANCH  10  26
ATOM     26  O   UNL     1      21.694  -4.110 -30.875  1.00  0.00    -0.490 OA
ATOM     27  C   UNL     1      22.463  -3.049 -31.437  1.00  0.00     0.278 C 
ENDBRANCH  10  26
TORSDOF 6
ENDMDL
MODEL 8
REMARK VINA RESULT:    -4.609     15.466     16.277
REMARK INTER + INTRA:          -6.671
REMARK INTER:                  -5.947
REMARK INTRA:                  -0.724
REMARK UNBOUND:                -0.445
REMARK SMILES COc1ccc(-c2cc(=O)c3c(OC)c(OC)c(OC)c(OC)c3o2)cc1
REMARK SMILES IDX 7 1 8 2 9 3 10 4 11 5 24 6 25 7 21 8 18 9 15 10 12 11 6 12
REMARK SMILES IDX 3 13 4 14 27 15 5 16 26 17 2 18 1 19 22 20 23 21 13 22 14 23
REMARK SMILES IDX 19 24 20 25 16 26 17 27
REMARK H PARENT
REMARK Flexibility Score: inf
ROOT
ATOM      1  C   UNL     1      23.285  -8.127 -29.676  1.00  0.00     0.138 A 
ATOM      2  C   UNL     1      22.381  -8.275 -30.735  1.00  0.00     0.100 A 
ATOM      3  C   UNL     1      22.208  -9.531 -31.316  1.00  0.00     0.197 A 
ATOM      4  O   UNL     1      21.413  -9.645 -32.287  1.00  0.00    -0.289 OA
ATOM      5  C   UNL     1      22.935 -10.637 -30.821  1.00  0.00     0.115 A 
ATOM      6  C   UNL     1      23.838 -10.403 -29.764  1.00  0.00     0.188 A 
ATOM      7  O   UNL     1      23.971  -9.184 -29.250  1.00  0.00    -0.452 OA
ATOM      8  C   UNL     1      24.605 -11.444 -29.229  1.00  0.00     0.209 A 
ATOM      9  C   UNL     1      24.512 -12.749 -29.778  1.00  0.00     0.211 A 
ATOM     10  C   UNL     1      23.619 -12.989 -30.857  1.00  0.00     0.208 A 
ATOM     11  C   UNL     1      22.792 -11.944 -31.331  1.00  0.00     0.179 A 
ENDROOT
BRANCH   1  12
ATOM     12  C   UNL     1      23.511  -6.815 -29.021  1.00  0.00     0.018 A 
ATOM     13  C   UNL     1      23.993  -4.307 -27.815  1.00  0.00     0.118 A 
ATOM     14  C   UNL     1      24.308  -4.520 -29.160  1.00  0.00     0.047 A 
ATOM     15  C   UNL     1      23.438  -5.362 -27.067  1.00  0.00     0.047 A 
ATOM     16  C   UNL     1      24.077  -5.762 -29.758  1.00  0.00     0.016 A 
ATOM     17  C   UNL     1      23.201  -6.604 -27.665  1.00  0.00     0.016 A 
BRANCH  13  18
ATOM     18  O   UNL     1      24.247  -3.042 -27.261  1.00  0.00    -0.497 OA
ATOM     19  C   UNL     1      25.041  -2.818 -26.100  1.00  0.00     0.278 C 
ENDBRANCH  13  18
ENDBRANCH   1  12
BRANCH   8  20
ATOM     20  O   UNL     1      25.450 -11.104 -28.152  1.00  0.00    -0.490 OA
ATOM     21  C   UNL     1      26.827 -10.751 -28.218  1.00  0.00     0.278 C 
ENDBRANCH   8  20
BRANCH  11  22
ATOM     22  O   UNL     1      21.805 -12.214 -32.282  1.00  0.00    -0.492 OA
ATOM     23  C   UNL     1      20.629 -12.938 -31.934  1.00  0.00     0.278 C 
ENDBRANCH  11  22
BRANCH   9  24
ATOM     24  O   UNL     1      25.329 -13.757 -29.230  1.00  0.00    -0.490 OA
ATOM     25  C   UNL     1      26.628 -14.152 -29.658  1.00  0.00     0.279 C 
ENDBRANCH   9  24
BRANCH  10  26
ATOM     26  O   UNL     1      23.573 -14.272 -31.432  1.00  0.00    -0.490 OA
ATOM     27  C   UNL     1      24.308 -14.699 -32.576  1.00  0.00     0.278 C 
ENDBRANCH  10  26
TORSDOF 6
ENDMDL
MODEL 9
REMARK VINA RESULT:    -4.567     15.176     17.953
REMARK INTER + INTRA:          -6.614
REMARK INTER:                  -6.113
REMARK INTRA:                  -0.501
REMARK UNBOUND:                -0.445
REMARK SMILES COc1ccc(-c2cc(=O)c3c(OC)c(OC)c(OC)c(OC)c3o2)cc1
REMARK SMILES IDX 7 1 8 2 9 3 10 4 11 5 24 6 25 7 21 8 18 9 15 10 12 11 6 12
REMARK SMILES IDX 3 13 4 14 27 15 5 16 26 17 2 18 1 19 22 20 23 21 13 22 14 23
REMARK SMILES IDX 19 24 20 25 16 26 17 27
REMARK H PARENT
REMARK Flexibility Score: inf
ROOT
ATOM      1  C   UNL     1      22.698  -7.778 -30.386  1.00  0.00     0.138 A 
ATOM      2  C   UNL     1      23.038  -7.365 -29.091  1.00  0.00     0.100 A 
ATOM      3  C   UNL     1      23.297  -6.017 -28.850  1.00  0.00     0.197 A 
ATOM      4  O   UNL     1      23.630  -5.662 -27.687  1.00  0.00    -0.289 OA
ATOM      5  C   UNL     1      23.202  -5.086 -29.908  1.00  0.00     0.115 A 
ATOM      6  C   UNL     1      22.874  -5.581 -31.186  1.00  0.00     0.188 A 
ATOM      7  O   UNL     1      22.642  -6.879 -31.364  1.00  0.00    -0.452 OA
ATOM      8  C   UNL     1      22.775  -4.724 -32.288  1.00  0.00     0.209 A 
ATOM      9  C   UNL     1      23.049  -3.341 -32.137  1.00  0.00     0.211 A 
ATOM     10  C   UNL     1      23.402  -2.835 -30.856  1.00  0.00     0.208 A 
ATOM     11  C   UNL     1      23.417  -3.702 -29.738  1.00  0.00     0.179 A 
ENDROOT
BRANCH   1  12
ATOM     12  C   UNL     1      22.414  -9.199 -30.702  1.00  0.00     0.018 A 
ATOM     13  C   UNL     1      21.936 -11.918 -31.299  1.00  0.00     0.118 A 
ATOM     14  C   UNL     1      23.013 -11.548 -30.489  1.00  0.00     0.047 A 
ATOM     15  C   UNL     1      21.096 -10.916 -31.820  1.00  0.00     0.047 A 
ATOM     16  C   UNL     1      23.256 -10.203 -30.197  1.00  0.00     0.016 A 
ATOM     17  C   UNL     1      21.334  -9.570 -31.524  1.00  0.00     0.016 A 
BRANCH  13  18
ATOM     18  O   UNL     1      21.737 -13.282 -31.565  1.00  0.00    -0.497 OA
ATOM     19  C   UNL     1      22.769 -14.185 -31.951  1.00  0.00     0.278 C 
ENDBRANCH  13  18
ENDBRANCH   1  12
BRANCH   8  20
ATOM     20  O   UNL     1      22.406  -5.324 -33.510  1.00  0.00    -0.490 OA
ATOM     21  C   UNL     1      21.100  -5.400 -34.071  1.00  0.00     0.278 C 
ENDBRANCH   8  20
BRANCH  11  22
ATOM     22  O   UNL     1      23.609  -3.180 -28.456  1.00  0.00    -0.492 OA
ATOM     23  C   UNL     1      24.908  -2.819 -27.998  1.00  0.00     0.278 C 
ENDBRANCH  11  22
BRANCH   9  24
ATOM     24  O   UNL     1      22.972  -2.523 -33.281  1.00  0.00    -0.490 OA
ATOM     25  C   UNL     1      21.898  -1.676 -33.674  1.00  0.00     0.279 C 
ENDBRANCH   9  24
BRANCH  10  26
ATOM     26  O   UNL     1      23.726  -1.473 -30.727  1.00  0.00    -0.490 OA
ATOM     27  C   UNL     1      24.977  -0.878 -31.065  1.00  0.00     0.278 C 
ENDBRANCH  10  26
TORSDOF 6
ENDMDL
