MODEL 1
REMARK VINA RESULT:    -3.629      0.000      0.000
REMARK INTER + INTRA:          -4.378
REMARK INTER:                  -4.266
REMARK INTRA:                  -0.112
REMARK UNBOUND:                -0.112
REMARK SMILES O=C([O-])CCC(=O)[O-]
REMARK SMILES IDX 4 1 2 2 1 3 3 4 5 5 6 6 7 7 8 8
REMARK H PARENT
REMARK Flexibility Score: inf
ROOT
ATOM      1  C   UNL     1       6.463  23.655  -7.400  1.00  0.00     0.059 C 
ENDROOT
BRANCH   1   2
ATOM      2  C   UNL     1       6.780  24.069  -5.994  1.00  0.00     0.042 C 
ATOM      3  O   UNL     1       7.221  23.226  -5.170  1.00  0.00    -0.550 OA
ATOM      4  O   UNL     1       6.547  25.376  -5.585  1.00  0.00    -0.550 OA
ENDBRANCH   1   2
BRANCH   1   5
ATOM      5  C   UNL     1       7.538  24.127  -8.383  1.00  0.00     0.059 C 
BRANCH   5   6
ATOM      6  C   UNL     1       8.496  23.027  -8.724  1.00  0.00     0.042 C 
ATOM      7  O   UNL     1       9.395  22.692  -7.907  1.00  0.00    -0.550 OA
ATOM      8  O   UNL     1       8.370  22.343  -9.927  1.00  0.00    -0.550 OA
ENDBRANCH   5   6
ENDBRANCH   1   5
TORSDOF 3
ENDMDL
MODEL 2
REMARK VINA RESULT:    -3.628      0.052      3.799
REMARK INTER + INTRA:          -4.377
REMARK INTER:                  -4.260
REMARK INTRA:                  -0.117
REMARK UNBOUND:                -0.112
REMARK SMILES O=C([O-])CCC(=O)[O-]
REMARK SMILES IDX 4 1 2 2 1 3 3 4 5 5 6 6 7 7 8 8
REMARK H PARENT
REMARK Flexibility Score: inf
ROOT
ATOM      1  C   UNL     1       7.538  24.165  -8.379  1.00  0.00     0.059 C 
ENDROOT
BRANCH   1   2
ATOM      2  C   UNL     1       8.471  23.049  -8.739  1.00  0.00     0.042 C 
ATOM      3  O   UNL     1       9.370  22.690  -7.933  1.00  0.00    -0.550 OA
ATOM      4  O   UNL     1       8.375  22.434  -9.981  1.00  0.00    -0.550 OA
ENDBRANCH   1   2
BRANCH   1   5
ATOM      5  C   UNL     1       6.440  23.696  -7.420  1.00  0.00     0.059 C 
BRANCH   5   6
ATOM      6  C   UNL     1       6.742  24.083  -6.005  1.00  0.00     0.042 C 
ATOM      7  O   UNL     1       7.221  23.238  -5.204  1.00  0.00    -0.550 OA
ATOM      8  O   UNL     1       6.533  25.390  -5.581  1.00  0.00    -0.550 OA
ENDBRANCH   5   6
ENDBRANCH   1   5
TORSDOF 3
ENDMDL
MODEL 3
REMARK VINA RESULT:    -3.613      3.390      4.386
REMARK INTER + INTRA:          -4.359
REMARK INTER:                  -4.263
REMARK INTRA:                  -0.095
REMARK UNBOUND:                -0.112
REMARK SMILES O=C([O-])CCC(=O)[O-]
REMARK SMILES IDX 4 1 2 2 1 3 3 4 5 5 6 6 7 7 8 8
REMARK H PARENT
REMARK Flexibility Score: inf
ROOT
ATOM      1  C   UNL     1      10.705  22.096  -9.104  1.00  0.00     0.059 C 
ENDROOT
BRANCH   1   2
ATOM      2  C   UNL     1      10.106  21.609  -7.819  1.00  0.00     0.042 C 
ATOM      3  O   UNL     1       9.501  22.409  -7.058  1.00  0.00    -0.550 OA
ATOM      4  O   UNL     1      10.254  20.280  -7.443  1.00  0.00    -0.550 OA
ENDBRANCH   1   2
BRANCH   1   5
ATOM      5  C   UNL     1      10.484  23.600  -9.295  1.00  0.00     0.059 C 
BRANCH   5   6
ATOM      6  C   UNL     1      11.783  24.340  -9.396  1.00  0.00     0.042 C 
ATOM      7  O   UNL     1      12.613  24.298  -8.450  1.00  0.00    -0.550 OA
ATOM      8  O   UNL     1      12.093  25.042 -10.554  1.00  0.00    -0.550 OA
ENDBRANCH   5   6
ENDBRANCH   1   5
TORSDOF 3
ENDMDL
MODEL 4
REMARK VINA RESULT:    -3.578      3.230      4.813
REMARK INTER + INTRA:          -4.318
REMARK INTER:                  -4.233
REMARK INTRA:                  -0.085
REMARK UNBOUND:                -0.112
REMARK SMILES O=C([O-])CCC(=O)[O-]
REMARK SMILES IDX 4 1 2 2 1 3 3 4 5 5 6 6 7 7 8 8
REMARK H PARENT
REMARK Flexibility Score: inf
ROOT
ATOM      1  C   UNL     1      10.444  23.611  -9.297  1.00  0.00     0.059 C 
ENDROOT
BRANCH   1   2
ATOM      2  C   UNL     1      11.766  24.312  -9.394  1.00  0.00     0.042 C 
ATOM      3  O   UNL     1      12.569  24.284  -8.425  1.00  0.00    -0.550 OA
ATOM      4  O   UNL     1      12.090  25.030 -10.538  1.00  0.00    -0.550 OA
ENDBRANCH   1   2
BRANCH   1   5
ATOM      5  C   UNL     1      10.617  22.116  -9.013  1.00  0.00     0.059 C 
BRANCH   5   6
ATOM      6  C   UNL     1       9.954  21.717  -7.730  1.00  0.00     0.042 C 
ATOM      7  O   UNL     1       9.171  22.513  -7.147  1.00  0.00    -0.550 OA
ATOM      8  O   UNL     1      10.169  20.451  -7.200  1.00  0.00    -0.550 OA
ENDBRANCH   5   6
ENDBRANCH   1   5
TORSDOF 3
ENDMDL
MODEL 5
REMARK VINA RESULT:    -3.571      2.756      4.263
REMARK INTER + INTRA:          -4.310
REMARK INTER:                  -4.257
REMARK INTRA:                  -0.053
REMARK UNBOUND:                -0.112
REMARK SMILES O=C([O-])CCC(=O)[O-]
REMARK SMILES IDX 4 1 2 2 1 3 3 4 5 5 6 6 7 7 8 8
REMARK H PARENT
REMARK Flexibility Score: inf
ROOT
ATOM      1  C   UNL     1      10.155  22.885  -9.784  1.00  0.00     0.059 C 
ENDROOT
BRANCH   1   2
ATOM      2  C   UNL     1       8.723  22.693  -9.386  1.00  0.00     0.042 C 
ATOM      3  O   UNL     1       8.363  22.896  -8.197  1.00  0.00    -0.550 OA
ATOM      4  O   UNL     1       7.795  22.249 -10.320  1.00  0.00    -0.550 OA
ENDBRANCH   1   2
BRANCH   1   5
ATOM      5  C   UNL     1      11.040  23.198  -8.574  1.00  0.00     0.059 C 
BRANCH   5   6
ATOM      6  C   UNL     1      12.100  24.202  -8.911  1.00  0.00     0.042 C 
ATOM      7  O   UNL     1      13.033  24.437  -8.098  1.00  0.00    -0.550 OA
ATOM      8  O   UNL     1      12.079  24.849 -10.140  1.00  0.00    -0.550 OA
ENDBRANCH   5   6
ENDBRANCH   1   5
TORSDOF 3
ENDMDL
MODEL 6
REMARK VINA RESULT:    -3.557      2.735      4.756
REMARK INTER + INTRA:          -4.294
REMARK INTER:                  -4.219
REMARK INTRA:                  -0.075
REMARK UNBOUND:                -0.112
REMARK SMILES O=C([O-])CCC(=O)[O-]
REMARK SMILES IDX 4 1 2 2 1 3 3 4 5 5 6 6 7 7 8 8
REMARK H PARENT
REMARK Flexibility Score: inf
ROOT
ATOM      1  C   UNL     1      11.197  22.953  -8.548  1.00  0.00     0.059 C 
ENDROOT
BRANCH   1   2
ATOM      2  C   UNL     1      12.127  24.100  -8.801  1.00  0.00     0.042 C 
ATOM      3  O   UNL     1      12.025  24.776  -9.859  1.00  0.00    -0.550 OA
ATOM      4  O   UNL     1      13.132  24.396  -7.890  1.00  0.00    -0.550 OA
ENDBRANCH   1   2
BRANCH   1   5
ATOM      5  C   UNL     1      10.272  22.700  -9.742  1.00  0.00     0.059 C 
BRANCH   5   6
ATOM      6  C   UNL     1       8.832  22.681  -9.331  1.00  0.00     0.042 C 
ATOM      7  O   UNL     1       7.957  22.210 -10.105  1.00  0.00    -0.550 OA
ATOM      8  O   UNL     1       8.461  23.145  -8.075  1.00  0.00    -0.550 OA
ENDBRANCH   5   6
ENDBRANCH   1   5
TORSDOF 3
ENDMDL
MODEL 7
REMARK VINA RESULT:    -3.543      3.398      4.417
REMARK INTER + INTRA:          -4.277
REMARK INTER:                  -4.154
REMARK INTRA:                  -0.124
REMARK UNBOUND:                -0.112
REMARK SMILES O=C([O-])CCC(=O)[O-]
REMARK SMILES IDX 4 1 2 2 1 3 3 4 5 5 6 6 7 7 8 8
REMARK H PARENT
REMARK Flexibility Score: inf
ROOT
ATOM      1  C   UNL     1      10.561  22.083  -7.394  1.00  0.00     0.059 C 
ENDROOT
BRANCH   1   2
ATOM      2  C   UNL     1      10.851  20.623  -7.575  1.00  0.00     0.042 C 
ATOM      3  O   UNL     1       9.997  19.761  -7.239  1.00  0.00    -0.550 OA
ATOM      4  O   UNL     1      12.080  20.215  -8.076  1.00  0.00    -0.550 OA
ENDBRANCH   1   2
BRANCH   1   5
ATOM      5  C   UNL     1       9.205  22.467  -7.993  1.00  0.00     0.059 C 
BRANCH   5   6
ATOM      6  C   UNL     1       9.259  22.529  -9.488  1.00  0.00     0.042 C 
ATOM      7  O   UNL     1       8.232  22.278 -10.172  1.00  0.00    -0.550 OA
ATOM      8  O   UNL     1      10.435  22.904 -10.126  1.00  0.00    -0.550 OA
ENDBRANCH   5   6
ENDBRANCH   1   5
TORSDOF 3
ENDMDL
MODEL 8
REMARK VINA RESULT:    -3.529      3.419      4.474
REMARK INTER + INTRA:          -4.261
REMARK INTER:                  -4.136
REMARK INTRA:                  -0.125
REMARK UNBOUND:                -0.112
REMARK SMILES O=C([O-])CCC(=O)[O-]
REMARK SMILES IDX 4 1 2 2 1 3 3 4 5 5 6 6 7 7 8 8
REMARK H PARENT
REMARK Flexibility Score: inf
ROOT
ATOM      1  C   UNL     1       9.440  22.518  -7.940  1.00  0.00     0.059 C 
ENDROOT
BRANCH   1   2
ATOM      2  C   UNL     1       9.393  22.556  -9.438  1.00  0.00     0.042 C 
ATOM      3  O   UNL     1      10.416  22.882 -10.095  1.00  0.00    -0.550 OA
ATOM      4  O   UNL     1       8.207  22.273 -10.105  1.00  0.00    -0.550 OA
ENDBRANCH   1   2
BRANCH   1   5
ATOM      5  C   UNL     1      10.781  21.982  -7.431  1.00  0.00     0.059 C 
BRANCH   5   6
ATOM      6  C   UNL     1      10.860  20.491  -7.548  1.00  0.00     0.042 C 
ATOM      7  O   UNL     1       9.881  19.775  -7.207  1.00  0.00    -0.550 OA
ATOM      8  O   UNL     1      12.000  19.894  -8.072  1.00  0.00    -0.550 OA
ENDBRANCH   5   6
ENDBRANCH   1   5
TORSDOF 3
ENDMDL
MODEL 9
REMARK VINA RESULT:    -3.427      2.056      4.252
REMARK INTER + INTRA:          -4.140
REMARK INTER:                  -4.029
REMARK INTRA:                  -0.112
REMARK UNBOUND:                -0.112
REMARK SMILES O=C([O-])CCC(=O)[O-]
REMARK SMILES IDX 4 1 2 2 1 3 3 4 5 5 6 6 7 7 8 8
REMARK H PARENT
REMARK Flexibility Score: inf
ROOT
ATOM      1  C   UNL     1       9.512  22.116  -8.961  1.00  0.00     0.059 C 
ENDROOT
BRANCH   1   2
ATOM      2  C   UNL     1      10.721  22.943  -9.278  1.00  0.00     0.042 C 
ATOM      3  O   UNL     1      10.998  23.227 -10.474  1.00  0.00    -0.550 OA
ATOM      4  O   UNL     1      11.564  23.364  -8.258  1.00  0.00    -0.550 OA
ENDBRANCH   1   2
BRANCH   1   5
ATOM      5  C   UNL     1       8.217  22.837  -9.349  1.00  0.00     0.059 C 
BRANCH   5   6
ATOM      6  C   UNL     1       7.723  23.716  -8.241  1.00  0.00     0.042 C 
ATOM      7  O   UNL     1       7.260  24.859  -8.497  1.00  0.00    -0.550 OA
ATOM      8  O   UNL     1       7.737  23.257  -6.930  1.00  0.00    -0.550 OA
ENDBRANCH   5   6
ENDBRANCH   1   5
TORSDOF 3
ENDMDL
