MODEL 1
REMARK VINA RESULT:    -5.429      0.000      0.000
REMARK INTER + INTRA:          -6.016
REMARK INTER:                  -5.905
REMARK INTRA:                  -0.111
REMARK UNBOUND:                -0.111
REMARK SMILES CC(=O)[C@@H]1CC[C@@H]2[C@H]3CC=C4C[C@H](O)CC[C@]4(C)[C@@H]3CC[C@]21C
REMARK SMILES IDX 4 1 5 2 6 3 7 4 22 5 21 6 20 7 19 8 8 9 9 10 10 11 11 12
REMARK SMILES IDX 17 13 16 14 15 15 13 16 12 17 18 18 23 19 2 20 1 21 3 22
REMARK SMILES IDX 14 23
REMARK H PARENT 14 24
REMARK Flexibility Score: inf
ROOT
ATOM      1  C   UNL     1     212.364 219.945 220.954  1.00  0.00     0.062 C 
ATOM      2  C   UNL     1     213.703 220.547 220.451  1.00  0.00     0.012 C 
ATOM      3  C   UNL     1     214.723 219.393 220.443  1.00  0.00     0.005 C 
ATOM      4  C   UNL     1     213.984 218.231 221.093  1.00  0.00    -0.001 C 
ATOM      5  C   UNL     1     212.516 218.427 220.697  1.00  0.00    -0.020 C 
ATOM      6  C   UNL     1     211.664 217.523 221.616  1.00  0.00     0.008 C 
ATOM      7  C   UNL     1     212.083 216.041 221.475  1.00  0.00     0.005 C 
ATOM      8  C   UNL     1     213.619 215.802 221.677  1.00  0.00     0.003 C 
ATOM      9  C   UNL     1     214.490 216.793 220.849  1.00  0.00     0.000 C 
ATOM     10  C   UNL     1     215.945 216.656 221.315  1.00  0.00     0.031 C 
ATOM     11  C   UNL     1     216.420 215.244 221.179  1.00  0.00    -0.027 C 
ATOM     12  C   UNL     1     215.602 214.174 221.292  1.00  0.00    -0.065 C 
ATOM     13  C   UNL     1     214.077 214.297 221.477  1.00  0.00    -0.008 C 
ATOM     14  C   UNL     1     213.410 213.657 220.217  1.00  0.00     0.014 C 
ATOM     15  C   UNL     1     213.970 212.268 219.840  1.00  0.00     0.033 C 
ATOM     16  C   UNL     1     215.499 212.268 219.694  1.00  0.00     0.118 C 
ATOM     17  C   UNL     1     216.165 212.806 220.969  1.00  0.00     0.063 C 
ATOM     18  C   UNL     1     213.666 213.502 222.744  1.00  0.00     0.016 C 
ATOM     19  C   UNL     1     212.226 218.110 219.194  1.00  0.00     0.012 C 
ENDROOT
BRANCH   1  20
ATOM     20  C   UNL     1     211.093 220.561 220.387  1.00  0.00     0.133 C 
ATOM     21  C   UNL     1     209.741 220.365 221.011  1.00  0.00     0.088 C 
ATOM     22  O   UNL     1     211.173 221.235 219.371  1.00  0.00    -0.300 OA
ENDBRANCH   1  20
BRANCH  16  23
ATOM     23  O   UNL     1     215.866 213.048 218.584  1.00  0.00    -0.393 OA
ATOM     24  H   UNL     1     216.437 212.476 218.008  1.00  0.00     0.210 HD
ENDBRANCH  16  23
TORSDOF 2
ENDMDL
MODEL 2
REMARK VINA RESULT:    -5.414      5.634      9.856
REMARK INTER + INTRA:          -6.000
REMARK INTER:                  -5.892
REMARK INTRA:                  -0.108
REMARK UNBOUND:                -0.111
REMARK SMILES CC(=O)[C@@H]1CC[C@@H]2[C@H]3CC=C4C[C@H](O)CC[C@]4(C)[C@@H]3CC[C@]21C
REMARK SMILES IDX 4 1 5 2 6 3 7 4 22 5 21 6 20 7 19 8 8 9 9 10 10 11 11 12
REMARK SMILES IDX 17 13 16 14 15 15 13 16 12 17 18 18 23 19 2 20 1 21 3 22
REMARK SMILES IDX 14 23
REMARK H PARENT 14 24
REMARK Flexibility Score: inf
ROOT
ATOM      1  C   UNL     1     221.888 214.490 220.878  1.00  0.00     0.062 C 
ATOM      2  C   UNL     1     220.530 213.917 220.392  1.00  0.00     0.012 C 
ATOM      3  C   UNL     1     219.536 215.093 220.395  1.00  0.00     0.005 C 
ATOM      4  C   UNL     1     220.308 216.239 221.036  1.00  0.00    -0.001 C 
ATOM      5  C   UNL     1     221.766 216.010 220.622  1.00  0.00    -0.020 C 
ATOM      6  C   UNL     1     222.650 216.896 221.530  1.00  0.00     0.008 C 
ATOM      7  C   UNL     1     222.262 218.387 221.393  1.00  0.00     0.005 C 
ATOM      8  C   UNL     1     220.735 218.660 221.614  1.00  0.00     0.003 C 
ATOM      9  C   UNL     1     219.831 217.688 220.797  1.00  0.00     0.000 C 
ATOM     10  C   UNL     1     218.385 217.857 221.281  1.00  0.00     0.031 C 
ATOM     11  C   UNL     1     217.940 219.279 221.149  1.00  0.00    -0.027 C 
ATOM     12  C   UNL     1     218.783 220.330 221.253  1.00  0.00    -0.065 C 
ATOM     13  C   UNL     1     220.307 220.174 221.418  1.00  0.00    -0.008 C 
ATOM     14  C   UNL     1     220.973 220.799 220.150  1.00  0.00     0.014 C 
ATOM     15  C   UNL     1     220.439 222.200 219.780  1.00  0.00     0.033 C 
ATOM     16  C   UNL     1     218.909 222.234 219.652  1.00  0.00     0.118 C 
ATOM     17  C   UNL     1     218.247 221.711 220.935  1.00  0.00     0.063 C 
ATOM     18  C   UNL     1     220.751 220.960 222.680  1.00  0.00     0.016 C 
ATOM     19  C   UNL     1     222.046 216.320 219.115  1.00  0.00     0.012 C 
ENDROOT
BRANCH   1  20
ATOM     20  C   UNL     1     223.138 213.845 220.296  1.00  0.00     0.133 C 
ATOM     21  C   UNL     1     224.494 213.970 220.932  1.00  0.00     0.088 C 
ATOM     22  O   UNL     1     223.038 213.208 219.258  1.00  0.00    -0.300 OA
ENDBRANCH   1  20
BRANCH  16  23
ATOM     23  O   UNL     1     218.512 221.462 218.547  1.00  0.00    -0.393 OA
ATOM     24  H   UNL     1     218.177 222.095 217.860  1.00  0.00     0.210 HD
ENDBRANCH  16  23
TORSDOF 2
ENDMDL
MODEL 3
REMARK VINA RESULT:    -5.410      4.241      6.993
REMARK INTER + INTRA:          -5.996
REMARK INTER:                  -5.879
REMARK INTRA:                  -0.116
REMARK UNBOUND:                -0.111
REMARK SMILES CC(=O)[C@@H]1CC[C@@H]2[C@H]3CC=C4C[C@H](O)CC[C@]4(C)[C@@H]3CC[C@]21C
REMARK SMILES IDX 4 1 5 2 6 3 7 4 22 5 21 6 20 7 19 8 8 9 9 10 10 11 11 12
REMARK SMILES IDX 17 13 16 14 15 15 13 16 12 17 18 18 23 19 2 20 1 21 3 22
REMARK SMILES IDX 14 23
REMARK H PARENT 14 24
REMARK Flexibility Score: inf
ROOT
ATOM      1  C   UNL     1     219.926 221.852 220.850  1.00  0.00     0.062 C 
ATOM      2  C   UNL     1     220.476 220.480 220.375  1.00  0.00     0.012 C 
ATOM      3  C   UNL     1     219.287 219.501 220.402  1.00  0.00     0.005 C 
ATOM      4  C   UNL     1     218.158 220.297 221.044  1.00  0.00    -0.001 C 
ATOM      5  C   UNL     1     218.402 221.747 220.610  1.00  0.00    -0.020 C 
ATOM      6  C   UNL     1     217.537 222.653 221.516  1.00  0.00     0.008 C 
ATOM      7  C   UNL     1     216.040 222.283 221.399  1.00  0.00     0.005 C 
ATOM      8  C   UNL     1     215.749 220.763 221.640  1.00  0.00     0.003 C 
ATOM      9  C   UNL     1     216.700 219.836 220.825  1.00  0.00     0.000 C 
ATOM     10  C   UNL     1     216.517 218.399 221.329  1.00  0.00     0.031 C 
ATOM     11  C   UNL     1     215.088 217.971 221.217  1.00  0.00    -0.027 C 
ATOM     12  C   UNL     1     214.049 218.829 221.320  1.00  0.00    -0.065 C 
ATOM     13  C   UNL     1     214.227 220.353 221.465  1.00  0.00    -0.008 C 
ATOM     14  C   UNL     1     213.598 221.012 220.195  1.00  0.00     0.014 C 
ATOM     15  C   UNL     1     212.187 220.491 219.845  1.00  0.00     0.033 C 
ATOM     16  C   UNL     1     212.132 218.960 219.737  1.00  0.00     0.118 C 
ATOM     17  C   UNL     1     212.658 218.307 221.022  1.00  0.00     0.063 C 
ATOM     18  C   UNL     1     213.460 220.823 222.729  1.00  0.00     0.016 C 
ATOM     19  C   UNL     1     218.080 222.012 219.103  1.00  0.00     0.012 C 
ENDROOT
BRANCH   1  20
ATOM     20  C   UNL     1     220.581 223.086 220.246  1.00  0.00     0.133 C 
ATOM     21  C   UNL     1     220.407 224.465 220.816  1.00  0.00     0.088 C 
ATOM     22  O   UNL     1     221.269 222.952 219.245  1.00  0.00    -0.300 OA
ENDBRANCH   1  20
BRANCH  16  23
ATOM     23  O   UNL     1     212.887 218.540 218.629  1.00  0.00    -0.393 OA
ATOM     24  H   UNL     1     213.067 219.347 218.081  1.00  0.00     0.210 HD
ENDBRANCH  16  23
TORSDOF 2
ENDMDL
MODEL 4
REMARK VINA RESULT:    -5.404      4.248      6.979
REMARK INTER + INTRA:          -5.989
REMARK INTER:                  -5.873
REMARK INTRA:                  -0.117
REMARK UNBOUND:                -0.111
REMARK SMILES CC(=O)[C@@H]1CC[C@@H]2[C@H]3CC=C4C[C@H](O)CC[C@]4(C)[C@@H]3CC[C@]21C
REMARK SMILES IDX 4 1 5 2 6 3 7 4 22 5 21 6 20 7 19 8 8 9 9 10 10 11 11 12
REMARK SMILES IDX 17 13 16 14 15 15 13 16 12 17 18 18 23 19 2 20 1 21 3 22
REMARK SMILES IDX 14 23
REMARK H PARENT 14 24
REMARK Flexibility Score: inf
ROOT
ATOM      1  C   UNL     1     214.500 212.521 220.855  1.00  0.00     0.062 C 
ATOM      2  C   UNL     1     213.945 213.887 220.369  1.00  0.00     0.012 C 
ATOM      3  C   UNL     1     215.130 214.870 220.389  1.00  0.00     0.005 C 
ATOM      4  C   UNL     1     216.262 214.084 221.039  1.00  0.00    -0.001 C 
ATOM      5  C   UNL     1     216.024 212.630 220.615  1.00  0.00    -0.020 C 
ATOM      6  C   UNL     1     216.891 211.734 221.529  1.00  0.00     0.008 C 
ATOM      7  C   UNL     1     218.387 212.108 221.410  1.00  0.00     0.005 C 
ATOM      8  C   UNL     1     218.672 213.631 221.641  1.00  0.00     0.003 C 
ATOM      9  C   UNL     1     217.718 214.548 220.818  1.00  0.00     0.000 C 
ATOM     10  C   UNL     1     217.896 215.990 221.311  1.00  0.00     0.031 C 
ATOM     11  C   UNL     1     219.323 216.422 221.197  1.00  0.00    -0.027 C 
ATOM     12  C   UNL     1     220.365 215.569 221.307  1.00  0.00    -0.065 C 
ATOM     13  C   UNL     1     220.192 214.045 221.464  1.00  0.00    -0.008 C 
ATOM     14  C   UNL     1     220.825 213.379 220.200  1.00  0.00     0.014 C 
ATOM     15  C   UNL     1     222.235 213.902 219.847  1.00  0.00     0.033 C 
ATOM     16  C   UNL     1     222.285 215.432 219.727  1.00  0.00     0.118 C 
ATOM     17  C   UNL     1     221.754 216.093 221.007  1.00  0.00     0.063 C 
ATOM     18  C   UNL     1     220.960 213.588 222.733  1.00  0.00     0.016 C 
ATOM     19  C   UNL     1     216.347 212.355 219.111  1.00  0.00     0.012 C 
ENDROOT
BRANCH   1  20
ATOM     20  C   UNL     1     213.849 211.280 220.259  1.00  0.00     0.133 C 
ATOM     21  C   UNL     1     214.015 209.908 220.849  1.00  0.00     0.088 C 
ATOM     22  O   UNL     1     213.174 211.402 219.249  1.00  0.00    -0.300 OA
ENDBRANCH   1  20
BRANCH  16  23
ATOM     23  O   UNL     1     221.529 215.842 218.616  1.00  0.00    -0.393 OA
ATOM     24  H   UNL     1     222.147 215.861 217.839  1.00  0.00     0.210 HD
ENDBRANCH  16  23
TORSDOF 2
ENDMDL
MODEL 5
REMARK VINA RESULT:    -5.371      3.316      6.277
REMARK INTER + INTRA:          -5.953
REMARK INTER:                  -5.827
REMARK INTRA:                  -0.126
REMARK UNBOUND:                -0.111
REMARK SMILES CC(=O)[C@@H]1CC[C@@H]2[C@H]3CC=C4C[C@H](O)CC[C@]4(C)[C@@H]3CC[C@]21C
REMARK SMILES IDX 4 1 5 2 6 3 7 4 22 5 21 6 20 7 19 8 8 9 9 10 10 11 11 12
REMARK SMILES IDX 17 13 16 14 15 15 13 16 12 17 18 18 23 19 2 20 1 21 3 22
REMARK SMILES IDX 14 23
REMARK H PARENT 14 24
REMARK Flexibility Score: inf
ROOT
ATOM      1  C   UNL     1     218.490 220.812 219.619  1.00  0.00     0.062 C 
ATOM      2  C   UNL     1     217.941 222.260 219.713  1.00  0.00     0.012 C 
ATOM      3  C   UNL     1     216.436 222.136 220.016  1.00  0.00     0.005 C 
ATOM      4  C   UNL     1     216.153 220.643 219.917  1.00  0.00    -0.001 C 
ATOM      5  C   UNL     1     217.446 219.966 220.384  1.00  0.00    -0.020 C 
ATOM      6  C   UNL     1     217.372 218.482 219.957  1.00  0.00     0.008 C 
ATOM      7  C   UNL     1     216.132 217.792 220.571  1.00  0.00     0.005 C 
ATOM      8  C   UNL     1     214.790 218.551 220.291  1.00  0.00     0.003 C 
ATOM      9  C   UNL     1     214.890 220.075 220.601  1.00  0.00     0.000 C 
ATOM     10  C   UNL     1     213.634 220.760 220.049  1.00  0.00     0.031 C 
ATOM     11  C   UNL     1     212.395 220.152 220.627  1.00  0.00    -0.027 C 
ATOM     12  C   UNL     1     212.313 218.856 221.001  1.00  0.00    -0.065 C 
ATOM     13  C   UNL     1     213.514 217.891 220.963  1.00  0.00    -0.008 C 
ATOM     14  C   UNL     1     213.801 217.459 222.437  1.00  0.00     0.014 C 
ATOM     15  C   UNL     1     212.549 217.005 223.220  1.00  0.00     0.033 C 
ATOM     16  C   UNL     1     211.418 218.042 223.177  1.00  0.00     0.118 C 
ATOM     17  C   UNL     1     211.064 218.399 221.726  1.00  0.00     0.063 C 
ATOM     18  C   UNL     1     213.124 216.647 220.122  1.00  0.00     0.016 C 
ATOM     19  C   UNL     1     217.693 220.081 221.924  1.00  0.00     0.012 C 
ENDROOT
BRANCH   1  20
ATOM     20  C   UNL     1     219.929 220.607 220.071  1.00  0.00     0.133 C 
ATOM     21  C   UNL     1     220.748 221.694 220.707  1.00  0.00     0.088 C 
ATOM     22  O   UNL     1     220.447 219.514 219.897  1.00  0.00    -0.300 OA
ENDBRANCH   1  20
BRANCH  16  23
ATOM     23  O   UNL     1     211.808 219.193 223.882  1.00  0.00    -0.393 OA
ATOM     24  H   UNL     1     211.005 219.772 223.955  1.00  0.00     0.210 HD
ENDBRANCH  16  23
TORSDOF 2
ENDMDL
MODEL 6
REMARK VINA RESULT:    -5.371      4.346      7.444
REMARK INTER + INTRA:          -5.953
REMARK INTER:                  -5.824
REMARK INTRA:                  -0.129
REMARK UNBOUND:                -0.111
REMARK SMILES CC(=O)[C@@H]1CC[C@@H]2[C@H]3CC=C4C[C@H](O)CC[C@]4(C)[C@@H]3CC[C@]21C
REMARK SMILES IDX 4 1 5 2 6 3 7 4 22 5 21 6 20 7 19 8 8 9 9 10 10 11 11 12
REMARK SMILES IDX 17 13 16 14 15 15 13 16 12 17 18 18 23 19 2 20 1 21 3 22
REMARK SMILES IDX 14 23
REMARK H PARENT 14 24
REMARK Flexibility Score: inf
ROOT
ATOM      1  C   UNL     1     215.918 213.584 219.632  1.00  0.00     0.062 C 
ATOM      2  C   UNL     1     216.468 212.136 219.729  1.00  0.00     0.012 C 
ATOM      3  C   UNL     1     217.973 212.260 220.030  1.00  0.00     0.005 C 
ATOM      4  C   UNL     1     218.256 213.753 219.927  1.00  0.00    -0.001 C 
ATOM      5  C   UNL     1     216.963 214.432 220.394  1.00  0.00    -0.020 C 
ATOM      6  C   UNL     1     217.038 215.915 219.964  1.00  0.00     0.008 C 
ATOM      7  C   UNL     1     218.278 216.606 220.574  1.00  0.00     0.005 C 
ATOM      8  C   UNL     1     219.620 215.846 220.295  1.00  0.00     0.003 C 
ATOM      9  C   UNL     1     219.519 214.323 220.608  1.00  0.00     0.000 C 
ATOM     10  C   UNL     1     220.775 213.637 220.056  1.00  0.00     0.031 C 
ATOM     11  C   UNL     1     222.014 214.245 220.631  1.00  0.00    -0.027 C 
ATOM     12  C   UNL     1     222.098 215.542 221.002  1.00  0.00    -0.065 C 
ATOM     13  C   UNL     1     220.896 216.507 220.963  1.00  0.00    -0.008 C 
ATOM     14  C   UNL     1     220.611 216.943 222.437  1.00  0.00     0.014 C 
ATOM     15  C   UNL     1     221.864 217.399 223.217  1.00  0.00     0.033 C 
ATOM     16  C   UNL     1     222.996 216.361 223.175  1.00  0.00     0.118 C 
ATOM     17  C   UNL     1     223.348 216.001 221.725  1.00  0.00     0.063 C 
ATOM     18  C   UNL     1     221.286 217.750 220.119  1.00  0.00     0.016 C 
ATOM     19  C   UNL     1     216.719 214.321 221.934  1.00  0.00     0.012 C 
ENDROOT
BRANCH   1  20
ATOM     20  C   UNL     1     214.480 213.790 220.085  1.00  0.00     0.133 C 
ATOM     21  C   UNL     1     213.666 212.709 220.736  1.00  0.00     0.088 C 
ATOM     22  O   UNL     1     213.958 214.880 219.899  1.00  0.00    -0.300 OA
ENDBRANCH   1  20
BRANCH  16  23
ATOM     23  O   UNL     1     222.606 215.212 223.884  1.00  0.00    -0.393 OA
ATOM     24  H   UNL     1     222.047 215.519 224.644  1.00  0.00     0.210 HD
ENDBRANCH  16  23
TORSDOF 2
ENDMDL
MODEL 7
REMARK VINA RESULT:    -5.362      5.308      9.081
REMARK INTER + INTRA:          -5.943
REMARK INTER:                  -5.802
REMARK INTRA:                  -0.141
REMARK UNBOUND:                -0.111
REMARK SMILES CC(=O)[C@@H]1CC[C@@H]2[C@H]3CC=C4C[C@H](O)CC[C@]4(C)[C@@H]3CC[C@]21C
REMARK SMILES IDX 4 1 5 2 6 3 7 4 22 5 21 6 20 7 19 8 8 9 9 10 10 11 11 12
REMARK SMILES IDX 17 13 16 14 15 15 13 16 12 17 18 18 23 19 2 20 1 21 3 22
REMARK SMILES IDX 14 23
REMARK H PARENT 14 24
REMARK Flexibility Score: inf
ROOT
ATOM      1  C   UNL     1     220.824 215.819 219.677  1.00  0.00     0.062 C 
ATOM      2  C   UNL     1     222.277 216.362 219.742  1.00  0.00     0.012 C 
ATOM      3  C   UNL     1     222.164 217.875 220.008  1.00  0.00     0.005 C 
ATOM      4  C   UNL     1     220.671 218.164 219.917  1.00  0.00    -0.001 C 
ATOM      5  C   UNL     1     219.992 216.887 220.424  1.00  0.00    -0.020 C 
ATOM      6  C   UNL     1     218.504 216.959 220.010  1.00  0.00     0.008 C 
ATOM      7  C   UNL     1     217.827 218.218 220.599  1.00  0.00     0.005 C 
ATOM      8  C   UNL     1     218.591 219.548 220.277  1.00  0.00     0.003 C 
ATOM      9  C   UNL     1     220.117 219.447 220.573  1.00  0.00     0.000 C 
ATOM     10  C   UNL     1     220.803 220.685 219.982  1.00  0.00     0.031 C 
ATOM     11  C   UNL     1     220.208 221.941 220.534  1.00  0.00    -0.027 C 
ATOM     12  C   UNL     1     218.916 222.041 220.919  1.00  0.00    -0.065 C 
ATOM     13  C   UNL     1     217.945 220.844 220.922  1.00  0.00    -0.008 C 
ATOM     14  C   UNL     1     217.526 220.598 222.408  1.00  0.00     0.014 C 
ATOM     15  C   UNL     1     217.087 221.872 223.162  1.00  0.00     0.033 C 
ATOM     16  C   UNL     1     218.130 222.996 223.080  1.00  0.00     0.118 C 
ATOM     17  C   UNL     1     218.474 223.310 221.617  1.00  0.00     0.063 C 
ATOM     18  C   UNL     1     216.694 221.220 220.084  1.00  0.00     0.016 C 
ATOM     19  C   UNL     1     220.121 216.680 221.968  1.00  0.00     0.012 C 
ENDROOT
BRANCH   1  20
ATOM     20  C   UNL     1     220.616 214.393 220.168  1.00  0.00     0.133 C 
ATOM     21  C   UNL     1     221.679 213.614 220.890  1.00  0.00     0.088 C 
ATOM     22  O   UNL     1     219.542 213.852 219.955  1.00  0.00    -0.300 OA
ENDBRANCH   1  20
BRANCH  16  23
ATOM     23  O   UNL     1     219.286 222.617 223.783  1.00  0.00    -0.393 OA
ATOM     24  H   UNL     1     219.080 221.757 224.232  1.00  0.00     0.210 HD
ENDBRANCH  16  23
TORSDOF 2
ENDMDL
MODEL 8
REMARK VINA RESULT:    -5.351      1.929      3.505
REMARK INTER + INTRA:          -5.932
REMARK INTER:                  -5.791
REMARK INTRA:                  -0.141
REMARK UNBOUND:                -0.111
REMARK SMILES CC(=O)[C@@H]1CC[C@@H]2[C@H]3CC=C4C[C@H](O)CC[C@]4(C)[C@@H]3CC[C@]21C
REMARK SMILES IDX 4 1 5 2 6 3 7 4 22 5 21 6 20 7 19 8 8 9 9 10 10 11 11 12
REMARK SMILES IDX 17 13 16 14 15 15 13 16 12 17 18 18 23 19 2 20 1 21 3 22
REMARK SMILES IDX 14 23
REMARK H PARENT 14 24
REMARK Flexibility Score: inf
ROOT
ATOM      1  C   UNL     1     213.565 218.526 219.680  1.00  0.00     0.062 C 
ATOM      2  C   UNL     1     212.096 218.027 219.737  1.00  0.00     0.012 C 
ATOM      3  C   UNL     1     212.160 216.514 220.017  1.00  0.00     0.005 C 
ATOM      4  C   UNL     1     213.644 216.179 219.941  1.00  0.00    -0.001 C 
ATOM      5  C   UNL     1     214.358 217.439 220.443  1.00  0.00    -0.020 C 
ATOM      6  C   UNL     1     215.846 217.318 220.043  1.00  0.00     0.008 C 
ATOM      7  C   UNL     1     216.480 216.044 220.648  1.00  0.00     0.005 C 
ATOM      8  C   UNL     1     215.679 214.735 220.331  1.00  0.00     0.003 C 
ATOM      9  C   UNL     1     214.154 214.886 220.613  1.00  0.00     0.000 C 
ATOM     10  C   UNL     1     213.435 213.664 220.026  1.00  0.00     0.031 C 
ATOM     11  C   UNL     1     213.987 212.395 220.595  1.00  0.00    -0.027 C 
ATOM     12  C   UNL     1     215.271 212.259 220.991  1.00  0.00    -0.065 C 
ATOM     13  C   UNL     1     216.279 213.426 220.993  1.00  0.00    -0.008 C 
ATOM     14  C   UNL     1     216.693 213.672 222.480  1.00  0.00     0.014 C 
ATOM     15  C   UNL     1     217.086 212.392 223.249  1.00  0.00     0.033 C 
ATOM     16  C   UNL     1     216.010 211.300 223.167  1.00  0.00     0.118 C 
ATOM     17  C   UNL     1     215.669 210.983 221.704  1.00  0.00     0.063 C 
ATOM     18  C   UNL     1     217.525 213.004 220.169  1.00  0.00     0.016 C 
ATOM     19  C   UNL     1     214.222 217.664 221.984  1.00  0.00     0.012 C 
ENDROOT
BRANCH   1  20
ATOM     20  C   UNL     1     213.812 219.949 220.161  1.00  0.00     0.133 C 
ATOM     21  C   UNL     1     212.767 220.766 220.865  1.00  0.00     0.088 C 
ATOM     22  O   UNL     1     214.905 220.455 219.953  1.00  0.00    -0.300 OA
ENDBRANCH   1  20
BRANCH  16  23
ATOM     23  O   UNL     1     214.860 211.720 223.857  1.00  0.00    -0.393 OA
ATOM     24  H   UNL     1     214.920 211.340 224.772  1.00  0.00     0.210 HD
ENDBRANCH  16  23
TORSDOF 2
ENDMDL
MODEL 9
REMARK VINA RESULT:    -5.256      5.143      7.001
REMARK INTER + INTRA:          -5.828
REMARK INTER:                  -5.687
REMARK INTRA:                  -0.141
REMARK UNBOUND:                -0.111
REMARK SMILES CC(=O)[C@@H]1CC[C@@H]2[C@H]3CC=C4C[C@H](O)CC[C@]4(C)[C@@H]3CC[C@]21C
REMARK SMILES IDX 4 1 5 2 6 3 7 4 22 5 21 6 20 7 19 8 8 9 9 10 10 11 11 12
REMARK SMILES IDX 17 13 16 14 15 15 13 16 12 17 18 18 23 19 2 20 1 21 3 22
REMARK SMILES IDX 14 23
REMARK H PARENT 14 24
REMARK Flexibility Score: inf
ROOT
ATOM      1  C   UNL     1     219.310 220.450 220.079  1.00  0.00     0.062 C 
ATOM      2  C   UNL     1     217.783 220.302 220.309  1.00  0.00     0.012 C 
ATOM      3  C   UNL     1     217.504 218.791 220.424  1.00  0.00     0.005 C 
ATOM      4  C   UNL     1     218.838 218.135 220.089  1.00  0.00    -0.001 C 
ATOM      5  C   UNL     1     219.898 219.118 220.599  1.00  0.00    -0.020 C 
ATOM      6  C   UNL     1     221.248 218.711 219.966  1.00  0.00     0.008 C 
ATOM      7  C   UNL     1     221.617 217.256 220.337  1.00  0.00     0.005 C 
ATOM      8  C   UNL     1     220.483 216.222 220.017  1.00  0.00     0.003 C 
ATOM      9  C   UNL     1     219.090 216.682 220.543  1.00  0.00     0.000 C 
ATOM     10  C   UNL     1     218.024 215.749 219.954  1.00  0.00     0.031 C 
ATOM     11  C   UNL     1     218.311 214.322 220.302  1.00  0.00    -0.027 C 
ATOM     12  C   UNL     1     219.561 213.842 220.482  1.00  0.00    -0.065 C 
ATOM     13  C   UNL     1     220.818 214.733 220.446  1.00  0.00    -0.008 C 
ATOM     14  C   UNL     1     221.462 214.676 221.869  1.00  0.00     0.014 C 
ATOM     15  C   UNL     1     221.618 213.248 222.437  1.00  0.00     0.033 C 
ATOM     16  C   UNL     1     220.304 212.455 222.412  1.00  0.00     0.118 C 
ATOM     17  C   UNL     1     219.716 212.425 220.994  1.00  0.00     0.063 C 
ATOM     18  C   UNL     1     221.809 214.149 219.403  1.00  0.00     0.016 C 
ATOM     19  C   UNL     1     220.014 219.160 222.158  1.00  0.00     0.012 C 
ENDROOT
BRANCH   1  20
ATOM     20  C   UNL     1     219.960 221.700 220.655  1.00  0.00     0.133 C 
ATOM     21  C   UNL     1     219.246 222.634 221.591  1.00  0.00     0.088 C 
ATOM     22  O   UNL     1     221.109 221.964 220.333  1.00  0.00    -0.300 OA
ENDBRANCH   1  20
BRANCH  16  23
ATOM     23  O   UNL     1     219.389 213.034 223.308  1.00  0.00    -0.393 OA
ATOM     24  H   UNL     1     219.176 213.938 222.958  1.00  0.00     0.210 HD
ENDBRANCH  16  23
TORSDOF 2
ENDMDL
