MODEL 1
REMARK VINA RESULT:    -5.054      0.000      0.000
REMARK INTER + INTRA:         -10.471
REMARK INTER:                  -9.486
REMARK INTRA:                  -0.984
REMARK UNBOUND:                -0.984
REMARK SMILES O=C([O-])CCCCCCCCCCCCCCC(=O)[O-]
REMARK SMILES IDX 10 1 9 2 8 3 7 4 6 5 5 6 4 7 2 8 1 9 3 10 11 11 12 12 13 13
REMARK SMILES IDX 14 14 15 15 16 16 17 17 18 18 19 19 20 20
REMARK H PARENT
REMARK Flexibility Score: inf
ROOT
ATOM      1  C   UNL     1      -2.601   9.482  -4.912  1.00  0.00     0.000 C 
ENDROOT
BRANCH   1   2
ATOM      2  C   UNL     1      -1.879   8.212  -5.390  1.00  0.00     0.000 C 
BRANCH   2   3
ATOM      3  C   UNL     1      -0.407   8.467  -5.752  1.00  0.00     0.000 C 
BRANCH   3   4
ATOM      4  C   UNL     1      -0.187   9.832  -6.418  1.00  0.00     0.000 C 
BRANCH   4   5
ATOM      5  C   UNL     1       0.760   9.712  -7.618  1.00  0.00     0.000 C 
BRANCH   5   6
ATOM      6  C   UNL     1       1.496   8.367  -7.607  1.00  0.00     0.006 C 
BRANCH   6   7
ATOM      7  C   UNL     1       2.639   8.357  -8.626  1.00  0.00     0.053 C 
BRANCH   7   8
ATOM      8  C   UNL     1       3.553   7.199  -8.378  1.00  0.00     0.041 C 
ATOM      9  O   UNL     1       3.178   6.241  -7.652  1.00  0.00    -0.550 OA
ATOM     10  O   UNL     1       4.838   7.201  -8.907  1.00  0.00    -0.550 OA
ENDBRANCH   7   8
ENDBRANCH   6   7
ENDBRANCH   5   6
ENDBRANCH   4   5
ENDBRANCH   3   4
ENDBRANCH   2   3
ENDBRANCH   1   2
BRANCH   1  11
ATOM     11  C   UNL     1      -3.118   9.311  -3.478  1.00  0.00     0.000 C 
BRANCH  11  12
ATOM     12  C   UNL     1      -4.490   9.974  -3.305  1.00  0.00     0.000 C 
BRANCH  12  13
ATOM     13  C   UNL     1      -5.253  10.016  -4.635  1.00  0.00     0.000 C 
BRANCH  13  14
ATOM     14  C   UNL     1      -6.229   8.835  -4.747  1.00  0.00     0.000 C 
BRANCH  14  15
ATOM     15  C   UNL     1      -5.709   7.720  -5.668  1.00  0.00     0.000 C 
BRANCH  15  16
ATOM     16  C   UNL     1      -6.208   6.326  -5.251  1.00  0.00     0.006 C 
BRANCH  16  17
ATOM     17  C   UNL     1      -7.711   6.148  -5.509  1.00  0.00     0.053 C 
BRANCH  17  18
ATOM     18  C   UNL     1      -7.977   5.580  -6.870  1.00  0.00     0.041 C 
ATOM     19  O   UNL     1      -8.408   4.403  -6.993  1.00  0.00    -0.550 OA
ATOM     20  O   UNL     1      -7.719   6.340  -8.003  1.00  0.00    -0.550 OA
ENDBRANCH  17  18
ENDBRANCH  16  17
ENDBRANCH  15  16
ENDBRANCH  14  15
ENDBRANCH  13  14
ENDBRANCH  12  13
ENDBRANCH  11  12
ENDBRANCH   1  11
TORSDOF 15
ENDMDL
MODEL 2
REMARK VINA RESULT:    -4.793      1.722      1.974
REMARK INTER + INTRA:          -9.980
REMARK INTER:                  -8.817
REMARK INTRA:                  -1.164
REMARK UNBOUND:                -0.984
REMARK SMILES O=C([O-])CCCCCCCCCCCCCCC(=O)[O-]
REMARK SMILES IDX 10 1 9 2 8 3 7 4 6 5 5 6 4 7 2 8 1 9 3 10 11 11 12 12 13 13
REMARK SMILES IDX 14 14 15 15 16 16 17 17 18 18 19 19 20 20
REMARK H PARENT
REMARK Flexibility Score: inf
ROOT
ATOM      1  C   UNL     1      -2.772   8.903  -4.768  1.00  0.00     0.000 C 
ENDROOT
BRANCH   1   2
ATOM      2  C   UNL     1      -1.253   8.770  -4.571  1.00  0.00     0.000 C 
BRANCH   2   3
ATOM      3  C   UNL     1      -0.449   9.564  -5.612  1.00  0.00     0.000 C 
BRANCH   3   4
ATOM      4  C   UNL     1      -0.872   9.250  -7.054  1.00  0.00     0.000 C 
BRANCH   4   5
ATOM      5  C   UNL     1       0.320   9.364  -8.013  1.00  0.00     0.000 C 
BRANCH   5   6
ATOM      6  C   UNL     1       1.488   8.485  -7.548  1.00  0.00     0.006 C 
BRANCH   6   7
ATOM      7  C   UNL     1       2.567   8.387  -8.630  1.00  0.00     0.053 C 
BRANCH   7   8
ATOM      8  C   UNL     1       3.482   7.236  -8.354  1.00  0.00     0.041 C 
ATOM      9  O   UNL     1       3.163   6.363  -7.504  1.00  0.00    -0.550 OA
ATOM     10  O   UNL     1       4.711   7.155  -8.997  1.00  0.00    -0.550 OA
ENDBRANCH   7   8
ENDBRANCH   6   7
ENDBRANCH   5   6
ENDBRANCH   4   5
ENDBRANCH   3   4
ENDBRANCH   2   3
ENDBRANCH   1   2
BRANCH   1  11
ATOM     11  C   UNL     1      -3.452   9.375  -3.477  1.00  0.00     0.000 C 
BRANCH  11  12
ATOM     12  C   UNL     1      -4.914   9.759  -3.733  1.00  0.00     0.000 C 
BRANCH  12  13
ATOM     13  C   UNL     1      -5.406   9.190  -5.070  1.00  0.00     0.000 C 
BRANCH  13  14
ATOM     14  C   UNL     1      -6.517   8.151  -4.851  1.00  0.00     0.000 C 
BRANCH  14  15
ATOM     15  C   UNL     1      -6.015   6.705  -4.998  1.00  0.00     0.000 C 
BRANCH  15  16
ATOM     16  C   UNL     1      -5.807   6.297  -6.467  1.00  0.00     0.006 C 
BRANCH  16  17
ATOM     17  C   UNL     1      -4.322   6.150  -6.822  1.00  0.00     0.053 C 
BRANCH  17  18
ATOM     18  C   UNL     1      -4.124   5.869  -8.280  1.00  0.00     0.041 C 
ATOM     19  O   UNL     1      -4.544   4.793  -8.782  1.00  0.00    -0.550 OA
ATOM     20  O   UNL     1      -3.449   6.783  -9.079  1.00  0.00    -0.550 OA
ENDBRANCH  17  18
ENDBRANCH  16  17
ENDBRANCH  15  16
ENDBRANCH  14  15
ENDBRANCH  13  14
ENDBRANCH  12  13
ENDBRANCH  11  12
ENDBRANCH   1  11
TORSDOF 15
ENDMDL
MODEL 3
REMARK VINA RESULT:    -4.657      0.954      8.855
REMARK INTER + INTRA:          -9.725
REMARK INTER:                  -8.741
REMARK INTRA:                  -0.985
REMARK UNBOUND:                -0.984
REMARK SMILES O=C([O-])CCCCCCCCCCCCCCC(=O)[O-]
REMARK SMILES IDX 10 1 9 2 8 3 7 4 6 5 5 6 4 7 2 8 1 9 3 10 11 11 12 12 13 13
REMARK SMILES IDX 14 14 15 15 16 16 17 17 18 18 19 19 20 20
REMARK H PARENT
REMARK Flexibility Score: inf
ROOT
ATOM      1  C   UNL     1      -2.988   9.133  -3.438  1.00  0.00     0.000 C 
ENDROOT
BRANCH   1   2
ATOM      2  C   UNL     1      -4.280   9.963  -3.387  1.00  0.00     0.000 C 
BRANCH   2   3
ATOM      3  C   UNL     1      -5.390   9.389  -4.282  1.00  0.00     0.000 C 
BRANCH   3   4
ATOM      4  C   UNL     1      -4.845   8.487  -5.398  1.00  0.00     0.000 C 
BRANCH   4   5
ATOM      5  C   UNL     1      -5.330   7.043  -5.223  1.00  0.00     0.000 C 
BRANCH   5   6
ATOM      6  C   UNL     1      -6.828   6.924  -5.527  1.00  0.00     0.006 C 
BRANCH   6   7
ATOM      7  C   UNL     1      -7.086   5.887  -6.625  1.00  0.00     0.053 C 
BRANCH   7   8
ATOM      8  C   UNL     1      -8.458   5.305  -6.483  1.00  0.00     0.041 C 
ATOM      9  O   UNL     1      -8.743   4.214  -7.043  1.00  0.00    -0.550 OA
ATOM     10  O   UNL     1      -9.436   5.993  -5.776  1.00  0.00    -0.550 OA
ENDBRANCH   7   8
ENDBRANCH   6   7
ENDBRANCH   5   6
ENDBRANCH   4   5
ENDBRANCH   3   4
ENDBRANCH   2   3
ENDBRANCH   1   2
BRANCH   1  11
ATOM     11  C   UNL     1      -1.794  10.001  -3.855  1.00  0.00     0.000 C 
BRANCH  11  12
ATOM     12  C   UNL     1      -1.533   9.893  -5.361  1.00  0.00     0.000 C 
BRANCH  12  13
ATOM     13  C   UNL     1      -1.171   8.456  -5.756  1.00  0.00     0.000 C 
BRANCH  13  14
ATOM     14  C   UNL     1       0.328   8.330  -6.065  1.00  0.00     0.000 C 
BRANCH  14  15
ATOM     15  C   UNL     1       0.774   9.233  -7.226  1.00  0.00     0.000 C 
BRANCH  15  16
ATOM     16  C   UNL     1       1.220   8.433  -8.462  1.00  0.00     0.006 C 
BRANCH  16  17
ATOM     17  C   UNL     1       2.703   8.654  -8.791  1.00  0.00     0.053 C 
BRANCH  17  18
ATOM     18  C   UNL     1       3.526   7.441  -8.482  1.00  0.00     0.041 C 
ATOM     19  O   UNL     1       3.095   6.565  -7.687  1.00  0.00    -0.550 OA
ATOM     20  O   UNL     1       4.785   7.294  -9.050  1.00  0.00    -0.550 OA
ENDBRANCH  17  18
ENDBRANCH  16  17
ENDBRANCH  15  16
ENDBRANCH  14  15
ENDBRANCH  13  14
ENDBRANCH  12  13
ENDBRANCH  11  12
ENDBRANCH   1  11
TORSDOF 15
ENDMDL
MODEL 4
REMARK VINA RESULT:    -4.610      1.725      7.908
REMARK INTER + INTRA:          -9.637
REMARK INTER:                  -8.621
REMARK INTRA:                  -1.016
REMARK UNBOUND:                -0.984
REMARK SMILES O=C([O-])CCCCCCCCCCCCCCC(=O)[O-]
REMARK SMILES IDX 10 1 9 2 8 3 7 4 6 5 5 6 4 7 2 8 1 9 3 10 11 11 12 12 13 13
REMARK SMILES IDX 14 14 15 15 16 16 17 17 18 18 19 19 20 20
REMARK H PARENT
REMARK Flexibility Score: inf
ROOT
ATOM      1  C   UNL     1      -3.325   9.042  -3.422  1.00  0.00     0.000 C 
ENDROOT
BRANCH   1   2
ATOM      2  C   UNL     1      -4.560   9.893  -3.758  1.00  0.00     0.000 C 
BRANCH   2   3
ATOM      3  C   UNL     1      -5.203   9.503  -5.098  1.00  0.00     0.000 C 
BRANCH   3   4
ATOM      4  C   UNL     1      -6.603   8.896  -4.930  1.00  0.00     0.000 C 
BRANCH   4   5
ATOM      5  C   UNL     1      -6.538   7.364  -4.897  1.00  0.00     0.000 C 
BRANCH   5   6
ATOM      6  C   UNL     1      -6.133   6.800  -6.264  1.00  0.00     0.006 C 
BRANCH   6   7
ATOM      7  C   UNL     1      -4.771   6.104  -6.190  1.00  0.00     0.053 C 
BRANCH   7   8
ATOM      8  C   UNL     1      -4.139   6.045  -7.545  1.00  0.00     0.041 C 
ATOM      9  O   UNL     1      -3.586   7.066  -8.030  1.00  0.00    -0.550 OA
ATOM     10  O   UNL     1      -4.204   4.876  -8.292  1.00  0.00    -0.550 OA
ENDBRANCH   7   8
ENDBRANCH   6   7
ENDBRANCH   5   6
ENDBRANCH   4   5
ENDBRANCH   3   4
ENDBRANCH   2   3
ENDBRANCH   1   2
BRANCH   1  11
ATOM     11  C   UNL     1      -2.032   9.788  -3.777  1.00  0.00     0.000 C 
BRANCH  11  12
ATOM     12  C   UNL     1      -1.700   9.637  -5.265  1.00  0.00     0.000 C 
BRANCH  12  13
ATOM     13  C   UNL     1      -1.026   8.288  -5.545  1.00  0.00     0.000 C 
BRANCH  13  14
ATOM     14  C   UNL     1       0.318   8.482  -6.262  1.00  0.00     0.000 C 
BRANCH  14  15
ATOM     15  C   UNL     1       0.216   9.421  -7.474  1.00  0.00     0.000 C 
BRANCH  15  16
ATOM     16  C   UNL     1       1.442   9.331  -8.399  1.00  0.00     0.006 C 
BRANCH  16  17
ATOM     17  C   UNL     1       2.236   8.036  -8.184  1.00  0.00     0.053 C 
BRANCH  17  18
ATOM     18  C   UNL     1       3.518   8.035  -8.959  1.00  0.00     0.041 C 
ATOM     19  O   UNL     1       3.725   8.905  -9.846  1.00  0.00    -0.550 OA
ATOM     20  O   UNL     1       4.472   7.054  -8.723  1.00  0.00    -0.550 OA
ENDBRANCH  17  18
ENDBRANCH  16  17
ENDBRANCH  15  16
ENDBRANCH  14  15
ENDBRANCH  13  14
ENDBRANCH  12  13
ENDBRANCH  11  12
ENDBRANCH   1  11
TORSDOF 15
ENDMDL
MODEL 5
REMARK VINA RESULT:    -4.409      4.161      5.990
REMARK INTER + INTRA:          -9.260
REMARK INTER:                  -7.144
REMARK INTRA:                  -2.116
REMARK UNBOUND:                -0.984
REMARK SMILES O=C([O-])CCCCCCCCCCCCCCC(=O)[O-]
REMARK SMILES IDX 10 1 9 2 8 3 7 4 6 5 5 6 4 7 2 8 1 9 3 10 11 11 12 12 13 13
REMARK SMILES IDX 14 14 15 15 16 16 17 17 18 18 19 19 20 20
REMARK H PARENT
REMARK Flexibility Score: inf
ROOT
ATOM      1  C   UNL     1      -1.575   8.595  -6.317  1.00  0.00     0.000 C 
ENDROOT
BRANCH   1   2
ATOM      2  C   UNL     1      -1.129   8.623  -4.847  1.00  0.00     0.000 C 
BRANCH   2   3
ATOM      3  C   UNL     1      -1.920   9.638  -4.006  1.00  0.00     0.000 C 
BRANCH   3   4
ATOM      4  C   UNL     1      -3.174   9.027  -3.364  1.00  0.00     0.000 C 
BRANCH   4   5
ATOM      5  C   UNL     1      -4.361   9.994  -3.447  1.00  0.00     0.000 C 
BRANCH   5   6
ATOM      6  C   UNL     1      -5.232   9.694  -4.674  1.00  0.00     0.006 C 
BRANCH   6   7
ATOM      7  C   UNL     1      -5.151   8.213  -5.056  1.00  0.00     0.053 C 
BRANCH   7   8
ATOM      8  C   UNL     1      -6.499   7.572  -4.958  1.00  0.00     0.041 C 
ATOM      9  O   UNL     1      -7.535   8.285  -4.894  1.00  0.00    -0.550 OA
ATOM     10  O   UNL     1      -6.609   6.189  -4.886  1.00  0.00    -0.550 OA
ENDBRANCH   7   8
ENDBRANCH   6   7
ENDBRANCH   5   6
ENDBRANCH   4   5
ENDBRANCH   3   4
ENDBRANCH   2   3
ENDBRANCH   1   2
BRANCH   1  11
ATOM     11  C   UNL     1      -2.137   9.957  -6.746  1.00  0.00     0.000 C 
BRANCH  11  12
ATOM     12  C   UNL     1      -3.208   9.794  -7.831  1.00  0.00     0.000 C 
BRANCH  12  13
ATOM     13  C   UNL     1      -2.836   8.671  -8.808  1.00  0.00     0.000 C 
BRANCH  13  14
ATOM     14  C   UNL     1      -4.064   7.818  -9.160  1.00  0.00     0.000 C 
BRANCH  14  15
ATOM     15  C   UNL     1      -3.907   6.348  -8.741  1.00  0.00     0.000 C 
BRANCH  15  16
ATOM     16  C   UNL     1      -5.165   5.789  -8.055  1.00  0.00     0.006 C 
BRANCH  16  17
ATOM     17  C   UNL     1      -6.343   5.651  -9.029  1.00  0.00     0.053 C 
BRANCH  17  18
ATOM     18  C   UNL     1      -7.657   5.618  -8.310  1.00  0.00     0.041 C 
ATOM     19  O   UNL     1      -8.227   4.519  -8.078  1.00  0.00    -0.550 OA
ATOM     20  O   UNL     1      -8.269   6.804  -7.924  1.00  0.00    -0.550 OA
ENDBRANCH  17  18
ENDBRANCH  16  17
ENDBRANCH  15  16
ENDBRANCH  14  15
ENDBRANCH  13  14
ENDBRANCH  12  13
ENDBRANCH  11  12
ENDBRANCH   1  11
TORSDOF 15
ENDMDL
MODEL 6
REMARK VINA RESULT:    -4.164      1.700      2.654
REMARK INTER + INTRA:          -8.800
REMARK INTER:                  -7.805
REMARK INTRA:                  -0.995
REMARK UNBOUND:                -0.984
REMARK SMILES O=C([O-])CCCCCCCCCCCCCCC(=O)[O-]
REMARK SMILES IDX 10 1 9 2 8 3 7 4 6 5 5 6 4 7 2 8 1 9 3 10 11 11 12 12 13 13
REMARK SMILES IDX 14 14 15 15 16 16 17 17 18 18 19 19 20 20
REMARK H PARENT
REMARK Flexibility Score: inf
ROOT
ATOM      1  C   UNL     1      -3.373   8.943  -4.247  1.00  0.00     0.000 C 
ENDROOT
BRANCH   1   2
ATOM      2  C   UNL     1      -2.041   8.815  -5.003  1.00  0.00     0.000 C 
BRANCH   2   3
ATOM      3  C   UNL     1      -1.959   9.745  -6.223  1.00  0.00     0.000 C 
BRANCH   3   4
ATOM      4  C   UNL     1      -1.063   9.186  -7.337  1.00  0.00     0.000 C 
BRANCH   4   5
ATOM      5  C   UNL     1       0.412   9.507  -7.069  1.00  0.00     0.000 C 
BRANCH   5   6
ATOM      6  C   UNL     1       1.256   8.227  -7.024  1.00  0.00     0.006 C 
BRANCH   6   7
ATOM      7  C   UNL     1       2.074   8.063  -8.308  1.00  0.00     0.053 C 
BRANCH   7   8
ATOM      8  C   UNL     1       3.233   7.145  -8.077  1.00  0.00     0.041 C 
ATOM      9  O   UNL     1       4.350   7.390  -8.605  1.00  0.00    -0.550 OA
ATOM     10  O   UNL     1       3.067   5.993  -7.319  1.00  0.00    -0.550 OA
ENDBRANCH   7   8
ENDBRANCH   6   7
ENDBRANCH   5   6
ENDBRANCH   4   5
ENDBRANCH   3   4
ENDBRANCH   2   3
ENDBRANCH   1   2
BRANCH   1  11
ATOM     11  C   UNL     1      -4.536   8.406  -5.090  1.00  0.00     0.000 C 
BRANCH  11  12
ATOM     12  C   UNL     1      -4.103   7.188  -5.915  1.00  0.00     0.000 C 
BRANCH  12  13
ATOM     13  C   UNL     1      -5.293   6.262  -6.194  1.00  0.00     0.000 C 
BRANCH  13  14
ATOM     14  C   UNL     1      -6.390   6.440  -5.135  1.00  0.00     0.000 C 
BRANCH  14  15
ATOM     15  C   UNL     1      -7.747   5.871  -5.582  1.00  0.00     0.000 C 
BRANCH  15  16
ATOM     16  C   UNL     1      -8.887   6.898  -5.467  1.00  0.00     0.006 C 
BRANCH  16  17
ATOM     17  C   UNL     1      -8.370   8.299  -5.111  1.00  0.00     0.053 C 
BRANCH  17  18
ATOM     18  C   UNL     1      -8.386   9.214  -6.298  1.00  0.00     0.041 C 
ATOM     19  O   UNL     1      -7.360   9.338  -7.018  1.00  0.00    -0.550 OA
ATOM     20  O   UNL     1      -9.524   9.954  -6.589  1.00  0.00    -0.550 OA
ENDBRANCH  17  18
ENDBRANCH  16  17
ENDBRANCH  15  16
ENDBRANCH  14  15
ENDBRANCH  13  14
ENDBRANCH  12  13
ENDBRANCH  11  12
ENDBRANCH   1  11
TORSDOF 15
ENDMDL
MODEL 7
REMARK VINA RESULT:    -3.968      1.360      2.093
REMARK INTER + INTRA:          -8.433
REMARK INTER:                  -7.608
REMARK INTRA:                  -0.825
REMARK UNBOUND:                -0.984
REMARK SMILES O=C([O-])CCCCCCCCCCCCCCC(=O)[O-]
REMARK SMILES IDX 10 1 9 2 8 3 7 4 6 5 5 6 4 7 2 8 1 9 3 10 11 11 12 12 13 13
REMARK SMILES IDX 14 14 15 15 16 16 17 17 18 18 19 19 20 20
REMARK H PARENT
REMARK Flexibility Score: inf
ROOT
ATOM      1  C   UNL     1      -3.481   8.672  -4.422  1.00  0.00     0.000 C 
ENDROOT
BRANCH   1   2
ATOM      2  C   UNL     1      -2.227   9.374  -4.967  1.00  0.00     0.000 C 
BRANCH   2   3
ATOM      3  C   UNL     1      -2.338   9.713  -6.461  1.00  0.00     0.000 C 
BRANCH   3   4
ATOM      4  C   UNL     1      -1.278   8.998  -7.312  1.00  0.00     0.000 C 
BRANCH   4   5
ATOM      5  C   UNL     1       0.136   9.427  -6.903  1.00  0.00     0.000 C 
BRANCH   5   6
ATOM      6  C   UNL     1       1.089   8.226  -6.870  1.00  0.00     0.006 C 
BRANCH   6   7
ATOM      7  C   UNL     1       2.125   8.316  -7.995  1.00  0.00     0.053 C 
BRANCH   7   8
ATOM      8  C   UNL     1       3.121   7.205  -7.879  1.00  0.00     0.041 C 
ATOM      9  O   UNL     1       3.083   6.421  -6.895  1.00  0.00    -0.550 OA
ATOM     10  O   UNL     1       4.123   7.068  -8.832  1.00  0.00    -0.550 OA
ENDBRANCH   7   8
ENDBRANCH   6   7
ENDBRANCH   5   6
ENDBRANCH   4   5
ENDBRANCH   3   4
ENDBRANCH   2   3
ENDBRANCH   1   2
BRANCH   1  11
ATOM     11  C   UNL     1      -4.498   8.419  -5.542  1.00  0.00     0.000 C 
BRANCH  11  12
ATOM     12  C   UNL     1      -4.821   6.925  -5.666  1.00  0.00     0.000 C 
BRANCH  12  13
ATOM     13  C   UNL     1      -6.208   6.613  -5.090  1.00  0.00     0.000 C 
BRANCH  13  14
ATOM     14  C   UNL     1      -7.054   7.889  -4.969  1.00  0.00     0.000 C 
BRANCH  14  15
ATOM     15  C   UNL     1      -8.532   7.659  -5.326  1.00  0.00     0.000 C 
BRANCH  15  16
ATOM     16  C   UNL     1      -8.849   8.011  -6.790  1.00  0.00     0.006 C 
BRANCH  16  17
ATOM     17  C   UNL     1      -8.041   7.159  -7.778  1.00  0.00     0.053 C 
BRANCH  17  18
ATOM     18  C   UNL     1      -8.688   5.829  -8.022  1.00  0.00     0.041 C 
ATOM     19  O   UNL     1      -9.902   5.652  -7.739  1.00  0.00    -0.550 OA
ATOM     20  O   UNL     1      -7.940   4.777  -8.535  1.00  0.00    -0.550 OA
ENDBRANCH  17  18
ENDBRANCH  16  17
ENDBRANCH  15  16
ENDBRANCH  14  15
ENDBRANCH  13  14
ENDBRANCH  12  13
ENDBRANCH  11  12
ENDBRANCH   1  11
TORSDOF 15
ENDMDL
MODEL 8
REMARK VINA RESULT:    -3.911      2.838      4.901
REMARK INTER + INTRA:          -8.325
REMARK INTER:                  -7.728
REMARK INTRA:                  -0.597
REMARK UNBOUND:                -0.984
REMARK SMILES O=C([O-])CCCCCCCCCCCCCCC(=O)[O-]
REMARK SMILES IDX 10 1 9 2 8 3 7 4 6 5 5 6 4 7 2 8 1 9 3 10 11 11 12 12 13 13
REMARK SMILES IDX 14 14 15 15 16 16 17 17 18 18 19 19 20 20
REMARK H PARENT
REMARK Flexibility Score: inf
ROOT
ATOM      1  C   UNL     1       1.878   7.473  -6.783  1.00  0.00     0.000 C 
ENDROOT
BRANCH   1   2
ATOM      2  C   UNL     1       3.018   6.875  -7.623  1.00  0.00     0.000 C 
BRANCH   2   3
ATOM      3  C   UNL     1       3.490   7.818  -8.740  1.00  0.00     0.000 C 
BRANCH   3   4
ATOM      4  C   UNL     1       4.512   7.161  -9.679  1.00  0.00     0.000 C 
BRANCH   4   5
ATOM      5  C   UNL     1       5.586   8.166 -10.112  1.00  0.00     0.000 C 
BRANCH   5   6
ATOM      6  C   UNL     1       6.981   7.529 -10.080  1.00  0.00     0.006 C 
BRANCH   6   7
ATOM      7  C   UNL     1       8.067   8.592  -9.891  1.00  0.00     0.053 C 
BRANCH   7   8
ATOM      8  C   UNL     1       8.908   8.275  -8.695  1.00  0.00     0.041 C 
ATOM      9  O   UNL     1       9.640   7.251  -8.689  1.00  0.00    -0.550 OA
ATOM     10  O   UNL     1       8.846   9.083  -7.566  1.00  0.00    -0.550 OA
ENDBRANCH   7   8
ENDBRANCH   6   7
ENDBRANCH   5   6
ENDBRANCH   4   5
ENDBRANCH   3   4
ENDBRANCH   2   3
ENDBRANCH   1   2
BRANCH   1  11
ATOM     11  C   UNL     1       1.213   8.645  -7.516  1.00  0.00     0.000 C 
BRANCH  11  12
ATOM     12  C   UNL     1      -0.076   9.076  -6.809  1.00  0.00     0.000 C 
BRANCH  12  13
ATOM     13  C   UNL     1      -1.122   9.563  -7.821  1.00  0.00     0.000 C 
BRANCH  13  14
ATOM     14  C   UNL     1      -2.547   9.290  -7.314  1.00  0.00     0.000 C 
BRANCH  14  15
ATOM     15  C   UNL     1      -2.726   7.858  -6.785  1.00  0.00     0.000 C 
BRANCH  15  16
ATOM     16  C   UNL     1      -4.102   7.635  -6.134  1.00  0.00     0.006 C 
BRANCH  16  17
ATOM     17  C   UNL     1      -5.054   6.853  -7.049  1.00  0.00     0.053 C 
BRANCH  17  18
ATOM     18  C   UNL     1      -6.132   6.163  -6.269  1.00  0.00     0.041 C 
ATOM     19  O   UNL     1      -7.065   5.565  -6.867  1.00  0.00    -0.550 OA
ATOM     20  O   UNL     1      -6.121   6.207  -4.881  1.00  0.00    -0.550 OA
ENDBRANCH  17  18
ENDBRANCH  16  17
ENDBRANCH  15  16
ENDBRANCH  14  15
ENDBRANCH  13  14
ENDBRANCH  12  13
ENDBRANCH  11  12
ENDBRANCH   1  11
TORSDOF 15
ENDMDL
MODEL 9
REMARK VINA RESULT:    -3.895      1.719      2.098
REMARK INTER + INTRA:          -8.295
REMARK INTER:                  -7.125
REMARK INTRA:                  -1.170
REMARK UNBOUND:                -0.984
REMARK SMILES O=C([O-])CCCCCCCCCCCCCCC(=O)[O-]
REMARK SMILES IDX 10 1 9 2 8 3 7 4 6 5 5 6 4 7 2 8 1 9 3 10 11 11 12 12 13 13
REMARK SMILES IDX 14 14 15 15 16 16 17 17 18 18 19 19 20 20
REMARK H PARENT
REMARK Flexibility Score: inf
ROOT
ATOM      1  C   UNL     1      -1.594   8.629  -4.211  1.00  0.00     0.000 C 
ENDROOT
BRANCH   1   2
ATOM      2  C   UNL     1      -0.355   8.691  -5.119  1.00  0.00     0.000 C 
BRANCH   2   3
ATOM      3  C   UNL     1      -0.448   9.802  -6.176  1.00  0.00     0.000 C 
BRANCH   3   4
ATOM      4  C   UNL     1      -0.285   9.274  -7.608  1.00  0.00     0.000 C 
BRANCH   4   5
ATOM      5  C   UNL     1       1.134   9.532  -8.130  1.00  0.00     0.000 C 
BRANCH   5   6
ATOM      6  C   UNL     1       1.725   8.268  -8.767  1.00  0.00     0.006 C 
BRANCH   6   7
ATOM      7  C   UNL     1       3.071   8.566  -9.433  1.00  0.00     0.053 C 
BRANCH   7   8
ATOM      8  C   UNL     1       4.130   7.647  -8.910  1.00  0.00     0.041 C 
ATOM      9  O   UNL     1       3.835   6.753  -8.074  1.00  0.00    -0.550 OA
ATOM     10  O   UNL     1       5.451   7.809  -9.308  1.00  0.00    -0.550 OA
ENDBRANCH   7   8
ENDBRANCH   6   7
ENDBRANCH   5   6
ENDBRANCH   4   5
ENDBRANCH   3   4
ENDBRANCH   2   3
ENDBRANCH   1   2
BRANCH   1  11
ATOM     11  C   UNL     1      -2.200  10.024  -4.015  1.00  0.00     0.000 C 
BRANCH  11  12
ATOM     12  C   UNL     1      -3.713  10.008  -4.264  1.00  0.00     0.000 C 
BRANCH  12  13
ATOM     13  C   UNL     1      -4.176   8.628  -4.747  1.00  0.00     0.000 C 
BRANCH  13  14
ATOM     14  C   UNL     1      -4.418   8.628  -6.264  1.00  0.00     0.000 C 
BRANCH  14  15
ATOM     15  C   UNL     1      -5.465   9.665  -6.699  1.00  0.00     0.000 C 
BRANCH  15  16
ATOM     16  C   UNL     1      -6.859   9.049  -6.908  1.00  0.00     0.006 C 
BRANCH  16  17
ATOM     17  C   UNL     1      -7.784   9.290  -5.707  1.00  0.00     0.053 C 
BRANCH  17  18
ATOM     18  C   UNL     1      -8.278   8.003  -5.119  1.00  0.00     0.041 C 
ATOM     19  O   UNL     1      -9.381   7.964  -4.512  1.00  0.00    -0.550 OA
ATOM     20  O   UNL     1      -7.504   6.854  -5.215  1.00  0.00    -0.550 OA
ENDBRANCH  17  18
ENDBRANCH  16  17
ENDBRANCH  15  16
ENDBRANCH  14  15
ENDBRANCH  13  14
ENDBRANCH  12  13
ENDBRANCH  11  12
ENDBRANCH   1  11
TORSDOF 15
ENDMDL
