MODEL 1
REMARK VINA RESULT:    -7.375      0.000      0.000
REMARK INTER + INTRA:          -9.180
REMARK INTER:                  -8.885
REMARK INTRA:                  -0.295
REMARK UNBOUND:                -0.295
REMARK SMILES O=c1c(O)c(-c2ccc(O)c(O)c2)oc2cc(O)cc(O)c12
REMARK SMILES IDX 5 1 3 2 2 3 1 4 22 5 20 6 19 7 17 8 16 9 15 10 14 11 6 12
REMARK SMILES IDX 7 13 8 14 9 15 13 16 11 17 10 18 12 20 4 22 21 24 18 26
REMARK H PARENT 10 19 12 21 4 23 21 25 18 27
REMARK Flexibility Score: inf
ROOT
ATOM      1  C   UNL     1      -6.612  48.254 -15.474  1.00  0.00     0.180 A 
ATOM      2  C   UNL     1      -7.327  49.448 -15.274  1.00  0.00     0.208 A 
ATOM      3  C   UNL     1      -6.653  50.567 -14.760  1.00  0.00     0.238 A 
ATOM      4  O   UNL     1      -7.310  51.617 -14.533  1.00  0.00    -0.285 OA
ATOM      5  C   UNL     1      -5.271  50.483 -14.467  1.00  0.00     0.111 A 
ATOM      6  C   UNL     1      -4.479  51.567 -13.981  1.00  0.00     0.134 A 
ATOM      7  C   UNL     1      -3.150  51.335 -13.601  1.00  0.00     0.093 A 
ATOM      8  C   UNL     1      -2.568  50.075 -13.753  1.00  0.00     0.123 A 
ATOM      9  C   UNL     1      -3.315  49.026 -14.283  1.00  0.00     0.094 A 
ATOM     10  C   UNL     1      -4.652  49.217 -14.637  1.00  0.00     0.146 A 
ATOM     11  O   UNL     1      -5.332  48.188 -15.128  1.00  0.00    -0.452 OA
ENDROOT
BRANCH   1  12
ATOM     12  C   UNL     1      -7.248  47.040 -16.036  1.00  0.00     0.025 A 
ATOM     13  C   UNL     1      -7.074  46.680 -17.384  1.00  0.00     0.016 A 
ATOM     14  C   UNL     1      -7.663  45.516 -17.884  1.00  0.00     0.051 A 
ATOM     15  C   UNL     1      -8.422  44.690 -17.046  1.00  0.00     0.157 A 
ATOM     16  C   UNL     1      -7.992  46.197 -15.194  1.00  0.00     0.062 A 
ATOM     17  C   UNL     1      -8.584  45.031 -15.693  1.00  0.00     0.158 A 
BRANCH  15  18
ATOM     18  O   UNL     1      -9.011  43.530 -17.550  1.00  0.00    -0.504 OA
ATOM     19  H   UNL     1      -8.505  42.903 -18.165  1.00  0.00     0.293 HD
ENDBRANCH  15  18
BRANCH  17  20
ATOM     20  O   UNL     1      -9.327  44.226 -14.830  1.00  0.00    -0.504 OA
ATOM     21  H   UNL     1      -9.102  43.250 -14.677  1.00  0.00     0.293 HD
ENDBRANCH  17  20
ENDBRANCH   1  12
BRANCH   2  22
ATOM     22  O   UNL     1      -8.696  49.502 -15.550  1.00  0.00    -0.502 OA
ATOM     23  H   UNL     1      -9.350  48.815 -15.197  1.00  0.00     0.293 HD
ENDBRANCH   2  22
BRANCH   6  24
ATOM     24  O   UNL     1      -4.936  52.884 -13.878  1.00  0.00    -0.507 OA
ATOM     25  H   UNL     1      -4.522  53.674 -14.349  1.00  0.00     0.293 HD
ENDBRANCH   6  24
BRANCH   8  26
ATOM     26  O   UNL     1      -1.241  49.857 -13.389  1.00  0.00    -0.508 OA
ATOM     27  H   UNL     1      -0.624  50.625 -13.150  1.00  0.00     0.293 HD
ENDBRANCH   8  26
TORSDOF 6
ENDMDL
MODEL 2
REMARK VINA RESULT:    -7.028      1.225      2.893
REMARK INTER + INTRA:          -8.761
REMARK INTER:                  -8.462
REMARK INTRA:                  -0.299
REMARK UNBOUND:                -0.295
REMARK SMILES O=c1c(O)c(-c2ccc(O)c(O)c2)oc2cc(O)cc(O)c12
REMARK SMILES IDX 5 1 3 2 2 3 1 4 22 5 20 6 19 7 17 8 16 9 15 10 14 11 6 12
REMARK SMILES IDX 7 13 8 14 9 15 13 16 11 17 10 18 12 20 4 22 21 24 18 26
REMARK H PARENT 10 19 12 21 4 23 21 25 18 27
REMARK Flexibility Score: inf
ROOT
ATOM      1  C   UNL     1      -5.896  48.310 -15.262  1.00  0.00     0.180 A 
ATOM      2  C   UNL     1      -4.551  48.127 -14.898  1.00  0.00     0.208 A 
ATOM      3  C   UNL     1      -3.844  49.204 -14.340  1.00  0.00     0.238 A 
ATOM      4  O   UNL     1      -2.625  49.049 -14.064  1.00  0.00    -0.285 OA
ATOM      5  C   UNL     1      -4.494  50.445 -14.139  1.00  0.00     0.111 A 
ATOM      6  C   UNL     1      -3.886  51.591 -13.545  1.00  0.00     0.134 A 
ATOM      7  C   UNL     1      -4.583  52.806 -13.516  1.00  0.00     0.093 A 
ATOM      8  C   UNL     1      -5.890  52.897 -14.000  1.00  0.00     0.123 A 
ATOM      9  C   UNL     1      -6.514  51.770 -14.528  1.00  0.00     0.094 A 
ATOM     10  C   UNL     1      -5.831  50.553 -14.603  1.00  0.00     0.146 A 
ATOM     11  O   UNL     1      -6.459  49.505 -15.123  1.00  0.00    -0.452 OA
ENDROOT
BRANCH   1  12
ATOM     12  C   UNL     1      -6.714  47.215 -15.834  1.00  0.00     0.025 A 
ATOM     13  C   UNL     1      -6.631  46.875 -17.196  1.00  0.00     0.016 A 
ATOM     14  C   UNL     1      -7.393  45.822 -17.707  1.00  0.00     0.051 A 
ATOM     15  C   UNL     1      -8.238  45.086 -16.866  1.00  0.00     0.157 A 
ATOM     16  C   UNL     1      -7.546  46.461 -14.991  1.00  0.00     0.062 A 
ATOM     17  C   UNL     1      -8.311  45.406 -15.500  1.00  0.00     0.158 A 
BRANCH  15  18
ATOM     18  O   UNL     1      -9.000  44.037 -17.380  1.00  0.00    -0.504 OA
ATOM     19  H   UNL     1      -8.574  43.163 -17.665  1.00  0.00     0.293 HD
ENDBRANCH  15  18
BRANCH  17  20
ATOM     20  O   UNL     1      -9.137  44.689 -14.635  1.00  0.00    -0.504 OA
ATOM     21  H   UNL     1      -8.764  44.063 -13.931  1.00  0.00     0.293 HD
ENDBRANCH  17  20
ENDBRANCH   1  12
BRANCH   2  22
ATOM     22  O   UNL     1      -3.922  46.899 -15.124  1.00  0.00    -0.502 OA
ATOM     23  H   UNL     1      -3.054  46.819 -15.640  1.00  0.00     0.293 HD
ENDBRANCH   2  22
BRANCH   6  24
ATOM     24  O   UNL     1      -2.621  51.584 -12.949  1.00  0.00    -0.507 OA
ATOM     25  H   UNL     1      -1.789  51.977 -13.362  1.00  0.00     0.293 HD
ENDBRANCH   6  24
BRANCH   8  26
ATOM     26  O   UNL     1      -6.583  54.105 -13.952  1.00  0.00    -0.508 OA
ATOM     27  H   UNL     1      -6.408  54.843 -14.625  1.00  0.00     0.293 HD
ENDBRANCH   8  26
TORSDOF 6
ENDMDL
MODEL 3
REMARK VINA RESULT:    -6.868      2.800      5.930
REMARK INTER + INTRA:          -8.569
REMARK INTER:                  -8.312
REMARK INTRA:                  -0.256
REMARK UNBOUND:                -0.295
REMARK SMILES O=c1c(O)c(-c2ccc(O)c(O)c2)oc2cc(O)cc(O)c12
REMARK SMILES IDX 5 1 3 2 2 3 1 4 22 5 20 6 19 7 17 8 16 9 15 10 14 11 6 12
REMARK SMILES IDX 7 13 8 14 9 15 13 16 11 17 10 18 12 20 4 22 21 24 18 26
REMARK H PARENT 10 19 12 21 4 23 21 25 18 27
REMARK Flexibility Score: inf
ROOT
ATOM      1  C   UNL     1      -6.761  50.932 -16.019  1.00  0.00     0.180 A 
ATOM      2  C   UNL     1      -7.037  49.656 -16.539  1.00  0.00     0.208 A 
ATOM      3  C   UNL     1      -6.154  48.600 -16.260  1.00  0.00     0.238 A 
ATOM      4  O   UNL     1      -6.378  47.473 -16.773  1.00  0.00    -0.285 OA
ATOM      5  C   UNL     1      -5.015  48.830 -15.452  1.00  0.00     0.111 A 
ATOM      6  C   UNL     1      -4.076  47.825 -15.071  1.00  0.00     0.134 A 
ATOM      7  C   UNL     1      -2.916  48.192 -14.377  1.00  0.00     0.093 A 
ATOM      8  C   UNL     1      -2.695  49.517 -13.994  1.00  0.00     0.123 A 
ATOM      9  C   UNL     1      -3.635  50.495 -14.308  1.00  0.00     0.094 A 
ATOM     10  C   UNL     1      -4.784  50.165 -15.030  1.00  0.00     0.146 A 
ATOM     11  O   UNL     1      -5.650  51.130 -15.319  1.00  0.00    -0.452 OA
ENDROOT
BRANCH   1  12
ATOM     12  C   UNL     1      -7.657  52.088 -16.250  1.00  0.00     0.025 A 
ATOM     13  C   UNL     1      -8.908  52.182 -15.614  1.00  0.00     0.016 A 
ATOM     14  C   UNL     1      -9.726  53.294 -15.828  1.00  0.00     0.051 A 
ATOM     15  C   UNL     1      -9.303  54.333 -16.667  1.00  0.00     0.157 A 
ATOM     16  C   UNL     1      -7.229  53.142 -17.072  1.00  0.00     0.062 A 
ATOM     17  C   UNL     1      -8.046  54.257 -17.289  1.00  0.00     0.158 A 
BRANCH  15  18
ATOM     18  O   UNL     1     -10.123  55.441 -16.880  1.00  0.00    -0.504 OA
ATOM     19  H   UNL     1      -9.829  56.375 -16.619  1.00  0.00     0.293 HD
ENDBRANCH  15  18
BRANCH  17  20
ATOM     20  O   UNL     1      -7.592  55.277 -18.124  1.00  0.00    -0.504 OA
ATOM     21  H   UNL     1      -6.677  55.698 -18.011  1.00  0.00     0.293 HD
ENDBRANCH  17  20
ENDBRANCH   1  12
BRANCH   2  22
ATOM     22  O   UNL     1      -8.156  49.455 -17.354  1.00  0.00    -0.502 OA
ATOM     23  H   UNL     1      -8.855  48.751 -17.154  1.00  0.00     0.293 HD
ENDBRANCH   2  22
BRANCH   6  24
ATOM     24  O   UNL     1      -4.246  46.460 -15.324  1.00  0.00    -0.507 OA
ATOM     25  H   UNL     1      -3.589  45.883 -15.825  1.00  0.00     0.293 HD
ENDBRANCH   6  24
BRANCH   8  26
ATOM     26  O   UNL     1      -1.546  49.870 -13.289  1.00  0.00    -0.508 OA
ATOM     27  H   UNL     1      -1.524  49.864 -12.275  1.00  0.00     0.293 HD
ENDBRANCH   8  26
TORSDOF 6
ENDMDL
MODEL 4
REMARK VINA RESULT:    -6.772      2.776      7.759
REMARK INTER + INTRA:          -8.453
REMARK INTER:                  -8.157
REMARK INTRA:                  -0.295
REMARK UNBOUND:                -0.295
REMARK SMILES O=c1c(O)c(-c2ccc(O)c(O)c2)oc2cc(O)cc(O)c12
REMARK SMILES IDX 5 1 3 2 2 3 1 4 22 5 20 6 19 7 17 8 16 9 15 10 14 11 6 12
REMARK SMILES IDX 7 13 8 14 9 15 13 16 11 17 10 18 12 20 4 22 21 24 18 26
REMARK H PARENT 10 19 12 21 4 23 21 25 18 27
REMARK Flexibility Score: inf
ROOT
ATOM      1  C   UNL     1      -4.748  51.941 -13.072  1.00  0.00     0.180 A 
ATOM      2  C   UNL     1      -3.364  51.701 -13.114  1.00  0.00     0.208 A 
ATOM      3  C   UNL     1      -2.903  50.451 -13.557  1.00  0.00     0.238 A 
ATOM      4  O   UNL     1      -1.665  50.223 -13.542  1.00  0.00    -0.285 OA
ATOM      5  C   UNL     1      -3.831  49.463 -13.966  1.00  0.00     0.111 A 
ATOM      6  C   UNL     1      -3.474  48.176 -14.471  1.00  0.00     0.134 A 
ATOM      7  C   UNL     1      -4.477  47.231 -14.722  1.00  0.00     0.093 A 
ATOM      8  C   UNL     1      -5.826  47.550 -14.550  1.00  0.00     0.123 A 
ATOM      9  C   UNL     1      -6.187  48.822 -14.115  1.00  0.00     0.094 A 
ATOM     10  C   UNL     1      -5.208  49.774 -13.822  1.00  0.00     0.146 A 
ATOM     11  O   UNL     1      -5.595  50.972 -13.399  1.00  0.00    -0.452 OA
ENDROOT
BRANCH   1  12
ATOM     12  C   UNL     1      -5.309  53.243 -12.639  1.00  0.00     0.025 A 
ATOM     13  C   UNL     1      -5.776  53.438 -11.328  1.00  0.00     0.016 A 
ATOM     14  C   UNL     1      -6.278  54.682 -10.936  1.00  0.00     0.051 A 
ATOM     15  C   UNL     1      -6.308  55.750 -11.841  1.00  0.00     0.157 A 
ATOM     16  C   UNL     1      -5.322  54.322 -13.537  1.00  0.00     0.062 A 
ATOM     17  C   UNL     1      -5.824  55.569 -13.148  1.00  0.00     0.158 A 
BRANCH  15  18
ATOM     18  O   UNL     1      -6.812  56.989 -11.447  1.00  0.00    -0.504 OA
ATOM     19  H   UNL     1      -7.709  57.074 -10.983  1.00  0.00     0.293 HD
ENDBRANCH  15  18
BRANCH  17  20
ATOM     20  O   UNL     1      -5.834  56.614 -14.071  1.00  0.00    -0.504 OA
ATOM     21  H   UNL     1      -5.218  57.413 -13.986  1.00  0.00     0.293 HD
ENDBRANCH  17  20
ENDBRANCH   1  12
BRANCH   2  22
ATOM     22  O   UNL     1      -2.466  52.683 -12.685  1.00  0.00    -0.502 OA
ATOM     23  H   UNL     1      -2.743  53.449 -12.084  1.00  0.00     0.293 HD
ENDBRANCH   2  22
BRANCH   6  24
ATOM     24  O   UNL     1      -2.163  47.789 -14.766  1.00  0.00    -0.507 OA
ATOM     25  H   UNL     1      -1.708  47.934 -15.654  1.00  0.00     0.293 HD
ENDBRANCH   6  24
BRANCH   8  26
ATOM     26  O   UNL     1      -6.818  46.609 -14.818  1.00  0.00    -0.508 OA
ATOM     27  H   UNL     1      -6.881  46.148 -15.718  1.00  0.00     0.293 HD
ENDBRANCH   8  26
TORSDOF 6
ENDMDL
MODEL 5
REMARK VINA RESULT:    -6.752      3.200      5.196
REMARK INTER + INTRA:          -8.429
REMARK INTER:                  -8.182
REMARK INTRA:                  -0.247
REMARK UNBOUND:                -0.295
REMARK SMILES O=c1c(O)c(-c2ccc(O)c(O)c2)oc2cc(O)cc(O)c12
REMARK SMILES IDX 5 1 3 2 2 3 1 4 22 5 20 6 19 7 17 8 16 9 15 10 14 11 6 12
REMARK SMILES IDX 7 13 8 14 9 15 13 16 11 17 10 18 12 20 4 22 21 24 18 26
REMARK H PARENT 10 19 12 21 4 23 21 25 18 27
REMARK Flexibility Score: inf
ROOT
ATOM      1  C   UNL     1      -6.032  51.336 -15.396  1.00  0.00     0.180 A 
ATOM      2  C   UNL     1      -6.378  51.690 -16.711  1.00  0.00     0.208 A 
ATOM      3  C   UNL     1      -6.935  52.956 -16.952  1.00  0.00     0.238 A 
ATOM      4  O   UNL     1      -7.292  53.246 -18.124  1.00  0.00    -0.285 OA
ATOM      5  C   UNL     1      -7.126  53.857 -15.878  1.00  0.00     0.111 A 
ATOM      6  C   UNL     1      -7.644  55.180 -16.012  1.00  0.00     0.134 A 
ATOM      7  C   UNL     1      -7.912  55.937 -14.864  1.00  0.00     0.093 A 
ATOM      8  C   UNL     1      -7.617  55.443 -13.592  1.00  0.00     0.123 A 
ATOM      9  C   UNL     1      -7.055  54.177 -13.453  1.00  0.00     0.094 A 
ATOM     10  C   UNL     1      -6.810  53.384 -14.577  1.00  0.00     0.146 A 
ATOM     11  O   UNL     1      -6.283  52.178 -14.400  1.00  0.00    -0.452 OA
ENDROOT
BRANCH   1  12
ATOM     12  C   UNL     1      -5.417  50.029 -15.067  1.00  0.00     0.025 A 
ATOM     13  C   UNL     1      -4.062  49.929 -14.705  1.00  0.00     0.016 A 
ATOM     14  C   UNL     1      -3.510  48.688 -14.374  1.00  0.00     0.051 A 
ATOM     15  C   UNL     1      -4.304  47.535 -14.388  1.00  0.00     0.157 A 
ATOM     16  C   UNL     1      -6.213  48.873 -15.058  1.00  0.00     0.062 A 
ATOM     17  C   UNL     1      -5.664  47.629 -14.728  1.00  0.00     0.158 A 
BRANCH  15  18
ATOM     18  O   UNL     1      -3.750  46.297 -14.060  1.00  0.00    -0.504 OA
ATOM     19  H   UNL     1      -2.964  45.916 -14.574  1.00  0.00     0.293 HD
ENDBRANCH  15  18
BRANCH  17  20
ATOM     20  O   UNL     1      -6.483  46.501 -14.745  1.00  0.00    -0.504 OA
ATOM     21  H   UNL     1      -7.033  46.247 -15.557  1.00  0.00     0.293 HD
ENDBRANCH  17  20
ENDBRANCH   1  12
BRANCH   2  22
ATOM     22  O   UNL     1      -6.202  50.776 -17.755  1.00  0.00    -0.502 OA
ATOM     23  H   UNL     1      -6.182  51.058 -18.727  1.00  0.00     0.293 HD
ENDBRANCH   2  22
BRANCH   6  24
ATOM     24  O   UNL     1      -7.887  55.803 -17.241  1.00  0.00    -0.507 OA
ATOM     25  H   UNL     1      -7.995  55.318 -18.118  1.00  0.00     0.293 HD
ENDBRANCH   6  24
BRANCH   8  26
ATOM     26  O   UNL     1      -7.871  56.209 -12.455  1.00  0.00    -0.508 OA
ATOM     27  H   UNL     1      -7.991  55.781 -11.544  1.00  0.00     0.293 HD
ENDBRANCH   8  26
TORSDOF 6
ENDMDL
MODEL 6
REMARK VINA RESULT:    -6.666      3.283      6.584
REMARK INTER + INTRA:          -8.325
REMARK INTER:                  -8.205
REMARK INTRA:                  -0.119
REMARK UNBOUND:                -0.295
REMARK SMILES O=c1c(O)c(-c2ccc(O)c(O)c2)oc2cc(O)cc(O)c12
REMARK SMILES IDX 5 1 3 2 2 3 1 4 22 5 20 6 19 7 17 8 16 9 15 10 14 11 6 12
REMARK SMILES IDX 7 13 8 14 9 15 13 16 11 17 10 18 12 20 4 22 21 24 18 26
REMARK H PARENT 10 19 12 21 4 23 21 25 18 27
REMARK Flexibility Score: inf
ROOT
ATOM      1  C   UNL     1      -7.077  51.628 -16.518  1.00  0.00     0.180 A 
ATOM      2  C   UNL     1      -7.899  50.601 -17.011  1.00  0.00     0.208 A 
ATOM      3  C   UNL     1      -7.530  49.265 -16.782  1.00  0.00     0.238 A 
ATOM      4  O   UNL     1      -8.242  48.349 -17.272  1.00  0.00    -0.285 OA
ATOM      5  C   UNL     1      -6.354  48.975 -16.051  1.00  0.00     0.111 A 
ATOM      6  C   UNL     1      -5.907  47.659 -15.725  1.00  0.00     0.134 A 
ATOM      7  C   UNL     1      -4.660  47.486 -15.110  1.00  0.00     0.093 A 
ATOM      8  C   UNL     1      -3.876  48.585 -14.750  1.00  0.00     0.123 A 
ATOM      9  C   UNL     1      -4.331  49.875 -15.009  1.00  0.00     0.094 A 
ATOM     10  C   UNL     1      -5.554  50.078 -15.654  1.00  0.00     0.146 A 
ATOM     11  O   UNL     1      -5.946  51.324 -15.892  1.00  0.00    -0.452 OA
ENDROOT
BRANCH   1  12
ATOM     12  C   UNL     1      -7.412  53.060 -16.698  1.00  0.00     0.025 A 
ATOM     13  C   UNL     1      -7.533  53.627 -17.979  1.00  0.00     0.016 A 
ATOM     14  C   UNL     1      -7.875  54.974 -18.125  1.00  0.00     0.051 A 
ATOM     15  C   UNL     1      -8.112  55.770 -16.998  1.00  0.00     0.157 A 
ATOM     16  C   UNL     1      -7.672  53.857 -15.572  1.00  0.00     0.062 A 
ATOM     17  C   UNL     1      -8.014  55.207 -15.714  1.00  0.00     0.158 A 
BRANCH  15  18
ATOM     18  O   UNL     1      -8.451  57.115 -17.146  1.00  0.00    -0.504 OA
ATOM     19  H   UNL     1      -9.410  57.432 -17.066  1.00  0.00     0.293 HD
ENDBRANCH  15  18
BRANCH  17  20
ATOM     20  O   UNL     1      -8.250  55.970 -14.571  1.00  0.00    -0.504 OA
ATOM     21  H   UNL     1      -8.922  55.689 -13.867  1.00  0.00     0.293 HD
ENDBRANCH  17  20
ENDBRANCH   1  12
BRANCH   2  22
ATOM     22  O   UNL     1      -9.045  50.909 -17.750  1.00  0.00    -0.502 OA
ATOM     23  H   UNL     1      -9.646  50.197 -18.145  1.00  0.00     0.293 HD
ENDBRANCH   2  22
BRANCH   6  24
ATOM     24  O   UNL     1      -6.654  46.500 -15.957  1.00  0.00    -0.507 OA
ATOM     25  H   UNL     1      -6.646  45.975 -16.818  1.00  0.00     0.293 HD
ENDBRANCH   6  24
BRANCH   8  26
ATOM     26  O   UNL     1      -2.645  48.404 -14.123  1.00  0.00    -0.508 OA
ATOM     27  H   UNL     1      -1.948  47.770 -14.497  1.00  0.00     0.293 HD
ENDBRANCH   8  26
TORSDOF 6
ENDMDL
MODEL 7
REMARK VINA RESULT:    -6.422      9.225     10.390
REMARK INTER + INTRA:          -8.031
REMARK INTER:                  -7.700
REMARK INTRA:                  -0.332
REMARK UNBOUND:                -0.295
REMARK SMILES O=c1c(O)c(-c2ccc(O)c(O)c2)oc2cc(O)cc(O)c12
REMARK SMILES IDX 5 1 3 2 2 3 1 4 22 5 20 6 19 7 17 8 16 9 15 10 14 11 6 12
REMARK SMILES IDX 7 13 8 14 9 15 13 16 11 17 10 18 12 20 4 22 21 24 18 26
REMARK H PARENT 10 19 12 21 4 23 21 25 18 27
REMARK Flexibility Score: inf
ROOT
ATOM      1  C   UNL     1      -7.311  54.249  -7.878  1.00  0.00     0.180 A 
ATOM      2  C   UNL     1      -8.538  54.857  -7.558  1.00  0.00     0.208 A 
ATOM      3  C   UNL     1      -8.974  55.953  -8.319  1.00  0.00     0.238 A 
ATOM      4  O   UNL     1     -10.047  56.526  -7.996  1.00  0.00    -0.285 OA
ATOM      5  C   UNL     1      -8.185  56.419  -9.399  1.00  0.00     0.111 A 
ATOM      6  C   UNL     1      -8.549  57.496 -10.262  1.00  0.00     0.134 A 
ATOM      7  C   UNL     1      -7.632  57.956 -11.216  1.00  0.00     0.093 A 
ATOM      8  C   UNL     1      -6.392  57.335 -11.380  1.00  0.00     0.123 A 
ATOM      9  C   UNL     1      -6.052  56.245 -10.584  1.00  0.00     0.094 A 
ATOM     10  C   UNL     1      -6.931  55.786  -9.599  1.00  0.00     0.146 A 
ATOM     11  O   UNL     1      -6.563  54.750  -8.854  1.00  0.00    -0.452 OA
ENDROOT
BRANCH   1  12
ATOM     12  C   UNL     1      -6.797  53.074  -7.136  1.00  0.00     0.025 A 
ATOM     13  C   UNL     1      -7.109  51.763  -7.537  1.00  0.00     0.016 A 
ATOM     14  C   UNL     1      -6.592  50.670  -6.838  1.00  0.00     0.051 A 
ATOM     15  C   UNL     1      -5.748  50.868  -5.738  1.00  0.00     0.157 A 
ATOM     16  C   UNL     1      -5.934  53.268  -6.047  1.00  0.00     0.062 A 
ATOM     17  C   UNL     1      -5.415  52.175  -5.343  1.00  0.00     0.158 A 
BRANCH  15  18
ATOM     18  O   UNL     1      -5.236  49.775  -5.040  1.00  0.00    -0.504 OA
ATOM     19  H   UNL     1      -4.264  49.500  -5.126  1.00  0.00     0.293 HD
ENDBRANCH  15  18
BRANCH  17  20
ATOM     20  O   UNL     1      -4.572  52.407  -4.257  1.00  0.00    -0.504 OA
ATOM     21  H   UNL     1      -3.584  52.183  -4.285  1.00  0.00     0.293 HD
ENDBRANCH  17  20
ENDBRANCH   1  12
BRANCH   2  22
ATOM     22  O   UNL     1      -9.291  54.395  -6.475  1.00  0.00    -0.502 OA
ATOM     23  H   UNL     1      -9.581  55.000  -5.717  1.00  0.00     0.293 HD
ENDBRANCH   2  22
BRANCH   6  24
ATOM     24  O   UNL     1      -9.797  58.125 -10.243  1.00  0.00    -0.507 OA
ATOM     25  H   UNL     1     -10.659  57.700 -10.550  1.00  0.00     0.293 HD
ENDBRANCH   6  24
BRANCH   8  26
ATOM     26  O   UNL     1      -5.492  57.788 -12.343  1.00  0.00    -0.508 OA
ATOM     27  H   UNL     1      -5.422  58.770 -12.582  1.00  0.00     0.293 HD
ENDBRANCH   8  26
TORSDOF 6
ENDMDL
MODEL 8
REMARK VINA RESULT:    -6.373      1.810      2.305
REMARK INTER + INTRA:          -7.972
REMARK INTER:                  -7.759
REMARK INTRA:                  -0.213
REMARK UNBOUND:                -0.295
REMARK SMILES O=c1c(O)c(-c2ccc(O)c(O)c2)oc2cc(O)cc(O)c12
REMARK SMILES IDX 5 1 3 2 2 3 1 4 22 5 20 6 19 7 17 8 16 9 15 10 14 11 6 12
REMARK SMILES IDX 7 13 8 14 9 15 13 16 11 17 10 18 12 20 4 22 21 24 18 26
REMARK H PARENT 10 19 12 21 4 23 21 25 18 27
REMARK Flexibility Score: inf
ROOT
ATOM      1  C   UNL     1      -7.557  49.437 -15.923  1.00  0.00     0.180 A 
ATOM      2  C   UNL     1      -8.334  50.446 -16.517  1.00  0.00     0.208 A 
ATOM      3  C   UNL     1      -8.067  51.787 -16.200  1.00  0.00     0.238 A 
ATOM      4  O   UNL     1      -8.801  52.684 -16.694  1.00  0.00    -0.285 OA
ATOM      5  C   UNL     1      -7.018  52.104 -15.304  1.00  0.00     0.111 A 
ATOM      6  C   UNL     1      -6.633  53.430 -14.943  1.00  0.00     0.134 A 
ATOM      7  C   UNL     1      -5.666  53.621 -13.948  1.00  0.00     0.093 A 
ATOM      8  C   UNL     1      -5.024  52.534 -13.350  1.00  0.00     0.123 A 
ATOM      9  C   UNL     1      -5.349  51.238 -13.739  1.00  0.00     0.094 A 
ATOM     10  C   UNL     1      -6.335  51.014 -14.702  1.00  0.00     0.146 A 
ATOM     11  O   UNL     1      -6.623  49.762 -15.037  1.00  0.00    -0.452 OA
ENDROOT
BRANCH   1  12
ATOM     12  C   UNL     1      -7.763  48.002 -16.227  1.00  0.00     0.025 A 
ATOM     13  C   UNL     1      -7.488  47.478 -17.502  1.00  0.00     0.016 A 
ATOM     14  C   UNL     1      -7.666  46.116 -17.759  1.00  0.00     0.051 A 
ATOM     15  C   UNL     1      -8.108  45.257 -16.745  1.00  0.00     0.157 A 
ATOM     16  C   UNL     1      -8.185  47.133 -15.208  1.00  0.00     0.062 A 
ATOM     17  C   UNL     1      -8.365  45.768 -15.462  1.00  0.00     0.158 A 
BRANCH  15  18
ATOM     18  O   UNL     1      -8.287  43.898 -17.005  1.00  0.00    -0.504 OA
ATOM     19  H   UNL     1      -7.499  43.281 -17.167  1.00  0.00     0.293 HD
ENDBRANCH  15  18
BRANCH  17  20
ATOM     20  O   UNL     1      -8.799  44.939 -14.428  1.00  0.00    -0.504 OA
ATOM     21  H   UNL     1      -9.773  44.682 -14.318  1.00  0.00     0.293 HD
ENDBRANCH  17  20
ENDBRANCH   1  12
BRANCH   2  22
ATOM     22  O   UNL     1      -9.380  50.111 -17.382  1.00  0.00    -0.502 OA
ATOM     23  H   UNL     1      -9.293  49.390 -18.088  1.00  0.00     0.293 HD
ENDBRANCH   2  22
BRANCH   6  24
ATOM     24  O   UNL     1      -7.145  54.583 -15.545  1.00  0.00    -0.507 OA
ATOM     25  H   UNL     1      -6.790  55.515 -15.395  1.00  0.00     0.293 HD
ENDBRANCH   6  24
BRANCH   8  26
ATOM     26  O   UNL     1      -4.051  52.734 -12.372  1.00  0.00    -0.508 OA
ATOM     27  H   UNL     1      -3.110  53.023 -12.613  1.00  0.00     0.293 HD
ENDBRANCH   8  26
TORSDOF 6
ENDMDL
MODEL 9
REMARK VINA RESULT:    -6.357      3.074      5.392
REMARK INTER + INTRA:          -7.952
REMARK INTER:                  -7.675
REMARK INTRA:                  -0.278
REMARK UNBOUND:                -0.295
REMARK SMILES O=c1c(O)c(-c2ccc(O)c(O)c2)oc2cc(O)cc(O)c12
REMARK SMILES IDX 5 1 3 2 2 3 1 4 22 5 20 6 19 7 17 8 16 9 15 10 14 11 6 12
REMARK SMILES IDX 7 13 8 14 9 15 13 16 11 17 10 18 12 20 4 22 21 24 18 26
REMARK H PARENT 10 19 12 21 4 23 21 25 18 27
REMARK Flexibility Score: inf
ROOT
ATOM      1  C   UNL     1      -5.784  51.467 -14.127  1.00  0.00     0.180 A 
ATOM      2  C   UNL     1      -5.864  52.128 -12.889  1.00  0.00     0.208 A 
ATOM      3  C   UNL     1      -6.450  53.402 -12.835  1.00  0.00     0.238 A 
ATOM      4  O   UNL     1      -6.472  54.012 -11.734  1.00  0.00    -0.285 OA
ATOM      5  C   UNL     1      -6.963  53.993 -14.015  1.00  0.00     0.111 A 
ATOM      6  C   UNL     1      -7.614  55.262 -14.069  1.00  0.00     0.134 A 
ATOM      7  C   UNL     1      -7.965  55.806 -15.312  1.00  0.00     0.093 A 
ATOM      8  C   UNL     1      -7.746  55.096 -16.495  1.00  0.00     0.123 A 
ATOM      9  C   UNL     1      -7.166  53.831 -16.448  1.00  0.00     0.094 A 
ATOM     10  C   UNL     1      -6.773  53.278 -15.227  1.00  0.00     0.146 A 
ATOM     11  O   UNL     1      -6.213  52.074 -15.227  1.00  0.00    -0.452 OA
ENDROOT
BRANCH   1  12
ATOM     12  C   UNL     1      -5.201  50.111 -14.260  1.00  0.00     0.025 A 
ATOM     13  C   UNL     1      -3.810  49.908 -14.245  1.00  0.00     0.016 A 
ATOM     14  C   UNL     1      -3.284  48.618 -14.346  1.00  0.00     0.051 A 
ATOM     15  C   UNL     1      -4.137  47.512 -14.451  1.00  0.00     0.157 A 
ATOM     16  C   UNL     1      -6.052  48.998 -14.343  1.00  0.00     0.062 A 
ATOM     17  C   UNL     1      -5.529  47.704 -14.445  1.00  0.00     0.158 A 
BRANCH  15  18
ATOM     18  O   UNL     1      -3.609  46.225 -14.554  1.00  0.00    -0.504 OA
ATOM     19  H   UNL     1      -2.886  45.897 -13.924  1.00  0.00     0.293 HD
ENDBRANCH  15  18
BRANCH  17  20
ATOM     20  O   UNL     1      -6.406  46.624 -14.540  1.00  0.00    -0.504 OA
ATOM     21  H   UNL     1      -7.172  46.610 -15.204  1.00  0.00     0.293 HD
ENDBRANCH  17  20
ENDBRANCH   1  12
BRANCH   2  22
ATOM     22  O   UNL     1      -5.332  51.536 -11.740  1.00  0.00    -0.502 OA
ATOM     23  H   UNL     1      -5.503  50.568 -11.497  1.00  0.00     0.293 HD
ENDBRANCH   2  22
BRANCH   6  24
ATOM     24  O   UNL     1      -7.962  56.010 -12.941  1.00  0.00    -0.507 OA
ATOM     25  H   UNL     1      -7.511  56.867 -12.659  1.00  0.00     0.293 HD
ENDBRANCH   6  24
BRANCH   8  26
ATOM     26  O   UNL     1      -8.113  55.637 -17.726  1.00  0.00    -0.508 OA
ATOM     27  H   UNL     1      -7.722  55.291 -18.595  1.00  0.00     0.293 HD
ENDBRANCH   8  26
TORSDOF 6
ENDMDL
