MODEL 1
REMARK VINA RESULT:    -5.036      0.000      0.000
REMARK INTER + INTRA:          -7.640
REMARK INTER:                  -7.686
REMARK INTRA:                   0.046
REMARK UNBOUND:                 0.046
REMARK SMILES CC1=CCC[C@H](C)C(=O)C[C@H](C(C)C)C(=O)C1
REMARK SMILES IDX 8 1 9 2 6 3 7 4 5 5 4 6 3 7 2 8 1 9 10 11 11 12 15 13 16 14
REMARK SMILES IDX 17 15 12 17 13 18 14 19
REMARK H PARENT
REMARK Flexibility Score: 70.00
ROOT
ATOM      1  C   UNL     1     -13.896 -32.700  28.144  1.00  0.00     0.136 C 
ATOM      2  O   UNL     1     -14.698 -31.813  27.896  1.00  0.00    -0.299 OA
ENDROOT
BRANCH   1   3
ATOM      3  C   UNL     1     -13.865 -33.946  27.275  1.00  0.00     0.053 C 
ATOM      4  C   UNL     1     -12.437 -34.234  26.796  1.00  0.00     0.016 C 
BRANCH   3   5
ATOM      5  C   UNL     1     -14.442 -35.151  28.050  1.00  0.00     0.015 C 
BRANCH   5   6
ATOM      6  C   UNL     1     -13.502 -36.372  28.011  1.00  0.00     0.028 C 
BRANCH   6   7
ATOM      7  C   UNL     1     -13.394 -37.009  29.373  1.00  0.00    -0.028 C 
ATOM      8  C   UNL     1     -12.446 -36.708  30.291  1.00  0.00    -0.070 CG0
ATOM      9  C   UNL     1     -12.428 -37.498  31.575  1.00  0.00     0.039 C 
ATOM     10  G   UNL     1     -11.422 -35.602  30.088  1.00  0.00     0.000 G0
ENDBRANCH   6   7
ENDBRANCH   5   6
ENDBRANCH   3   5
ENDBRANCH   1   3
BRANCH   1  11
ATOM     11  C   UNL     1     -12.948 -32.540  29.313  1.00  0.00     0.087 C 
BRANCH  11  12
ATOM     12  C   UNL     1     -13.106 -33.601  30.449  1.00  0.00     0.066 C 
BRANCH  12  13
ATOM     13  C   UNL     1     -11.810 -34.321  30.804  1.00  0.00     0.140 C 
ATOM     14  O   UNL     1     -11.111 -33.911  31.721  1.00  0.00    -0.299 OA
BRANCH  13  15
ATOM     15  C   UNL     1     -11.415 -35.596  30.096  1.00  0.00     0.106 CG0
ATOM     16  G   UNL     1     -12.438 -36.706  30.288  1.00  0.00     0.000 G0
ENDBRANCH  13  15
ENDBRANCH  12  13
BRANCH  12  17
ATOM     17  C   UNL     1     -13.858 -33.096  31.724  1.00  0.00    -0.006 C 
ATOM     18  C   UNL     1     -14.809 -31.914  31.475  1.00  0.00     0.008 C 
ATOM     19  C   UNL     1     -14.619 -34.237  32.423  1.00  0.00     0.008 C 
ENDBRANCH  12  17
ENDBRANCH  11  12
ENDBRANCH   1  11
TORSDOF 1
ENDMDL
MODEL 2
REMARK VINA RESULT:    -4.943      2.220      4.216
REMARK INTER + INTRA:          -7.497
REMARK INTER:                  -7.973
REMARK INTRA:                   0.475
REMARK UNBOUND:                 0.046
REMARK SMILES CC1=CCC[C@H](C)C(=O)C[C@H](C(C)C)C(=O)C1
REMARK SMILES IDX 8 1 9 2 6 3 7 4 5 5 4 6 3 7 2 8 1 9 10 11 11 12 15 13 16 14
REMARK SMILES IDX 17 15 12 17 13 18 14 19
REMARK H PARENT
REMARK Flexibility Score: 70.00
ROOT
ATOM      1  C   UNL     1     -13.520 -36.543  29.325  1.00  0.00     0.136 C 
ATOM      2  O   UNL     1     -13.053 -37.499  28.723  1.00  0.00    -0.299 OA
ENDROOT
BRANCH   1   3
ATOM      3  C   UNL     1     -13.566 -36.564  30.842  1.00  0.00     0.053 C 
ATOM      4  C   UNL     1     -12.719 -37.719  31.392  1.00  0.00     0.016 C 
BRANCH   3   5
ATOM      5  C   UNL     1     -13.088 -35.209  31.409  1.00  0.00     0.015 C 
BRANCH   5   6
ATOM      6  C   UNL     1     -11.558 -35.163  31.592  1.00  0.00     0.028 C 
BRANCH   6   7
ATOM      7  C   UNL     1     -10.997 -33.859  31.085  1.00  0.00    -0.028 C 
ATOM      8  C   UNL     1     -10.481 -33.672  29.848  1.00  0.00    -0.070 CG0
ATOM      9  C   UNL     1      -9.883 -32.326  29.526  1.00  0.00     0.039 C 
ATOM     10  G   UNL     1     -10.499 -34.750  28.775  1.00  0.00     0.000 G0
ENDBRANCH   6   7
ENDBRANCH   5   6
ENDBRANCH   3   5
ENDBRANCH   1   3
BRANCH   1  11
ATOM     11  C   UNL     1     -14.046 -35.358  28.543  1.00  0.00     0.087 C 
BRANCH  11  12
ATOM     12  C   UNL     1     -13.048 -34.166  28.390  1.00  0.00     0.066 C 
BRANCH  12  13
ATOM     13  C   UNL     1     -11.682 -34.572  27.847  1.00  0.00     0.140 C 
ATOM     14  O   UNL     1     -11.515 -34.705  26.643  1.00  0.00    -0.299 OA
BRANCH  13  15
ATOM     15  C   UNL     1     -10.498 -34.726  28.773  1.00  0.00     0.106 CG0
ATOM     16  G   UNL     1     -10.462 -33.654  29.851  1.00  0.00     0.000 G0
ENDBRANCH  13  15
ENDBRANCH  12  13
BRANCH  12  17
ATOM     17  C   UNL     1     -13.622 -32.917  27.643  1.00  0.00    -0.006 C 
ATOM     18  C   UNL     1     -14.713 -33.240  26.608  1.00  0.00     0.008 C 
ATOM     19  C   UNL     1     -14.138 -31.854  28.628  1.00  0.00     0.008 C 
ENDBRANCH  12  17
ENDBRANCH  11  12
ENDBRANCH   1  11
TORSDOF 1
ENDMDL
MODEL 3
REMARK VINA RESULT:    -4.781      1.533      3.674
REMARK INTER + INTRA:          -7.251
REMARK INTER:                  -7.262
REMARK INTRA:                   0.011
REMARK UNBOUND:                 0.046
REMARK SMILES CC1=CCC[C@H](C)C(=O)C[C@H](C(C)C)C(=O)C1
REMARK SMILES IDX 8 1 9 2 6 3 7 4 5 5 4 6 3 7 2 8 1 9 10 11 11 12 15 13 16 14
REMARK SMILES IDX 17 15 12 17 13 18 14 19
REMARK H PARENT
REMARK Flexibility Score: 70.00
ROOT
ATOM      1  C   UNL     1     -12.755 -33.589  31.904  1.00  0.00     0.136 C 
ATOM      2  O   UNL     1     -12.975 -33.136  33.017  1.00  0.00    -0.299 OA
ENDROOT
BRANCH   1   3
ATOM      3  C   UNL     1     -11.323 -33.859  31.475  1.00  0.00     0.053 C 
ATOM      4  C   UNL     1     -10.351 -32.951  32.241  1.00  0.00     0.016 C 
BRANCH   3   5
ATOM      5  C   UNL     1     -10.974 -35.347  31.689  1.00  0.00     0.015 C 
BRANCH   5   6
ATOM      6  C   UNL     1     -10.772 -36.095  30.356  1.00  0.00     0.028 C 
BRANCH   6   7
ATOM      7  C   UNL     1     -12.015 -36.858  29.975  1.00  0.00    -0.028 C 
ATOM      8  C   UNL     1     -12.921 -36.445  29.059  1.00  0.00    -0.070 CG0
ATOM      9  C   UNL     1     -14.156 -37.286  28.855  1.00  0.00     0.039 C 
ATOM     10  G   UNL     1     -12.735 -35.188  28.222  1.00  0.00     0.000 G0
ENDBRANCH   6   7
ENDBRANCH   5   6
ENDBRANCH   3   5
ENDBRANCH   1   3
BRANCH   1  11
ATOM     11  C   UNL     1     -13.915 -33.871  30.974  1.00  0.00     0.087 C 
BRANCH  11  12
ATOM     12  C   UNL     1     -13.821 -33.195  29.568  1.00  0.00     0.066 C 
BRANCH  12  13
ATOM     13  C   UNL     1     -13.852 -34.183  28.407  1.00  0.00     0.140 C 
ATOM     14  O   UNL     1     -14.744 -34.120  27.572  1.00  0.00    -0.299 OA
BRANCH  13  15
ATOM     15  C   UNL     1     -12.741 -35.188  28.219  1.00  0.00     0.106 CG0
ATOM     16  G   UNL     1     -12.935 -36.435  29.069  1.00  0.00     0.000 G0
ENDBRANCH  13  15
ENDBRANCH  12  13
BRANCH  12  17
ATOM     17  C   UNL     1     -14.807 -32.002  29.342  1.00  0.00    -0.006 C 
ATOM     18  C   UNL     1     -15.173 -31.228  30.620  1.00  0.00     0.008 C 
ATOM     19  C   UNL     1     -14.281 -31.026  28.276  1.00  0.00     0.008 C 
ENDBRANCH  12  17
ENDBRANCH  11  12
ENDBRANCH   1  11
TORSDOF 1
ENDMDL
MODEL 4
REMARK VINA RESULT:    -4.687      1.856      3.308
REMARK INTER + INTRA:          -7.107
REMARK INTER:                  -7.565
REMARK INTRA:                   0.458
REMARK UNBOUND:                 0.046
REMARK SMILES CC1=CCC[C@H](C)C(=O)C[C@H](C(C)C)C(=O)C1
REMARK SMILES IDX 8 1 9 2 6 3 7 4 5 5 4 6 3 7 2 8 1 9 10 11 11 12 15 13 16 14
REMARK SMILES IDX 17 15 12 17 13 18 14 19
REMARK H PARENT
REMARK Flexibility Score: 70.00
ROOT
ATOM      1  C   UNL     1     -13.107 -35.539  28.297  1.00  0.00     0.136 C 
ATOM      2  O   UNL     1     -12.020 -35.712  27.766  1.00  0.00    -0.299 OA
ENDROOT
BRANCH   1   3
ATOM      3  C   UNL     1     -13.672 -36.612  29.212  1.00  0.00     0.053 C 
ATOM      4  C   UNL     1     -14.466 -37.646  28.403  1.00  0.00     0.016 C 
BRANCH   3   5
ATOM      5  C   UNL     1     -12.535 -37.287  30.008  1.00  0.00     0.015 C 
BRANCH   5   6
ATOM      6  C   UNL     1     -12.158 -36.491  31.273  1.00  0.00     0.028 C 
BRANCH   6   7
ATOM      7  C   UNL     1     -13.324 -35.667  31.756  1.00  0.00    -0.028 C 
ATOM      8  C   UNL     1     -13.342 -34.315  31.810  1.00  0.00    -0.070 CG0
ATOM      9  C   UNL     1     -14.558 -33.646  32.398  1.00  0.00     0.039 C 
ATOM     10  G   UNL     1     -12.203 -33.453  31.287  1.00  0.00     0.000 G0
ENDBRANCH   6   7
ENDBRANCH   5   6
ENDBRANCH   3   5
ENDBRANCH   1   3
BRANCH   1  11
ATOM     11  C   UNL     1     -13.869 -34.259  28.031  1.00  0.00     0.087 C 
BRANCH  11  12
ATOM     12  C   UNL     1     -13.724 -33.157  29.128  1.00  0.00     0.066 C 
BRANCH  12  13
ATOM     13  C   UNL     1     -12.355 -33.131  29.798  1.00  0.00     0.140 C 
ATOM     14  O   UNL     1     -11.367 -32.791  29.162  1.00  0.00    -0.299 OA
BRANCH  13  15
ATOM     15  C   UNL     1     -12.210 -33.433  31.271  1.00  0.00     0.106 CG0
ATOM     16  G   UNL     1     -13.334 -34.313  31.797  1.00  0.00     0.000 G0
ENDBRANCH  13  15
ENDBRANCH  12  13
BRANCH  12  17
ATOM     17  C   UNL     1     -14.185 -31.726  28.693  1.00  0.00    -0.006 C 
ATOM     18  C   UNL     1     -14.804 -31.658  27.287  1.00  0.00     0.008 C 
ATOM     19  C   UNL     1     -15.150 -31.104  29.716  1.00  0.00     0.008 C 
ENDBRANCH  12  17
ENDBRANCH  11  12
ENDBRANCH   1  11
TORSDOF 1
ENDMDL
MODEL 5
REMARK VINA RESULT:    -4.678      1.940      3.744
REMARK INTER + INTRA:          -7.093
REMARK INTER:                  -7.614
REMARK INTRA:                   0.521
REMARK UNBOUND:                 0.046
REMARK SMILES CC1=CCC[C@H](C)C(=O)C[C@H](C(C)C)C(=O)C1
REMARK SMILES IDX 8 1 9 2 6 3 7 4 5 5 4 6 3 7 2 8 1 9 10 11 11 12 15 13 16 14
REMARK SMILES IDX 17 15 12 17 13 18 14 19
REMARK H PARENT
REMARK Flexibility Score: 70.00
ROOT
ATOM      1  C   UNL     1     -10.782 -33.993  29.962  1.00  0.00     0.136 C 
ATOM      2  O   UNL     1      -9.934 -34.396  29.180  1.00  0.00    -0.299 OA
ENDROOT
BRANCH   1   3
ATOM      3  C   UNL     1     -10.856 -34.588  31.358  1.00  0.00     0.053 C 
ATOM      4  C   UNL     1     -11.936 -33.882  32.188  1.00  0.00     0.016 C 
BRANCH   3   5
ATOM      5  C   UNL     1     -11.125 -36.106  31.278  1.00  0.00     0.015 C 
BRANCH   5   6
ATOM      6  C   UNL     1     -12.613 -36.446  31.491  1.00  0.00     0.028 C 
BRANCH   6   7
ATOM      7  C   UNL     1     -13.141 -37.280  30.353  1.00  0.00    -0.028 C 
ATOM      8  C   UNL     1     -13.791 -36.786  29.273  1.00  0.00    -0.070 CG0
ATOM      9  C   UNL     1     -14.330 -37.766  28.261  1.00  0.00     0.039 C 
ATOM     10  G   UNL     1     -13.978 -35.296  29.033  1.00  0.00     0.000 G0
ENDBRANCH   6   7
ENDBRANCH   5   6
ENDBRANCH   3   5
ENDBRANCH   1   3
BRANCH   1  11
ATOM     11  C   UNL     1     -11.745 -32.910  29.523  1.00  0.00     0.087 C 
BRANCH  11  12
ATOM     12  C   UNL     1     -12.547 -33.221  28.219  1.00  0.00     0.066 C 
BRANCH  12  13
ATOM     13  C   UNL     1     -12.970 -34.680  28.089  1.00  0.00     0.140 C 
ATOM     14  O   UNL     1     -12.435 -35.402  27.259  1.00  0.00    -0.299 OA
BRANCH  13  15
ATOM     15  C   UNL     1     -13.984 -35.277  29.036  1.00  0.00     0.106 CG0
ATOM     16  G   UNL     1     -13.766 -36.766  29.256  1.00  0.00     0.000 G0
ENDBRANCH  13  15
ENDBRANCH  12  13
BRANCH  12  17
ATOM     17  C   UNL     1     -13.732 -32.244  27.925  1.00  0.00    -0.006 C 
ATOM     18  C   UNL     1     -14.749 -32.768  26.897  1.00  0.00     0.008 C 
ATOM     19  C   UNL     1     -14.463 -31.833  29.215  1.00  0.00     0.008 C 
ENDBRANCH  12  17
ENDBRANCH  11  12
ENDBRANCH   1  11
TORSDOF 1
ENDMDL
MODEL 6
REMARK VINA RESULT:    -4.674      1.805      3.466
REMARK INTER + INTRA:          -7.087
REMARK INTER:                  -7.492
REMARK INTRA:                   0.405
REMARK UNBOUND:                 0.046
REMARK SMILES CC1=CCC[C@H](C)C(=O)C[C@H](C(C)C)C(=O)C1
REMARK SMILES IDX 8 1 9 2 6 3 7 4 5 5 4 6 3 7 2 8 1 9 10 11 11 12 15 13 16 14
REMARK SMILES IDX 17 15 12 17 13 18 14 19
REMARK H PARENT
REMARK Flexibility Score: 70.00
ROOT
ATOM      1  C   UNL     1     -13.514 -34.233  27.558  1.00  0.00     0.136 C 
ATOM      2  O   UNL     1     -13.912 -33.163  27.124  1.00  0.00    -0.299 OA
ENDROOT
BRANCH   1   3
ATOM      3  C   UNL     1     -12.213 -34.817  27.035  1.00  0.00     0.053 C 
ATOM      4  C   UNL     1     -11.755 -34.070  25.776  1.00  0.00     0.016 C 
BRANCH   3   5
ATOM      5  C   UNL     1     -11.127 -34.768  28.132  1.00  0.00     0.015 C 
BRANCH   5   6
ATOM      6  C   UNL     1     -10.965 -33.356  28.729  1.00  0.00     0.028 C 
BRANCH   6   7
ATOM      7  C   UNL     1     -10.552 -33.430  30.176  1.00  0.00    -0.028 C 
ATOM      8  C   UNL     1     -11.403 -33.343  31.225  1.00  0.00    -0.070 CG0
ATOM      9  C   UNL     1     -10.817 -33.352  32.614  1.00  0.00     0.039 C 
ATOM     10  G   UNL     1     -12.912 -33.259  31.059  1.00  0.00     0.000 G0
ENDBRANCH   6   7
ENDBRANCH   5   6
ENDBRANCH   3   5
ENDBRANCH   1   3
BRANCH   1  11
ATOM     11  C   UNL     1     -14.328 -34.958  28.609  1.00  0.00     0.087 C 
BRANCH  11  12
ATOM     12  C   UNL     1     -13.513 -35.504  29.824  1.00  0.00     0.066 C 
BRANCH  12  13
ATOM     13  C   UNL     1     -13.575 -34.613  31.059  1.00  0.00     0.140 C 
ATOM     14  O   UNL     1     -14.103 -35.021  32.085  1.00  0.00    -0.299 OA
BRANCH  13  15
ATOM     15  C   UNL     1     -12.911 -33.256  31.067  1.00  0.00     0.106 CG0
ATOM     16  G   UNL     1     -11.403 -33.349  31.239  1.00  0.00     0.000 G0
ENDBRANCH  13  15
ENDBRANCH  12  13
BRANCH  12  17
ATOM     17  C   UNL     1     -13.780 -37.005  30.177  1.00  0.00    -0.006 C 
ATOM     18  C   UNL     1     -14.125 -37.891  28.968  1.00  0.00     0.008 C 
ATOM     19  C   UNL     1     -12.605 -37.623  30.955  1.00  0.00     0.008 C 
ENDBRANCH  12  17
ENDBRANCH  11  12
ENDBRANCH   1  11
TORSDOF 1
ENDMDL
MODEL 7
REMARK VINA RESULT:    -4.536      1.468      2.064
REMARK INTER + INTRA:          -6.876
REMARK INTER:                  -7.032
REMARK INTRA:                   0.155
REMARK UNBOUND:                 0.046
REMARK SMILES CC1=CCC[C@H](C)C(=O)C[C@H](C(C)C)C(=O)C1
REMARK SMILES IDX 8 1 9 2 6 3 7 4 5 5 4 6 3 7 2 8 1 9 10 11 11 12 15 13 16 14
REMARK SMILES IDX 17 15 12 17 13 18 14 19
REMARK H PARENT
REMARK Flexibility Score: 70.00
ROOT
ATOM      1  C   UNL     1     -14.101 -32.562  29.150  1.00  0.00     0.136 C 
ATOM      2  O   UNL     1     -14.885 -31.625  29.185  1.00  0.00    -0.299 OA
ENDROOT
BRANCH   1   3
ATOM      3  C   UNL     1     -13.916 -33.336  27.857  1.00  0.00     0.053 C 
ATOM      4  C   UNL     1     -14.802 -32.752  26.748  1.00  0.00     0.016 C 
BRANCH   3   5
ATOM      5  C   UNL     1     -12.430 -33.329  27.438  1.00  0.00     0.015 C 
BRANCH   5   6
ATOM      6  C   UNL     1     -11.726 -34.659  27.771  1.00  0.00     0.028 C 
BRANCH   6   7
ATOM      7  C   UNL     1     -12.732 -35.762  27.977  1.00  0.00    -0.028 C 
ATOM      8  C   UNL     1     -13.062 -36.288  29.180  1.00  0.00    -0.070 CG0
ATOM      9  C   UNL     1     -14.028 -37.446  29.205  1.00  0.00     0.039 C 
ATOM     10  G   UNL     1     -12.519 -35.749  30.494  1.00  0.00     0.000 G0
ENDBRANCH   6   7
ENDBRANCH   5   6
ENDBRANCH   3   5
ENDBRANCH   1   3
BRANCH   1  11
ATOM     11  C   UNL     1     -13.329 -32.933  30.399  1.00  0.00     0.087 C 
BRANCH  11  12
ATOM     12  C   UNL     1     -14.097 -33.842  31.410  1.00  0.00     0.066 C 
BRANCH  12  13
ATOM     13  C   UNL     1     -13.605 -35.285  31.438  1.00  0.00     0.140 C 
ATOM     14  O   UNL     1     -14.141 -36.102  32.174  1.00  0.00    -0.299 OA
BRANCH  13  15
ATOM     15  C   UNL     1     -12.518 -35.748  30.497  1.00  0.00     0.106 CG0
ATOM     16  G   UNL     1     -13.073 -36.282  29.185  1.00  0.00     0.000 G0
ENDBRANCH  13  15
ENDBRANCH  12  13
BRANCH  12  17
ATOM     17  C   UNL     1     -14.242 -33.251  32.852  1.00  0.00    -0.006 C 
ATOM     18  C   UNL     1     -12.918 -32.798  33.490  1.00  0.00     0.008 C 
ATOM     19  C   UNL     1     -15.259 -32.097  32.892  1.00  0.00     0.008 C 
ENDBRANCH  12  17
ENDBRANCH  11  12
ENDBRANCH   1  11
TORSDOF 1
ENDMDL
MODEL 8
REMARK VINA RESULT:    -4.505      1.983      3.989
REMARK INTER + INTRA:          -6.828
REMARK INTER:                  -7.069
REMARK INTRA:                   0.241
REMARK UNBOUND:                 0.046
REMARK SMILES CC1=CCC[C@H](C)C(=O)C[C@H](C(C)C)C(=O)C1
REMARK SMILES IDX 8 1 9 2 6 3 7 4 5 5 4 6 3 7 2 8 1 9 10 11 11 12 15 13 16 14
REMARK SMILES IDX 17 15 12 17 13 18 14 19
REMARK H PARENT
REMARK Flexibility Score: 70.00
ROOT
ATOM      1  C   UNL     1     -10.869 -33.605  31.648  1.00  0.00     0.136 C 
ATOM      2  O   UNL     1     -10.423 -32.858  32.507  1.00  0.00    -0.299 OA
ENDROOT
BRANCH   1   3
ATOM      3  C   UNL     1      -9.972 -34.055  30.509  1.00  0.00     0.053 C 
ATOM      4  C   UNL     1      -9.931 -35.587  30.428  1.00  0.00     0.016 C 
BRANCH   3   5
ATOM      5  C   UNL     1     -10.455 -33.445  29.175  1.00  0.00     0.015 C 
BRANCH   5   6
ATOM      6  C   UNL     1     -11.099 -34.498  28.252  1.00  0.00     0.028 C 
BRANCH   6   7
ATOM      7  C   UNL     1     -12.209 -33.888  27.434  1.00  0.00    -0.028 C 
ATOM      8  C   UNL     1     -13.490 -33.760  27.850  1.00  0.00    -0.070 CG0
ATOM      9  C   UNL     1     -14.498 -33.202  26.876  1.00  0.00     0.039 C 
ATOM     10  G   UNL     1     -13.945 -34.135  29.252  1.00  0.00     0.000 G0
ENDBRANCH   6   7
ENDBRANCH   5   6
ENDBRANCH   3   5
ENDBRANCH   1   3
BRANCH   1  11
ATOM     11  C   UNL     1     -12.308 -34.064  31.738  1.00  0.00     0.087 C 
BRANCH  11  12
ATOM     12  C   UNL     1     -13.378 -32.941  31.557  1.00  0.00     0.066 C 
BRANCH  12  13
ATOM     13  C   UNL     1     -14.013 -32.911  30.171  1.00  0.00     0.140 C 
ATOM     14  O   UNL     1     -14.518 -31.880  29.749  1.00  0.00    -0.299 OA
BRANCH  13  15
ATOM     15  C   UNL     1     -13.947 -34.119  29.266  1.00  0.00     0.106 CG0
ATOM     16  G   UNL     1     -13.508 -33.763  27.854  1.00  0.00     0.000 G0
ENDBRANCH  13  15
ENDBRANCH  12  13
BRANCH  12  17
ATOM     17  C   UNL     1     -14.455 -32.865  32.691  1.00  0.00    -0.006 C 
ATOM     18  C   UNL     1     -15.110 -34.213  33.035  1.00  0.00     0.008 C 
ATOM     19  C   UNL     1     -13.889 -32.221  33.968  1.00  0.00     0.008 C 
ENDBRANCH  12  17
ENDBRANCH  11  12
ENDBRANCH   1  11
TORSDOF 1
ENDMDL
MODEL 9
REMARK VINA RESULT:    -4.490      1.838      4.271
REMARK INTER + INTRA:          -6.807
REMARK INTER:                  -7.280
REMARK INTRA:                   0.473
REMARK UNBOUND:                 0.046
REMARK SMILES CC1=CCC[C@H](C)C(=O)C[C@H](C(C)C)C(=O)C1
REMARK SMILES IDX 8 1 9 2 6 3 7 4 5 5 4 6 3 7 2 8 1 9 10 11 11 12 15 13 16 14
REMARK SMILES IDX 17 15 12 17 13 18 14 19
REMARK H PARENT
REMARK Flexibility Score: 70.00
ROOT
ATOM      1  C   UNL     1     -12.120 -34.389  31.429  1.00  0.00     0.136 C 
ATOM      2  O   UNL     1     -11.742 -35.504  31.755  1.00  0.00    -0.299 OA
ENDROOT
BRANCH   1   3
ATOM      3  C   UNL     1     -11.166 -33.213  31.539  1.00  0.00     0.053 C 
ATOM      4  C   UNL     1     -10.423 -33.246  32.881  1.00  0.00     0.016 C 
BRANCH   3   5
ATOM      5  C   UNL     1     -10.172 -33.219  30.357  1.00  0.00     0.015 C 
BRANCH   5   6
ATOM      6  C   UNL     1     -10.250 -34.523  29.538  1.00  0.00     0.028 C 
BRANCH   6   7
ATOM      7  C   UNL     1     -10.453 -34.225  28.074  1.00  0.00    -0.028 C 
ATOM      8  C   UNL     1     -11.517 -34.635  27.346  1.00  0.00    -0.070 CG0
ATOM      9  C   UNL     1     -11.528 -34.323  25.871  1.00  0.00     0.039 C 
ATOM     10  G   UNL     1     -12.699 -35.374  27.954  1.00  0.00     0.000 G0
ENDBRANCH   6   7
ENDBRANCH   5   6
ENDBRANCH   3   5
ENDBRANCH   1   3
BRANCH   1  11
ATOM     11  C   UNL     1     -13.535 -34.202  30.922  1.00  0.00     0.087 C 
BRANCH  11  12
ATOM     12  C   UNL     1     -13.658 -33.494  29.536  1.00  0.00     0.066 C 
BRANCH  12  13
ATOM     13  C   UNL     1     -13.833 -34.456  28.366  1.00  0.00     0.140 C 
ATOM     14  O   UNL     1     -14.863 -34.437  27.706  1.00  0.00    -0.299 OA
BRANCH  13  15
ATOM     15  C   UNL     1     -12.710 -35.376  27.948  1.00  0.00     0.106 CG0
ATOM     16  G   UNL     1     -11.531 -34.621  27.356  1.00  0.00     0.000 G0
ENDBRANCH  13  15
ENDBRANCH  12  13
BRANCH  12  17
ATOM     17  C   UNL     1     -14.692 -32.321  29.483  1.00  0.00    -0.006 C 
ATOM     18  C   UNL     1     -14.898 -31.595  30.823  1.00  0.00     0.008 C 
ATOM     19  C   UNL     1     -14.337 -31.300  28.388  1.00  0.00     0.008 C 
ENDBRANCH  12  17
ENDBRANCH  11  12
ENDBRANCH   1  11
TORSDOF 1
ENDMDL
