MODEL 1
REMARK VINA RESULT:    -1.880      0.000      0.000
REMARK INTER + INTRA:          -2.086
REMARK INTER:                  -1.990
REMARK INTRA:                  -0.096
REMARK UNBOUND:                -0.096
REMARK SMILES C=C(C)[C@H]1CC=C(C)C(=O)C1
REMARK SMILES IDX 8 1 7 2 6 3 5 4 4 5 11 6 9 7 10 8 2 9 1 10 3 11
REMARK H PARENT
REMARK Flexibility Score: inf
ROOT
ATOM      1  C   UNL     1       9.056 -10.316 -20.990  1.00  0.00     0.048 C 
ATOM      2  C   UNL     1       8.575  -9.052 -21.646  1.00  0.00    -0.012 C 
ATOM      3  C   UNL     1       9.125  -8.649 -22.805  1.00  0.00    -0.019 C 
ATOM      4  C   UNL     1       8.694  -7.381 -23.495  1.00  0.00     0.036 C 
ATOM      5  C   UNL     1       7.200  -7.101 -23.255  1.00  0.00     0.025 C 
ATOM      6  C   UNL     1       6.895  -7.075 -21.747  1.00  0.00     0.089 C 
ATOM      7  C   UNL     1       7.414  -8.320 -21.081  1.00  0.00     0.158 C 
ATOM      8  O   UNL     1       6.873  -8.717 -20.014  1.00  0.00    -0.295 OA
ENDROOT
BRANCH   5   9
ATOM      9  C   UNL     1       6.758  -5.810 -23.934  1.00  0.00    -0.077 C 
ATOM     10  C   UNL     1       7.311  -5.440 -25.100  1.00  0.00     0.008 C 
ATOM     11  C   UNL     1       5.701  -4.924 -23.324  1.00  0.00     0.039 C 
ENDBRANCH   5   9
TORSDOF 1
ENDMDL
MODEL 2
REMARK VINA RESULT:    -0.776     19.572     20.441
REMARK INTER + INTRA:          -0.917
REMARK INTER:                  -0.819
REMARK INTRA:                  -0.098
REMARK UNBOUND:                -0.096
REMARK SMILES C=C(C)[C@H]1CC=C(C)C(=O)C1
REMARK SMILES IDX 8 1 7 2 6 3 5 4 4 5 11 6 9 7 10 8 2 9 1 10 3 11
REMARK H PARENT
REMARK Flexibility Score: inf
ROOT
ATOM      1  C   UNL     1      -5.595 -12.415  -7.287  1.00  0.00     0.048 C 
ATOM      2  C   UNL     1      -4.708 -11.299  -6.809  1.00  0.00    -0.012 C 
ATOM      3  C   UNL     1      -4.674 -10.136  -7.483  1.00  0.00    -0.019 C 
ATOM      4  C   UNL     1      -3.790  -8.994  -7.059  1.00  0.00     0.036 C 
ATOM      5  C   UNL     1      -3.624  -8.959  -5.529  1.00  0.00     0.025 C 
ATOM      6  C   UNL     1      -3.109 -10.316  -5.015  1.00  0.00     0.089 C 
ATOM      7  C   UNL     1      -3.970 -11.437  -5.528  1.00  0.00     0.158 C 
ATOM      8  O   UNL     1      -4.029 -12.514  -4.875  1.00  0.00    -0.295 OA
ENDROOT
BRANCH   5   9
ATOM      9  C   UNL     1      -2.717  -7.817  -5.091  1.00  0.00    -0.077 C 
ATOM     10  C   UNL     1      -1.408  -8.037  -4.890  1.00  0.00     0.008 C 
ATOM     11  C   UNL     1      -3.255  -6.425  -4.875  1.00  0.00     0.039 C 
ENDBRANCH   5   9
TORSDOF 1
ENDMDL
MODEL 3
REMARK VINA RESULT:    -0.584     19.038     20.036
REMARK INTER + INTRA:          -0.714
REMARK INTER:                  -0.618
REMARK INTRA:                  -0.096
REMARK UNBOUND:                -0.096
REMARK SMILES C=C(C)[C@H]1CC=C(C)C(=O)C1
REMARK SMILES IDX 8 1 7 2 6 3 5 4 4 5 11 6 9 7 10 8 2 9 1 10 3 11
REMARK H PARENT
REMARK Flexibility Score: inf
ROOT
ATOM      1  C   UNL     1      -5.362 -12.203  -7.180  1.00  0.00     0.048 C 
ATOM      2  C   UNL     1      -4.706 -10.941  -6.694  1.00  0.00    -0.012 C 
ATOM      3  C   UNL     1      -4.289 -10.852  -5.419  1.00  0.00    -0.019 C 
ATOM      4  C   UNL     1      -3.643  -9.605  -4.875  1.00  0.00     0.036 C 
ATOM      5  C   UNL     1      -2.829  -8.882  -5.964  1.00  0.00     0.025 C 
ATOM      6  C   UNL     1      -3.715  -8.592  -7.190  1.00  0.00     0.089 C 
ATOM      7  C   UNL     1      -4.406  -9.846  -7.651  1.00  0.00     0.158 C 
ATOM      8  O   UNL     1      -4.764  -9.942  -8.856  1.00  0.00    -0.295 OA
ENDROOT
BRANCH   5   9
ATOM      9  C   UNL     1      -2.187  -7.609  -5.429  1.00  0.00    -0.077 C 
ATOM     10  C   UNL     1      -2.949  -6.647  -4.886  1.00  0.00     0.008 C 
ATOM     11  C   UNL     1      -0.694  -7.397  -5.492  1.00  0.00     0.039 C 
ENDBRANCH   5   9
TORSDOF 1
ENDMDL
MODEL 4
REMARK VINA RESULT:    -0.019     18.349     19.389
REMARK INTER + INTRA:          -0.116
REMARK INTER:                  -0.018
REMARK INTRA:                  -0.098
REMARK UNBOUND:                -0.096
REMARK SMILES C=C(C)[C@H]1CC=C(C)C(=O)C1
REMARK SMILES IDX 8 1 7 2 6 3 5 4 4 5 11 6 9 7 10 8 2 9 1 10 3 11
REMARK H PARENT
REMARK Flexibility Score: inf
ROOT
ATOM      1  C   UNL     1      -3.748 -18.552 -25.086  1.00  0.00     0.048 C 
ATOM      2  C   UNL     1      -3.948 -20.042 -25.125  1.00  0.00    -0.012 C 
ATOM      3  C   UNL     1      -2.884 -20.861 -25.070  1.00  0.00    -0.019 C 
ATOM      4  C   UNL     1      -3.027 -22.360 -25.124  1.00  0.00     0.036 C 
ATOM      5  C   UNL     1      -4.339 -22.816 -24.460  1.00  0.00     0.025 C 
ATOM      6  C   UNL     1      -5.540 -22.093 -25.096  1.00  0.00     0.089 C 
ATOM      7  C   UNL     1      -5.322 -20.605 -25.097  1.00  0.00     0.158 C 
ATOM      8  O   UNL     1      -6.322 -19.837 -25.112  1.00  0.00    -0.295 OA
ENDROOT
BRANCH   5   9
ATOM      9  C   UNL     1      -4.502 -24.329 -24.527  1.00  0.00    -0.077 C 
ATOM     10  C   UNL     1      -3.559 -25.082 -25.114  1.00  0.00     0.008 C 
ATOM     11  C   UNL     1      -5.710 -25.015 -23.940  1.00  0.00     0.039 C 
ENDBRANCH   5   9
TORSDOF 1
ENDMDL
