MODEL 1
REMARK VINA RESULT:    -4.514      0.000      0.000
REMARK INTER + INTRA:         -10.553
REMARK INTER:                  -8.208
REMARK INTRA:                  -2.345
REMARK UNBOUND:                -2.345
REMARK SMILES CCCCCCCCCCCCCCCC(=O)[O-]
REMARK SMILES IDX 9 1 10 2 11 3 12 4 13 5 14 6 15 7 16 8 17 9 18 10 8 11 7 12
REMARK SMILES IDX 6 13 5 14 4 15 3 16 2 17 1 18
REMARK H PARENT
REMARK Flexibility Score: inf
ROOT
ATOM      1  C   UNL     1      66.301  28.354  23.958  1.00  0.00     0.000 C 
ENDROOT
BRANCH   1   2
ATOM      2  C   UNL     1      65.587  29.676  23.639  1.00  0.00     0.000 C 
BRANCH   2   3
ATOM      3  C   UNL     1      64.810  30.234  24.842  1.00  0.00     0.000 C 
BRANCH   3   4
ATOM      4  C   UNL     1      65.308  29.664  26.182  1.00  0.00     0.000 C 
BRANCH   4   5
ATOM      5  C   UNL     1      64.706  30.393  27.394  1.00  0.00     0.000 C 
BRANCH   5   6
ATOM      6  C   UNL     1      63.228  30.041  27.622  1.00  0.00     0.006 C 
BRANCH   6   7
ATOM      7  C   UNL     1      63.068  29.106  28.825  1.00  0.00     0.053 C 
BRANCH   7   8
ATOM      8  C   UNL     1      61.793  28.331  28.721  1.00  0.00     0.041 C 
ATOM      9  O   UNL     1      60.684  28.926  28.762  1.00  0.00    -0.550 OA
ATOM     10  O   UNL     1      61.829  26.956  28.529  1.00  0.00    -0.550 OA
ENDBRANCH   7   8
ENDBRANCH   6   7
ENDBRANCH   5   6
ENDBRANCH   4   5
ENDBRANCH   3   4
ENDBRANCH   2   3
ENDBRANCH   1   2
BRANCH   1  11
ATOM     11  C   UNL     1      65.973  27.285  22.908  1.00  0.00     0.000 C 
BRANCH  11  12
ATOM     12  C   UNL     1      65.309  26.062  23.559  1.00  0.00    -0.000 C 
BRANCH  12  13
ATOM     13  C   UNL     1      65.188  26.192  25.086  1.00  0.00    -0.000 C 
BRANCH  13  14
ATOM     14  C   UNL     1      63.736  26.404  25.547  1.00  0.00    -0.000 C 
BRANCH  14  15
ATOM     15  C   UNL     1      62.744  26.497  24.373  1.00  0.00    -0.000 C 
BRANCH  15  16
ATOM     16  C   UNL     1      62.167  27.902  24.110  1.00  0.00    -0.000 C 
BRANCH  16  17
ATOM     17  C   UNL     1      61.069  28.350  25.092  1.00  0.00    -0.003 C 
ATOM     18  C   UNL     1      60.069  27.239  25.412  1.00  0.00     0.004 C 
ENDBRANCH  16  17
ENDBRANCH  15  16
ENDBRANCH  14  15
ENDBRANCH  13  14
ENDBRANCH  12  13
ENDBRANCH  11  12
ENDBRANCH   1  11
TORSDOF 14
ENDMDL
MODEL 2
REMARK VINA RESULT:    -4.503     11.758     13.446
REMARK INTER + INTRA:         -10.534
REMARK INTER:                  -8.678
REMARK INTRA:                  -1.855
REMARK UNBOUND:                -2.345
REMARK SMILES CCCCCCCCCCCCCCCC(=O)[O-]
REMARK SMILES IDX 9 1 10 2 11 3 12 4 13 5 14 6 15 7 16 8 17 9 18 10 8 11 7 12
REMARK SMILES IDX 6 13 5 14 4 15 3 16 2 17 1 18
REMARK H PARENT
REMARK Flexibility Score: inf
ROOT
ATOM      1  C   UNL     1      60.597  29.428  13.427  1.00  0.00     0.000 C 
ENDROOT
BRANCH   1   2
ATOM      2  C   UNL     1      60.096  30.718  12.759  1.00  0.00     0.000 C 
BRANCH   2   3
ATOM      3  C   UNL     1      59.554  31.737  13.774  1.00  0.00     0.000 C 
BRANCH   3   4
ATOM      4  C   UNL     1      60.301  33.081  13.719  1.00  0.00     0.000 C 
BRANCH   4   5
ATOM      5  C   UNL     1      60.448  33.732  15.103  1.00  0.00     0.000 C 
BRANCH   5   6
ATOM      6  C   UNL     1      61.249  32.861  16.083  1.00  0.00     0.006 C 
BRANCH   6   7
ATOM      7  C   UNL     1      62.640  33.453  16.329  1.00  0.00     0.053 C 
BRANCH   7   8
ATOM      8  C   UNL     1      62.601  34.435  17.456  1.00  0.00     0.041 C 
ATOM      9  O   UNL     1      61.660  34.404  18.292  1.00  0.00    -0.550 OA
ATOM     10  O   UNL     1      63.631  35.353  17.614  1.00  0.00    -0.550 OA
ENDBRANCH   7   8
ENDBRANCH   6   7
ENDBRANCH   5   6
ENDBRANCH   4   5
ENDBRANCH   3   4
ENDBRANCH   2   3
ENDBRANCH   1   2
BRANCH   1  11
ATOM     11  C   UNL     1      60.166  28.193  12.628  1.00  0.00     0.000 C 
BRANCH  11  12
ATOM     12  C   UNL     1      59.756  28.578  11.198  1.00  0.00    -0.000 C 
BRANCH  12  13
ATOM     13  C   UNL     1      60.788  28.142  10.145  1.00  0.00    -0.000 C 
BRANCH  13  14
ATOM     14  C   UNL     1      61.699  29.298   9.698  1.00  0.00    -0.000 C 
BRANCH  14  15
ATOM     15  C   UNL     1      63.164  29.106  10.133  1.00  0.00    -0.000 C 
BRANCH  15  16
ATOM     16  C   UNL     1      63.565  29.838  11.429  1.00  0.00    -0.000 C 
BRANCH  16  17
ATOM     17  C   UNL     1      63.493  31.374  11.359  1.00  0.00    -0.003 C 
ATOM     18  C   UNL     1      63.632  32.039  12.728  1.00  0.00     0.004 C 
ENDBRANCH  16  17
ENDBRANCH  15  16
ENDBRANCH  14  15
ENDBRANCH  13  14
ENDBRANCH  12  13
ENDBRANCH  11  12
ENDBRANCH   1  11
TORSDOF 14
ENDMDL
MODEL 3
REMARK VINA RESULT:    -4.490      2.500      5.561
REMARK INTER + INTRA:         -10.511
REMARK INTER:                  -8.162
REMARK INTRA:                  -2.349
REMARK UNBOUND:                -2.345
REMARK SMILES CCCCCCCCCCCCCCCC(=O)[O-]
REMARK SMILES IDX 9 1 10 2 11 3 12 4 13 5 14 6 15 7 16 8 17 9 18 10 8 11 7 12
REMARK SMILES IDX 6 13 5 14 4 15 3 16 2 17 1 18
REMARK H PARENT
REMARK Flexibility Score: inf
ROOT
ATOM      1  C   UNL     1      60.750  27.954  26.528  1.00  0.00     0.000 C 
ENDROOT
BRANCH   1   2
ATOM      2  C   UNL     1      61.315  27.996  25.100  1.00  0.00     0.000 C 
BRANCH   2   3
ATOM      3  C   UNL     1      61.913  29.366  24.741  1.00  0.00     0.000 C 
BRANCH   3   4
ATOM      4  C   UNL     1      63.346  29.543  25.271  1.00  0.00     0.000 C 
BRANCH   4   5
ATOM      5  C   UNL     1      64.369  28.686  24.507  1.00  0.00     0.000 C 
BRANCH   5   6
ATOM      6  C   UNL     1      65.148  27.736  25.428  1.00  0.00     0.006 C 
BRANCH   6   7
ATOM      7  C   UNL     1      64.498  26.348  25.458  1.00  0.00     0.053 C 
BRANCH   7   8
ATOM      8  C   UNL     1      64.483  25.747  24.088  1.00  0.00     0.041 C 
ATOM      9  O   UNL     1      63.397  25.373  23.572  1.00  0.00    -0.550 OA
ATOM     10  O   UNL     1      65.661  25.646  23.360  1.00  0.00    -0.550 OA
ENDBRANCH   7   8
ENDBRANCH   6   7
ENDBRANCH   5   6
ENDBRANCH   4   5
ENDBRANCH   3   4
ENDBRANCH   2   3
ENDBRANCH   1   2
BRANCH   1  11
ATOM     11  C   UNL     1      61.302  26.751  27.302  1.00  0.00     0.000 C 
BRANCH  11  12
ATOM     12  C   UNL     1      62.211  27.209  28.454  1.00  0.00    -0.000 C 
BRANCH  12  13
ATOM     13  C   UNL     1      62.127  28.722  28.711  1.00  0.00    -0.000 C 
BRANCH  13  14
ATOM     14  C   UNL     1      63.495  29.339  29.051  1.00  0.00    -0.000 C 
BRANCH  14  15
ATOM     15  C   UNL     1      63.513  30.872  28.901  1.00  0.00    -0.000 C 
BRANCH  15  16
ATOM     16  C   UNL     1      64.915  31.506  28.801  1.00  0.00    -0.000 C 
BRANCH  16  17
ATOM     17  C   UNL     1      66.079  30.503  28.710  1.00  0.00    -0.003 C 
ATOM     18  C   UNL     1      66.736  30.480  27.330  1.00  0.00     0.004 C 
ENDBRANCH  16  17
ENDBRANCH  15  16
ENDBRANCH  14  15
ENDBRANCH  13  14
ENDBRANCH  12  13
ENDBRANCH  11  12
ENDBRANCH   1  11
TORSDOF 14
ENDMDL
MODEL 4
REMARK VINA RESULT:    -4.460      2.250      4.896
REMARK INTER + INTRA:         -10.456
REMARK INTER:                  -8.424
REMARK INTRA:                  -2.032
REMARK UNBOUND:                -2.345
REMARK SMILES CCCCCCCCCCCCCCCC(=O)[O-]
REMARK SMILES IDX 9 1 10 2 11 3 12 4 13 5 14 6 15 7 16 8 17 9 18 10 8 11 7 12
REMARK SMILES IDX 6 13 5 14 4 15 3 16 2 17 1 18
REMARK H PARENT
REMARK Flexibility Score: inf
ROOT
ATOM      1  C   UNL     1      63.881  30.367  28.092  1.00  0.00     0.000 C 
ENDROOT
BRANCH   1   2
ATOM      2  C   UNL     1      65.389  30.082  28.026  1.00  0.00     0.000 C 
BRANCH   2   3
ATOM      3  C   UNL     1      65.926  30.064  26.586  1.00  0.00     0.000 C 
BRANCH   3   4
ATOM      4  C   UNL     1      65.608  28.749  25.854  1.00  0.00     0.000 C 
BRANCH   4   5
ATOM      5  C   UNL     1      66.366  28.616  24.523  1.00  0.00     0.000 C 
BRANCH   5   6
ATOM      6  C   UNL     1      65.565  27.847  23.462  1.00  0.00     0.006 C 
BRANCH   6   7
ATOM      7  C   UNL     1      65.264  26.420  23.933  1.00  0.00     0.053 C 
BRANCH   7   8
ATOM      8  C   UNL     1      63.973  25.937  23.350  1.00  0.00     0.041 C 
ATOM      9  O   UNL     1      63.229  25.166  24.011  1.00  0.00    -0.550 OA
ATOM     10  O   UNL     1      63.568  26.379  22.097  1.00  0.00    -0.550 OA
ENDBRANCH   7   8
ENDBRANCH   6   7
ENDBRANCH   5   6
ENDBRANCH   4   5
ENDBRANCH   3   4
ENDBRANCH   2   3
ENDBRANCH   1   2
BRANCH   1  11
ATOM     11  C   UNL     1      63.196  29.464  29.125  1.00  0.00     0.000 C 
BRANCH  11  12
ATOM     12  C   UNL     1      61.667  29.558  29.009  1.00  0.00    -0.000 C 
BRANCH  12  13
ATOM     13  C   UNL     1      61.006  28.196  28.743  1.00  0.00    -0.000 C 
BRANCH  13  14
ATOM     14  C   UNL     1      62.024  27.116  28.335  1.00  0.00    -0.000 C 
BRANCH  14  15
ATOM     15  C   UNL     1      62.248  27.051  26.814  1.00  0.00    -0.000 C 
BRANCH  15  16
ATOM     16  C   UNL     1      61.113  27.645  25.956  1.00  0.00    -0.000 C 
BRANCH  16  17
ATOM     17  C   UNL     1      61.562  28.276  24.626  1.00  0.00    -0.003 C 
ATOM     18  C   UNL     1      62.191  29.657  24.806  1.00  0.00     0.004 C 
ENDBRANCH  16  17
ENDBRANCH  15  16
ENDBRANCH  14  15
ENDBRANCH  13  14
ENDBRANCH  12  13
ENDBRANCH  11  12
ENDBRANCH   1  11
TORSDOF 14
ENDMDL
MODEL 5
REMARK VINA RESULT:    -4.449     11.666     13.045
REMARK INTER + INTRA:         -10.436
REMARK INTER:                  -8.409
REMARK INTRA:                  -2.027
REMARK UNBOUND:                -2.345
REMARK SMILES CCCCCCCCCCCCCCCC(=O)[O-]
REMARK SMILES IDX 9 1 10 2 11 3 12 4 13 5 14 6 15 7 16 8 17 9 18 10 8 11 7 12
REMARK SMILES IDX 6 13 5 14 4 15 3 16 2 17 1 18
REMARK H PARENT
REMARK Flexibility Score: inf
ROOT
ATOM      1  C   UNL     1      62.564  30.961  13.409  1.00  0.00     0.000 C 
ENDROOT
BRANCH   1   2
ATOM      2  C   UNL     1      61.990  32.003  12.437  1.00  0.00     0.000 C 
BRANCH   2   3
ATOM      3  C   UNL     1      60.518  32.335  12.726  1.00  0.00     0.000 C 
BRANCH   3   4
ATOM      4  C   UNL     1      60.146  32.133  14.206  1.00  0.00     0.000 C 
BRANCH   4   5
ATOM      5  C   UNL     1      60.390  33.393  15.052  1.00  0.00     0.000 C 
BRANCH   5   6
ATOM      6  C   UNL     1      61.205  33.103  16.321  1.00  0.00     0.006 C 
BRANCH   6   7
ATOM      7  C   UNL     1      61.116  34.271  17.309  1.00  0.00     0.053 C 
BRANCH   7   8
ATOM      8  C   UNL     1      62.385  34.396  18.090  1.00  0.00     0.041 C 
ATOM      9  O   UNL     1      62.500  33.827  19.207  1.00  0.00    -0.550 OA
ATOM     10  O   UNL     1      63.459  35.100  17.562  1.00  0.00    -0.550 OA
ENDBRANCH   7   8
ENDBRANCH   6   7
ENDBRANCH   5   6
ENDBRANCH   4   5
ENDBRANCH   3   4
ENDBRANCH   2   3
ENDBRANCH   1   2
BRANCH   1  11
ATOM     11  C   UNL     1      63.365  29.891  12.658  1.00  0.00     0.000 C 
BRANCH  11  12
ATOM     12  C   UNL     1      63.413  30.196  11.153  1.00  0.00    -0.000 C 
BRANCH  12  13
ATOM     13  C   UNL     1      63.122  28.959  10.287  1.00  0.00    -0.000 C 
BRANCH  13  14
ATOM     14  C   UNL     1      61.788  29.071   9.528  1.00  0.00    -0.000 C 
BRANCH  14  15
ATOM     15  C   UNL     1      60.642  28.313  10.222  1.00  0.00    -0.000 C 
BRANCH  15  16
ATOM     16  C   UNL     1      59.622  29.200  10.964  1.00  0.00    -0.000 C 
BRANCH  16  17
ATOM     17  C   UNL     1      59.331  28.783  12.416  1.00  0.00    -0.003 C 
ATOM     18  C   UNL     1      60.419  27.886  13.006  1.00  0.00     0.004 C 
ENDBRANCH  16  17
ENDBRANCH  15  16
ENDBRANCH  14  15
ENDBRANCH  13  14
ENDBRANCH  12  13
ENDBRANCH  11  12
ENDBRANCH   1  11
TORSDOF 14
ENDMDL
MODEL 6
REMARK VINA RESULT:    -4.422     12.789     14.705
REMARK INTER + INTRA:         -10.387
REMARK INTER:                  -8.092
REMARK INTRA:                  -2.296
REMARK UNBOUND:                -2.345
REMARK SMILES CCCCCCCCCCCCCCCC(=O)[O-]
REMARK SMILES IDX 9 1 10 2 11 3 12 4 13 5 14 6 15 7 16 8 17 9 18 10 8 11 7 12
REMARK SMILES IDX 6 13 5 14 4 15 3 16 2 17 1 18
REMARK H PARENT
REMARK Flexibility Score: inf
ROOT
ATOM      1  C   UNL     1      59.182  28.322  12.364  1.00  0.00     0.000 C 
ENDROOT
BRANCH   1   2
ATOM      2  C   UNL     1      60.524  27.882  12.967  1.00  0.00     0.000 C 
BRANCH   2   3
ATOM      3  C   UNL     1      61.205  28.999  13.774  1.00  0.00     0.000 C 
BRANCH   3   4
ATOM      4  C   UNL     1      62.690  29.171  13.409  1.00  0.00     0.000 C 
BRANCH   4   5
ATOM      5  C   UNL     1      63.142  30.639  13.448  1.00  0.00     0.000 C 
BRANCH   5   6
ATOM      6  C   UNL     1      62.069  31.602  12.919  1.00  0.00     0.006 C 
BRANCH   6   7
ATOM      7  C   UNL     1      61.943  32.833  13.822  1.00  0.00     0.053 C 
BRANCH   7   8
ATOM      8  C   UNL     1      60.543  32.973  14.327  1.00  0.00     0.041 C 
ATOM      9  O   UNL     1      60.247  33.898  15.128  1.00  0.00    -0.550 OA
ATOM     10  O   UNL     1      59.552  32.111  13.875  1.00  0.00    -0.550 OA
ENDBRANCH   7   8
ENDBRANCH   6   7
ENDBRANCH   5   6
ENDBRANCH   4   5
ENDBRANCH   3   4
ENDBRANCH   2   3
ENDBRANCH   1   2
BRANCH   1  11
ATOM     11  C   UNL     1      59.289  28.480  10.842  1.00  0.00     0.000 C 
BRANCH  11  12
ATOM     12  C   UNL     1      59.986  29.798  10.474  1.00  0.00    -0.000 C 
BRANCH  12  13
ATOM     13  C   UNL     1      60.874  29.673   9.226  1.00  0.00    -0.000 C 
BRANCH  13  14
ATOM     14  C   UNL     1      61.901  28.533   9.344  1.00  0.00    -0.000 C 
BRANCH  14  15
ATOM     15  C   UNL     1      63.272  29.016   9.852  1.00  0.00    -0.000 C 
BRANCH  15  16
ATOM     16  C   UNL     1      63.514  30.535   9.748  1.00  0.00    -0.000 C 
BRANCH  16  17
ATOM     17  C   UNL     1      64.973  30.977   9.952  1.00  0.00    -0.003 C 
ATOM     18  C   UNL     1      65.091  32.350  10.612  1.00  0.00     0.004 C 
ENDBRANCH  16  17
ENDBRANCH  15  16
ENDBRANCH  14  15
ENDBRANCH  13  14
ENDBRANCH  12  13
ENDBRANCH  11  12
ENDBRANCH   1  11
TORSDOF 14
ENDMDL
MODEL 7
REMARK VINA RESULT:    -4.405      3.407      6.269
REMARK INTER + INTRA:         -10.356
REMARK INTER:                  -8.508
REMARK INTRA:                  -1.848
REMARK UNBOUND:                -2.345
REMARK SMILES CCCCCCCCCCCCCCCC(=O)[O-]
REMARK SMILES IDX 9 1 10 2 11 3 12 4 13 5 14 6 15 7 16 8 17 9 18 10 8 11 7 12
REMARK SMILES IDX 6 13 5 14 4 15 3 16 2 17 1 18
REMARK H PARENT
REMARK Flexibility Score: inf
ROOT
ATOM      1  C   UNL     1      62.334  26.960  25.079  1.00  0.00     0.000 C 
ENDROOT
BRANCH   1   2
ATOM      2  C   UNL     1      63.602  26.421  25.760  1.00  0.00     0.000 C 
BRANCH   2   3
ATOM      3  C   UNL     1      64.777  26.263  24.781  1.00  0.00     0.000 C 
BRANCH   3   4
ATOM      4  C   UNL     1      65.581  27.563  24.609  1.00  0.00     0.000 C 
BRANCH   4   5
ATOM      5  C   UNL     1      65.477  28.138  23.188  1.00  0.00     0.000 C 
BRANCH   5   6
ATOM      6  C   UNL     1      66.753  27.910  22.364  1.00  0.00     0.006 C 
BRANCH   6   7
ATOM      7  C   UNL     1      66.420  27.727  20.879  1.00  0.00     0.053 C 
BRANCH   7   8
ATOM      8  C   UNL     1      66.397  26.274  20.523  1.00  0.00     0.041 C 
ATOM      9  O   UNL     1      66.411  25.918  19.315  1.00  0.00    -0.550 OA
ATOM     10  O   UNL     1      66.411  25.313  21.525  1.00  0.00    -0.550 OA
ENDBRANCH   7   8
ENDBRANCH   6   7
ENDBRANCH   5   6
ENDBRANCH   4   5
ENDBRANCH   3   4
ENDBRANCH   2   3
ENDBRANCH   1   2
BRANCH   1  11
ATOM     11  C   UNL     1      61.268  27.329  26.117  1.00  0.00     0.000 C 
BRANCH  11  12
ATOM     12  C   UNL     1      61.640  26.785  27.505  1.00  0.00    -0.000 C 
BRANCH  12  13
ATOM     13  C   UNL     1      60.883  27.489  28.642  1.00  0.00    -0.000 C 
BRANCH  13  14
ATOM     14  C   UNL     1      61.124  29.009  28.660  1.00  0.00    -0.000 C 
BRANCH  14  15
ATOM     15  C   UNL     1      62.592  29.376  28.947  1.00  0.00    -0.000 C 
BRANCH  15  16
ATOM     16  C   UNL     1      63.166  30.513  28.079  1.00  0.00    -0.000 C 
BRANCH  16  17
ATOM     17  C   UNL     1      63.975  30.052  26.853  1.00  0.00    -0.003 C 
ATOM     18  C   UNL     1      63.310  30.423  25.528  1.00  0.00     0.004 C 
ENDBRANCH  16  17
ENDBRANCH  15  16
ENDBRANCH  14  15
ENDBRANCH  13  14
ENDBRANCH  12  13
ENDBRANCH  11  12
ENDBRANCH   1  11
TORSDOF 14
ENDMDL
MODEL 8
REMARK VINA RESULT:    -4.307      2.055      4.503
REMARK INTER + INTRA:         -10.177
REMARK INTER:                  -8.840
REMARK INTRA:                  -1.337
REMARK UNBOUND:                -2.345
REMARK SMILES CCCCCCCCCCCCCCCC(=O)[O-]
REMARK SMILES IDX 9 1 10 2 11 3 12 4 13 5 14 6 15 7 16 8 17 9 18 10 8 11 7 12
REMARK SMILES IDX 6 13 5 14 4 15 3 16 2 17 1 18
REMARK H PARENT
REMARK Flexibility Score: inf
ROOT
ATOM      1  C   UNL     1      61.529  28.211  24.628  1.00  0.00     0.000 C 
ENDROOT
BRANCH   1   2
ATOM      2  C   UNL     1      60.957  26.988  25.360  1.00  0.00     0.000 C 
BRANCH   2   3
ATOM      3  C   UNL     1      60.797  27.224  26.870  1.00  0.00     0.000 C 
BRANCH   3   4
ATOM      4  C   UNL     1      62.118  27.050  27.639  1.00  0.00     0.000 C 
BRANCH   4   5
ATOM      5  C   UNL     1      62.244  28.021  28.824  1.00  0.00     0.000 C 
BRANCH   5   6
ATOM      6  C   UNL     1      61.620  29.393  28.531  1.00  0.00     0.006 C 
BRANCH   6   7
ATOM      7  C   UNL     1      62.645  30.514  28.735  1.00  0.00     0.053 C 
BRANCH   7   8
ATOM      8  C   UNL     1      63.656  30.507  27.633  1.00  0.00     0.041 C 
ATOM      9  O   UNL     1      63.284  30.487  26.430  1.00  0.00    -0.550 OA
ATOM     10  O   UNL     1      65.011  30.575  27.933  1.00  0.00    -0.550 OA
ENDBRANCH   7   8
ENDBRANCH   6   7
ENDBRANCH   5   6
ENDBRANCH   4   5
ENDBRANCH   3   4
ENDBRANCH   2   3
ENDBRANCH   1   2
BRANCH   1  11
ATOM     11  C   UNL     1      62.873  27.878  23.970  1.00  0.00     0.000 C 
BRANCH  11  12
ATOM     12  C   UNL     1      63.208  26.387  24.128  1.00  0.00    -0.000 C 
BRANCH  12  13
ATOM     13  C   UNL     1      64.674  26.146  24.524  1.00  0.00    -0.000 C 
BRANCH  13  14
ATOM     14  C   UNL     1      65.585  25.919  23.306  1.00  0.00    -0.000 C 
BRANCH  14  15
ATOM     15  C   UNL     1      66.175  27.228  22.750  1.00  0.00    -0.000 C 
BRANCH  15  16
ATOM     16  C   UNL     1      66.243  27.318  21.213  1.00  0.00    -0.000 C 
BRANCH  16  17
ATOM     17  C   UNL     1      66.354  25.967  20.485  1.00  0.00    -0.003 C 
ATOM     18  C   UNL     1      65.763  25.999  19.076  1.00  0.00     0.004 C 
ENDBRANCH  16  17
ENDBRANCH  15  16
ENDBRANCH  14  15
ENDBRANCH  13  14
ENDBRANCH  12  13
ENDBRANCH  11  12
ENDBRANCH   1  11
TORSDOF 14
ENDMDL
