MODEL 1
REMARK VINA RESULT:    -5.066      0.000      0.000
REMARK INTER + INTRA:          -5.936
REMARK INTER:                  -5.658
REMARK INTRA:                  -0.278
REMARK UNBOUND:                -0.278
REMARK SMILES O=C([O-])C=Cc1ccccc1
REMARK SMILES IDX 4 1 5 2 2 3 1 4 3 5 6 6 7 7 11 8 8 9 10 10 9 11
REMARK H PARENT
REMARK Flexibility Score: inf
ROOT
ATOM      1  C   UNL     1      -4.007   7.805  44.971  1.00  0.00     0.025 C 
ATOM      2  C   UNL     1      -4.615   8.122  46.126  1.00  0.00     0.010 C 
ENDROOT
BRANCH   1   3
ATOM      3  C   UNL     1      -3.139   8.699  44.180  1.00  0.00     0.064 C 
ATOM      4  O   UNL     1      -1.897   8.758  44.380  1.00  0.00    -0.545 OA
ATOM      5  O   UNL     1      -3.715   9.544  43.240  1.00  0.00    -0.545 OA
ENDBRANCH   1   3
BRANCH   2   6
ATOM      6  C   UNL     1      -4.383   9.355  46.905  1.00  0.00    -0.026 A 
ATOM      7  C   UNL     1      -3.409   9.405  47.919  1.00  0.00     0.008 A 
ATOM      8  C   UNL     1      -5.218  10.465  46.702  1.00  0.00     0.008 A 
ATOM      9  C   UNL     1      -3.244  10.566  48.679  1.00  0.00     0.001 A 
ATOM     10  C   UNL     1      -5.049  11.624  47.464  1.00  0.00     0.001 A 
ATOM     11  C   UNL     1      -4.060  11.677  48.449  1.00  0.00     0.000 A 
ENDBRANCH   2   6
TORSDOF 2
ENDMDL
MODEL 2
REMARK VINA RESULT:    -5.010      0.172      1.471
REMARK INTER + INTRA:          -5.873
REMARK INTER:                  -5.605
REMARK INTRA:                  -0.268
REMARK UNBOUND:                -0.278
REMARK SMILES O=C([O-])C=Cc1ccccc1
REMARK SMILES IDX 4 1 5 2 2 3 1 4 3 5 6 6 7 7 11 8 8 9 10 10 9 11
REMARK H PARENT
REMARK Flexibility Score: inf
ROOT
ATOM      1  C   UNL     1      -3.821   7.773  44.904  1.00  0.00     0.025 C 
ATOM      2  C   UNL     1      -4.461   7.985  46.066  1.00  0.00     0.010 C 
ENDROOT
BRANCH   1   3
ATOM      3  C   UNL     1      -3.025   8.771  44.163  1.00  0.00     0.064 C 
ATOM      4  O   UNL     1      -1.782   8.880  44.333  1.00  0.00    -0.545 OA
ATOM      5  O   UNL     1      -3.673   9.655  43.311  1.00  0.00    -0.545 OA
ENDBRANCH   1   3
BRANCH   2   6
ATOM      6  C   UNL     1      -4.338   9.196  46.902  1.00  0.00    -0.026 A 
ATOM      7  C   UNL     1      -5.125  10.336  46.656  1.00  0.00     0.008 A 
ATOM      8  C   UNL     1      -3.346   9.249  47.894  1.00  0.00     0.008 A 
ATOM      9  C   UNL     1      -4.954  11.489  47.428  1.00  0.00     0.001 A 
ATOM     10  C   UNL     1      -3.179  10.404  48.664  1.00  0.00     0.001 A 
ATOM     11  C   UNL     1      -3.985  11.522  48.434  1.00  0.00     0.000 A 
ENDBRANCH   2   6
TORSDOF 2
ENDMDL
MODEL 3
REMARK VINA RESULT:    -4.916     16.141     16.557
REMARK INTER + INTRA:          -5.769
REMARK INTER:                  -5.486
REMARK INTRA:                  -0.283
REMARK UNBOUND:                -0.278
REMARK SMILES O=C([O-])C=Cc1ccccc1
REMARK SMILES IDX 4 1 5 2 2 3 1 4 3 5 6 6 7 7 11 8 8 9 10 10 9 11
REMARK H PARENT
REMARK Flexibility Score: inf
ROOT
ATOM      1  C   UNL     1     -17.918   1.984  41.693  1.00  0.00     0.025 C 
ATOM      2  C   UNL     1     -17.308   2.796  42.573  1.00  0.00     0.010 C 
ENDROOT
BRANCH   1   3
ATOM      3  C   UNL     1     -19.369   1.720  41.627  1.00  0.00     0.064 C 
ATOM      4  O   UNL     1     -20.120   2.359  40.845  1.00  0.00    -0.545 OA
ATOM      5  O   UNL     1     -19.927   0.792  42.497  1.00  0.00    -0.545 OA
ENDBRANCH   1   3
BRANCH   2   6
ATOM      6  C   UNL     1     -17.990   3.706  43.514  1.00  0.00    -0.026 A 
ATOM      7  C   UNL     1     -18.327   5.021  43.142  1.00  0.00     0.008 A 
ATOM      8  C   UNL     1     -18.215   3.289  44.835  1.00  0.00     0.008 A 
ATOM      9  C   UNL     1     -18.925   5.883  44.066  1.00  0.00     0.001 A 
ATOM     10  C   UNL     1     -18.813   4.154  45.756  1.00  0.00     0.001 A 
ATOM     11  C   UNL     1     -19.173   5.448  45.371  1.00  0.00     0.000 A 
ENDBRANCH   2   6
TORSDOF 2
ENDMDL
MODEL 4
REMARK VINA RESULT:    -4.894     15.800     16.629
REMARK INTER + INTRA:          -5.744
REMARK INTER:                  -5.662
REMARK INTRA:                  -0.082
REMARK UNBOUND:                -0.278
REMARK SMILES O=C([O-])C=Cc1ccccc1
REMARK SMILES IDX 4 1 5 2 2 3 1 4 3 5 6 6 7 7 11 8 8 9 10 10 9 11
REMARK H PARENT
REMARK Flexibility Score: inf
ROOT
ATOM      1  C   UNL     1     -17.193   1.379  49.281  1.00  0.00     0.025 C 
ATOM      2  C   UNL     1     -16.694   1.853  48.128  1.00  0.00     0.010 C 
ENDROOT
BRANCH   1   3
ATOM      3  C   UNL     1     -18.606   1.445  49.701  1.00  0.00     0.064 C 
ATOM      4  O   UNL     1     -19.467   0.646  49.245  1.00  0.00    -0.545 OA
ATOM      5  O   UNL     1     -19.008   2.454  50.565  1.00  0.00    -0.545 OA
ENDBRANCH   1   3
BRANCH   2   6
ATOM      6  C   UNL     1     -17.492   2.364  46.995  1.00  0.00    -0.026 A 
ATOM      7  C   UNL     1     -17.473   1.724  45.742  1.00  0.00     0.008 A 
ATOM      8  C   UNL     1     -18.202   3.566  47.140  1.00  0.00     0.008 A 
ATOM      9  C   UNL     1     -18.195   2.255  44.669  1.00  0.00     0.001 A 
ATOM     10  C   UNL     1     -18.923   4.093  46.065  1.00  0.00     0.001 A 
ATOM     11  C   UNL     1     -18.924   3.436  44.831  1.00  0.00     0.000 A 
ENDBRANCH   2   6
TORSDOF 2
ENDMDL
MODEL 5
REMARK VINA RESULT:    -4.820      2.387      4.195
REMARK INTER + INTRA:          -5.661
REMARK INTER:                  -5.407
REMARK INTRA:                  -0.255
REMARK UNBOUND:                -0.278
REMARK SMILES O=C([O-])C=Cc1ccccc1
REMARK SMILES IDX 4 1 5 2 2 3 1 4 3 5 6 6 7 7 11 8 8 9 10 10 9 11
REMARK H PARENT
REMARK Flexibility Score: inf
ROOT
ATOM      1  C   UNL     1      -4.932  13.400  47.259  1.00  0.00     0.025 C 
ATOM      2  C   UNL     1      -5.157  12.254  47.921  1.00  0.00     0.010 C 
ENDROOT
BRANCH   1   3
ATOM      3  C   UNL     1      -3.971  13.583  46.153  1.00  0.00     0.064 C 
ATOM      4  O   UNL     1      -4.348  13.632  44.953  1.00  0.00    -0.545 OA
ATOM      5  O   UNL     1      -2.613  13.634  46.439  1.00  0.00    -0.545 OA
ENDBRANCH   1   3
BRANCH   2   6
ATOM      6  C   UNL     1      -4.618  10.930  47.549  1.00  0.00    -0.026 A 
ATOM      7  C   UNL     1      -5.187  10.179  46.503  1.00  0.00     0.008 A 
ATOM      8  C   UNL     1      -3.589  10.364  48.317  1.00  0.00     0.008 A 
ATOM      9  C   UNL     1      -4.694   8.906  46.202  1.00  0.00     0.001 A 
ATOM     10  C   UNL     1      -3.099   9.091  48.013  1.00  0.00     0.001 A 
ATOM     11  C   UNL     1      -3.648   8.363  46.954  1.00  0.00     0.000 A 
ENDBRANCH   2   6
TORSDOF 2
ENDMDL
MODEL 6
REMARK VINA RESULT:    -4.795     15.807     16.668
REMARK INTER + INTRA:          -5.633
REMARK INTER:                  -5.547
REMARK INTRA:                  -0.086
REMARK UNBOUND:                -0.278
REMARK SMILES O=C([O-])C=Cc1ccccc1
REMARK SMILES IDX 4 1 5 2 2 3 1 4 3 5 6 6 7 7 11 8 8 9 10 10 9 11
REMARK H PARENT
REMARK Flexibility Score: inf
ROOT
ATOM      1  C   UNL     1     -17.226   1.373  49.236  1.00  0.00     0.025 C 
ATOM      2  C   UNL     1     -16.705   1.881  48.107  1.00  0.00     0.010 C 
ENDROOT
BRANCH   1   3
ATOM      3  C   UNL     1     -18.639   1.467  49.651  1.00  0.00     0.064 C 
ATOM      4  O   UNL     1     -19.010   2.269  50.548  1.00  0.00    -0.545 OA
ATOM      5  O   UNL     1     -19.568   0.603  49.089  1.00  0.00    -0.545 OA
ENDBRANCH   1   3
BRANCH   2   6
ATOM      6  C   UNL     1     -17.479   2.466  46.994  1.00  0.00    -0.026 A 
ATOM      7  C   UNL     1     -18.228   3.645  47.167  1.00  0.00     0.008 A 
ATOM      8  C   UNL     1     -17.554   1.780  45.772  1.00  0.00     0.008 A 
ATOM      9  C   UNL     1     -18.996   4.152  46.114  1.00  0.00     0.001 A 
ATOM     10  C   UNL     1     -18.323   2.290  44.722  1.00  0.00     0.001 A 
ATOM     11  C   UNL     1     -19.040   3.478  44.891  1.00  0.00     0.000 A 
ENDBRANCH   2   6
TORSDOF 2
ENDMDL
MODEL 7
REMARK VINA RESULT:    -4.794      1.517      2.372
REMARK INTER + INTRA:          -5.632
REMARK INTER:                  -5.400
REMARK INTRA:                  -0.231
REMARK UNBOUND:                -0.278
REMARK SMILES O=C([O-])C=Cc1ccccc1
REMARK SMILES IDX 4 1 5 2 2 3 1 4 3 5 6 6 7 7 11 8 8 9 10 10 9 11
REMARK H PARENT
REMARK Flexibility Score: inf
ROOT
ATOM      1  C   UNL     1      -4.744  10.239  44.876  1.00  0.00     0.025 C 
ATOM      2  C   UNL     1      -5.077   9.933  46.140  1.00  0.00     0.010 C 
ENDROOT
BRANCH   1   3
ATOM      3  C   UNL     1      -3.409  10.668  44.415  1.00  0.00     0.064 C 
ATOM      4  O   UNL     1      -2.695   9.930  43.686  1.00  0.00    -0.545 OA
ATOM      5  O   UNL     1      -2.903  11.885  44.851  1.00  0.00    -0.545 OA
ENDBRANCH   1   3
BRANCH   2   6
ATOM      6  C   UNL     1      -4.130   9.797  47.266  1.00  0.00    -0.026 A 
ATOM      7  C   UNL     1      -3.889  10.865  48.150  1.00  0.00     0.008 A 
ATOM      8  C   UNL     1      -3.380   8.618  47.395  1.00  0.00     0.008 A 
ATOM      9  C   UNL     1      -2.949  10.731  49.176  1.00  0.00     0.001 A 
ATOM     10  C   UNL     1      -2.442   8.487  48.423  1.00  0.00     0.001 A 
ATOM     11  C   UNL     1      -2.229   9.541  49.316  1.00  0.00     0.000 A 
ENDBRANCH   2   6
TORSDOF 2
ENDMDL
MODEL 8
REMARK VINA RESULT:    -4.649     16.163     17.241
REMARK INTER + INTRA:          -5.470
REMARK INTER:                  -5.399
REMARK INTRA:                  -0.070
REMARK UNBOUND:                -0.278
REMARK SMILES O=C([O-])C=Cc1ccccc1
REMARK SMILES IDX 4 1 5 2 2 3 1 4 3 5 6 6 7 7 11 8 8 9 10 10 9 11
REMARK H PARENT
REMARK Flexibility Score: inf
ROOT
ATOM      1  C   UNL     1     -19.015   3.068  50.195  1.00  0.00     0.025 C 
ATOM      2  C   UNL     1     -19.483   3.833  49.195  1.00  0.00     0.010 C 
ENDROOT
BRANCH   1   3
ATOM      3  C   UNL     1     -18.489   1.696  50.056  1.00  0.00     0.064 C 
ATOM      4  O   UNL     1     -17.269   1.478  49.830  1.00  0.00    -0.545 OA
ATOM      5  O   UNL     1     -19.371   0.625  50.109  1.00  0.00    -0.545 OA
ENDBRANCH   1   3
BRANCH   2   6
ATOM      6  C   UNL     1     -19.389   3.514  47.756  1.00  0.00    -0.026 A 
ATOM      7  C   UNL     1     -18.659   4.331  46.873  1.00  0.00     0.008 A 
ATOM      8  C   UNL     1     -20.125   2.435  47.241  1.00  0.00     0.008 A 
ATOM      9  C   UNL     1     -18.628   4.039  45.507  1.00  0.00     0.001 A 
ATOM     10  C   UNL     1     -20.091   2.146  45.874  1.00  0.00     0.001 A 
ATOM     11  C   UNL     1     -19.339   2.944  45.008  1.00  0.00     0.000 A 
ENDBRANCH   2   6
TORSDOF 2
ENDMDL
MODEL 9
REMARK VINA RESULT:    -4.380     16.097     16.566
REMARK INTER + INTRA:          -5.170
REMARK INTER:                  -5.048
REMARK INTRA:                  -0.122
REMARK UNBOUND:                -0.278
REMARK SMILES O=C([O-])C=Cc1ccccc1
REMARK SMILES IDX 4 1 5 2 2 3 1 4 3 5 6 6 7 7 11 8 8 9 10 10 9 11
REMARK H PARENT
REMARK Flexibility Score: inf
ROOT
ATOM      1  C   UNL     1     -17.787   0.639  43.910  1.00  0.00     0.025 C 
ATOM      2  C   UNL     1     -17.422   1.757  44.558  1.00  0.00     0.010 C 
ENDROOT
BRANCH   1   3
ATOM      3  C   UNL     1     -18.941   0.507  42.999  1.00  0.00     0.064 C 
ATOM      4  O   UNL     1     -20.125   0.578  43.422  1.00  0.00    -0.545 OA
ATOM      5  O   UNL     1     -18.716   0.231  41.658  1.00  0.00    -0.545 OA
ENDBRANCH   1   3
BRANCH   2   6
ATOM      6  C   UNL     1     -17.997   3.100  44.339  1.00  0.00    -0.026 A 
ATOM      7  C   UNL     1     -17.850   3.765  43.107  1.00  0.00     0.008 A 
ATOM      8  C   UNL     1     -18.612   3.768  45.409  1.00  0.00     0.008 A 
ATOM      9  C   UNL     1     -18.358   5.056  42.940  1.00  0.00     0.001 A 
ATOM     10  C   UNL     1     -19.119   5.059  45.237  1.00  0.00     0.001 A 
ATOM     11  C   UNL     1     -18.996   5.702  44.003  1.00  0.00     0.000 A 
ENDBRANCH   2   6
TORSDOF 2
ENDMDL
