MODEL 1
REMARK VINA RESULT:     9.596      0.000      0.000
REMARK INTER + INTRA:          12.112
REMARK INTER:                  11.840
REMARK INTRA:                   0.272
REMARK UNBOUND:                 0.272
REMARK SMILES O=c1c(O)c(-c2cc(O)c(O)c(O)c2)oc2cc(O)cc(O)c12
REMARK SMILES IDX 5 1 3 2 2 3 1 4 23 5 21 6 20 7 18 8 17 9 16 10 15 11 6 12
REMARK SMILES IDX 7 13 8 14 14 15 10 16 12 17 9 18 11 20 13 22 4 24 22 26
REMARK SMILES IDX 19 28
REMARK H PARENT 9 19 11 21 13 23 4 25 22 27 19 29
REMARK Flexibility Score: inf
ROOT
ATOM      1  C   UNL     1      -2.967  12.378   8.078  1.00  0.00     0.180 A 
ATOM      2  C   UNL     1      -3.471  12.973   9.247  1.00  0.00     0.208 A 
ATOM      3  C   UNL     1      -3.621  12.188  10.402  1.00  0.00     0.238 A 
ATOM      4  O   UNL     1      -4.124  12.714  11.429  1.00  0.00    -0.285 OA
ATOM      5  C   UNL     1      -3.252  10.822  10.377  1.00  0.00     0.111 A 
ATOM      6  C   UNL     1      -3.324   9.942  11.499  1.00  0.00     0.134 A 
ATOM      7  C   UNL     1      -3.056   8.579  11.327  1.00  0.00     0.093 A 
ATOM      8  C   UNL     1      -2.655   8.075  10.090  1.00  0.00     0.123 A 
ATOM      9  C   UNL     1      -2.523   8.936   9.000  1.00  0.00     0.094 A 
ATOM     10  C   UNL     1      -2.819  10.295   9.132  1.00  0.00     0.146 A 
ATOM     11  O   UNL     1      -2.692  11.078   8.068  1.00  0.00    -0.452 OA
ENDROOT
BRANCH   1  12
ATOM     12  C   UNL     1      -2.757  13.146   6.830  1.00  0.00     0.029 A 
ATOM     13  C   UNL     1      -3.531  14.278   6.529  1.00  0.00     0.062 A 
ATOM     14  C   UNL     1      -3.309  15.011   5.358  1.00  0.00     0.162 A 
ATOM     15  C   UNL     1      -1.726  12.775   5.956  1.00  0.00     0.062 A 
ATOM     16  C   UNL     1      -2.284  14.614   4.467  1.00  0.00     0.200 A 
ATOM     17  C   UNL     1      -1.492  13.493   4.781  1.00  0.00     0.162 A 
BRANCH  14  18
ATOM     18  O   UNL     1      -4.121  16.124   5.127  1.00  0.00    -0.504 OA
ATOM     19  H   UNL     1      -5.099  16.174   5.372  1.00  0.00     0.293 HD
ENDBRANCH  14  18
BRANCH  16  20
ATOM     20  O   UNL     1      -2.023  15.299   3.277  1.00  0.00    -0.502 OA
ATOM     21  H   UNL     1      -1.251  15.091   2.660  1.00  0.00     0.293 HD
ENDBRANCH  16  20
BRANCH  17  22
ATOM     22  O   UNL     1      -0.466  13.077   3.934  1.00  0.00    -0.504 OA
ATOM     23  H   UNL     1       0.398  12.680   4.283  1.00  0.00     0.293 HD
ENDBRANCH  17  22
ENDBRANCH   1  12
BRANCH   2  24
ATOM     24  O   UNL     1      -3.850  14.319   9.243  1.00  0.00    -0.502 OA
ATOM     25  H   UNL     1      -4.758  14.629   9.568  1.00  0.00     0.293 HD
ENDBRANCH   2  24
BRANCH   6  26
ATOM     26  O   UNL     1      -3.626  10.360  12.799  1.00  0.00    -0.507 OA
ATOM     27  H   UNL     1      -4.249   9.877  13.428  1.00  0.00     0.293 HD
ENDBRANCH   6  26
BRANCH   8  28
ATOM     28  O   UNL     1      -2.380   6.716   9.958  1.00  0.00    -0.508 OA
ATOM     29  H   UNL     1      -2.955   6.112   9.383  1.00  0.00     0.293 HD
ENDBRANCH   8  28
TORSDOF 7
ENDMDL
MODEL 2
REMARK VINA RESULT:    12.019      0.868      1.952
REMARK INTER + INTRA:          15.102
REMARK INTER:                  14.601
REMARK INTRA:                   0.501
REMARK UNBOUND:                 0.272
REMARK SMILES O=c1c(O)c(-c2cc(O)c(O)c(O)c2)oc2cc(O)cc(O)c12
REMARK SMILES IDX 5 1 3 2 2 3 1 4 23 5 21 6 20 7 18 8 17 9 16 10 15 11 6 12
REMARK SMILES IDX 7 13 8 14 14 15 10 16 12 17 9 18 11 20 13 22 4 24 22 26
REMARK SMILES IDX 19 28
REMARK H PARENT 9 19 11 21 13 23 4 25 22 27 19 29
REMARK Flexibility Score: inf
ROOT
ATOM      1  C   UNL     1      -2.785  11.943   8.510  1.00  0.00     0.180 A 
ATOM      2  C   UNL     1      -3.449  12.305   9.695  1.00  0.00     0.208 A 
ATOM      3  C   UNL     1      -3.482  11.395  10.764  1.00  0.00     0.238 A 
ATOM      4  O   UNL     1      -4.124  11.703  11.801  1.00  0.00    -0.285 OA
ATOM      5  C   UNL     1      -2.838  10.140  10.640  1.00  0.00     0.111 A 
ATOM      6  C   UNL     1      -2.774   9.156  11.673  1.00  0.00     0.134 A 
ATOM      7  C   UNL     1      -2.224   7.899  11.396  1.00  0.00     0.093 A 
ATOM      8  C   UNL     1      -1.677   7.612  10.147  1.00  0.00     0.123 A 
ATOM      9  C   UNL     1      -1.679   8.586   9.147  1.00  0.00     0.094 A 
ATOM     10  C   UNL     1      -2.254   9.838   9.381  1.00  0.00     0.146 A 
ATOM     11  O   UNL     1      -2.247  10.733   8.402  1.00  0.00    -0.452 OA
ENDROOT
BRANCH   1  12
ATOM     12  C   UNL     1      -2.686  12.858   7.351  1.00  0.00     0.029 A 
ATOM     13  C   UNL     1      -1.927  12.523   6.218  1.00  0.00     0.062 A 
ATOM     14  C   UNL     1      -1.858  13.385   5.118  1.00  0.00     0.162 A 
ATOM     15  C   UNL     1      -3.409  14.058   7.355  1.00  0.00     0.062 A 
ATOM     16  C   UNL     1      -2.570  14.607   5.140  1.00  0.00     0.200 A 
ATOM     17  C   UNL     1      -3.350  14.931   6.267  1.00  0.00     0.162 A 
BRANCH  14  18
ATOM     18  O   UNL     1      -1.082  12.983   4.028  1.00  0.00    -0.504 OA
ATOM     19  H   UNL     1      -0.842  12.023   3.825  1.00  0.00     0.293 HD
ENDBRANCH  14  18
BRANCH  16  20
ATOM     20  O   UNL     1      -2.530  15.513   4.077  1.00  0.00    -0.502 OA
ATOM     21  H   UNL     1      -2.284  15.265   3.129  1.00  0.00     0.293 HD
ENDBRANCH  16  20
BRANCH  17  22
ATOM     22  O   UNL     1      -4.074  16.123   6.322  1.00  0.00    -0.504 OA
ATOM     23  H   UNL     1      -4.328  16.561   7.199  1.00  0.00     0.293 HD
ENDBRANCH  17  22
ENDBRANCH   1  12
BRANCH   2  24
ATOM     24  O   UNL     1      -4.096  13.541   9.788  1.00  0.00    -0.502 OA
ATOM     25  H   UNL     1      -3.675  14.401   9.460  1.00  0.00     0.293 HD
ENDBRANCH   2  24
BRANCH   6  26
ATOM     26  O   UNL     1      -3.209   9.373  12.984  1.00  0.00    -0.507 OA
ATOM     27  H   UNL     1      -4.158   9.594  13.245  1.00  0.00     0.293 HD
ENDBRANCH   6  26
BRANCH   8  28
ATOM     28  O   UNL     1      -1.122   6.355   9.911  1.00  0.00    -0.508 OA
ATOM     29  H   UNL     1      -0.190   6.119  10.229  1.00  0.00     0.293 HD
ENDBRANCH   8  28
TORSDOF 7
ENDMDL
