MODEL 1
REMARK VINA RESULT:    -5.426      0.000      0.000
REMARK INTER + INTRA:          -9.488
REMARK INTER:                  -7.964
REMARK INTRA:                  -1.524
REMARK UNBOUND:                -1.524
REMARK SMILES Cc1cc2c(C(C)C)c(O)c(O)c(C=O)c2c(O)c1-c1c(C)cc2c(C(C)C)c(O)c(O)c(C=O)c2c1O
REMARK SMILES IDX 1 1 2 2 3 3 4 4 16 5 13 6 11 7 9 8 5 9 17 10 19 11 20 12
REMARK SMILES IDX 37 13 21 14 36 15 23 16 22 17 24 18 33 19 25 20 31 21 29 22
REMARK SMILES IDX 38 23 34 25 35 26 26 27 27 28 28 29 32 30 30 32 18 34 6 36
REMARK SMILES IDX 7 37 8 38 14 39 15 40 10 41 12 43
REMARK H PARENT 38 24 32 31 30 33 18 35 10 42 12 44
REMARK Flexibility Score: inf
ROOT
ATOM      1  C   UNL     1     140.944 135.875 146.023  1.00  0.00     0.045 C 
ATOM      2  C   UNL     1     140.802 137.236 146.659  1.00  0.00    -0.039 A 
ATOM      3  C   UNL     1     140.740 137.342 148.050  1.00  0.00     0.013 A 
ATOM      4  C   UNL     1     140.599 138.590 148.696  1.00  0.00    -0.006 A 
ATOM      5  C   UNL     1     140.364 139.748 147.899  1.00  0.00     0.039 A 
ATOM      6  C   UNL     1     139.989 140.962 148.543  1.00  0.00     0.072 A 
ATOM      7  C   UNL     1     139.915 141.025 149.948  1.00  0.00     0.169 A 
ATOM      8  C   UNL     1     140.211 139.890 150.729  1.00  0.00     0.162 A 
ATOM      9  C   UNL     1     140.654 138.697 150.118  1.00  0.00     0.008 A 
ATOM     10  C   UNL     1     140.539 139.655 146.486  1.00  0.00     0.132 A 
ATOM     11  C   UNL     1     140.745 138.400 145.875  1.00  0.00     0.031 A 
ENDROOT
BRANCH  11  12
ATOM     12  C   UNL     1     140.889 138.301 144.398  1.00  0.00     0.031 A 
ATOM     13  C   UNL     1     139.749 138.145 143.583  1.00  0.00     0.132 A 
ATOM     14  C   UNL     1     142.164 138.378 143.817  1.00  0.00    -0.039 A 
ATOM     15  C   UNL     1     139.882 138.068 142.163  1.00  0.00     0.039 A 
ATOM     16  C   UNL     1     142.300 138.221 142.437  1.00  0.00     0.013 A 
ATOM     17  C   UNL     1     143.391 138.621 144.661  1.00  0.00     0.045 C 
ATOM     18  C   UNL     1     141.193 137.992 141.599  1.00  0.00    -0.006 A 
ATOM     19  C   UNL     1     138.755 138.042 141.288  1.00  0.00     0.072 A 
ATOM     20  C   UNL     1     141.363 137.711 140.207  1.00  0.00     0.008 A 
ATOM     21  C   UNL     1     138.952 137.962 139.896  1.00  0.00     0.169 A 
ATOM     22  C   UNL     1     140.230 137.806 139.363  1.00  0.00     0.162 A 
BRANCH  13  23
ATOM     23  O   UNL     1     138.488 138.040 144.182  1.00  0.00    -0.507 OA
ATOM     24  H   UNL     1     137.781 138.762 144.140  1.00  0.00     0.293 HD
ENDBRANCH  13  23
BRANCH  19  25
ATOM     25  C   UNL     1     137.371 138.194 141.788  1.00  0.00     0.264 C 
ATOM     26  O   UNL     1     136.637 137.184 141.955  1.00  0.00    -0.298 OA
ENDBRANCH  19  25
BRANCH  20  27
ATOM     27  C   UNL     1     142.689 137.223 139.595  1.00  0.00     0.017 C 
ATOM     28  C   UNL     1     143.753 138.328 139.544  1.00  0.00     0.012 C 
ATOM     29  C   UNL     1     143.227 135.907 140.193  1.00  0.00     0.012 C 
ENDBRANCH  20  27
BRANCH  21  30
ATOM     30  O   UNL     1     137.887 138.060 138.992  1.00  0.00    -0.504 OA
ATOM     31  H   UNL     1     137.295 138.875 138.902  1.00  0.00     0.293 HD
ENDBRANCH  21  30
BRANCH  22  32
ATOM     32  O   UNL     1     140.331 137.776 137.967  1.00  0.00    -0.504 OA
ATOM     33  H   UNL     1     139.711 137.251 137.364  1.00  0.00     0.293 HD
ENDBRANCH  22  32
ENDBRANCH  11  12
BRANCH  10  34
ATOM     34  O   UNL     1     140.550 140.811 145.698  1.00  0.00    -0.507 OA
ATOM     35  H   UNL     1     141.384 141.346 145.492  1.00  0.00     0.293 HD
ENDBRANCH  10  34
BRANCH   9  36
ATOM     36  C   UNL     1     141.172 137.538 150.992  1.00  0.00     0.017 C 
ATOM     37  C   UNL     1     142.550 137.066 150.519  1.00  0.00     0.012 C 
ATOM     38  C   UNL     1     140.183 136.363 151.108  1.00  0.00     0.012 C 
ENDBRANCH   9  36
BRANCH   6  39
ATOM     39  C   UNL     1     139.535 142.150 147.779  1.00  0.00     0.264 C 
ATOM     40  O   UNL     1     140.232 143.198 147.735  1.00  0.00    -0.298 OA
ENDBRANCH   6  39
BRANCH   8  41
ATOM     41  O   UNL     1     140.029 139.911 152.115  1.00  0.00    -0.504 OA
ATOM     42  H   UNL     1     139.459 140.578 152.612  1.00  0.00     0.293 HD
ENDBRANCH   8  41
BRANCH   7  43
ATOM     43  O   UNL     1     139.539 142.236 150.541  1.00  0.00    -0.504 OA
ATOM     44  H   UNL     1     140.076 142.724 151.243  1.00  0.00     0.293 HD
ENDBRANCH   7  43
TORSDOF 11
ENDMDL
MODEL 2
REMARK VINA RESULT:    -5.420      0.326      8.776
REMARK INTER + INTRA:          -9.479
REMARK INTER:                  -7.933
REMARK INTRA:                  -1.546
REMARK UNBOUND:                -1.524
REMARK SMILES Cc1cc2c(C(C)C)c(O)c(O)c(C=O)c2c(O)c1-c1c(C)cc2c(C(C)C)c(O)c(O)c(C=O)c2c1O
REMARK SMILES IDX 1 1 2 2 3 3 4 4 16 5 13 6 11 7 9 8 5 9 17 10 19 11 20 12
REMARK SMILES IDX 37 13 21 14 36 15 23 16 22 17 24 18 33 19 25 20 31 21 29 22
REMARK SMILES IDX 38 23 34 25 35 26 26 27 27 28 28 29 32 30 30 32 18 34 6 36
REMARK SMILES IDX 7 37 8 38 14 39 15 40 10 41 12 43
REMARK H PARENT 38 24 32 31 30 33 18 35 10 42 12 44
REMARK Flexibility Score: inf
ROOT
ATOM      1  C   UNL     1     143.305 138.608 144.649  1.00  0.00     0.045 C 
ATOM      2  C   UNL     1     142.085 138.371 143.791  1.00  0.00    -0.039 A 
ATOM      3  C   UNL     1     142.236 138.202 142.414  1.00  0.00     0.013 A 
ATOM      4  C   UNL     1     141.128 137.986 141.565  1.00  0.00    -0.006 A 
ATOM      5  C   UNL     1     139.817 138.094 142.113  1.00  0.00     0.039 A 
ATOM      6  C   UNL     1     138.700 138.112 141.230  1.00  0.00     0.072 A 
ATOM      7  C   UNL     1     138.892 137.960 139.843  1.00  0.00     0.169 A 
ATOM      8  C   UNL     1     140.188 137.792 139.317  1.00  0.00     0.162 A 
ATOM      9  C   UNL     1     141.303 137.698 140.178  1.00  0.00     0.008 A 
ATOM     10  C   UNL     1     139.670 138.154 143.531  1.00  0.00     0.132 A 
ATOM     11  C   UNL     1     140.803 138.303 144.360  1.00  0.00     0.031 A 
ENDROOT
BRANCH  11  12
ATOM     12  C   UNL     1     140.644 138.404 145.834  1.00  0.00     0.031 A 
ATOM     13  C   UNL     1     140.469 139.664 146.445  1.00  0.00     0.132 A 
ATOM     14  C   UNL     1     140.655 137.239 146.616  1.00  0.00    -0.039 A 
ATOM     15  C   UNL     1     140.298 139.763 147.860  1.00  0.00     0.039 A 
ATOM     16  C   UNL     1     140.569 137.344 148.005  1.00  0.00     0.013 A 
ATOM     17  C   UNL     1     140.764 135.875 145.980  1.00  0.00     0.045 C 
ATOM     18  C   UNL     1     140.465 138.588 148.656  1.00  0.00    -0.006 A 
ATOM     19  C   UNL     1     139.987 140.995 148.509  1.00  0.00     0.072 A 
ATOM     20  C   UNL     1     140.503 138.684 150.082  1.00  0.00     0.008 A 
ATOM     21  C   UNL     1     139.835 141.028 149.909  1.00  0.00     0.169 A 
ATOM     22  C   UNL     1     140.081 139.895 150.681  1.00  0.00     0.162 A 
BRANCH  13  23
ATOM     23  O   UNL     1     140.491 140.817 145.652  1.00  0.00    -0.507 OA
ATOM     24  H   UNL     1     141.187 141.000 144.940  1.00  0.00     0.293 HD
ENDBRANCH  13  23
BRANCH  19  25
ATOM     25  C   UNL     1     139.722 142.236 147.750  1.00  0.00     0.264 C 
ATOM     26  O   UNL     1     138.540 142.590 147.495  1.00  0.00    -0.298 OA
ENDBRANCH  19  25
BRANCH  20  27
ATOM     27  C   UNL     1     141.065 137.576 150.993  1.00  0.00     0.017 C 
ATOM     28  C   UNL     1     140.077 136.417 151.184  1.00  0.00     0.012 C 
ATOM     29  C   UNL     1     142.482 137.093 150.619  1.00  0.00     0.012 C 
ENDBRANCH  20  27
BRANCH  21  30
ATOM     30  O   UNL     1     139.407 142.181 150.579  1.00  0.00    -0.504 OA
ATOM     31  H   UNL     1     139.906 142.604 151.351  1.00  0.00     0.293 HD
ENDBRANCH  21  30
BRANCH  22  32
ATOM     32  O   UNL     1     139.864 140.012 152.059  1.00  0.00    -0.504 OA
ATOM     33  H   UNL     1     140.462 139.602 152.765  1.00  0.00     0.293 HD
ENDBRANCH  22  32
ENDBRANCH  11  12
BRANCH  10  34
ATOM     34  O   UNL     1     138.406 138.023 144.117  1.00  0.00    -0.507 OA
ATOM     35  H   UNL     1     137.535 138.151 143.616  1.00  0.00     0.293 HD
ENDBRANCH  10  34
BRANCH   9  36
ATOM     36  C   UNL     1     142.679 137.306 139.606  1.00  0.00     0.017 C 
ATOM     37  C   UNL     1     143.181 135.999 140.229  1.00  0.00     0.012 C 
ATOM     38  C   UNL     1     143.734 138.423 139.714  1.00  0.00     0.012 C 
ENDBRANCH   9  36
BRANCH   6  39
ATOM     39  C   UNL     1     137.328 138.420 141.702  1.00  0.00     0.264 C 
ATOM     40  O   UNL     1     136.453 137.517 141.788  1.00  0.00    -0.298 OA
ENDBRANCH   6  39
BRANCH   8  41
ATOM     41  O   UNL     1     140.399 137.756 137.935  1.00  0.00    -0.504 OA
ATOM     42  H   UNL     1     141.152 137.263 137.480  1.00  0.00     0.293 HD
ENDBRANCH   8  41
BRANCH   7  43
ATOM     43  O   UNL     1     137.768 137.988 139.008  1.00  0.00    -0.504 OA
ATOM     44  H   UNL     1     136.813 137.903 139.327  1.00  0.00     0.293 HD
ENDBRANCH   7  43
TORSDOF 11
ENDMDL
MODEL 3
REMARK VINA RESULT:    -5.188     10.480     15.020
REMARK INTER + INTRA:          -9.139
REMARK INTER:                  -7.575
REMARK INTRA:                  -1.564
REMARK UNBOUND:                -1.524
REMARK SMILES Cc1cc2c(C(C)C)c(O)c(O)c(C=O)c2c(O)c1-c1c(C)cc2c(C(C)C)c(O)c(O)c(C=O)c2c1O
REMARK SMILES IDX 1 1 2 2 3 3 4 4 16 5 13 6 11 7 9 8 5 9 17 10 19 11 20 12
REMARK SMILES IDX 37 13 21 14 36 15 23 16 22 17 24 18 33 19 25 20 31 21 29 22
REMARK SMILES IDX 38 23 34 25 35 26 26 27 27 28 28 29 32 30 30 32 18 34 6 36
REMARK SMILES IDX 7 37 8 38 14 39 15 40 10 41 12 43
REMARK H PARENT 38 24 32 31 30 33 18 35 10 42 12 44
REMARK Flexibility Score: inf
ROOT
ATOM      1  C   UNL     1     152.043 135.875 146.833  1.00  0.00     0.045 C 
ATOM      2  C   UNL     1     152.141 137.230 146.175  1.00  0.00    -0.039 A 
ATOM      3  C   UNL     1     152.253 137.312 144.786  1.00  0.00     0.013 A 
ATOM      4  C   UNL     1     152.356 138.554 144.120  1.00  0.00    -0.006 A 
ATOM      5  C   UNL     1     152.500 139.737 144.901  1.00  0.00     0.039 A 
ATOM      6  C   UNL     1     152.839 140.957 144.248  1.00  0.00     0.072 A 
ATOM      7  C   UNL     1     152.965 140.997 142.846  1.00  0.00     0.169 A 
ATOM      8  C   UNL     1     152.760 139.835 142.078  1.00  0.00     0.162 A 
ATOM      9  C   UNL     1     152.353 138.632 142.695  1.00  0.00     0.008 A 
ATOM     10  C   UNL     1     152.273 139.662 146.308  1.00  0.00     0.132 A 
ATOM     11  C   UNL     1     152.106 138.409 146.937  1.00  0.00     0.031 A 
ENDROOT
BRANCH  11  12
ATOM     12  C   UNL     1     151.908 138.331 148.408  1.00  0.00     0.031 A 
ATOM     13  C   UNL     1     153.021 138.248 149.271  1.00  0.00     0.132 A 
ATOM     14  C   UNL     1     150.608 138.352 148.937  1.00  0.00    -0.039 A 
ATOM     15  C   UNL     1     152.835 138.191 150.686  1.00  0.00     0.039 A 
ATOM     16  C   UNL     1     150.425 138.214 150.313  1.00  0.00     0.013 A 
ATOM     17  C   UNL     1     149.405 138.516 148.041  1.00  0.00     0.045 C 
ATOM     18  C   UNL     1     151.508 138.058 151.199  1.00  0.00    -0.006 A 
ATOM     19  C   UNL     1     153.926 138.239 151.604  1.00  0.00     0.072 A 
ATOM     20  C   UNL     1     151.296 137.795 152.588  1.00  0.00     0.008 A 
ATOM     21  C   UNL     1     153.677 138.175 152.989  1.00  0.00     0.169 A 
ATOM     22  C   UNL     1     152.388 137.963 153.474  1.00  0.00     0.162 A 
BRANCH  13  23
ATOM     23  O   UNL     1     154.308 138.197 148.724  1.00  0.00    -0.507 OA
ATOM     24  H   UNL     1     155.134 137.934 149.246  1.00  0.00     0.293 HD
ENDBRANCH  13  23
BRANCH  19  25
ATOM     25  C   UNL     1     155.318 138.453 151.157  1.00  0.00     0.264 C 
ATOM     26  O   UNL     1     156.125 137.487 151.091  1.00  0.00    -0.298 OA
ENDBRANCH  19  25
BRANCH  20  27
ATOM     27  C   UNL     1     149.973 137.250 153.158  1.00  0.00     0.017 C 
ATOM     28  C   UNL     1     148.846 138.292 153.122  1.00  0.00     0.012 C 
ATOM     29  C   UNL     1     149.539 135.886 152.583  1.00  0.00     0.012 C 
ENDBRANCH  20  27
BRANCH  21  30
ATOM     30  O   UNL     1     154.698 138.344 153.932  1.00  0.00    -0.504 OA
ATOM     31  H   UNL     1     154.633 138.045 154.896  1.00  0.00     0.293 HD
ENDBRANCH  21  30
BRANCH  22  32
ATOM     32  O   UNL     1     152.232 137.954 154.866  1.00  0.00    -0.504 OA
ATOM     33  H   UNL     1     151.950 137.142 155.400  1.00  0.00     0.293 HD
ENDBRANCH  22  32
ENDBRANCH  11  12
BRANCH  10  34
ATOM     34  O   UNL     1     152.171 140.830 147.071  1.00  0.00    -0.507 OA
ATOM     35  H   UNL     1     152.425 141.750 146.733  1.00  0.00     0.293 HD
ENDBRANCH  10  34
BRANCH   9  36
ATOM     36  C   UNL     1     151.931 137.432 141.825  1.00  0.00     0.017 C 
ATOM     37  C   UNL     1     153.133 136.843 141.081  1.00  0.00     0.012 C 
ATOM     38  C   UNL     1     150.770 137.744 140.863  1.00  0.00     0.012 C 
ENDBRANCH   9  36
BRANCH   6  39
ATOM     39  C   UNL     1     153.200 142.181 145.004  1.00  0.00     0.264 C 
ATOM     40  O   UNL     1     152.468 143.206 144.968  1.00  0.00    -0.298 OA
ENDBRANCH   6  39
BRANCH   8  41
ATOM     41  O   UNL     1     152.996 139.839 140.699  1.00  0.00    -0.504 OA
ATOM     42  H   UNL     1     153.816 139.455 140.254  1.00  0.00     0.293 HD
ENDBRANCH   8  41
BRANCH   7  43
ATOM     43  O   UNL     1     153.304 142.215 142.244  1.00  0.00    -0.504 OA
ATOM     44  H   UNL     1     153.935 142.314 141.461  1.00  0.00     0.293 HD
ENDBRANCH   7  43
TORSDOF 11
ENDMDL
MODEL 4
REMARK VINA RESULT:    -4.933      2.157      3.226
REMARK INTER + INTRA:          -8.765
REMARK INTER:                  -7.502
REMARK INTRA:                  -1.263
REMARK UNBOUND:                -1.524
REMARK SMILES Cc1cc2c(C(C)C)c(O)c(O)c(C=O)c2c(O)c1-c1c(C)cc2c(C(C)C)c(O)c(O)c(C=O)c2c1O
REMARK SMILES IDX 1 1 2 2 3 3 4 4 16 5 13 6 11 7 9 8 5 9 17 10 19 11 20 12
REMARK SMILES IDX 37 13 21 14 36 15 23 16 22 17 24 18 33 19 25 20 31 21 29 22
REMARK SMILES IDX 38 23 34 25 35 26 26 27 27 28 28 29 32 30 30 32 18 34 6 36
REMARK SMILES IDX 7 37 8 38 14 39 15 40 10 41 12 43
REMARK H PARENT 38 24 32 31 30 33 18 35 10 42 12 44
REMARK Flexibility Score: inf
ROOT
ATOM      1  C   UNL     1     139.070 140.755 145.903  1.00  0.00     0.045 C 
ATOM      2  C   UNL     1     140.043 139.748 146.469  1.00  0.00    -0.039 A 
ATOM      3  C   UNL     1     140.146 139.595 147.852  1.00  0.00     0.013 A 
ATOM      4  C   UNL     1     141.045 138.675 148.434  1.00  0.00    -0.006 A 
ATOM      5  C   UNL     1     141.972 137.998 147.588  1.00  0.00     0.039 A 
ATOM      6  C   UNL     1     143.030 137.252 148.183  1.00  0.00     0.072 A 
ATOM      7  C   UNL     1     143.115 137.138 149.584  1.00  0.00     0.169 A 
ATOM      8  C   UNL     1     142.158 137.760 150.409  1.00  0.00     0.162 A 
ATOM      9  C   UNL     1     141.060 138.443 149.843  1.00  0.00     0.008 A 
ATOM     10  C   UNL     1     141.789 138.071 146.175  1.00  0.00     0.132 A 
ATOM     11  C   UNL     1     140.835 138.953 145.624  1.00  0.00     0.031 A 
ENDROOT
BRANCH  11  12
ATOM     12  C   UNL     1     140.673 139.056 144.150  1.00  0.00     0.031 A 
ATOM     13  C   UNL     1     139.736 138.242 143.480  1.00  0.00     0.132 A 
ATOM     14  C   UNL     1     141.448 139.976 143.428  1.00  0.00    -0.039 A 
ATOM     15  C   UNL     1     139.565 138.350 142.066  1.00  0.00     0.039 A 
ATOM     16  C   UNL     1     141.339 140.024 142.038  1.00  0.00     0.013 A 
ATOM     17  C   UNL     1     142.402 140.911 144.130  1.00  0.00     0.045 C 
ATOM     18  C   UNL     1     140.466 139.178 141.327  1.00  0.00    -0.006 A 
ATOM     19  C   UNL     1     138.543 137.647 141.362  1.00  0.00     0.072 A 
ATOM     20  C   UNL     1     140.457 139.155 139.898  1.00  0.00     0.008 A 
ATOM     21  C   UNL     1     138.429 137.793 139.966  1.00  0.00     0.169 A 
ATOM     22  C   UNL     1     139.362 138.537 139.247  1.00  0.00     0.162 A 
BRANCH  13  23
ATOM     23  O   UNL     1     138.994 137.308 144.213  1.00  0.00    -0.507 OA
ATOM     24  H   UNL     1     138.158 136.853 143.867  1.00  0.00     0.293 HD
ENDBRANCH  13  23
BRANCH  19  25
ATOM     25  C   UNL     1     137.526 136.834 142.062  1.00  0.00     0.264 C 
ATOM     26  O   UNL     1     136.302 136.975 141.798  1.00  0.00    -0.298 OA
ENDBRANCH  19  25
BRANCH  20  27
ATOM     27  C   UNL     1     141.617 139.682 139.032  1.00  0.00     0.017 C 
ATOM     28  C   UNL     1     142.271 138.577 138.191  1.00  0.00     0.012 C 
ATOM     29  C   UNL     1     141.279 140.939 138.203  1.00  0.00     0.012 C 
ENDBRANCH  20  27
BRANCH  21  30
ATOM     30  O   UNL     1     137.369 137.226 139.247  1.00  0.00    -0.504 OA
ATOM     31  H   UNL     1     137.100 137.513 138.315  1.00  0.00     0.293 HD
ENDBRANCH  21  30
BRANCH  22  32
ATOM     32  O   UNL     1     139.144 138.660 137.869  1.00  0.00    -0.504 OA
ATOM     33  H   UNL     1     139.088 137.876 137.231  1.00  0.00     0.293 HD
ENDBRANCH  22  32
ENDBRANCH  11  12
BRANCH  10  34
ATOM     34  O   UNL     1     142.525 137.240 145.323  1.00  0.00    -0.507 OA
ATOM     35  H   UNL     1     143.511 137.359 145.130  1.00  0.00     0.293 HD
ENDBRANCH  10  34
BRANCH   9  36
ATOM     36  C   UNL     1     139.915 138.935 150.749  1.00  0.00     0.017 C 
ATOM     37  C   UNL     1     140.317 140.207 151.502  1.00  0.00     0.012 C 
ATOM     38  C   UNL     1     139.383 137.856 151.711  1.00  0.00     0.012 C 
ENDBRANCH   9  36
BRANCH   6  39
ATOM     39  C   UNL     1     144.143 136.689 147.380  1.00  0.00     0.264 C 
ATOM     40  O   UNL     1     145.182 137.362 147.150  1.00  0.00    -0.298 OA
ENDBRANCH   6  39
BRANCH   8  41
ATOM     41  O   UNL     1     142.299 137.748 151.801  1.00  0.00    -0.504 OA
ATOM     42  H   UNL     1     142.490 138.561 152.367  1.00  0.00     0.293 HD
ENDBRANCH   8  41
BRANCH   7  43
ATOM     43  O   UNL     1     144.173 136.400 150.128  1.00  0.00    -0.504 OA
ATOM     44  H   UNL     1     144.972 136.070 149.605  1.00  0.00     0.293 HD
ENDBRANCH   7  43
TORSDOF 11
ENDMDL
MODEL 5
REMARK VINA RESULT:    -4.933      6.093      9.429
REMARK INTER + INTRA:          -8.764
REMARK INTER:                  -7.479
REMARK INTRA:                  -1.285
REMARK UNBOUND:                -1.524
REMARK SMILES Cc1cc2c(C(C)C)c(O)c(O)c(C=O)c2c(O)c1-c1c(C)cc2c(C(C)C)c(O)c(O)c(C=O)c2c1O
REMARK SMILES IDX 1 1 2 2 3 3 4 4 16 5 13 6 11 7 9 8 5 9 17 10 19 11 20 12
REMARK SMILES IDX 37 13 21 14 36 15 23 16 22 17 24 18 33 19 25 20 31 21 29 22
REMARK SMILES IDX 38 23 34 25 35 26 26 27 27 28 28 29 32 30 30 32 18 34 6 36
REMARK SMILES IDX 7 37 8 38 14 39 15 40 10 41 12 43
REMARK H PARENT 38 24 32 31 30 33 18 35 10 42 12 44
REMARK Flexibility Score: inf
ROOT
ATOM      1  C   UNL     1     146.104 140.144 144.758  1.00  0.00     0.045 C 
ATOM      2  C   UNL     1     145.063 139.172 145.257  1.00  0.00    -0.039 A 
ATOM      3  C   UNL     1     143.762 139.240 144.754  1.00  0.00     0.013 A 
ATOM      4  C   UNL     1     142.748 138.361 145.193  1.00  0.00    -0.006 A 
ATOM      5  C   UNL     1     143.027 137.485 146.282  1.00  0.00     0.039 A 
ATOM      6  C   UNL     1     141.953 136.768 146.882  1.00  0.00     0.072 A 
ATOM      7  C   UNL     1     140.650 136.879 146.362  1.00  0.00     0.169 A 
ATOM      8  C   UNL     1     140.395 137.699 145.245  1.00  0.00     0.162 A 
ATOM      9  C   UNL     1     141.454 138.363 144.589  1.00  0.00     0.008 A 
ATOM     10  C   UNL     1     144.379 137.339 146.714  1.00  0.00     0.132 A 
ATOM     11  C   UNL     1     145.385 138.190 146.208  1.00  0.00     0.031 A 
ENDROOT
BRANCH  11  12
ATOM     12  C   UNL     1     146.786 138.061 146.689  1.00  0.00     0.031 A 
ATOM     13  C   UNL     1     147.738 137.354 145.923  1.00  0.00     0.132 A 
ATOM     14  C   UNL     1     147.162 138.657 147.902  1.00  0.00    -0.039 A 
ATOM     15  C   UNL     1     149.088 137.244 146.373  1.00  0.00     0.039 A 
ATOM     16  C   UNL     1     148.461 138.480 148.380  1.00  0.00     0.013 A 
ATOM     17  C   UNL     1     146.184 139.482 148.701  1.00  0.00     0.045 C 
ATOM     18  C   UNL     1     149.419 137.722 147.679  1.00  0.00    -0.006 A 
ATOM     19  C   UNL     1     150.115 136.656 145.577  1.00  0.00     0.072 A 
ATOM     20  C   UNL     1     150.704 137.448 148.243  1.00  0.00     0.008 A 
ATOM     21  C   UNL     1     151.429 136.573 146.079  1.00  0.00     0.169 A 
ATOM     22  C   UNL     1     151.721 136.967 147.383  1.00  0.00     0.162 A 
BRANCH  13  23
ATOM     23  O   UNL     1     147.336 136.740 144.731  1.00  0.00    -0.507 OA
ATOM     24  H   UNL     1     147.680 135.842 144.415  1.00  0.00     0.293 HD
ENDBRANCH  13  23
BRANCH  19  25
ATOM     25  C   UNL     1     149.872 136.209 144.189  1.00  0.00     0.264 C 
ATOM     26  O   UNL     1     150.164 136.955 143.216  1.00  0.00    -0.298 OA
ENDBRANCH  19  25
BRANCH  20  27
ATOM     27  C   UNL     1     151.014 137.561 149.747  1.00  0.00     0.017 C 
ATOM     28  C   UNL     1     151.568 136.254 150.331  1.00  0.00     0.012 C 
ATOM     29  C   UNL     1     151.858 138.792 150.139  1.00  0.00     0.012 C 
ENDBRANCH  20  27
BRANCH  21  30
ATOM     30  O   UNL     1     152.494 136.121 145.291  1.00  0.00    -0.504 OA
ATOM     31  H   UNL     1     152.491 135.246 144.784  1.00  0.00     0.293 HD
ENDBRANCH  21  30
BRANCH  22  32
ATOM     32  O   UNL     1     153.061 136.886 147.781  1.00  0.00    -0.504 OA
ATOM     33  H   UNL     1     153.516 136.031 148.073  1.00  0.00     0.293 HD
ENDBRANCH  22  32
ENDBRANCH  11  12
BRANCH  10  34
ATOM     34  O   UNL     1     144.728 136.325 147.613  1.00  0.00    -0.507 OA
ATOM     35  H   UNL     1     144.989 136.489 148.577  1.00  0.00     0.293 HD
ENDBRANCH  10  34
BRANCH   9  36
ATOM     36  C   UNL     1     141.193 139.084 143.252  1.00  0.00     0.017 C 
ATOM     37  C   UNL     1     140.335 140.335 143.461  1.00  0.00     0.012 C 
ATOM     38  C   UNL     1     140.601 138.170 142.163  1.00  0.00     0.012 C 
ENDBRANCH   9  36
BRANCH   6  39
ATOM     39  C   UNL     1     142.126 135.996 148.137  1.00  0.00     0.264 C 
ATOM     40  O   UNL     1     141.928 136.530 149.260  1.00  0.00    -0.298 OA
ENDBRANCH   6  39
BRANCH   8  41
ATOM     41  O   UNL     1     139.088 137.906 144.793  1.00  0.00    -0.504 OA
ATOM     42  H   UNL     1     138.258 137.562 145.254  1.00  0.00     0.293 HD
ENDBRANCH   8  41
BRANCH   7  43
ATOM     43  O   UNL     1     139.621 136.160 146.983  1.00  0.00    -0.504 OA
ATOM     44  H   UNL     1     139.663 135.177 147.211  1.00  0.00     0.293 HD
ENDBRANCH   7  43
TORSDOF 11
ENDMDL
MODEL 6
REMARK VINA RESULT:    -4.922      2.257      9.243
REMARK INTER + INTRA:          -8.748
REMARK INTER:                  -7.411
REMARK INTRA:                  -1.336
REMARK UNBOUND:                -1.524
REMARK SMILES Cc1cc2c(C(C)C)c(O)c(O)c(C=O)c2c(O)c1-c1c(C)cc2c(C(C)C)c(O)c(O)c(C=O)c2c1O
REMARK SMILES IDX 1 1 2 2 3 3 4 4 16 5 13 6 11 7 9 8 5 9 17 10 19 11 20 12
REMARK SMILES IDX 37 13 21 14 36 15 23 16 22 17 24 18 33 19 25 20 31 21 29 22
REMARK SMILES IDX 38 23 34 25 35 26 26 27 27 28 28 29 32 30 30 32 18 34 6 36
REMARK SMILES IDX 7 37 8 38 14 39 15 40 10 41 12 43
REMARK H PARENT 38 24 32 31 30 33 18 35 10 42 12 44
REMARK Flexibility Score: inf
ROOT
ATOM      1  C   UNL     1     142.320 140.901 143.991  1.00  0.00     0.045 C 
ATOM      2  C   UNL     1     141.455 139.899 143.267  1.00  0.00    -0.039 A 
ATOM      3  C   UNL     1     141.350 139.959 141.876  1.00  0.00     0.013 A 
ATOM      4  C   UNL     1     140.547 139.050 141.151  1.00  0.00    -0.006 A 
ATOM      5  C   UNL     1     139.711 138.150 141.874  1.00  0.00     0.039 A 
ATOM      6  C   UNL     1     138.732 137.398 141.164  1.00  0.00     0.072 A 
ATOM      7  C   UNL     1     138.640 137.501 139.762  1.00  0.00     0.169 A 
ATOM      8  C   UNL     1     139.513 138.348 139.051  1.00  0.00     0.162 A 
ATOM      9  C   UNL     1     140.538 139.047 139.723  1.00  0.00     0.008 A 
ATOM     10  C   UNL     1     139.905 138.016 143.281  1.00  0.00     0.132 A 
ATOM     11  C   UNL     1     140.766 138.897 143.970  1.00  0.00     0.031 A 
ENDROOT
BRANCH  11  12
ATOM     12  C   UNL     1     140.936 138.779 145.442  1.00  0.00     0.031 A 
ATOM     13  C   UNL     1     141.983 137.999 145.976  1.00  0.00     0.132 A 
ATOM     14  C   UNL     1     140.057 139.458 146.300  1.00  0.00    -0.039 A 
ATOM     15  C   UNL     1     142.160 137.898 147.389  1.00  0.00     0.039 A 
ATOM     16  C   UNL     1     140.181 139.294 147.680  1.00  0.00     0.013 A 
ATOM     17  C   UNL     1     138.977 140.360 145.754  1.00  0.00     0.045 C 
ATOM     18  C   UNL     1     141.170 138.467 148.248  1.00  0.00    -0.006 A 
ATOM     19  C   UNL     1     143.277 137.232 147.976  1.00  0.00     0.072 A 
ATOM     20  C   UNL     1     141.204 138.213 149.655  1.00  0.00     0.008 A 
ATOM     21  C   UNL     1     143.393 137.164 149.378  1.00  0.00     0.169 A 
ATOM     22  C   UNL     1     142.382 137.650 150.203  1.00  0.00     0.162 A 
BRANCH  13  23
ATOM     23  O   UNL     1     142.830 137.304 145.105  1.00  0.00    -0.507 OA
ATOM     24  H   UNL     1     143.672 137.697 144.702  1.00  0.00     0.293 HD
ENDBRANCH  13  23
BRANCH  19  25
ATOM     25  C   UNL     1     144.382 136.687 147.158  1.00  0.00     0.264 C 
ATOM     26  O   UNL     1     145.433 137.357 146.974  1.00  0.00    -0.298 OA
ENDBRANCH  19  25
BRANCH  20  27
ATOM     27  C   UNL     1     139.999 138.434 150.588  1.00  0.00     0.017 C 
ATOM     28  C   UNL     1     139.650 137.180 151.401  1.00  0.00     0.012 C 
ATOM     29  C   UNL     1     140.086 139.703 151.461  1.00  0.00     0.012 C 
ENDBRANCH  20  27
BRANCH  21  30
ATOM     30  O   UNL     1     144.530 136.634 150.000  1.00  0.00    -0.504 OA
ATOM     31  H   UNL     1     145.367 136.352 149.505  1.00  0.00     0.293 HD
ENDBRANCH  21  30
BRANCH  22  32
ATOM     32  O   UNL     1     142.603 137.575 151.583  1.00  0.00    -0.504 OA
ATOM     33  H   UNL     1     142.833 138.370 152.165  1.00  0.00     0.293 HD
ENDBRANCH  22  32
ENDBRANCH  11  12
BRANCH  10  34
ATOM     34  O   UNL     1     139.275 136.983 143.985  1.00  0.00    -0.507 OA
ATOM     35  H   UNL     1     139.413 136.807 144.973  1.00  0.00     0.293 HD
ENDBRANCH  10  34
BRANCH   9  36
ATOM     36  C   UNL     1     141.610 139.799 138.912  1.00  0.00     0.017 C 
ATOM     37  C   UNL     1     141.024 141.053 138.256  1.00  0.00     0.012 C 
ATOM     38  C   UNL     1     142.340 138.915 137.883  1.00  0.00     0.012 C 
ENDBRANCH   9  36
BRANCH   6  39
ATOM     39  C   UNL     1     137.697 136.596 141.861  1.00  0.00     0.264 C 
ATOM     40  O   UNL     1     136.488 136.947 141.852  1.00  0.00    -0.298 OA
ENDBRANCH   6  39
BRANCH   8  41
ATOM     41  O   UNL     1     139.354 138.544 137.675  1.00  0.00    -0.504 OA
ATOM     42  H   UNL     1     138.597 138.169 137.123  1.00  0.00     0.293 HD
ENDBRANCH   8  41
BRANCH   7  43
ATOM     43  O   UNL     1     137.661 136.749 139.102  1.00  0.00    -0.504 OA
ATOM     44  H   UNL     1     136.980 137.128 138.460  1.00  0.00     0.293 HD
ENDBRANCH   7  43
TORSDOF 11
ENDMDL
MODEL 7
REMARK VINA RESULT:    -4.885      6.153      8.513
REMARK INTER + INTRA:          -8.693
REMARK INTER:                  -7.390
REMARK INTRA:                  -1.303
REMARK UNBOUND:                -1.524
REMARK SMILES Cc1cc2c(C(C)C)c(O)c(O)c(C=O)c2c(O)c1-c1c(C)cc2c(C(C)C)c(O)c(O)c(C=O)c2c1O
REMARK SMILES IDX 1 1 2 2 3 3 4 4 16 5 13 6 11 7 9 8 5 9 17 10 19 11 20 12
REMARK SMILES IDX 37 13 21 14 36 15 23 16 22 17 24 18 33 19 25 20 31 21 29 22
REMARK SMILES IDX 38 23 34 25 35 26 26 27 27 28 28 29 32 30 30 32 18 34 6 36
REMARK SMILES IDX 7 37 8 38 14 39 15 40 10 41 12 43
REMARK H PARENT 38 24 32 31 30 33 18 35 10 42 12 44
REMARK Flexibility Score: inf
ROOT
ATOM      1  C   UNL     1     146.257 139.575 148.549  1.00  0.00     0.045 C 
ATOM      2  C   UNL     1     147.250 138.712 147.810  1.00  0.00    -0.039 A 
ATOM      3  C   UNL     1     148.530 138.533 148.337  1.00  0.00     0.013 A 
ATOM      4  C   UNL     1     149.500 137.742 147.682  1.00  0.00    -0.006 A 
ATOM      5  C   UNL     1     149.207 137.243 146.379  1.00  0.00     0.039 A 
ATOM      6  C   UNL     1     150.254 136.649 145.618  1.00  0.00     0.072 A 
ATOM      7  C   UNL     1     151.540 136.505 146.174  1.00  0.00     0.169 A 
ATOM      8  C   UNL     1     151.803 136.946 147.485  1.00  0.00     0.162 A 
ATOM      9  C   UNL     1     150.765 137.472 148.286  1.00  0.00     0.008 A 
ATOM     10  C   UNL     1     147.867 137.331 145.897  1.00  0.00     0.132 A 
ATOM     11  C   UNL     1     146.901 138.074 146.609  1.00  0.00     0.031 A 
ENDROOT
BRANCH  11  12
ATOM     12  C   UNL     1     145.516 138.197 146.084  1.00  0.00     0.031 A 
ATOM     13  C   UNL     1     144.488 137.376 146.593  1.00  0.00     0.132 A 
ATOM     14  C   UNL     1     145.231 139.144 145.088  1.00  0.00    -0.039 A 
ATOM     15  C   UNL     1     143.152 137.504 146.104  1.00  0.00     0.039 A 
ATOM     16  C   UNL     1     143.944 139.212 144.553  1.00  0.00     0.013 A 
ATOM     17  C   UNL     1     146.296 140.085 144.581  1.00  0.00     0.045 C 
ATOM     18  C   UNL     1     142.909 138.361 144.986  1.00  0.00    -0.006 A 
ATOM     19  C   UNL     1     142.056 136.793 146.676  1.00  0.00     0.072 A 
ATOM     20  C   UNL     1     141.633 138.360 144.342  1.00  0.00     0.008 A 
ATOM     21  C   UNL     1     140.762 136.959 146.145  1.00  0.00     0.169 A 
ATOM     22  C   UNL     1     140.551 137.732 145.005  1.00  0.00     0.162 A 
BRANCH  13  23
ATOM     23  O   UNL     1     144.797 136.417 147.564  1.00  0.00    -0.507 OA
ATOM     24  H   UNL     1     144.779 135.419 147.398  1.00  0.00     0.293 HD
ENDBRANCH  13  23
BRANCH  19  25
ATOM     25  C   UNL     1     142.211 135.950 147.880  1.00  0.00     0.264 C 
ATOM     26  O   UNL     1     141.920 136.402 149.020  1.00  0.00    -0.298 OA
ENDBRANCH  19  25
BRANCH  20  27
ATOM     27  C   UNL     1     141.393 138.923 142.929  1.00  0.00     0.017 C 
ATOM     28  C   UNL     1     140.972 137.838 141.929  1.00  0.00     0.012 C 
ATOM     29  C   UNL     1     140.479 140.165 142.878  1.00  0.00     0.012 C 
ENDBRANCH  20  27
BRANCH  21  30
ATOM     30  O   UNL     1     139.636 136.384 146.748  1.00  0.00    -0.504 OA
ATOM     31  H   UNL     1     138.939 136.908 147.261  1.00  0.00     0.293 HD
ENDBRANCH  21  30
BRANCH  22  32
ATOM     32  O   UNL     1     139.226 137.873 144.575  1.00  0.00    -0.504 OA
ATOM     33  H   UNL     1     138.425 137.872 145.194  1.00  0.00     0.293 HD
ENDBRANCH  22  32
ENDBRANCH  11  12
BRANCH  10  34
ATOM     34  O   UNL     1     147.488 136.649 144.736  1.00  0.00    -0.507 OA
ATOM     35  H   UNL     1     148.102 136.036 144.214  1.00  0.00     0.293 HD
ENDBRANCH  10  34
BRANCH   9  36
ATOM     36  C   UNL     1     151.019 137.754 149.779  1.00  0.00     0.017 C 
ATOM     37  C   UNL     1     152.003 138.914 149.959  1.00  0.00     0.012 C 
ATOM     38  C   UNL     1     151.460 136.512 150.576  1.00  0.00     0.012 C 
ENDBRANCH   9  36
BRANCH   6  39
ATOM     39  C   UNL     1     150.081 136.287 144.190  1.00  0.00     0.264 C 
ATOM     40  O   UNL     1     150.382 137.098 143.274  1.00  0.00    -0.298 OA
ENDBRANCH   6  39
BRANCH   8  41
ATOM     41  O   UNL     1     153.102 136.913 148.004  1.00  0.00    -0.504 OA
ATOM     42  H   UNL     1     153.783 137.650 147.900  1.00  0.00     0.293 HD
ENDBRANCH   8  41
BRANCH   7  43
ATOM     43  O   UNL     1     152.542 135.920 145.390  1.00  0.00    -0.504 OA
ATOM     44  H   UNL     1     152.376 135.263 144.641  1.00  0.00     0.293 HD
ENDBRANCH   7  43
TORSDOF 11
ENDMDL
MODEL 8
REMARK VINA RESULT:    -4.865     14.767     16.466
REMARK INTER + INTRA:          -8.665
REMARK INTER:                  -7.318
REMARK INTRA:                  -1.347
REMARK UNBOUND:                -1.524
REMARK SMILES Cc1cc2c(C(C)C)c(O)c(O)c(C=O)c2c(O)c1-c1c(C)cc2c(C(C)C)c(O)c(O)c(C=O)c2c1O
REMARK SMILES IDX 1 1 2 2 3 3 4 4 16 5 13 6 11 7 9 8 5 9 17 10 19 11 20 12
REMARK SMILES IDX 37 13 21 14 36 15 23 16 22 17 24 18 33 19 25 20 31 21 29 22
REMARK SMILES IDX 38 23 34 25 35 26 26 27 27 28 28 29 32 30 30 32 18 34 6 36
REMARK SMILES IDX 7 37 8 38 14 39 15 40 10 41 12 43
REMARK H PARENT 38 24 32 31 30 33 18 35 10 42 12 44
REMARK Flexibility Score: inf
ROOT
ATOM      1  C   UNL     1     142.304 151.840 148.742  1.00  0.00     0.045 C 
ATOM      2  C   UNL     1     141.433 152.837 149.467  1.00  0.00    -0.039 A 
ATOM      3  C   UNL     1     141.322 152.770 150.857  1.00  0.00     0.013 A 
ATOM      4  C   UNL     1     140.515 153.673 151.584  1.00  0.00    -0.006 A 
ATOM      5  C   UNL     1     139.680 154.575 150.862  1.00  0.00     0.039 A 
ATOM      6  C   UNL     1     138.696 155.321 151.573  1.00  0.00     0.072 A 
ATOM      7  C   UNL     1     138.599 155.211 152.973  1.00  0.00     0.169 A 
ATOM      8  C   UNL     1     139.471 154.363 153.684  1.00  0.00     0.162 A 
ATOM      9  C   UNL     1     140.501 153.669 153.011  1.00  0.00     0.008 A 
ATOM     10  C   UNL     1     139.878 154.717 149.456  1.00  0.00     0.132 A 
ATOM     11  C   UNL     1     140.744 153.841 148.767  1.00  0.00     0.031 A 
ENDROOT
BRANCH  11  12
ATOM     12  C   UNL     1     140.920 153.967 147.296  1.00  0.00     0.031 A 
ATOM     13  C   UNL     1     141.972 154.746 146.770  1.00  0.00     0.132 A 
ATOM     14  C   UNL     1     140.042 153.295 146.431  1.00  0.00    -0.039 A 
ATOM     15  C   UNL     1     142.154 154.854 145.358  1.00  0.00     0.039 A 
ATOM     16  C   UNL     1     140.171 153.467 145.052  1.00  0.00     0.013 A 
ATOM     17  C   UNL     1     138.956 152.395 146.968  1.00  0.00     0.045 C 
ATOM     18  C   UNL     1     141.164 154.293 144.492  1.00  0.00    -0.006 A 
ATOM     19  C   UNL     1     143.276 155.519 144.779  1.00  0.00     0.072 A 
ATOM     20  C   UNL     1     141.205 154.555 143.088  1.00  0.00     0.008 A 
ATOM     21  C   UNL     1     143.397 155.595 143.378  1.00  0.00     0.169 A 
ATOM     22  C   UNL     1     142.386 155.118 142.547  1.00  0.00     0.162 A 
BRANCH  13  23
ATOM     23  O   UNL     1     142.818 155.433 147.648  1.00  0.00    -0.507 OA
ATOM     24  H   UNL     1     143.203 155.030 148.493  1.00  0.00     0.293 HD
ENDBRANCH  13  23
BRANCH  19  25
ATOM     25  C   UNL     1     144.379 156.056 145.604  1.00  0.00     0.264 C 
ATOM     26  O   UNL     1     145.439 155.394 145.763  1.00  0.00    -0.298 OA
ENDBRANCH  19  25
BRANCH  20  27
ATOM     27  C   UNL     1     140.002 154.344 142.149  1.00  0.00     0.017 C 
ATOM     28  C   UNL     1     139.594 155.632 141.420  1.00  0.00     0.012 C 
ATOM     29  C   UNL     1     140.135 153.138 141.196  1.00  0.00     0.012 C 
ENDBRANCH  20  27
BRANCH  21  30
ATOM     30  O   UNL     1     144.538 156.125 142.762  1.00  0.00    -0.504 OA
ATOM     31  H   UNL     1     145.394 155.607 142.618  1.00  0.00     0.293 HD
ENDBRANCH  21  30
BRANCH  22  32
ATOM     32  O   UNL     1     142.613 155.200 141.168  1.00  0.00    -0.504 OA
ATOM     33  H   UNL     1     142.014 155.700 140.523  1.00  0.00     0.293 HD
ENDBRANCH  22  32
ENDBRANCH  11  12
BRANCH  10  34
ATOM     34  O   UNL     1     139.250 155.751 148.755  1.00  0.00    -0.507 OA
ATOM     35  H   UNL     1     138.275 155.738 148.483  1.00  0.00     0.293 HD
ENDBRANCH  10  34
BRANCH   9  36
ATOM     36  C   UNL     1     141.571 152.915 153.824  1.00  0.00     0.017 C 
ATOM     37  C   UNL     1     140.989 151.649 154.459  1.00  0.00     0.012 C 
ATOM     38  C   UNL     1     142.285 153.793 154.869  1.00  0.00     0.012 C 
ENDBRANCH   9  36
BRANCH   6  39
ATOM     39  C   UNL     1     137.663 156.125 150.875  1.00  0.00     0.264 C 
ATOM     40  O   UNL     1     136.441 155.832 150.967  1.00  0.00    -0.298 OA
ENDBRANCH   6  39
BRANCH   8  41
ATOM     41  O   UNL     1     139.308 154.159 155.058  1.00  0.00    -0.504 OA
ATOM     42  H   UNL     1     139.891 153.563 155.625  1.00  0.00     0.293 HD
ENDBRANCH   8  41
BRANCH   7  43
ATOM     43  O   UNL     1     137.616 155.958 153.633  1.00  0.00    -0.504 OA
ATOM     44  H   UNL     1     136.699 155.612 153.878  1.00  0.00     0.293 HD
ENDBRANCH   7  43
TORSDOF 11
ENDMDL
