MODEL 1
REMARK VINA RESULT:    -4.373      0.000      0.000
REMARK INTER + INTRA:         -13.118
REMARK INTER:                  -9.997
REMARK INTRA:                  -3.121
REMARK UNBOUND:                -3.121
REMARK SMILES CCCCCCCCCCCCCCCCCCCCCCCC(=O)[O-]
REMARK SMILES IDX 13 1 14 2 15 3 16 4 17 5 18 6 19 7 20 8 21 9 22 10 23 11
REMARK SMILES IDX 24 12 25 13 26 14 12 15 11 16 10 17 9 18 8 19 7 20 6 21 5 22
REMARK SMILES IDX 4 23 3 24 2 25 1 26
REMARK H PARENT
REMARK Flexibility Score: inf
ROOT
ATOM      1  C   UNL     1       7.321 -16.565  33.918  1.00  0.00     0.000 C 
ENDROOT
BRANCH   1   2
ATOM      2  C   UNL     1       7.820 -17.022  35.297  1.00  0.00     0.000 C 
BRANCH   2   3
ATOM      3  C   UNL     1       9.352 -17.115  35.371  1.00  0.00     0.000 C 
BRANCH   3   4
ATOM      4  C   UNL     1      10.003 -15.804  35.837  1.00  0.00     0.000 C 
BRANCH   4   5
ATOM      5  C   UNL     1      10.642 -15.060  34.655  1.00  0.00     0.000 C 
BRANCH   5   6
ATOM      6  C   UNL     1      10.067 -13.646  34.456  1.00  0.00     0.000 C 
BRANCH   6   7
ATOM      7  C   UNL     1      10.075 -12.750  35.712  1.00  0.00     0.000 C 
BRANCH   7   8
ATOM      8  C   UNL     1       8.803 -11.911  35.933  1.00  0.00     0.000 C 
BRANCH   8   9
ATOM      9  C   UNL     1       7.544 -12.771  36.127  1.00  0.00     0.000 C 
BRANCH   9  10
ATOM     10  C   UNL     1       7.610 -13.657  37.384  1.00  0.00     0.006 C 
BRANCH  10  11
ATOM     11  C   UNL     1       6.431 -14.638  37.521  1.00  0.00     0.053 C 
BRANCH  11  12
ATOM     12  C   UNL     1       5.643 -14.418  38.777  1.00  0.00     0.041 C 
ATOM     13  O   UNL     1       5.997 -14.973  39.851  1.00  0.00    -0.550 OA
ATOM     14  O   UNL     1       4.495 -13.635  38.756  1.00  0.00    -0.550 OA
ENDBRANCH  11  12
ENDBRANCH  10  11
ENDBRANCH   9  10
ENDBRANCH   8   9
ENDBRANCH   7   8
ENDBRANCH   6   7
ENDBRANCH   5   6
ENDBRANCH   4   5
ENDBRANCH   3   4
ENDBRANCH   2   3
ENDBRANCH   1   2
BRANCH   1  15
ATOM     15  C   UNL     1       6.719 -17.740  33.138  1.00  0.00     0.000 C 
BRANCH  15  16
ATOM     16  C   UNL     1       7.760 -18.376  32.206  1.00  0.00     0.000 C 
BRANCH  16  17
ATOM     17  C   UNL     1       8.632 -17.325  31.486  1.00  0.00     0.000 C 
BRANCH  17  18
ATOM     18  C   UNL     1      10.128 -17.412  31.841  1.00  0.00    -0.000 C 
BRANCH  18  19
ATOM     19  C   UNL     1      10.959 -18.336  30.932  1.00  0.00    -0.000 C 
BRANCH  19  20
ATOM     20  C   UNL     1      10.876 -19.839  31.274  1.00  0.00    -0.000 C 
BRANCH  20  21
ATOM     21  C   UNL     1      10.256 -20.722  30.177  1.00  0.00    -0.000 C 
BRANCH  21  22
ATOM     22  C   UNL     1       9.721 -19.908  28.986  1.00  0.00    -0.000 C 
BRANCH  22  23
ATOM     23  C   UNL     1       8.277 -20.285  28.616  1.00  0.00    -0.000 C 
BRANCH  23  24
ATOM     24  C   UNL     1       7.650 -21.268  29.621  1.00  0.00    -0.000 C 
BRANCH  24  25
ATOM     25  C   UNL     1       7.361 -22.641  28.997  1.00  0.00    -0.003 C 
ATOM     26  C   UNL     1       6.662 -22.539  27.641  1.00  0.00     0.004 C 
ENDBRANCH  24  25
ENDBRANCH  23  24
ENDBRANCH  22  23
ENDBRANCH  21  22
ENDBRANCH  20  21
ENDBRANCH  19  20
ENDBRANCH  18  19
ENDBRANCH  17  18
ENDBRANCH  16  17
ENDBRANCH  15  16
ENDBRANCH   1  15
TORSDOF 22
ENDMDL
MODEL 2
REMARK VINA RESULT:    -4.334      1.858      3.841
REMARK INTER + INTRA:         -13.028
REMARK INTER:                  -9.896
REMARK INTRA:                  -3.132
REMARK UNBOUND:                -3.121
REMARK SMILES CCCCCCCCCCCCCCCCCCCCCCCC(=O)[O-]
REMARK SMILES IDX 13 1 14 2 15 3 16 4 17 5 18 6 19 7 20 8 21 9 22 10 23 11
REMARK SMILES IDX 24 12 25 13 26 14 12 15 11 16 10 17 9 18 8 19 7 20 6 21 5 22
REMARK SMILES IDX 4 23 3 24 2 25 1 26
REMARK H PARENT
REMARK Flexibility Score: inf
ROOT
ATOM      1  C   UNL     1       9.350 -17.163  31.663  1.00  0.00     0.000 C 
ENDROOT
BRANCH   1   2
ATOM      2  C   UNL     1      10.740 -16.510  31.620  1.00  0.00     0.000 C 
BRANCH   2   3
ATOM      3  C   UNL     1      10.693 -14.999  31.897  1.00  0.00     0.000 C 
BRANCH   3   4
ATOM      4  C   UNL     1       9.970 -14.660  33.209  1.00  0.00     0.000 C 
BRANCH   4   5
ATOM      5  C   UNL     1      10.873 -14.937  34.420  1.00  0.00     0.000 C 
BRANCH   5   6
ATOM      6  C   UNL     1      10.116 -15.573  35.599  1.00  0.00     0.000 C 
BRANCH   6   7
ATOM      7  C   UNL     1       9.545 -16.981  35.330  1.00  0.00     0.000 C 
BRANCH   7   8
ATOM      8  C   UNL     1       8.064 -17.175  35.704  1.00  0.00     0.000 C 
BRANCH   8   9
ATOM      9  C   UNL     1       7.174 -16.006  35.254  1.00  0.00     0.000 C 
BRANCH   9  10
ATOM     10  C   UNL     1       6.336 -15.412  36.400  1.00  0.00     0.006 C 
BRANCH  10  11
ATOM     11  C   UNL     1       7.096 -14.397  37.273  1.00  0.00     0.053 C 
BRANCH  11  12
ATOM     12  C   UNL     1       6.467 -14.212  38.621  1.00  0.00     0.041 C 
ATOM     13  O   UNL     1       7.163 -13.820  39.595  1.00  0.00    -0.550 OA
ATOM     14  O   UNL     1       5.123 -14.508  38.814  1.00  0.00    -0.550 OA
ENDBRANCH  11  12
ENDBRANCH  10  11
ENDBRANCH   9  10
ENDBRANCH   8   9
ENDBRANCH   7   8
ENDBRANCH   6   7
ENDBRANCH   5   6
ENDBRANCH   4   5
ENDBRANCH   3   4
ENDBRANCH   2   3
ENDBRANCH   1   2
BRANCH   1  15
ATOM     15  C   UNL     1       9.456 -18.651  32.018  1.00  0.00     0.000 C 
BRANCH  15  16
ATOM     16  C   UNL     1      10.675 -19.295  31.343  1.00  0.00     0.000 C 
BRANCH  16  17
ATOM     17  C   UNL     1      10.304 -20.548  30.521  1.00  0.00     0.000 C 
BRANCH  17  18
ATOM     18  C   UNL     1       8.828 -20.588  30.084  1.00  0.00    -0.000 C 
BRANCH  18  19
ATOM     19  C   UNL     1       8.494 -21.649  29.019  1.00  0.00    -0.000 C 
BRANCH  19  20
ATOM     20  C   UNL     1       8.486 -21.137  27.563  1.00  0.00    -0.000 C 
BRANCH  20  21
ATOM     21  C   UNL     1       9.876 -20.878  26.956  1.00  0.00    -0.000 C 
BRANCH  21  22
ATOM     22  C   UNL     1       9.957 -19.543  26.196  1.00  0.00    -0.000 C 
BRANCH  22  23
ATOM     23  C   UNL     1       9.179 -18.418  26.899  1.00  0.00    -0.000 C 
BRANCH  23  24
ATOM     24  C   UNL     1       9.980 -17.776  28.045  1.00  0.00    -0.000 C 
BRANCH  24  25
ATOM     25  C   UNL     1      10.265 -16.286  27.801  1.00  0.00    -0.003 C 
ATOM     26  C   UNL     1      11.303 -16.055  26.704  1.00  0.00     0.004 C 
ENDBRANCH  24  25
ENDBRANCH  23  24
ENDBRANCH  22  23
ENDBRANCH  21  22
ENDBRANCH  20  21
ENDBRANCH  19  20
ENDBRANCH  18  19
ENDBRANCH  17  18
ENDBRANCH  16  17
ENDBRANCH  15  16
ENDBRANCH   1  15
TORSDOF 22
ENDMDL
MODEL 3
REMARK VINA RESULT:    -4.332      2.237      4.912
REMARK INTER + INTRA:         -13.025
REMARK INTER:                  -8.955
REMARK INTRA:                  -4.071
REMARK UNBOUND:                -3.121
REMARK SMILES CCCCCCCCCCCCCCCCCCCCCCCC(=O)[O-]
REMARK SMILES IDX 13 1 14 2 15 3 16 4 17 5 18 6 19 7 20 8 21 9 22 10 23 11
REMARK SMILES IDX 24 12 25 13 26 14 12 15 11 16 10 17 9 18 8 19 7 20 6 21 5 22
REMARK SMILES IDX 4 23 3 24 2 25 1 26
REMARK H PARENT
REMARK Flexibility Score: inf
ROOT
ATOM      1  C   UNL     1       6.858 -17.406  31.709  1.00  0.00     0.000 C 
ENDROOT
BRANCH   1   2
ATOM      2  C   UNL     1       7.502 -17.884  33.019  1.00  0.00     0.000 C 
BRANCH   2   3
ATOM      3  C   UNL     1       8.323 -16.785  33.711  1.00  0.00     0.000 C 
BRANCH   3   4
ATOM      4  C   UNL     1       9.273 -17.341  34.782  1.00  0.00     0.000 C 
BRANCH   4   5
ATOM      5  C   UNL     1       9.732 -16.230  35.738  1.00  0.00     0.000 C 
BRANCH   5   6
ATOM      6  C   UNL     1       8.875 -14.956  35.631  1.00  0.00     0.000 C 
BRANCH   6   7
ATOM      7  C   UNL     1       8.084 -14.586  36.903  1.00  0.00     0.000 C 
BRANCH   7   8
ATOM      8  C   UNL     1       6.551 -14.607  36.758  1.00  0.00     0.000 C 
BRANCH   8   9
ATOM      9  C   UNL     1       5.885 -15.711  37.594  1.00  0.00     0.000 C 
BRANCH   9  10
ATOM     10  C   UNL     1       4.895 -16.565  36.781  1.00  0.00     0.006 C 
BRANCH  10  11
ATOM     11  C   UNL     1       5.548 -17.745  36.039  1.00  0.00     0.053 C 
BRANCH  11  12
ATOM     12  C   UNL     1       5.550 -19.006  36.850  1.00  0.00     0.041 C 
ATOM     13  O   UNL     1       4.572 -19.798  36.789  1.00  0.00    -0.550 OA
ATOM     14  O   UNL     1       6.609 -19.289  37.703  1.00  0.00    -0.550 OA
ENDBRANCH  11  12
ENDBRANCH  10  11
ENDBRANCH   9  10
ENDBRANCH   8   9
ENDBRANCH   7   8
ENDBRANCH   6   7
ENDBRANCH   5   6
ENDBRANCH   4   5
ENDBRANCH   3   4
ENDBRANCH   2   3
ENDBRANCH   1   2
BRANCH   1  15
ATOM     15  C   UNL     1       6.982 -18.475  30.616  1.00  0.00     0.000 C 
BRANCH  15  16
ATOM     16  C   UNL     1       7.762 -19.696  31.123  1.00  0.00     0.000 C 
BRANCH  16  17
ATOM     17  C   UNL     1       8.629 -20.344  30.023  1.00  0.00     0.000 C 
BRANCH  17  18
ATOM     18  C   UNL     1      10.137 -20.076  30.184  1.00  0.00    -0.000 C 
BRANCH  18  19
ATOM     19  C   UNL     1      10.531 -19.333  31.474  1.00  0.00    -0.000 C 
BRANCH  19  20
ATOM     20  C   UNL     1      11.044 -17.891  31.269  1.00  0.00    -0.000 C 
BRANCH  20  21
ATOM     21  C   UNL     1      10.491 -17.175  30.025  1.00  0.00    -0.000 C 
BRANCH  21  22
ATOM     22  C   UNL     1       9.837 -15.822  30.357  1.00  0.00    -0.000 C 
BRANCH  22  23
ATOM     23  C   UNL     1      10.839 -14.809  30.933  1.00  0.00    -0.000 C 
BRANCH  23  24
ATOM     24  C   UNL     1      10.415 -14.284  32.316  1.00  0.00    -0.000 C 
BRANCH  24  25
ATOM     25  C   UNL     1      11.580 -14.255  33.317  1.00  0.00    -0.003 C 
ATOM     26  C   UNL     1      11.647 -12.948  34.108  1.00  0.00     0.004 C 
ENDBRANCH  24  25
ENDBRANCH  23  24
ENDBRANCH  22  23
ENDBRANCH  21  22
ENDBRANCH  20  21
ENDBRANCH  19  20
ENDBRANCH  18  19
ENDBRANCH  17  18
ENDBRANCH  16  17
ENDBRANCH  15  16
ENDBRANCH   1  15
TORSDOF 22
ENDMDL
MODEL 4
REMARK VINA RESULT:    -4.318      1.524      3.833
REMARK INTER + INTRA:         -12.992
REMARK INTER:                  -8.927
REMARK INTRA:                  -4.065
REMARK UNBOUND:                -3.121
REMARK SMILES CCCCCCCCCCCCCCCCCCCCCCCC(=O)[O-]
REMARK SMILES IDX 13 1 14 2 15 3 16 4 17 5 18 6 19 7 20 8 21 9 22 10 23 11
REMARK SMILES IDX 24 12 25 13 26 14 12 15 11 16 10 17 9 18 8 19 7 20 6 21 5 22
REMARK SMILES IDX 4 23 3 24 2 25 1 26
REMARK H PARENT
REMARK Flexibility Score: inf
ROOT
ATOM      1  C   UNL     1       6.782 -17.752  32.416  1.00  0.00     0.000 C 
ENDROOT
BRANCH   1   2
ATOM      2  C   UNL     1       7.657 -16.730  33.157  1.00  0.00     0.000 C 
BRANCH   2   3
ATOM      3  C   UNL     1       7.843 -17.076  34.643  1.00  0.00     0.000 C 
BRANCH   3   4
ATOM      4  C   UNL     1       9.318 -17.272  35.024  1.00  0.00     0.000 C 
BRANCH   4   5
ATOM      5  C   UNL     1      10.103 -15.960  34.868  1.00  0.00     0.000 C 
BRANCH   5   6
ATOM      6  C   UNL     1       9.997 -15.049  36.104  1.00  0.00     0.000 C 
BRANCH   6   7
ATOM      7  C   UNL     1      10.012 -13.535  35.807  1.00  0.00     0.000 C 
BRANCH   7   8
ATOM      8  C   UNL     1       8.708 -12.784  36.137  1.00  0.00     0.000 C 
BRANCH   8   9
ATOM      9  C   UNL     1       7.498 -13.307  35.345  1.00  0.00     0.000 C 
BRANCH   9  10
ATOM     10  C   UNL     1       6.280 -13.605  36.236  1.00  0.00     0.006 C 
BRANCH  10  11
ATOM     11  C   UNL     1       6.491 -14.771  37.219  1.00  0.00     0.053 C 
BRANCH  11  12
ATOM     12  C   UNL     1       6.253 -14.373  38.645  1.00  0.00     0.041 C 
ATOM     13  O   UNL     1       7.167 -13.813  39.305  1.00  0.00    -0.550 OA
ATOM     14  O   UNL     1       5.038 -14.655  39.257  1.00  0.00    -0.550 OA
ENDBRANCH  11  12
ENDBRANCH  10  11
ENDBRANCH   9  10
ENDBRANCH   8   9
ENDBRANCH   7   8
ENDBRANCH   6   7
ENDBRANCH   5   6
ENDBRANCH   4   5
ENDBRANCH   3   4
ENDBRANCH   2   3
ENDBRANCH   1   2
BRANCH   1  15
ATOM     15  C   UNL     1       6.695 -17.417  30.922  1.00  0.00     0.000 C 
BRANCH  15  16
ATOM     16  C   UNL     1       7.129 -18.612  30.061  1.00  0.00     0.000 C 
BRANCH  16  17
ATOM     17  C   UNL     1       7.710 -19.769  30.902  1.00  0.00     0.000 C 
BRANCH  17  18
ATOM     18  C   UNL     1       8.810 -20.569  30.180  1.00  0.00    -0.000 C 
BRANCH  18  19
ATOM     19  C   UNL     1      10.250 -20.192  30.572  1.00  0.00    -0.000 C 
BRANCH  19  20
ATOM     20  C   UNL     1      10.371 -19.149  31.703  1.00  0.00    -0.000 C 
BRANCH  20  21
ATOM     21  C   UNL     1      11.014 -17.814  31.291  1.00  0.00    -0.000 C 
BRANCH  21  22
ATOM     22  C   UNL     1      10.559 -17.336  29.901  1.00  0.00    -0.000 C 
BRANCH  22  23
ATOM     23  C   UNL     1      10.050 -15.885  29.915  1.00  0.00    -0.000 C 
BRANCH  23  24
ATOM     24  C   UNL     1      10.240 -15.208  31.284  1.00  0.00    -0.000 C 
BRANCH  24  25
ATOM     25  C   UNL     1      11.134 -13.961  31.204  1.00  0.00    -0.003 C 
ATOM     26  C   UNL     1      10.772 -12.907  32.249  1.00  0.00     0.004 C 
ENDBRANCH  24  25
ENDBRANCH  23  24
ENDBRANCH  22  23
ENDBRANCH  21  22
ENDBRANCH  20  21
ENDBRANCH  19  20
ENDBRANCH  18  19
ENDBRANCH  17  18
ENDBRANCH  16  17
ENDBRANCH  15  16
ENDBRANCH   1  15
TORSDOF 22
ENDMDL
MODEL 5
REMARK VINA RESULT:    -4.275      1.797      4.631
REMARK INTER + INTRA:         -12.895
REMARK INTER:                  -9.014
REMARK INTRA:                  -3.880
REMARK UNBOUND:                -3.121
REMARK SMILES CCCCCCCCCCCCCCCCCCCCCCCC(=O)[O-]
REMARK SMILES IDX 13 1 14 2 15 3 16 4 17 5 18 6 19 7 20 8 21 9 22 10 23 11
REMARK SMILES IDX 24 12 25 13 26 14 12 15 11 16 10 17 9 18 8 19 7 20 6 21 5 22
REMARK SMILES IDX 4 23 3 24 2 25 1 26
REMARK H PARENT
REMARK Flexibility Score: inf
ROOT
ATOM      1  C   UNL     1      11.139 -17.916  31.041  1.00  0.00     0.000 C 
ENDROOT
BRANCH   1   2
ATOM      2  C   UNL     1      10.290 -16.711  30.609  1.00  0.00     0.000 C 
BRANCH   2   3
ATOM      3  C   UNL     1       9.240 -16.320  31.661  1.00  0.00     0.000 C 
BRANCH   3   4
ATOM      4  C   UNL     1       9.268 -14.821  31.996  1.00  0.00     0.000 C 
BRANCH   4   5
ATOM      5  C   UNL     1      10.664 -14.393  32.472  1.00  0.00     0.000 C 
BRANCH   5   6
ATOM      6  C   UNL     1      11.171 -15.225  33.664  1.00  0.00     0.000 C 
BRANCH   6   7
ATOM      7  C   UNL     1      10.649 -14.780  35.046  1.00  0.00     0.000 C 
BRANCH   7   8
ATOM      8  C   UNL     1      10.127 -15.911  35.951  1.00  0.00     0.000 C 
BRANCH   8   9
ATOM      9  C   UNL     1       9.325 -16.973  35.181  1.00  0.00     0.000 C 
BRANCH   9  10
ATOM     10  C   UNL     1       7.881 -17.122  35.691  1.00  0.00     0.006 C 
BRANCH  10  11
ATOM     11  C   UNL     1       6.941 -15.985  35.253  1.00  0.00     0.053 C 
BRANCH  11  12
ATOM     12  C   UNL     1       6.180 -15.392  36.402  1.00  0.00     0.041 C 
ATOM     13  O   UNL     1       5.667 -14.247  36.296  1.00  0.00    -0.550 OA
ATOM     14  O   UNL     1       6.071 -16.085  37.601  1.00  0.00    -0.550 OA
ENDBRANCH  11  12
ENDBRANCH  10  11
ENDBRANCH   9  10
ENDBRANCH   8   9
ENDBRANCH   7   8
ENDBRANCH   6   7
ENDBRANCH   5   6
ENDBRANCH   4   5
ENDBRANCH   3   4
ENDBRANCH   2   3
ENDBRANCH   1   2
BRANCH   1  15
ATOM     15  C   UNL     1      10.257 -19.026  31.626  1.00  0.00     0.000 C 
BRANCH  15  16
ATOM     16  C   UNL     1      10.478 -20.354  30.889  1.00  0.00     0.000 C 
BRANCH  16  17
ATOM     17  C   UNL     1      10.015 -20.300  29.418  1.00  0.00     0.000 C 
BRANCH  17  18
ATOM     18  C   UNL     1       8.549 -19.861  29.245  1.00  0.00    -0.000 C 
BRANCH  18  19
ATOM     19  C   UNL     1       7.504 -20.864  29.772  1.00  0.00    -0.000 C 
BRANCH  19  20
ATOM     20  C   UNL     1       6.544 -20.307  30.844  1.00  0.00    -0.000 C 
BRANCH  20  21
ATOM     21  C   UNL     1       6.628 -18.787  31.066  1.00  0.00    -0.000 C 
BRANCH  21  22
ATOM     22  C   UNL     1       6.380 -18.383  32.530  1.00  0.00    -0.000 C 
BRANCH  22  23
ATOM     23  C   UNL     1       4.885 -18.234  32.854  1.00  0.00    -0.000 C 
BRANCH  23  24
ATOM     24  C   UNL     1       4.419 -19.215  33.944  1.00  0.00    -0.000 C 
BRANCH  24  25
ATOM     25  C   UNL     1       4.170 -18.522  35.292  1.00  0.00    -0.003 C 
ATOM     26  C   UNL     1       4.861 -19.229  36.458  1.00  0.00     0.004 C 
ENDBRANCH  24  25
ENDBRANCH  23  24
ENDBRANCH  22  23
ENDBRANCH  21  22
ENDBRANCH  20  21
ENDBRANCH  19  20
ENDBRANCH  18  19
ENDBRANCH  17  18
ENDBRANCH  16  17
ENDBRANCH  15  16
ENDBRANCH   1  15
TORSDOF 22
ENDMDL
MODEL 6
REMARK VINA RESULT:    -4.238      2.564      4.891
REMARK INTER + INTRA:         -12.809
REMARK INTER:                  -8.440
REMARK INTRA:                  -4.369
REMARK UNBOUND:                -3.121
REMARK SMILES CCCCCCCCCCCCCCCCCCCCCCCC(=O)[O-]
REMARK SMILES IDX 13 1 14 2 15 3 16 4 17 5 18 6 19 7 20 8 21 9 22 10 23 11
REMARK SMILES IDX 24 12 25 13 26 14 12 15 11 16 10 17 9 18 8 19 7 20 6 21 5 22
REMARK SMILES IDX 4 23 3 24 2 25 1 26
REMARK H PARENT
REMARK Flexibility Score: inf
ROOT
ATOM      1  C   UNL     1      10.730 -17.284  30.897  1.00  0.00     0.000 C 
ENDROOT
BRANCH   1   2
ATOM      2  C   UNL     1       9.215 -17.155  30.683  1.00  0.00     0.000 C 
BRANCH   2   3
ATOM      3  C   UNL     1       8.683 -15.756  31.035  1.00  0.00     0.000 C 
BRANCH   3   4
ATOM      4  C   UNL     1       7.631 -15.787  32.153  1.00  0.00     0.000 C 
BRANCH   4   5
ATOM      5  C   UNL     1       7.585 -17.168  32.824  1.00  0.00     0.000 C 
BRANCH   5   6
ATOM      6  C   UNL     1       6.837 -17.155  34.169  1.00  0.00     0.000 C 
BRANCH   6   7
ATOM      7  C   UNL     1       7.738 -17.112  35.421  1.00  0.00     0.000 C 
BRANCH   7   8
ATOM      8  C   UNL     1       9.245 -17.285  35.157  1.00  0.00     0.000 C 
BRANCH   8   9
ATOM      9  C   UNL     1      10.063 -16.030  35.505  1.00  0.00     0.000 C 
BRANCH   9  10
ATOM     10  C   UNL     1      10.640 -15.326  34.264  1.00  0.00     0.006 C 
BRANCH  10  11
ATOM     11  C   UNL     1      10.396 -13.806  34.236  1.00  0.00     0.053 C 
BRANCH  11  12
ATOM     12  C   UNL     1      11.038 -13.099  35.392  1.00  0.00     0.041 C 
ATOM     13  O   UNL     1      10.385 -12.250  36.055  1.00  0.00    -0.550 OA
ATOM     14  O   UNL     1      12.367 -13.344  35.713  1.00  0.00    -0.550 OA
ENDBRANCH  11  12
ENDBRANCH  10  11
ENDBRANCH   9  10
ENDBRANCH   8   9
ENDBRANCH   7   8
ENDBRANCH   6   7
ENDBRANCH   5   6
ENDBRANCH   4   5
ENDBRANCH   3   4
ENDBRANCH   2   3
ENDBRANCH   1   2
BRANCH   1  15
ATOM     15  C   UNL     1      11.111 -18.725  31.258  1.00  0.00     0.000 C 
BRANCH  15  16
ATOM     16  C   UNL     1       9.886 -19.650  31.208  1.00  0.00     0.000 C 
BRANCH  16  17
ATOM     17  C   UNL     1      10.048 -20.793  30.184  1.00  0.00     0.000 C 
BRANCH  17  18
ATOM     18  C   UNL     1       9.848 -20.349  28.722  1.00  0.00    -0.000 C 
BRANCH  18  19
ATOM     19  C   UNL     1       8.901 -21.240  27.897  1.00  0.00    -0.000 C 
BRANCH  19  20
ATOM     20  C   UNL     1       7.995 -22.177  28.724  1.00  0.00    -0.000 C 
BRANCH  20  21
ATOM     21  C   UNL     1       6.557 -21.673  28.934  1.00  0.00    -0.000 C 
BRANCH  21  22
ATOM     22  C   UNL     1       6.264 -21.292  30.395  1.00  0.00    -0.000 C 
BRANCH  22  23
ATOM     23  C   UNL     1       6.313 -19.773  30.628  1.00  0.00    -0.000 C 
BRANCH  23  24
ATOM     24  C   UNL     1       6.236 -18.974  29.315  1.00  0.00    -0.000 C 
BRANCH  24  25
ATOM     25  C   UNL     1       5.709 -17.547  29.526  1.00  0.00    -0.003 C 
ATOM     26  C   UNL     1       4.528 -17.490  30.495  1.00  0.00     0.004 C 
ENDBRANCH  24  25
ENDBRANCH  23  24
ENDBRANCH  22  23
ENDBRANCH  21  22
ENDBRANCH  20  21
ENDBRANCH  19  20
ENDBRANCH  18  19
ENDBRANCH  17  18
ENDBRANCH  16  17
ENDBRANCH  15  16
ENDBRANCH   1  15
TORSDOF 22
ENDMDL
MODEL 7
REMARK VINA RESULT:    -4.236      1.378      3.196
REMARK INTER + INTRA:         -12.806
REMARK INTER:                  -8.617
REMARK INTRA:                  -4.189
REMARK UNBOUND:                -3.121
REMARK SMILES CCCCCCCCCCCCCCCCCCCCCCCC(=O)[O-]
REMARK SMILES IDX 13 1 14 2 15 3 16 4 17 5 18 6 19 7 20 8 21 9 22 10 23 11
REMARK SMILES IDX 24 12 25 13 26 14 12 15 11 16 10 17 9 18 8 19 7 20 6 21 5 22
REMARK SMILES IDX 4 23 3 24 2 25 1 26
REMARK H PARENT
REMARK Flexibility Score: inf
ROOT
ATOM      1  C   UNL     1       6.072 -18.206  32.073  1.00  0.00     0.000 C 
ENDROOT
BRANCH   1   2
ATOM      2  C   UNL     1       7.191 -17.683  32.986  1.00  0.00     0.000 C 
BRANCH   2   3
ATOM      3  C   UNL     1       6.661 -17.131  34.318  1.00  0.00     0.000 C 
BRANCH   3   4
ATOM      4  C   UNL     1       7.644 -17.340  35.479  1.00  0.00     0.000 C 
BRANCH   4   5
ATOM      5  C   UNL     1       9.088 -17.438  34.963  1.00  0.00     0.000 C 
BRANCH   5   6
ATOM      6  C   UNL     1       9.915 -16.173  35.254  1.00  0.00     0.000 C 
BRANCH   6   7
ATOM      7  C   UNL     1       9.911 -15.112  34.134  1.00  0.00     0.000 C 
BRANCH   7   8
ATOM      8  C   UNL     1       9.283 -13.757  34.508  1.00  0.00     0.000 C 
BRANCH   8   9
ATOM      9  C   UNL     1       8.819 -13.696  35.972  1.00  0.00     0.000 C 
BRANCH   9  10
ATOM     10  C   UNL     1       7.288 -13.639  36.115  1.00  0.00     0.006 C 
BRANCH  10  11
ATOM     11  C   UNL     1       6.739 -14.445  37.306  1.00  0.00     0.053 C 
BRANCH  11  12
ATOM     12  C   UNL     1       5.602 -13.752  37.996  1.00  0.00     0.041 C 
ATOM     13  O   UNL     1       4.918 -12.894  37.378  1.00  0.00    -0.550 OA
ATOM     14  O   UNL     1       5.322 -14.022  39.329  1.00  0.00    -0.550 OA
ENDBRANCH  11  12
ENDBRANCH  10  11
ENDBRANCH   9  10
ENDBRANCH   8   9
ENDBRANCH   7   8
ENDBRANCH   6   7
ENDBRANCH   5   6
ENDBRANCH   4   5
ENDBRANCH   3   4
ENDBRANCH   2   3
ENDBRANCH   1   2
BRANCH   1  15
ATOM     15  C   UNL     1       6.495 -19.505  31.376  1.00  0.00     0.000 C 
BRANCH  15  16
ATOM     16  C   UNL     1       6.266 -19.419  29.861  1.00  0.00     0.000 C 
BRANCH  16  17
ATOM     17  C   UNL     1       7.384 -20.112  29.052  1.00  0.00     0.000 C 
BRANCH  17  18
ATOM     18  C   UNL     1       8.381 -20.900  29.923  1.00  0.00    -0.000 C 
BRANCH  18  19
ATOM     19  C   UNL     1       9.865 -20.620  29.625  1.00  0.00    -0.000 C 
BRANCH  19  20
ATOM     20  C   UNL     1      10.696 -20.134  30.833  1.00  0.00    -0.000 C 
BRANCH  20  21
ATOM     21  C   UNL     1      10.057 -18.994  31.645  1.00  0.00    -0.000 C 
BRANCH  21  22
ATOM     22  C   UNL     1      10.855 -17.682  31.562  1.00  0.00    -0.000 C 
BRANCH  22  23
ATOM     23  C   UNL     1      10.515 -16.865  30.305  1.00  0.00    -0.000 C 
BRANCH  23  24
ATOM     24  C   UNL     1       9.003 -16.829  30.018  1.00  0.00    -0.000 C 
BRANCH  24  25
ATOM     25  C   UNL     1       8.691 -16.828  28.514  1.00  0.00    -0.003 C 
ATOM     26  C   UNL     1       9.791 -17.487  27.682  1.00  0.00     0.004 C 
ENDBRANCH  24  25
ENDBRANCH  23  24
ENDBRANCH  22  23
ENDBRANCH  21  22
ENDBRANCH  20  21
ENDBRANCH  19  20
ENDBRANCH  18  19
ENDBRANCH  17  18
ENDBRANCH  16  17
ENDBRANCH  15  16
ENDBRANCH   1  15
TORSDOF 22
ENDMDL
MODEL 8
REMARK VINA RESULT:    -4.206      3.918      8.533
REMARK INTER + INTRA:         -12.736
REMARK INTER:                  -9.266
REMARK INTRA:                  -3.470
REMARK UNBOUND:                -3.121
REMARK SMILES CCCCCCCCCCCCCCCCCCCCCCCC(=O)[O-]
REMARK SMILES IDX 13 1 14 2 15 3 16 4 17 5 18 6 19 7 20 8 21 9 22 10 23 11
REMARK SMILES IDX 24 12 25 13 26 14 12 15 11 16 10 17 9 18 8 19 7 20 6 21 5 22
REMARK SMILES IDX 4 23 3 24 2 25 1 26
REMARK H PARENT
REMARK Flexibility Score: inf
ROOT
ATOM      1  C   UNL     1       6.416 -17.503  34.992  1.00  0.00     0.000 C 
ENDROOT
BRANCH   1   2
ATOM      2  C   UNL     1       7.755 -17.018  34.418  1.00  0.00     0.000 C 
BRANCH   2   3
ATOM      3  C   UNL     1       8.908 -17.129  35.428  1.00  0.00     0.000 C 
BRANCH   3   4
ATOM      4  C   UNL     1       9.974 -16.042  35.231  1.00  0.00     0.000 C 
BRANCH   4   5
ATOM      5  C   UNL     1       9.785 -15.326  33.885  1.00  0.00     0.000 C 
BRANCH   5   6
ATOM      6  C   UNL     1      10.900 -15.648  32.874  1.00  0.00     0.000 C 
BRANCH   6   7
ATOM      7  C   UNL     1      10.416 -16.190  31.513  1.00  0.00     0.000 C 
BRANCH   7   8
ATOM      8  C   UNL     1      10.832 -17.638  31.193  1.00  0.00     0.000 C 
BRANCH   8   9
ATOM      9  C   UNL     1      10.082 -18.678  32.039  1.00  0.00     0.000 C 
BRANCH   9  10
ATOM     10  C   UNL     1       8.684 -19.008  31.487  1.00  0.00     0.006 C 
BRANCH  10  11
ATOM     11  C   UNL     1       8.646 -20.249  30.576  1.00  0.00     0.053 C 
BRANCH  11  12
ATOM     12  C   UNL     1       9.069 -19.944  29.171  1.00  0.00     0.041 C 
ATOM     13  O   UNL     1       8.431 -19.102  28.487  1.00  0.00    -0.550 OA
ATOM     14  O   UNL     1      10.143 -20.618  28.601  1.00  0.00    -0.550 OA
ENDBRANCH  11  12
ENDBRANCH  10  11
ENDBRANCH   9  10
ENDBRANCH   8   9
ENDBRANCH   7   8
ENDBRANCH   6   7
ENDBRANCH   5   6
ENDBRANCH   4   5
ENDBRANCH   3   4
ENDBRANCH   2   3
ENDBRANCH   1   2
BRANCH   1  15
ATOM     15  C   UNL     1       6.352 -17.266  36.506  1.00  0.00     0.000 C 
BRANCH  15  16
ATOM     16  C   UNL     1       5.113 -16.442  36.885  1.00  0.00     0.000 C 
BRANCH  16  17
ATOM     17  C   UNL     1       5.476 -15.062  37.474  1.00  0.00     0.000 C 
BRANCH  17  18
ATOM     18  C   UNL     1       6.969 -14.707  37.345  1.00  0.00    -0.000 C 
BRANCH  18  19
ATOM     19  C   UNL     1       7.292 -13.634  36.288  1.00  0.00    -0.000 C 
BRANCH  19  20
ATOM     20  C   UNL     1       8.542 -12.778  36.584  1.00  0.00    -0.000 C 
BRANCH  20  21
ATOM     21  C   UNL     1       8.828 -11.668  35.557  1.00  0.00    -0.000 C 
BRANCH  21  22
ATOM     22  C   UNL     1      10.298 -11.217  35.559  1.00  0.00    -0.000 C 
BRANCH  22  23
ATOM     23  C   UNL     1      11.278 -12.402  35.572  1.00  0.00    -0.000 C 
BRANCH  23  24
ATOM     24  C   UNL     1      12.117 -12.486  34.285  1.00  0.00    -0.000 C 
BRANCH  24  25
ATOM     25  C   UNL     1      13.399 -13.311  34.472  1.00  0.00    -0.003 C 
ATOM     26  C   UNL     1      14.622 -12.660  33.826  1.00  0.00     0.004 C 
ENDBRANCH  24  25
ENDBRANCH  23  24
ENDBRANCH  22  23
ENDBRANCH  21  22
ENDBRANCH  20  21
ENDBRANCH  19  20
ENDBRANCH  18  19
ENDBRANCH  17  18
ENDBRANCH  16  17
ENDBRANCH  15  16
ENDBRANCH   1  15
TORSDOF 22
ENDMDL
MODEL 9
REMARK VINA RESULT:    -4.145      1.555      3.212
REMARK INTER + INTRA:         -12.596
REMARK INTER:                  -9.083
REMARK INTRA:                  -3.513
REMARK UNBOUND:                -3.121
REMARK SMILES CCCCCCCCCCCCCCCCCCCCCCCC(=O)[O-]
REMARK SMILES IDX 13 1 14 2 15 3 16 4 17 5 18 6 19 7 20 8 21 9 22 10 23 11
REMARK SMILES IDX 24 12 25 13 26 14 12 15 11 16 10 17 9 18 8 19 7 20 6 21 5 22
REMARK SMILES IDX 4 23 3 24 2 25 1 26
REMARK H PARENT
REMARK Flexibility Score: inf
ROOT
ATOM      1  C   UNL     1       8.821 -17.957  31.713  1.00  0.00     0.000 C 
ENDROOT
BRANCH   1   2
ATOM      2  C   UNL     1       9.217 -16.624  31.059  1.00  0.00     0.000 C 
BRANCH   2   3
ATOM      3  C   UNL     1      10.375 -15.927  31.789  1.00  0.00     0.000 C 
BRANCH   3   4
ATOM      4  C   UNL     1       9.899 -15.068  32.970  1.00  0.00     0.000 C 
BRANCH   4   5
ATOM      5  C   UNL     1      10.801 -15.275  34.196  1.00  0.00     0.000 C 
BRANCH   5   6
ATOM      6  C   UNL     1      10.019 -15.706  35.449  1.00  0.00     0.000 C 
BRANCH   6   7
ATOM      7  C   UNL     1       9.317 -17.075  35.346  1.00  0.00     0.000 C 
BRANCH   7   8
ATOM      8  C   UNL     1       7.830 -17.087  35.750  1.00  0.00     0.000 C 
BRANCH   8   9
ATOM      9  C   UNL     1       7.029 -15.937  35.120  1.00  0.00     0.000 C 
BRANCH   9  10
ATOM     10  C   UNL     1       6.522 -14.919  36.156  1.00  0.00     0.006 C 
BRANCH  10  11
ATOM     11  C   UNL     1       6.124 -15.543  37.506  1.00  0.00     0.053 C 
BRANCH  11  12
ATOM     12  C   UNL     1       6.193 -14.561  38.637  1.00  0.00     0.041 C 
ATOM     13  O   UNL     1       7.306 -14.248  39.136  1.00  0.00    -0.550 OA
ATOM     14  O   UNL     1       5.027 -14.021  39.167  1.00  0.00    -0.550 OA
ENDBRANCH  11  12
ENDBRANCH  10  11
ENDBRANCH   9  10
ENDBRANCH   8   9
ENDBRANCH   7   8
ENDBRANCH   6   7
ENDBRANCH   5   6
ENDBRANCH   4   5
ENDBRANCH   3   4
ENDBRANCH   2   3
ENDBRANCH   1   2
BRANCH   1  15
ATOM     15  C   UNL     1      10.059 -18.702  32.227  1.00  0.00     0.000 C 
BRANCH  15  16
ATOM     16  C   UNL     1      10.705 -19.537  31.113  1.00  0.00     0.000 C 
BRANCH  16  17
ATOM     17  C   UNL     1       9.683 -20.424  30.369  1.00  0.00     0.000 C 
BRANCH  17  18
ATOM     18  C   UNL     1       9.874 -20.441  28.841  1.00  0.00    -0.000 C 
BRANCH  18  19
ATOM     19  C   UNL     1       9.182 -19.291  28.087  1.00  0.00    -0.000 C 
BRANCH  19  20
ATOM     20  C   UNL     1       7.991 -19.711  27.199  1.00  0.00    -0.000 C 
BRANCH  20  21
ATOM     21  C   UNL     1       6.644 -19.066  27.571  1.00  0.00    -0.000 C 
BRANCH  21  22
ATOM     22  C   UNL     1       6.523 -18.759  29.073  1.00  0.00    -0.000 C 
BRANCH  22  23
ATOM     23  C   UNL     1       5.527 -19.688  29.786  1.00  0.00    -0.000 C 
BRANCH  23  24
ATOM     24  C   UNL     1       6.188 -20.983  30.291  1.00  0.00    -0.000 C 
BRANCH  24  25
ATOM     25  C   UNL     1       5.869 -22.193  29.401  1.00  0.00    -0.003 C 
ATOM     26  C   UNL     1       7.122 -22.941  28.947  1.00  0.00     0.004 C 
ENDBRANCH  24  25
ENDBRANCH  23  24
ENDBRANCH  22  23
ENDBRANCH  21  22
ENDBRANCH  20  21
ENDBRANCH  19  20
ENDBRANCH  18  19
ENDBRANCH  17  18
ENDBRANCH  16  17
ENDBRANCH  15  16
ENDBRANCH   1  15
TORSDOF 22
ENDMDL
