MODEL 1
REMARK VINA RESULT:    -6.209      0.000      0.000
REMARK INTER + INTRA:          -9.720
REMARK INTER:                 -10.201
REMARK INTRA:                   0.482
REMARK UNBOUND:                 0.482
REMARK SMILES C[C@H]1O[C@H](OC[C@H]2O[C@@H](Oc3c(-c4ccc(O)c(O)c4)oc4cc(O)cc(O)c4c3=O)[C@H](O)[C@@H](O)[C@@H]2O)[C@H](O)[C@@H](O)[C@H]1O
REMARK SMILES IDX 7 1 36 2 34 3 32 4 9 5 8 6 6 7 5 8 4 9 1 10 2 11 42 12 3 13
REMARK SMILES IDX 40 14 38 15 43 16 41 18 39 20 37 22 35 24 10 26 11 27 12 28
REMARK SMILES IDX 30 29 21 30 29 31 31 32 22 33 27 34 23 35 26 36 24 37 13 38
REMARK SMILES IDX 20 39 14 40 18 41 15 42 16 43 19 44 17 46 28 48 25 50 33 52
REMARK H PARENT 43 17 41 19 39 21 37 23 35 25 19 45 17 47 28 49 25 51 33 53
REMARK Flexibility Score: inf
ROOT
ATOM      1  C   UNL     1      -4.604  11.996  -6.970  1.00  0.00     0.180 C 
ATOM      2  C   UNL     1      -4.503  12.670  -8.382  1.00  0.00     0.177 C 
ATOM      3  C   UNL     1      -3.045  12.523  -8.918  1.00  0.00     0.180 C 
ATOM      4  C   UNL     1      -1.951  12.741  -7.773  1.00  0.00     0.214 C 
ATOM      5  C   UNL     1      -2.502  13.079  -6.355  1.00  0.00     0.339 C 
ATOM      6  O   UNL     1      -3.915  12.943  -6.150  1.00  0.00    -0.332 OA
ENDROOT
BRANCH   1   7
ATOM      7  C   UNL     1      -4.109  10.424  -6.987  1.00  0.00     0.198 C 
BRANCH   7   8
ATOM      8  O   UNL     1      -4.487   9.189  -7.739  1.00  0.00    -0.347 OA
BRANCH   8   9
ATOM      9  C   UNL     1      -5.770   8.548  -8.240  1.00  0.00     0.281 C 
ATOM     10  C   UNL     1      -7.125   9.837 -11.137  1.00  0.00     0.041 C 
ATOM     11  C   UNL     1      -6.250  10.291  -9.937  1.00  0.00     0.150 C 
ATOM     12  C   UNL     1      -4.797   9.973 -10.294  1.00  0.00     0.174 C 
ATOM     13  O   UNL     1      -6.604   9.630  -8.728  1.00  0.00    -0.344 OA
ATOM     14  C   UNL     1      -4.533   8.429 -10.159  1.00  0.00     0.179 C 
ATOM     15  C   UNL     1      -5.519   7.646  -9.496  1.00  0.00     0.202 C 
BRANCH  12  16
ATOM     16  O   UNL     1      -4.500  10.498 -11.541  1.00  0.00    -0.388 OA
ATOM     17  H   UNL     1      -4.796  11.449 -11.379  1.00  0.00     0.211 HD
ENDBRANCH  12  16
BRANCH  14  18
ATOM     18  O   UNL     1      -4.273   7.978 -11.437  1.00  0.00    -0.387 OA
ATOM     19  H   UNL     1      -4.481   6.998 -11.273  1.00  0.00     0.211 HD
ENDBRANCH  14  18
BRANCH  15  20
ATOM     20  O   UNL     1      -5.141   6.248  -9.452  1.00  0.00    -0.385 OA
ATOM     21  H   UNL     1      -4.093   6.194  -9.458  1.00  0.00     0.211 HD
ENDBRANCH  15  20
ENDBRANCH   8   9
ENDBRANCH   7   8
ENDBRANCH   1   7
BRANCH   2  22
ATOM     22  O   UNL     1      -4.826  14.074  -8.356  1.00  0.00    -0.387 OA
ATOM     23  H   UNL     1      -5.579  14.182  -9.037  1.00  0.00     0.211 HD
ENDBRANCH   2  22
BRANCH   3  24
ATOM     24  O   UNL     1      -2.935  11.217  -9.396  1.00  0.00    -0.387 OA
ATOM     25  H   UNL     1      -3.442  11.282 -10.276  1.00  0.00     0.211 HD
ENDBRANCH   3  24
BRANCH   5  26
ATOM     26  O   UNL     1      -1.991  12.282  -5.312  1.00  0.00    -0.454 OA
BRANCH  26  27
ATOM     27  C   UNL     1      -0.673  11.915  -5.478  1.00  0.00     0.214 A 
ATOM     28  C   UNL     1       0.348  12.932  -5.531  1.00  0.00     0.180 A 
ATOM     29  C   UNL     1      -0.474  10.743  -6.104  1.00  0.00     0.239 A 
ATOM     30  O   UNL     1       1.510  12.647  -6.134  1.00  0.00    -0.452 OA
ATOM     31  C   UNL     1       0.556  10.684  -6.994  1.00  0.00     0.111 A 
ATOM     32  O   UNL     1      -1.303   9.769  -5.905  1.00  0.00    -0.285 OA
ATOM     33  C   UNL     1       1.625  11.560  -6.825  1.00  0.00     0.146 A 
ATOM     34  C   UNL     1       0.467   9.971  -8.243  1.00  0.00     0.134 A 
ATOM     35  C   UNL     1       2.817  11.325  -7.469  1.00  0.00     0.094 A 
ATOM     36  C   UNL     1       1.646   9.819  -8.981  1.00  0.00     0.093 A 
ATOM     37  C   UNL     1       2.855  10.333  -8.444  1.00  0.00     0.123 A 
BRANCH  28  38
ATOM     38  C   UNL     1       0.382  14.192  -4.788  1.00  0.00     0.025 A 
ATOM     39  C   UNL     1      -0.752  15.004  -4.797  1.00  0.00     0.062 A 
ATOM     40  C   UNL     1       1.621  14.566  -4.176  1.00  0.00     0.016 A 
ATOM     41  C   UNL     1      -0.661  16.341  -4.314  1.00  0.00     0.158 A 
ATOM     42  C   UNL     1       1.762  15.983  -3.875  1.00  0.00     0.051 A 
ATOM     43  C   UNL     1       0.620  16.886  -3.954  1.00  0.00     0.157 A 
BRANCH  41  44
ATOM     44  O   UNL     1      -1.829  16.986  -3.897  1.00  0.00    -0.504 OA
ATOM     45  H   UNL     1      -1.905  17.552  -3.037  1.00  0.00     0.293 HD
ENDBRANCH  41  44
BRANCH  43  46
ATOM     46  O   UNL     1       0.710  18.341  -3.960  1.00  0.00    -0.504 OA
ATOM     47  H   UNL     1       1.617  18.861  -4.202  1.00  0.00     0.293 HD
ENDBRANCH  43  46
ENDBRANCH  28  38
BRANCH  34  48
ATOM     48  O   UNL     1      -0.778   9.646  -8.838  1.00  0.00    -0.507 OA
ATOM     49  H   UNL     1      -1.602  10.289  -8.915  1.00  0.00     0.293 HD
ENDBRANCH  34  48
BRANCH  37  50
ATOM     50  O   UNL     1       4.081   9.926  -8.880  1.00  0.00    -0.508 OA
ATOM     51  H   UNL     1       4.893  10.154  -8.311  1.00  0.00     0.293 HD
ENDBRANCH  37  50
ENDBRANCH  26  27
ENDBRANCH   5  26
BRANCH   4  52
ATOM     52  O   UNL     1      -1.027  13.755  -8.285  1.00  0.00    -0.384 OA
ATOM     53  H   UNL     1      -0.050  13.539  -8.144  1.00  0.00     0.211 HD
ENDBRANCH   4  52
TORSDOF 16
ENDMDL
MODEL 2
REMARK VINA RESULT:    -3.975      1.857      5.722
REMARK INTER + INTRA:          -6.049
REMARK INTER:                  -5.609
REMARK INTRA:                  -0.440
REMARK UNBOUND:                 0.482
REMARK SMILES C[C@H]1O[C@H](OC[C@H]2O[C@@H](Oc3c(-c4ccc(O)c(O)c4)oc4cc(O)cc(O)c4c3=O)[C@H](O)[C@@H](O)[C@@H]2O)[C@H](O)[C@@H](O)[C@H]1O
REMARK SMILES IDX 7 1 36 2 34 3 32 4 9 5 8 6 6 7 5 8 4 9 1 10 2 11 42 12 3 13
REMARK SMILES IDX 40 14 38 15 43 16 41 18 39 20 37 22 35 24 10 26 11 27 12 28
REMARK SMILES IDX 30 29 21 30 29 31 31 32 22 33 27 34 23 35 26 36 24 37 13 38
REMARK SMILES IDX 20 39 14 40 18 41 15 42 16 43 19 44 17 46 28 48 25 50 33 52
REMARK H PARENT 43 17 41 19 39 21 37 23 35 25 19 45 17 47 28 49 25 51 33 53
REMARK Flexibility Score: inf
ROOT
ATOM      1  C   UNL     1      -4.246  12.173  -9.297  1.00  0.00     0.180 C 
ATOM      2  C   UNL     1      -4.513  11.157 -10.460  1.00  0.00     0.177 C 
ATOM      3  C   UNL     1      -4.239   9.708  -9.949  1.00  0.00     0.180 C 
ATOM      4  C   UNL     1      -2.950   9.629  -9.008  1.00  0.00     0.214 C 
ATOM      5  C   UNL     1      -2.185  10.968  -8.780  1.00  0.00     0.339 C 
ATOM      6  O   UNL     1      -2.818  12.172  -9.237  1.00  0.00    -0.332 OA
ENDROOT
BRANCH   1   7
ATOM      7  C   UNL     1      -5.117  11.822  -7.942  1.00  0.00     0.198 C 
BRANCH   7   8
ATOM      8  O   UNL     1      -4.940  10.934  -6.754  1.00  0.00    -0.347 OA
BRANCH   8   9
ATOM      9  C   UNL     1      -5.277  10.987  -5.274  1.00  0.00     0.281 C 
ATOM     10  C   UNL     1      -6.599   8.126  -3.875  1.00  0.00     0.041 C 
ATOM     11  C   UNL     1      -6.535   8.851  -5.247  1.00  0.00     0.150 C 
ATOM     12  C   UNL     1      -5.251   8.388  -5.940  1.00  0.00     0.174 C 
ATOM     13  O   UNL     1      -6.525  10.267  -5.112  1.00  0.00    -0.344 OA
ATOM     14  C   UNL     1      -4.003   9.088  -5.287  1.00  0.00     0.179 C 
ATOM     15  C   UNL     1      -4.243  10.185  -4.412  1.00  0.00     0.202 C 
BRANCH  12  16
ATOM     16  O   UNL     1      -5.197   7.005  -5.940  1.00  0.00    -0.388 OA
ATOM     17  H   UNL     1      -4.562   6.879  -5.165  1.00  0.00     0.211 HD
ENDBRANCH  12  16
BRANCH  14  18
ATOM     18  O   UNL     1      -3.279   8.080  -4.684  1.00  0.00    -0.387 OA
ATOM     19  H   UNL     1      -4.066   7.492  -4.429  1.00  0.00     0.211 HD
ENDBRANCH  14  18
BRANCH  15  20
ATOM     20  O   UNL     1      -3.004  10.721  -3.887  1.00  0.00    -0.385 OA
ATOM     21  H   UNL     1      -2.460  11.127  -4.687  1.00  0.00     0.211 HD
ENDBRANCH  15  20
ENDBRANCH   8   9
ENDBRANCH   7   8
ENDBRANCH   1   7
BRANCH   2  22
ATOM     22  O   UNL     1      -3.674  11.388 -11.609  1.00  0.00    -0.387 OA
ATOM     23  H   UNL     1      -3.160  10.516 -11.738  1.00  0.00     0.211 HD
ENDBRANCH   2  22
BRANCH   3  24
ATOM     24  O   UNL     1      -5.358   9.340  -9.203  1.00  0.00    -0.387 OA
ATOM     25  H   UNL     1      -5.035   9.519  -8.254  1.00  0.00     0.211 HD
ENDBRANCH   3  24
BRANCH   5  26
ATOM     26  O   UNL     1      -1.925  11.284  -7.432  1.00  0.00    -0.454 OA
BRANCH  26  27
ATOM     27  C   UNL     1      -1.059  12.342  -7.259  1.00  0.00     0.214 A 
ATOM     28  C   UNL     1       0.351  12.088  -7.092  1.00  0.00     0.180 A 
ATOM     29  C   UNL     1      -1.601  13.451  -6.727  1.00  0.00     0.239 A 
ATOM     30  O   UNL     1       1.103  13.013  -6.481  1.00  0.00    -0.452 OA
ATOM     31  C   UNL     1      -0.850  14.129  -5.814  1.00  0.00     0.111 A 
ATOM     32  O   UNL     1      -2.818  13.769  -7.030  1.00  0.00    -0.285 OA
ATOM     33  C   UNL     1       0.535  14.008  -5.879  1.00  0.00     0.146 A 
ATOM     34  C   UNL     1      -1.414  14.729  -4.632  1.00  0.00     0.134 A 
ATOM     35  C   UNL     1       1.338  14.910  -5.222  1.00  0.00     0.094 A 
ATOM     36  C   UNL     1      -0.583  15.561  -3.875  1.00  0.00     0.093 A 
ATOM     37  C   UNL     1       0.740  15.797  -4.332  1.00  0.00     0.123 A 
BRANCH  28  38
ATOM     38  C   UNL     1       1.142  11.035  -7.727  1.00  0.00     0.025 A 
ATOM     39  C   UNL     1       2.474  11.300  -8.047  1.00  0.00     0.062 A 
ATOM     40  C   UNL     1       0.469   9.820  -8.078  1.00  0.00     0.016 A 
ATOM     41  C   UNL     1       3.184  10.404  -8.896  1.00  0.00     0.158 A 
ATOM     42  C   UNL     1       1.126   9.020  -9.100  1.00  0.00     0.051 A 
ATOM     43  C   UNL     1       2.488   9.314  -9.526  1.00  0.00     0.157 A 
BRANCH  41  44
ATOM     44  O   UNL     1       4.581  10.399  -8.850  1.00  0.00    -0.504 OA
ATOM     45  H   UNL     1       5.136   9.967  -8.094  1.00  0.00     0.293 HD
ENDBRANCH  41  44
BRANCH  43  46
ATOM     46  O   UNL     1       3.120   8.772 -10.723  1.00  0.00    -0.504 OA
ATOM     47  H   UNL     1       2.596   8.143 -11.417  1.00  0.00     0.293 HD
ENDBRANCH  43  46
ENDBRANCH  28  38
BRANCH  34  48
ATOM     48  O   UNL     1      -2.664  14.320  -4.103  1.00  0.00    -0.507 OA
ATOM     49  H   UNL     1      -3.093  14.671  -3.214  1.00  0.00     0.293 HD
ENDBRANCH  34  48
BRANCH  37  50
ATOM     50  O   UNL     1       1.488  16.850  -3.895  1.00  0.00    -0.508 OA
ATOM     51  H   UNL     1       1.009  17.620  -3.432  1.00  0.00     0.293 HD
ENDBRANCH  37  50
ENDBRANCH  26  27
ENDBRANCH   5  26
BRANCH   4  52
ATOM     52  O   UNL     1      -2.103   8.575  -9.569  1.00  0.00    -0.384 OA
ATOM     53  H   UNL     1      -2.545   8.024 -10.292  1.00  0.00     0.211 HD
ENDBRANCH   4  52
TORSDOF 16
ENDMDL
MODEL 3
REMARK VINA RESULT:    -3.835      2.438      6.379
REMARK INTER + INTRA:          -5.819
REMARK INTER:                  -4.360
REMARK INTRA:                  -1.459
REMARK UNBOUND:                 0.482
REMARK SMILES C[C@H]1O[C@H](OC[C@H]2O[C@@H](Oc3c(-c4ccc(O)c(O)c4)oc4cc(O)cc(O)c4c3=O)[C@H](O)[C@@H](O)[C@@H]2O)[C@H](O)[C@@H](O)[C@H]1O
REMARK SMILES IDX 7 1 36 2 34 3 32 4 9 5 8 6 6 7 5 8 4 9 1 10 2 11 42 12 3 13
REMARK SMILES IDX 40 14 38 15 43 16 41 18 39 20 37 22 35 24 10 26 11 27 12 28
REMARK SMILES IDX 30 29 21 30 29 31 31 32 22 33 27 34 23 35 26 36 24 37 13 38
REMARK SMILES IDX 20 39 14 40 18 41 15 42 16 43 19 44 17 46 28 48 25 50 33 52
REMARK H PARENT 43 17 41 19 39 21 37 23 35 25 19 45 17 47 28 49 25 51 33 53
REMARK Flexibility Score: inf
ROOT
ATOM      1  C   UNL     1      -4.110   8.499 -10.722  1.00  0.00     0.180 C 
ATOM      2  C   UNL     1      -5.036   7.234 -10.731  1.00  0.00     0.177 C 
ATOM      3  C   UNL     1      -6.197   7.438  -9.710  1.00  0.00     0.180 C 
ATOM      4  C   UNL     1      -5.704   8.141  -8.362  1.00  0.00     0.214 C 
ATOM      5  C   UNL     1      -4.184   8.476  -8.281  1.00  0.00     0.339 C 
ATOM      6  O   UNL     1      -3.415   8.337  -9.483  1.00  0.00    -0.332 OA
ENDROOT
BRANCH   1   7
ATOM      7  C   UNL     1      -4.946   9.891 -11.010  1.00  0.00     0.198 C 
BRANCH   7   8
ATOM      8  O   UNL     1      -5.448  11.030 -10.183  1.00  0.00    -0.347 OA
BRANCH   8   9
ATOM      9  C   UNL     1      -6.798  11.550  -9.721  1.00  0.00     0.281 C 
ATOM     10  C   UNL     1      -7.118  12.281  -6.367  1.00  0.00     0.041 C 
ATOM     11  C   UNL     1      -6.308  11.340  -7.299  1.00  0.00     0.150 C 
ATOM     12  C   UNL     1      -5.067  12.113  -7.750  1.00  0.00     0.174 C 
ATOM     13  O   UNL     1      -7.057  10.929  -8.436  1.00  0.00    -0.344 OA
ATOM     14  C   UNL     1      -5.460  13.180  -8.837  1.00  0.00     0.179 C 
ATOM     15  C   UNL     1      -6.757  13.086  -9.415  1.00  0.00     0.202 C 
BRANCH  12  16
ATOM     16  O   UNL     1      -4.419  12.635  -6.643  1.00  0.00    -0.388 OA
ATOM     17  H   UNL     1      -5.133  12.458  -5.952  1.00  0.00     0.211 HD
ENDBRANCH  12  16
BRANCH  14  18
ATOM     18  O   UNL     1      -5.228  14.410  -8.256  1.00  0.00    -0.387 OA
ATOM     19  H   UNL     1      -4.596  14.770  -8.965  1.00  0.00     0.211 HD
ENDBRANCH  14  18
BRANCH  15  20
ATOM     20  O   UNL     1      -6.975  14.134 -10.391  1.00  0.00    -0.385 OA
ATOM     21  H   UNL     1      -6.086  14.682 -10.485  1.00  0.00     0.211 HD
ENDBRANCH  15  20
ENDBRANCH   8   9
ENDBRANCH   7   8
ENDBRANCH   1   7
BRANCH   2  22
ATOM     22  O   UNL     1      -4.336   6.026 -10.371  1.00  0.00    -0.387 OA
ATOM     23  H   UNL     1      -4.309   6.033  -9.351  1.00  0.00     0.211 HD
ENDBRANCH   2  22
BRANCH   3  24
ATOM     24  O   UNL     1      -7.123   8.273 -10.335  1.00  0.00    -0.387 OA
ATOM     25  H   UNL     1      -7.034   9.123  -9.780  1.00  0.00     0.211 HD
ENDBRANCH   3  24
BRANCH   5  26
ATOM     26  O   UNL     1      -3.885   9.801  -7.910  1.00  0.00    -0.454 OA
BRANCH  26  27
ATOM     27  C   UNL     1      -2.772   9.923  -7.105  1.00  0.00     0.214 A 
ATOM     28  C   UNL     1      -2.916   9.831  -5.673  1.00  0.00     0.180 A 
ATOM     29  C   UNL     1      -1.758  10.635  -7.626  1.00  0.00     0.239 A 
ATOM     30  O   UNL     1      -1.979  10.390  -4.896  1.00  0.00    -0.452 OA
ATOM     31  C   UNL     1      -1.089  11.468  -6.780  1.00  0.00     0.111 A 
ATOM     32  O   UNL     1      -1.523  10.567  -8.897  1.00  0.00    -0.285 OA
ATOM     33  C   UNL     1      -1.086  11.164  -5.421  1.00  0.00     0.146 A 
ATOM     34  C   UNL     1      -0.632  12.776  -7.174  1.00  0.00     0.134 A 
ATOM     35  C   UNL     1      -0.170  11.758  -4.585  1.00  0.00     0.094 A 
ATOM     36  C   UNL     1       0.209  13.456  -6.287  1.00  0.00     0.093 A 
ATOM     37  C   UNL     1       0.592  12.810  -5.083  1.00  0.00     0.123 A 
BRANCH  28  38
ATOM     38  C   UNL     1      -3.846   8.983  -4.929  1.00  0.00     0.025 A 
ATOM     39  C   UNL     1      -3.600   7.611  -4.873  1.00  0.00     0.062 A 
ATOM     40  C   UNL     1      -5.017   9.601  -4.385  1.00  0.00     0.016 A 
ATOM     41  C   UNL     1      -4.614   6.734  -4.392  1.00  0.00     0.158 A 
ATOM     42  C   UNL     1      -6.116   8.695  -4.088  1.00  0.00     0.051 A 
ATOM     43  C   UNL     1      -5.925   7.251  -4.101  1.00  0.00     0.157 A 
BRANCH  41  44
ATOM     44  O   UNL     1      -4.243   5.477  -3.909  1.00  0.00    -0.504 OA
ATOM     45  H   UNL     1      -3.270   5.195  -3.707  1.00  0.00     0.293 HD
ENDBRANCH  41  44
BRANCH  43  46
ATOM     46  O   UNL     1      -7.003   6.270  -4.107  1.00  0.00    -0.504 OA
ATOM     47  H   UNL     1      -7.835   6.323  -3.431  1.00  0.00     0.293 HD
ENDBRANCH  43  46
ENDBRANCH  28  38
BRANCH  34  48
ATOM     48  O   UNL     1      -1.186  13.465  -8.282  1.00  0.00    -0.507 OA
ATOM     49  H   UNL     1      -1.482  14.470  -8.287  1.00  0.00     0.293 HD
ENDBRANCH  34  48
BRANCH  37  50
ATOM     50  O   UNL     1       1.669  13.210  -4.348  1.00  0.00    -0.508 OA
ATOM     51  H   UNL     1       2.598  13.057  -4.736  1.00  0.00     0.293 HD
ENDBRANCH  37  50
ENDBRANCH  26  27
ENDBRANCH   5  26
BRANCH   4  52
ATOM     52  O   UNL     1      -6.161   7.283  -7.268  1.00  0.00    -0.384 OA
ATOM     53  H   UNL     1      -5.442   6.693  -6.870  1.00  0.00     0.211 HD
ENDBRANCH   4  52
TORSDOF 16
ENDMDL
MODEL 4
REMARK VINA RESULT:    -3.617      1.519      5.308
REMARK INTER + INTRA:          -5.461
REMARK INTER:                  -5.700
REMARK INTRA:                   0.239
REMARK UNBOUND:                 0.482
REMARK SMILES C[C@H]1O[C@H](OC[C@H]2O[C@@H](Oc3c(-c4ccc(O)c(O)c4)oc4cc(O)cc(O)c4c3=O)[C@H](O)[C@@H](O)[C@@H]2O)[C@H](O)[C@@H](O)[C@H]1O
REMARK SMILES IDX 7 1 36 2 34 3 32 4 9 5 8 6 6 7 5 8 4 9 1 10 2 11 42 12 3 13
REMARK SMILES IDX 40 14 38 15 43 16 41 18 39 20 37 22 35 24 10 26 11 27 12 28
REMARK SMILES IDX 30 29 21 30 29 31 31 32 22 33 27 34 23 35 26 36 24 37 13 38
REMARK SMILES IDX 20 39 14 40 18 41 15 42 16 43 19 44 17 46 28 48 25 50 33 52
REMARK H PARENT 43 17 41 19 39 21 37 23 35 25 19 45 17 47 28 49 25 51 33 53
REMARK Flexibility Score: inf
ROOT
ATOM      1  C   UNL     1      -3.341   8.779  -6.351  1.00  0.00     0.180 C 
ATOM      2  C   UNL     1      -4.017   8.760  -4.937  1.00  0.00     0.177 C 
ATOM      3  C   UNL     1      -4.636  10.162  -4.644  1.00  0.00     0.180 C 
ATOM      4  C   UNL     1      -3.697  11.356  -5.141  1.00  0.00     0.214 C 
ATOM      5  C   UNL     1      -2.346  10.939  -5.794  1.00  0.00     0.339 C 
ATOM      6  O   UNL     1      -2.164   9.549  -6.096  1.00  0.00    -0.332 OA
ENDROOT
BRANCH   1   7
ATOM      7  C   UNL     1      -4.381   9.252  -7.538  1.00  0.00     0.198 C 
BRANCH   7   8
ATOM      8  O   UNL     1      -5.201   8.566  -8.582  1.00  0.00    -0.347 OA
BRANCH   8   9
ATOM      9  C   UNL     1      -5.786   8.920  -9.939  1.00  0.00     0.281 C 
ATOM     10  C   UNL     1      -6.354  12.263 -10.563  1.00  0.00     0.041 C 
ATOM     11  C   UNL     1      -6.288  11.279  -9.364  1.00  0.00     0.150 C 
ATOM     12  C   UNL     1      -4.825  11.209  -8.920  1.00  0.00     0.174 C 
ATOM     13  O   UNL     1      -6.750   9.978  -9.705  1.00  0.00    -0.344 OA
ATOM     14  C   UNL     1      -3.994  10.341  -9.935  1.00  0.00     0.179 C 
ATOM     15  C   UNL     1      -4.715   9.564 -10.885  1.00  0.00     0.202 C 
BRANCH  12  16
ATOM     16  O   UNL     1      -4.337  12.490  -8.729  1.00  0.00    -0.388 OA
ATOM     17  H   UNL     1      -4.172  12.735  -9.694  1.00  0.00     0.211 HD
ENDBRANCH  12  16
BRANCH  14  18
ATOM     18  O   UNL     1      -3.103  11.210 -10.531  1.00  0.00    -0.387 OA
ATOM     19  H   UNL     1      -2.544  10.512 -11.011  1.00  0.00     0.211 HD
ENDBRANCH  14  18
BRANCH  15  20
ATOM     20  O   UNL     1      -3.819   8.825 -11.750  1.00  0.00    -0.385 OA
ATOM     21  H   UNL     1      -3.115   9.497 -12.140  1.00  0.00     0.211 HD
ENDBRANCH  15  20
ENDBRANCH   8   9
ENDBRANCH   7   8
ENDBRANCH   1   7
BRANCH   2  22
ATOM     22  O   UNL     1      -3.088   8.456  -3.876  1.00  0.00    -0.387 OA
ATOM     23  H   UNL     1      -2.179   8.753  -4.232  1.00  0.00     0.211 HD
ENDBRANCH   2  22
BRANCH   3  24
ATOM     24  O   UNL     1      -5.835  10.213  -5.354  1.00  0.00    -0.387 OA
ATOM     25  H   UNL     1      -5.537   9.899  -6.276  1.00  0.00     0.211 HD
ENDBRANCH   3  24
BRANCH   5  26
ATOM     26  O   UNL     1      -2.080  11.532  -7.043  1.00  0.00    -0.454 OA
BRANCH  26  27
ATOM     27  C   UNL     1      -1.200  12.592  -6.987  1.00  0.00     0.214 A 
ATOM     28  C   UNL     1       0.214  12.338  -6.864  1.00  0.00     0.180 A 
ATOM     29  C   UNL     1      -1.710  13.742  -6.515  1.00  0.00     0.239 A 
ATOM     30  O   UNL     1       0.999  13.297  -6.357  1.00  0.00    -0.452 OA
ATOM     31  C   UNL     1      -0.914  14.479  -5.690  1.00  0.00     0.111 A 
ATOM     32  O   UNL     1      -2.937  14.050  -6.787  1.00  0.00    -0.285 OA
ATOM     33  C   UNL     1       0.466  14.339  -5.806  1.00  0.00     0.146 A 
ATOM     34  C   UNL     1      -1.421  15.170  -4.531  1.00  0.00     0.134 A 
ATOM     35  C   UNL     1       1.303  15.280  -5.254  1.00  0.00     0.094 A 
ATOM     36  C   UNL     1      -0.551  16.047  -3.876  1.00  0.00     0.093 A 
ATOM     37  C   UNL     1       0.751  16.236  -4.406  1.00  0.00     0.123 A 
BRANCH  28  38
ATOM     38  C   UNL     1       0.970  11.232  -7.453  1.00  0.00     0.025 A 
ATOM     39  C   UNL     1       2.359  11.230  -7.328  1.00  0.00     0.062 A 
ATOM     40  C   UNL     1       0.241  10.264  -8.217  1.00  0.00     0.016 A 
ATOM     41  C   UNL     1       3.133  10.325  -8.109  1.00  0.00     0.158 A 
ATOM     42  C   UNL     1       1.037   9.488  -9.156  1.00  0.00     0.051 A 
ATOM     43  C   UNL     1       2.493   9.522  -9.116  1.00  0.00     0.157 A 
BRANCH  41  44
ATOM     44  O   UNL     1       4.421   9.996  -7.677  1.00  0.00    -0.504 OA
ATOM     45  H   UNL     1       4.629   9.289  -6.953  1.00  0.00     0.293 HD
ENDBRANCH  41  44
BRANCH  43  46
ATOM     46  O   UNL     1       3.366   9.025 -10.173  1.00  0.00    -0.504 OA
ATOM     47  H   UNL     1       3.810   8.049 -10.142  1.00  0.00     0.293 HD
ENDBRANCH  43  46
ENDBRANCH  28  38
BRANCH  34  48
ATOM     48  O   UNL     1      -2.649  14.813  -3.919  1.00  0.00    -0.507 OA
ATOM     49  H   UNL     1      -2.752  14.364  -2.978  1.00  0.00     0.293 HD
ENDBRANCH  34  48
BRANCH  37  50
ATOM     50  O   UNL     1       1.525  17.311  -4.082  1.00  0.00    -0.508 OA
ATOM     51  H   UNL     1       2.100  17.726  -4.813  1.00  0.00     0.293 HD
ENDBRANCH  37  50
ENDBRANCH  26  27
ENDBRANCH   5  26
BRANCH   4  52
ATOM     52  O   UNL     1      -3.526  12.242  -3.988  1.00  0.00    -0.384 OA
ATOM     53  H   UNL     1      -3.781  13.205  -4.158  1.00  0.00     0.211 HD
ENDBRANCH   4  52
TORSDOF 16
ENDMDL
MODEL 5
REMARK VINA RESULT:    -3.302      1.422      2.751
REMARK INTER + INTRA:          -4.943
REMARK INTER:                  -8.354
REMARK INTRA:                   3.411
REMARK UNBOUND:                 0.482
REMARK SMILES C[C@H]1O[C@H](OC[C@H]2O[C@@H](Oc3c(-c4ccc(O)c(O)c4)oc4cc(O)cc(O)c4c3=O)[C@H](O)[C@@H](O)[C@@H]2O)[C@H](O)[C@@H](O)[C@H]1O
REMARK SMILES IDX 7 1 36 2 34 3 32 4 9 5 8 6 6 7 5 8 4 9 1 10 2 11 42 12 3 13
REMARK SMILES IDX 40 14 38 15 43 16 41 18 39 20 37 22 35 24 10 26 11 27 12 28
REMARK SMILES IDX 30 29 21 30 29 31 31 32 22 33 27 34 23 35 26 36 24 37 13 38
REMARK SMILES IDX 20 39 14 40 18 41 15 42 16 43 19 44 17 46 28 48 25 50 33 52
REMARK H PARENT 43 17 41 19 39 21 37 23 35 25 19 45 17 47 28 49 25 51 33 53
REMARK Flexibility Score: inf
ROOT
ATOM      1  C   UNL     1      -4.178   9.565  -6.248  1.00  0.00     0.180 C 
ATOM      2  C   UNL     1      -5.313   9.691  -5.174  1.00  0.00     0.177 C 
ATOM      3  C   UNL     1      -5.717  11.191  -5.026  1.00  0.00     0.180 C 
ATOM      4  C   UNL     1      -4.453  12.168  -5.071  1.00  0.00     0.214 C 
ATOM      5  C   UNL     1      -3.062  11.482  -5.225  1.00  0.00     0.339 C 
ATOM      6  O   UNL     1      -3.051  10.082  -5.537  1.00  0.00    -0.332 OA
ENDROOT
BRANCH   1   7
ATOM      7  C   UNL     1      -4.604  10.233  -7.693  1.00  0.00     0.198 C 
BRANCH   7   8
ATOM      8  O   UNL     1      -3.891  10.944  -8.797  1.00  0.00    -0.347 OA
BRANCH   8   9
ATOM      9  C   UNL     1      -3.874  10.895 -10.315  1.00  0.00     0.281 C 
ATOM     10  C   UNL     1      -4.404   7.818 -11.778  1.00  0.00     0.041 C 
ATOM     11  C   UNL     1      -3.835   8.420 -10.464  1.00  0.00     0.150 C 
ATOM     12  C   UNL     1      -5.015   8.605  -9.507  1.00  0.00     0.174 C 
ATOM     13  O   UNL     1      -3.189   9.669 -10.677  1.00  0.00    -0.344 OA
ATOM     14  C   UNL     1      -5.873   9.849  -9.941  1.00  0.00     0.179 C 
ATOM     15  C   UNL     1      -5.315  10.731 -10.909  1.00  0.00     0.202 C 
BRANCH  12  16
ATOM     16  O   UNL     1      -5.727   7.421  -9.416  1.00  0.00    -0.388 OA
ATOM     17  H   UNL     1      -6.282   7.641  -8.602  1.00  0.00     0.211 HD
ENDBRANCH  12  16
BRANCH  14  18
ATOM     18  O   UNL     1      -7.097   9.344 -10.330  1.00  0.00    -0.387 OA
ATOM     19  H   UNL     1      -7.551   9.394  -9.423  1.00  0.00     0.211 HD
ENDBRANCH  14  18
BRANCH  15  20
ATOM     20  O   UNL     1      -6.219  11.823 -11.209  1.00  0.00    -0.385 OA
ATOM     21  H   UNL     1      -5.645  12.684 -11.378  1.00  0.00     0.211 HD
ENDBRANCH  15  20
ENDBRANCH   8   9
ENDBRANCH   7   8
ENDBRANCH   1   7
BRANCH   2  22
ATOM     22  O   UNL     1      -4.910   9.211  -3.875  1.00  0.00    -0.387 OA
ATOM     23  H   UNL     1      -4.363   9.972  -3.473  1.00  0.00     0.211 HD
ENDBRANCH   2  22
BRANCH   3  24
ATOM     24  O   UNL     1      -6.541  11.480  -6.113  1.00  0.00    -0.387 OA
ATOM     25  H   UNL     1      -7.247  10.751  -6.029  1.00  0.00     0.211 HD
ENDBRANCH   3  24
BRANCH   5  26
ATOM     26  O   UNL     1      -2.251  12.002  -6.253  1.00  0.00    -0.454 OA
BRANCH  26  27
ATOM     27  C   UNL     1      -0.931  11.611  -6.181  1.00  0.00     0.214 A 
ATOM     28  C   UNL     1       0.091  12.598  -5.936  1.00  0.00     0.180 A 
ATOM     29  C   UNL     1      -0.623  10.491  -6.857  1.00  0.00     0.239 A 
ATOM     30  O   UNL     1       1.348  12.331  -6.315  1.00  0.00    -0.452 OA
ATOM     31  C   UNL     1       0.566  10.478  -7.523  1.00  0.00     0.111 A 
ATOM     32  O   UNL     1      -1.487   9.530  -6.917  1.00  0.00    -0.285 OA
ATOM     33  C   UNL     1       1.588  11.304  -7.063  1.00  0.00     0.146 A 
ATOM     34  C   UNL     1       0.724   9.877  -8.823  1.00  0.00     0.134 A 
ATOM     35  C   UNL     1       2.883  11.089  -7.472  1.00  0.00     0.094 A 
ATOM     36  C   UNL     1       2.026   9.754  -9.318  1.00  0.00     0.093 A 
ATOM     37  C   UNL     1       3.107  10.183  -8.505  1.00  0.00     0.123 A 
BRANCH  28  38
ATOM     38  C   UNL     1      -0.011  13.788  -5.091  1.00  0.00     0.025 A 
ATOM     39  C   UNL     1      -1.247  14.427  -4.984  1.00  0.00     0.062 A 
ATOM     40  C   UNL     1       1.195  14.288  -4.502  1.00  0.00     0.016 A 
ATOM     41  C   UNL     1      -1.318  15.722  -4.394  1.00  0.00     0.158 A 
ATOM     42  C   UNL     1       1.151  15.683  -4.089  1.00  0.00     0.051 A 
ATOM     43  C   UNL     1      -0.108  16.415  -4.044  1.00  0.00     0.157 A 
BRANCH  41  44
ATOM     44  O   UNL     1      -2.541  16.157  -3.875  1.00  0.00    -0.504 OA
ATOM     45  H   UNL     1      -2.645  16.945  -3.215  1.00  0.00     0.293 HD
ENDBRANCH  41  44
BRANCH  43  46
ATOM     46  O   UNL     1      -0.223  17.864  -3.930  1.00  0.00    -0.504 OA
ATOM     47  H   UNL     1      -0.633  18.344  -3.062  1.00  0.00     0.293 HD
ENDBRANCH  43  46
ENDBRANCH  28  38
BRANCH  34  48
ATOM     48  O   UNL     1      -0.378   9.642  -9.683  1.00  0.00    -0.507 OA
ATOM     49  H   UNL     1      -0.607   8.728 -10.143  1.00  0.00     0.293 HD
ENDBRANCH  34  48
BRANCH  37  50
ATOM     50  O   UNL     1       4.391   9.778  -8.719  1.00  0.00    -0.508 OA
ATOM     51  H   UNL     1       4.974  10.339  -9.336  1.00  0.00     0.293 HD
ENDBRANCH  37  50
ENDBRANCH  26  27
ENDBRANCH   5  26
BRANCH   4  52
ATOM     52  O   UNL     1      -4.547  13.007  -3.875  1.00  0.00    -0.384 OA
ATOM     53  H   UNL     1      -5.487  13.126  -3.520  1.00  0.00     0.211 HD
ENDBRANCH   4  52
TORSDOF 16
ENDMDL
