MODEL 1
REMARK VINA RESULT:    -2.479      0.000      0.000
REMARK INTER + INTRA:         -10.594
REMARK INTER:                  -5.667
REMARK INTRA:                  -4.927
REMARK UNBOUND:                -4.927
REMARK SMILES CCCCCCCCCCCCCCCCCCCCCCCC(=O)[O-]
REMARK SMILES IDX 13 1 14 2 15 3 16 4 17 5 18 6 19 7 20 8 21 9 22 10 23 11
REMARK SMILES IDX 24 12 25 13 26 14 12 15 11 16 10 17 9 18 8 19 7 20 6 21 5 22
REMARK SMILES IDX 4 23 3 24 2 25 1 26
REMARK H PARENT
REMARK Flexibility Score: inf
ROOT
ATOM      1  C   UNL     1      98.658  66.501 228.846  1.00  0.00     0.000 C 
ENDROOT
BRANCH   1   2
ATOM      2  C   UNL     1      99.503  66.691 230.118  1.00  0.00     0.000 C 
BRANCH   2   3
ATOM      3  C   UNL     1      99.501  65.492 231.088  1.00  0.00     0.000 C 
BRANCH   3   4
ATOM      4  C   UNL     1      98.108  65.008 231.535  1.00  0.00     0.000 C 
BRANCH   4   5
ATOM      5  C   UNL     1      97.966  63.477 231.492  1.00  0.00     0.000 C 
BRANCH   5   6
ATOM      6  C   UNL     1      97.756  62.934 230.066  1.00  0.00     0.000 C 
BRANCH   6   7
ATOM      7  C   UNL     1      98.912  62.084 229.510  1.00  0.00     0.000 C 
BRANCH   7   8
ATOM      8  C   UNL     1      98.868  61.932 227.983  1.00  0.00     0.000 C 
BRANCH   8   9
ATOM      9  C   UNL     1      99.071  63.286 227.286  1.00  0.00     0.000 C 
BRANCH   9  10
ATOM     10  C   UNL     1     100.549  63.704 227.234  1.00  0.00     0.006 C 
BRANCH  10  11
ATOM     11  C   UNL     1     101.352  62.888 226.212  1.00  0.00     0.053 C 
BRANCH  11  12
ATOM     12  C   UNL     1     101.935  63.786 225.167  1.00  0.00     0.041 C 
ATOM     13  O   UNL     1     103.156  64.090 225.204  1.00  0.00    -0.550 OA
ATOM     14  O   UNL     1     101.140  64.251 224.126  1.00  0.00    -0.550 OA
ENDBRANCH  11  12
ENDBRANCH  10  11
ENDBRANCH   9  10
ENDBRANCH   8   9
ENDBRANCH   7   8
ENDBRANCH   6   7
ENDBRANCH   5   6
ENDBRANCH   4   5
ENDBRANCH   3   4
ENDBRANCH   2   3
ENDBRANCH   1   2
BRANCH   1  15
ATOM     15  C   UNL     1      97.606  67.608 228.663  1.00  0.00     0.000 C 
BRANCH  15  16
ATOM     16  C   UNL     1      96.268  67.064 228.138  1.00  0.00     0.000 C 
BRANCH  16  17
ATOM     17  C   UNL     1      96.127  65.548 228.344  1.00  0.00     0.000 C 
BRANCH  17  18
ATOM     18  C   UNL     1      95.748  64.847 227.032  1.00  0.00    -0.000 C 
BRANCH  18  19
ATOM     19  C   UNL     1      95.767  65.797 225.823  1.00  0.00    -0.000 C 
BRANCH  19  20
ATOM     20  C   UNL     1      96.813  65.393 224.769  1.00  0.00    -0.000 C 
BRANCH  20  21
ATOM     21  C   UNL     1      98.196  66.004 225.048  1.00  0.00    -0.000 C 
BRANCH  21  22
ATOM     22  C   UNL     1      98.189  67.541 224.983  1.00  0.00    -0.000 C 
BRANCH  22  23
ATOM     23  C   UNL     1      99.471  68.172 225.556  1.00  0.00    -0.000 C 
BRANCH  23  24
ATOM     24  C   UNL     1     100.627  67.187 225.807  1.00  0.00    -0.000 C 
BRANCH  24  25
ATOM     25  C   UNL     1     101.616  67.683 226.871  1.00  0.00    -0.003 C 
ATOM     26  C   UNL     1     101.120  68.970 227.525  1.00  0.00     0.004 C 
ENDBRANCH  24  25
ENDBRANCH  23  24
ENDBRANCH  22  23
ENDBRANCH  21  22
ENDBRANCH  20  21
ENDBRANCH  19  20
ENDBRANCH  18  19
ENDBRANCH  17  18
ENDBRANCH  16  17
ENDBRANCH  15  16
ENDBRANCH   1  15
TORSDOF 22
ENDMDL
MODEL 2
REMARK VINA RESULT:    -2.478      1.998      4.360
REMARK INTER + INTRA:         -10.591
REMARK INTER:                  -5.525
REMARK INTRA:                  -5.065
REMARK UNBOUND:                -4.927
REMARK SMILES CCCCCCCCCCCCCCCCCCCCCCCC(=O)[O-]
REMARK SMILES IDX 13 1 14 2 15 3 16 4 17 5 18 6 19 7 20 8 21 9 22 10 23 11
REMARK SMILES IDX 24 12 25 13 26 14 12 15 11 16 10 17 9 18 8 19 7 20 6 21 5 22
REMARK SMILES IDX 4 23 3 24 2 25 1 26
REMARK H PARENT
REMARK Flexibility Score: inf
ROOT
ATOM      1  C   UNL     1      99.012  63.663 227.512  1.00  0.00     0.000 C 
ENDROOT
BRANCH   1   2
ATOM      2  C   UNL     1      99.867  64.256 228.646  1.00  0.00     0.000 C 
BRANCH   2   3
ATOM      3  C   UNL     1     100.662  65.522 228.269  1.00  0.00     0.000 C 
BRANCH   3   4
ATOM      4  C   UNL     1      99.845  66.633 227.581  1.00  0.00     0.000 C 
BRANCH   4   5
ATOM      5  C   UNL     1     100.498  67.136 226.282  1.00  0.00     0.000 C 
BRANCH   5   6
ATOM      6  C   UNL     1     101.597  66.193 225.759  1.00  0.00     0.000 C 
BRANCH   6   7
ATOM      7  C   UNL     1     101.171  65.263 224.609  1.00  0.00     0.000 C 
BRANCH   7   8
ATOM      8  C   UNL     1     101.482  63.785 224.882  1.00  0.00     0.000 C 
BRANCH   8   9
ATOM      9  C   UNL     1     102.784  63.632 225.682  1.00  0.00     0.000 C 
BRANCH   9  10
ATOM     10  C   UNL     1     103.072  62.171 226.062  1.00  0.00     0.006 C 
BRANCH  10  11
ATOM     11  C   UNL     1     102.185  61.679 227.212  1.00  0.00     0.053 C 
BRANCH  11  12
ATOM     12  C   UNL     1     101.302  60.562 226.753  1.00  0.00     0.041 C 
ATOM     13  O   UNL     1     101.617  59.882 225.741  1.00  0.00    -0.550 OA
ATOM     14  O   UNL     1     100.154  60.242 227.468  1.00  0.00    -0.550 OA
ENDBRANCH  11  12
ENDBRANCH  10  11
ENDBRANCH   9  10
ENDBRANCH   8   9
ENDBRANCH   7   8
ENDBRANCH   6   7
ENDBRANCH   5   6
ENDBRANCH   4   5
ENDBRANCH   3   4
ENDBRANCH   2   3
ENDBRANCH   1   2
BRANCH   1  15
ATOM     15  C   UNL     1      97.502  63.794 227.778  1.00  0.00     0.000 C 
BRANCH  15  16
ATOM     16  C   UNL     1      96.788  64.630 226.703  1.00  0.00     0.000 C 
BRANCH  16  17
ATOM     17  C   UNL     1      97.535  64.623 225.361  1.00  0.00     0.000 C 
BRANCH  17  18
ATOM     18  C   UNL     1      97.361  65.962 224.628  1.00  0.00    -0.000 C 
BRANCH  18  19
ATOM     19  C   UNL     1      96.392  66.913 225.349  1.00  0.00    -0.000 C 
BRANCH  19  20
ATOM     20  C   UNL     1      97.064  68.230 225.778  1.00  0.00    -0.000 C 
BRANCH  20  21
ATOM     21  C   UNL     1      96.265  68.971 226.863  1.00  0.00    -0.000 C 
BRANCH  21  22
ATOM     22  C   UNL     1      95.668  68.020 227.914  1.00  0.00    -0.000 C 
BRANCH  22  23
ATOM     23  C   UNL     1      96.674  67.637 229.015  1.00  0.00    -0.000 C 
BRANCH  23  24
ATOM     24  C   UNL     1      96.225  66.489 229.938  1.00  0.00    -0.000 C 
BRANCH  24  25
ATOM     25  C   UNL     1      97.345  65.994 230.865  1.00  0.00    -0.003 C 
ATOM     26  C   UNL     1      98.463  67.027 230.977  1.00  0.00     0.004 C 
ENDBRANCH  24  25
ENDBRANCH  23  24
ENDBRANCH  22  23
ENDBRANCH  21  22
ENDBRANCH  20  21
ENDBRANCH  19  20
ENDBRANCH  18  19
ENDBRANCH  17  18
ENDBRANCH  16  17
ENDBRANCH  15  16
ENDBRANCH   1  15
TORSDOF 22
ENDMDL
MODEL 3
REMARK VINA RESULT:    -2.450      2.390      5.461
REMARK INTER + INTRA:         -10.527
REMARK INTER:                  -5.623
REMARK INTRA:                  -4.904
REMARK UNBOUND:                -4.927
REMARK SMILES CCCCCCCCCCCCCCCCCCCCCCCC(=O)[O-]
REMARK SMILES IDX 13 1 14 2 15 3 16 4 17 5 18 6 19 7 20 8 21 9 22 10 23 11
REMARK SMILES IDX 24 12 25 13 26 14 12 15 11 16 10 17 9 18 8 19 7 20 6 21 5 22
REMARK SMILES IDX 4 23 3 24 2 25 1 26
REMARK H PARENT
REMARK Flexibility Score: inf
ROOT
ATOM      1  C   UNL     1     101.097  64.899 224.625  1.00  0.00     0.000 C 
ENDROOT
BRANCH   1   2
ATOM      2  C   UNL     1     102.060  64.179 225.586  1.00  0.00     0.000 C 
BRANCH   2   3
ATOM      3  C   UNL     1     101.785  62.674 225.779  1.00  0.00     0.000 C 
BRANCH   3   4
ATOM      4  C   UNL     1     100.661  62.331 226.776  1.00  0.00     0.000 C 
BRANCH   4   5
ATOM      5  C   UNL     1     100.538  63.360 227.913  1.00  0.00     0.000 C 
BRANCH   5   6
ATOM      6  C   UNL     1      99.178  64.083 227.924  1.00  0.00     0.000 C 
BRANCH   6   7
ATOM      7  C   UNL     1      98.132  63.527 226.941  1.00  0.00     0.000 C 
BRANCH   7   8
ATOM      8  C   UNL     1      97.673  64.560 225.902  1.00  0.00     0.000 C 
BRANCH   8   9
ATOM      9  C   UNL     1      96.190  64.913 226.091  1.00  0.00     0.000 C 
BRANCH   9  10
ATOM     10  C   UNL     1      95.803  66.222 225.385  1.00  0.00     0.006 C 
BRANCH  10  11
ATOM     11  C   UNL     1      96.723  66.542 224.200  1.00  0.00     0.053 C 
BRANCH  11  12
ATOM     12  C   UNL     1      96.002  66.335 222.906  1.00  0.00     0.041 C 
ATOM     13  O   UNL     1      95.337  65.283 222.714  1.00  0.00    -0.550 OA
ATOM     14  O   UNL     1      96.028  67.322 221.928  1.00  0.00    -0.550 OA
ENDBRANCH  11  12
ENDBRANCH  10  11
ENDBRANCH   9  10
ENDBRANCH   8   9
ENDBRANCH   7   8
ENDBRANCH   6   7
ENDBRANCH   5   6
ENDBRANCH   4   5
ENDBRANCH   3   4
ENDBRANCH   2   3
ENDBRANCH   1   2
BRANCH   1  15
ATOM     15  C   UNL     1     100.750  66.323 225.090  1.00  0.00     0.000 C 
BRANCH  15  16
ATOM     16  C   UNL     1     101.419  66.684 226.426  1.00  0.00     0.000 C 
BRANCH  16  17
ATOM     17  C   UNL     1     100.484  67.470 227.358  1.00  0.00     0.000 C 
BRANCH  17  18
ATOM     18  C   UNL     1      99.410  68.219 226.556  1.00  0.00    -0.000 C 
BRANCH  18  19
ATOM     19  C   UNL     1      98.055  68.273 227.280  1.00  0.00    -0.000 C 
BRANCH  19  20
ATOM     20  C   UNL     1      97.996  67.331 228.496  1.00  0.00    -0.000 C 
BRANCH  20  21
ATOM     21  C   UNL     1      96.583  67.231 229.095  1.00  0.00    -0.000 C 
BRANCH  21  22
ATOM     22  C   UNL     1      96.257  65.819 229.610  1.00  0.00    -0.000 C 
BRANCH  22  23
ATOM     23  C   UNL     1      96.663  65.608 231.080  1.00  0.00    -0.000 C 
BRANCH  23  24
ATOM     24  C   UNL     1      97.366  64.271 231.378  1.00  0.00    -0.000 C 
BRANCH  24  25
ATOM     25  C   UNL     1      98.886  64.417 231.539  1.00  0.00    -0.003 C 
ATOM     26  C   UNL     1      99.281  65.880 231.724  1.00  0.00     0.004 C 
ENDBRANCH  24  25
ENDBRANCH  23  24
ENDBRANCH  22  23
ENDBRANCH  21  22
ENDBRANCH  20  21
ENDBRANCH  19  20
ENDBRANCH  18  19
ENDBRANCH  17  18
ENDBRANCH  16  17
ENDBRANCH  15  16
ENDBRANCH   1  15
TORSDOF 22
ENDMDL
MODEL 4
REMARK VINA RESULT:    -2.428      1.561      2.727
REMARK INTER + INTRA:         -10.477
REMARK INTER:                  -5.940
REMARK INTRA:                  -4.537
REMARK UNBOUND:                -4.927
REMARK SMILES CCCCCCCCCCCCCCCCCCCCCCCC(=O)[O-]
REMARK SMILES IDX 13 1 14 2 15 3 16 4 17 5 18 6 19 7 20 8 21 9 22 10 23 11
REMARK SMILES IDX 24 12 25 13 26 14 12 15 11 16 10 17 9 18 8 19 7 20 6 21 5 22
REMARK SMILES IDX 4 23 3 24 2 25 1 26
REMARK H PARENT
REMARK Flexibility Score: inf
ROOT
ATOM      1  C   UNL     1      99.242  64.018 226.793  1.00  0.00     0.000 C 
ENDROOT
BRANCH   1   2
ATOM      2  C   UNL     1      99.151  64.443 228.269  1.00  0.00     0.000 C 
BRANCH   2   3
ATOM      3  C   UNL     1      97.928  63.894 229.031  1.00  0.00     0.000 C 
BRANCH   3   4
ATOM      4  C   UNL     1      98.126  62.517 229.694  1.00  0.00     0.000 C 
BRANCH   4   5
ATOM      5  C   UNL     1      97.879  61.348 228.725  1.00  0.00     0.000 C 
BRANCH   5   6
ATOM      6  C   UNL     1      99.141  60.505 228.467  1.00  0.00     0.000 C 
BRANCH   6   7
ATOM      7  C   UNL     1     100.425  61.023 229.140  1.00  0.00     0.000 C 
BRANCH   7   8
ATOM      8  C   UNL     1     101.563  61.289 228.143  1.00  0.00     0.000 C 
BRANCH   8   9
ATOM      9  C   UNL     1     101.136  60.937 226.710  1.00  0.00     0.000 C 
BRANCH   9  10
ATOM     10  C   UNL     1     102.020  61.615 225.651  1.00  0.00     0.006 C 
BRANCH  10  11
ATOM     11  C   UNL     1     103.029  62.591 226.268  1.00  0.00     0.053 C 
BRANCH  11  12
ATOM     12  C   UNL     1     102.849  63.962 225.696  1.00  0.00     0.041 C 
ATOM     13  O   UNL     1     103.377  64.957 226.259  1.00  0.00    -0.550 OA
ATOM     14  O   UNL     1     102.137  64.136 224.515  1.00  0.00    -0.550 OA
ENDBRANCH  11  12
ENDBRANCH  10  11
ENDBRANCH   9  10
ENDBRANCH   8   9
ENDBRANCH   7   8
ENDBRANCH   6   7
ENDBRANCH   5   6
ENDBRANCH   4   5
ENDBRANCH   3   4
ENDBRANCH   2   3
ENDBRANCH   1   2
BRANCH   1  15
ATOM     15  C   UNL     1      97.872  64.007 226.094  1.00  0.00     0.000 C 
BRANCH  15  16
ATOM     16  C   UNL     1      97.810  64.983 224.908  1.00  0.00     0.000 C 
BRANCH  16  17
ATOM     17  C   UNL     1      96.376  65.440 224.598  1.00  0.00     0.000 C 
BRANCH  17  18
ATOM     18  C   UNL     1      95.499  65.391 225.857  1.00  0.00    -0.000 C 
BRANCH  18  19
ATOM     19  C   UNL     1      95.361  66.762 226.540  1.00  0.00    -0.000 C 
BRANCH  19  20
ATOM     20  C   UNL     1      96.194  66.868 227.830  1.00  0.00    -0.000 C 
BRANCH  20  21
ATOM     21  C   UNL     1      97.463  67.716 227.643  1.00  0.00    -0.000 C 
BRANCH  21  22
ATOM     22  C   UNL     1      97.419  68.573 226.366  1.00  0.00    -0.000 C 
BRANCH  22  23
ATOM     23  C   UNL     1      98.785  68.667 225.661  1.00  0.00    -0.000 C 
BRANCH  23  24
ATOM     24  C   UNL     1      99.907  67.825 226.295  1.00  0.00    -0.000 C 
BRANCH  24  25
ATOM     25  C   UNL     1     100.786  67.117 225.254  1.00  0.00    -0.003 C 
ATOM     26  C   UNL     1     101.775  68.090 224.617  1.00  0.00     0.004 C 
ENDBRANCH  24  25
ENDBRANCH  23  24
ENDBRANCH  22  23
ENDBRANCH  21  22
ENDBRANCH  20  21
ENDBRANCH  19  20
ENDBRANCH  18  19
ENDBRANCH  17  18
ENDBRANCH  16  17
ENDBRANCH  15  16
ENDBRANCH   1  15
TORSDOF 22
ENDMDL
MODEL 5
REMARK VINA RESULT:    -2.421      1.824      5.246
REMARK INTER + INTRA:         -10.461
REMARK INTER:                  -5.629
REMARK INTRA:                  -4.832
REMARK UNBOUND:                -4.927
REMARK SMILES CCCCCCCCCCCCCCCCCCCCCCCC(=O)[O-]
REMARK SMILES IDX 13 1 14 2 15 3 16 4 17 5 18 6 19 7 20 8 21 9 22 10 23 11
REMARK SMILES IDX 24 12 25 13 26 14 12 15 11 16 10 17 9 18 8 19 7 20 6 21 5 22
REMARK SMILES IDX 4 23 3 24 2 25 1 26
REMARK H PARENT
REMARK Flexibility Score: inf
ROOT
ATOM      1  C   UNL     1      98.679  64.212 229.115  1.00  0.00     0.000 C 
ENDROOT
BRANCH   1   2
ATOM      2  C   UNL     1      97.835  65.435 229.515  1.00  0.00     0.000 C 
BRANCH   2   3
ATOM      3  C   UNL     1      98.409  66.797 229.073  1.00  0.00     0.000 C 
BRANCH   3   4
ATOM      4  C   UNL     1      97.422  67.720 228.333  1.00  0.00     0.000 C 
BRANCH   4   5
ATOM      5  C   UNL     1      96.154  66.984 227.864  1.00  0.00     0.000 C 
BRANCH   5   6
ATOM      6  C   UNL     1      96.141  66.721 226.347  1.00  0.00     0.000 C 
BRANCH   6   7
ATOM      7  C   UNL     1      95.911  65.255 225.937  1.00  0.00     0.000 C 
BRANCH   7   8
ATOM      8  C   UNL     1      97.119  64.632 225.223  1.00  0.00     0.000 C 
BRANCH   8   9
ATOM      9  C   UNL     1      98.322  65.588 225.236  1.00  0.00     0.000 C 
BRANCH   9  10
ATOM     10  C   UNL     1      99.661  64.845 225.367  1.00  0.00     0.006 C 
BRANCH  10  11
ATOM     11  C   UNL     1     100.614  65.526 226.357  1.00  0.00     0.053 C 
BRANCH  11  12
ATOM     12  C   UNL     1     101.788  66.110 225.638  1.00  0.00     0.041 C 
ATOM     13  O   UNL     1     102.799  66.494 226.283  1.00  0.00    -0.550 OA
ATOM     14  O   UNL     1     101.785  66.191 224.250  1.00  0.00    -0.550 OA
ENDBRANCH  11  12
ENDBRANCH  10  11
ENDBRANCH   9  10
ENDBRANCH   8   9
ENDBRANCH   7   8
ENDBRANCH   6   7
ENDBRANCH   5   6
ENDBRANCH   4   5
ENDBRANCH   3   4
ENDBRANCH   2   3
ENDBRANCH   1   2
BRANCH   1  15
ATOM     15  C   UNL     1      97.845  63.113 228.435  1.00  0.00     0.000 C 
BRANCH  15  16
ATOM     16  C   UNL     1      98.715  62.110 227.661  1.00  0.00     0.000 C 
BRANCH  16  17
ATOM     17  C   UNL     1      98.672  60.701 228.272  1.00  0.00     0.000 C 
BRANCH  17  18
ATOM     18  C   UNL     1     100.083  60.219 228.641  1.00  0.00    -0.000 C 
BRANCH  18  19
ATOM     19  C   UNL     1     100.709  61.030 229.787  1.00  0.00    -0.000 C 
BRANCH  19  20
ATOM     20  C   UNL     1     102.098  61.587 229.429  1.00  0.00    -0.000 C 
BRANCH  20  21
ATOM     21  C   UNL     1     102.092  63.115 229.256  1.00  0.00    -0.000 C 
BRANCH  21  22
ATOM     22  C   UNL     1     103.204  63.609 228.314  1.00  0.00    -0.000 C 
BRANCH  22  23
ATOM     23  C   UNL     1     103.706  62.516 227.354  1.00  0.00    -0.000 C 
BRANCH  23  24
ATOM     24  C   UNL     1     103.371  62.746 225.869  1.00  0.00    -0.000 C 
BRANCH  24  25
ATOM     25  C   UNL     1     102.030  62.123 225.455  1.00  0.00    -0.003 C 
ATOM     26  C   UNL     1     102.014  60.622 225.726  1.00  0.00     0.004 C 
ENDBRANCH  24  25
ENDBRANCH  23  24
ENDBRANCH  22  23
ENDBRANCH  21  22
ENDBRANCH  20  21
ENDBRANCH  19  20
ENDBRANCH  18  19
ENDBRANCH  17  18
ENDBRANCH  16  17
ENDBRANCH  15  16
ENDBRANCH   1  15
TORSDOF 22
ENDMDL
MODEL 6
REMARK VINA RESULT:    -2.412      8.370     11.438
REMARK INTER + INTRA:         -10.440
REMARK INTER:                  -5.791
REMARK INTRA:                  -4.649
REMARK UNBOUND:                -4.927
REMARK SMILES CCCCCCCCCCCCCCCCCCCCCCCC(=O)[O-]
REMARK SMILES IDX 13 1 14 2 15 3 16 4 17 5 18 6 19 7 20 8 21 9 22 10 23 11
REMARK SMILES IDX 24 12 25 13 26 14 12 15 11 16 10 17 9 18 8 19 7 20 6 21 5 22
REMARK SMILES IDX 4 23 3 24 2 25 1 26
REMARK H PARENT
REMARK Flexibility Score: inf
ROOT
ATOM      1  C   UNL     1      99.604  55.767 223.980  1.00  0.00     0.000 C 
ENDROOT
BRANCH   1   2
ATOM      2  C   UNL     1      99.767  57.220 223.501  1.00  0.00     0.000 C 
BRANCH   2   3
ATOM      3  C   UNL     1      99.926  57.391 221.977  1.00  0.00     0.000 C 
BRANCH   3   4
ATOM      4  C   UNL     1      98.764  58.114 221.269  1.00  0.00     0.000 C 
BRANCH   4   5
ATOM      5  C   UNL     1      98.749  57.874 219.750  1.00  0.00     0.000 C 
BRANCH   5   6
ATOM      6  C   UNL     1      98.260  56.464 219.370  1.00  0.00     0.000 C 
BRANCH   6   7
ATOM      7  C   UNL     1      99.365  55.472 218.969  1.00  0.00     0.000 C 
BRANCH   7   8
ATOM      8  C   UNL     1     100.575  56.150 218.309  1.00  0.00     0.000 C 
BRANCH   8   9
ATOM      9  C   UNL     1     101.869  55.837 219.076  1.00  0.00     0.000 C 
BRANCH   9  10
ATOM     10  C   UNL     1     102.622  57.108 219.500  1.00  0.00     0.006 C 
BRANCH  10  11
ATOM     11  C   UNL     1     102.135  58.355 218.750  1.00  0.00     0.053 C 
BRANCH  11  12
ATOM     12  C   UNL     1     102.495  59.595 219.505  1.00  0.00     0.041 C 
ATOM     13  O   UNL     1     101.592  60.368 219.919  1.00  0.00    -0.550 OA
ATOM     14  O   UNL     1     103.827  59.875 219.790  1.00  0.00    -0.550 OA
ENDBRANCH  11  12
ENDBRANCH  10  11
ENDBRANCH   9  10
ENDBRANCH   8   9
ENDBRANCH   7   8
ENDBRANCH   6   7
ENDBRANCH   5   6
ENDBRANCH   4   5
ENDBRANCH   3   4
ENDBRANCH   2   3
ENDBRANCH   1   2
BRANCH   1  15
ATOM     15  C   UNL     1      99.068  54.837 222.878  1.00  0.00     0.000 C 
BRANCH  15  16
ATOM     16  C   UNL     1      97.595  54.457 223.096  1.00  0.00     0.000 C 
BRANCH  16  17
ATOM     17  C   UNL     1      96.629  55.413 222.378  1.00  0.00     0.000 C 
BRANCH  17  18
ATOM     18  C   UNL     1      95.677  56.086 223.378  1.00  0.00    -0.000 C 
BRANCH  18  19
ATOM     19  C   UNL     1      96.115  57.512 223.749  1.00  0.00    -0.000 C 
BRANCH  19  20
ATOM     20  C   UNL     1      95.923  57.821 225.244  1.00  0.00    -0.000 C 
BRANCH  20  21
ATOM     21  C   UNL     1      97.255  57.886 226.008  1.00  0.00    -0.000 C 
BRANCH  21  22
ATOM     22  C   UNL     1      97.425  56.728 227.006  1.00  0.00    -0.000 C 
BRANCH  22  23
ATOM     23  C   UNL     1      96.234  55.751 226.998  1.00  0.00    -0.000 C 
BRANCH  23  24
ATOM     24  C   UNL     1      96.588  54.292 226.660  1.00  0.00    -0.000 C 
BRANCH  24  25
ATOM     25  C   UNL     1      98.081  53.981 226.842  1.00  0.00    -0.003 C 
ATOM     26  C   UNL     1      98.444  52.640 226.210  1.00  0.00     0.004 C 
ENDBRANCH  24  25
ENDBRANCH  23  24
ENDBRANCH  22  23
ENDBRANCH  21  22
ENDBRANCH  20  21
ENDBRANCH  19  20
ENDBRANCH  18  19
ENDBRANCH  17  18
ENDBRANCH  16  17
ENDBRANCH  15  16
ENDBRANCH   1  15
TORSDOF 22
ENDMDL
MODEL 7
REMARK VINA RESULT:    -2.364      2.919      5.790
REMARK INTER + INTRA:         -10.330
REMARK INTER:                  -5.974
REMARK INTRA:                  -4.356
REMARK UNBOUND:                -4.927
REMARK SMILES CCCCCCCCCCCCCCCCCCCCCCCC(=O)[O-]
REMARK SMILES IDX 13 1 14 2 15 3 16 4 17 5 18 6 19 7 20 8 21 9 22 10 23 11
REMARK SMILES IDX 24 12 25 13 26 14 12 15 11 16 10 17 9 18 8 19 7 20 6 21 5 22
REMARK SMILES IDX 4 23 3 24 2 25 1 26
REMARK H PARENT
REMARK Flexibility Score: inf
ROOT
ATOM      1  C   UNL     1      95.008  67.696 225.887  1.00  0.00     0.000 C 
ENDROOT
BRANCH   1   2
ATOM      2  C   UNL     1      94.875  67.922 224.371  1.00  0.00     0.000 C 
BRANCH   2   3
ATOM      3  C   UNL     1      95.809  67.058 223.499  1.00  0.00     0.000 C 
BRANCH   3   4
ATOM      4  C   UNL     1      96.021  65.613 223.992  1.00  0.00     0.000 C 
BRANCH   4   5
ATOM      5  C   UNL     1      97.475  65.334 224.410  1.00  0.00     0.000 C 
BRANCH   5   6
ATOM      6  C   UNL     1      97.582  64.341 225.582  1.00  0.00     0.000 C 
BRANCH   6   7
ATOM      7  C   UNL     1      96.682  64.654 226.791  1.00  0.00     0.000 C 
BRANCH   7   8
ATOM      8  C   UNL     1      97.258  64.144 228.120  1.00  0.00     0.000 C 
BRANCH   8   9
ATOM      9  C   UNL     1      98.102  65.228 228.808  1.00  0.00     0.000 C 
BRANCH   9  10
ATOM     10  C   UNL     1      98.417  64.885 230.273  1.00  0.00     0.006 C 
BRANCH  10  11
ATOM     11  C   UNL     1      97.152  64.601 231.093  1.00  0.00     0.053 C 
BRANCH  11  12
ATOM     12  C   UNL     1      97.351  63.402 231.965  1.00  0.00     0.041 C 
ATOM     13  O   UNL     1      96.776  63.331 233.083  1.00  0.00    -0.550 OA
ATOM     14  O   UNL     1      98.137  62.343 231.526  1.00  0.00    -0.550 OA
ENDBRANCH  11  12
ENDBRANCH  10  11
ENDBRANCH   9  10
ENDBRANCH   8   9
ENDBRANCH   7   8
ENDBRANCH   6   7
ENDBRANCH   5   6
ENDBRANCH   4   5
ENDBRANCH   3   4
ENDBRANCH   2   3
ENDBRANCH   1   2
BRANCH   1  15
ATOM     15  C   UNL     1      95.856  68.779 226.576  1.00  0.00     0.000 C 
BRANCH  15  16
ATOM     16  C   UNL     1      97.330  68.366 226.720  1.00  0.00     0.000 C 
BRANCH  16  17
ATOM     17  C   UNL     1      98.219  68.965 225.619  1.00  0.00     0.000 C 
BRANCH  17  18
ATOM     18  C   UNL     1      99.476  68.110 225.401  1.00  0.00    -0.000 C 
BRANCH  18  19
ATOM     19  C   UNL     1      99.853  67.281 226.639  1.00  0.00    -0.000 C 
BRANCH  19  20
ATOM     20  C   UNL     1     101.004  66.297 226.365  1.00  0.00    -0.000 C 
BRANCH  20  21
ATOM     21  C   UNL     1     101.173  65.991 224.867  1.00  0.00    -0.000 C 
BRANCH  21  22
ATOM     22  C   UNL     1     101.187  64.482 224.568  1.00  0.00    -0.000 C 
BRANCH  22  23
ATOM     23  C   UNL     1     102.218  63.713 225.414  1.00  0.00    -0.000 C 
BRANCH  23  24
ATOM     24  C   UNL     1     101.691  62.427 226.076  1.00  0.00    -0.000 C 
BRANCH  24  25
ATOM     25  C   UNL     1     100.493  62.679 227.003  1.00  0.00    -0.003 C 
ATOM     26  C   UNL     1     100.930  62.724 228.465  1.00  0.00     0.004 C 
ENDBRANCH  24  25
ENDBRANCH  23  24
ENDBRANCH  22  23
ENDBRANCH  21  22
ENDBRANCH  20  21
ENDBRANCH  19  20
ENDBRANCH  18  19
ENDBRANCH  17  18
ENDBRANCH  16  17
ENDBRANCH  15  16
ENDBRANCH   1  15
TORSDOF 22
ENDMDL
MODEL 8
REMARK VINA RESULT:    -2.339      2.737      4.953
REMARK INTER + INTRA:         -10.274
REMARK INTER:                  -5.460
REMARK INTRA:                  -4.814
REMARK UNBOUND:                -4.927
REMARK SMILES CCCCCCCCCCCCCCCCCCCCCCCC(=O)[O-]
REMARK SMILES IDX 13 1 14 2 15 3 16 4 17 5 18 6 19 7 20 8 21 9 22 10 23 11
REMARK SMILES IDX 24 12 25 13 26 14 12 15 11 16 10 17 9 18 8 19 7 20 6 21 5 22
REMARK SMILES IDX 4 23 3 24 2 25 1 26
REMARK H PARENT
REMARK Flexibility Score: inf
ROOT
ATOM      1  C   UNL     1      97.760  64.212 226.320  1.00  0.00     0.000 C 
ENDROOT
BRANCH   1   2
ATOM      2  C   UNL     1      99.277  63.977 226.221  1.00  0.00     0.000 C 
BRANCH   2   3
ATOM      3  C   UNL     1      99.956  64.607 224.988  1.00  0.00     0.000 C 
BRANCH   3   4
ATOM      4  C   UNL     1     101.497  64.577 224.996  1.00  0.00     0.000 C 
BRANCH   4   5
ATOM      5  C   UNL     1     102.073  63.826 226.209  1.00  0.00     0.000 C 
BRANCH   5   6
ATOM      6  C   UNL     1     102.454  62.369 225.886  1.00  0.00     0.000 C 
BRANCH   6   7
ATOM      7  C   UNL     1     102.261  61.369 227.041  1.00  0.00     0.000 C 
BRANCH   7   8
ATOM      8  C   UNL     1     100.905  60.651 226.997  1.00  0.00     0.000 C 
BRANCH   8   9
ATOM      9  C   UNL     1     100.087  60.937 228.265  1.00  0.00     0.000 C 
BRANCH   9  10
ATOM     10  C   UNL     1      98.578  60.746 228.046  1.00  0.00     0.006 C 
BRANCH  10  11
ATOM     11  C   UNL     1      97.736  61.672 228.934  1.00  0.00     0.053 C 
BRANCH  11  12
ATOM     12  C   UNL     1      97.712  61.167 230.342  1.00  0.00     0.041 C 
ATOM     13  O   UNL     1      98.288  61.814 231.256  1.00  0.00    -0.550 OA
ATOM     14  O   UNL     1      97.015  60.006 230.654  1.00  0.00    -0.550 OA
ENDBRANCH  11  12
ENDBRANCH  10  11
ENDBRANCH   9  10
ENDBRANCH   8   9
ENDBRANCH   7   8
ENDBRANCH   6   7
ENDBRANCH   5   6
ENDBRANCH   4   5
ENDBRANCH   3   4
ENDBRANCH   2   3
ENDBRANCH   1   2
BRANCH   1  15
ATOM     15  C   UNL     1      97.147  64.687 224.991  1.00  0.00     0.000 C 
BRANCH  15  16
ATOM     16  C   UNL     1      96.148  65.840 225.185  1.00  0.00     0.000 C 
BRANCH  16  17
ATOM     17  C   UNL     1      96.271  66.497 226.568  1.00  0.00     0.000 C 
BRANCH  17  18
ATOM     18  C   UNL     1      96.743  67.954 226.444  1.00  0.00    -0.000 C 
BRANCH  18  19
ATOM     19  C   UNL     1      97.565  68.206 225.170  1.00  0.00    -0.000 C 
BRANCH  19  20
ATOM     20  C   UNL     1      99.077  68.026 225.395  1.00  0.00    -0.000 C 
BRANCH  20  21
ATOM     21  C   UNL     1      99.496  68.327 226.843  1.00  0.00    -0.000 C 
BRANCH  21  22
ATOM     22  C   UNL     1     100.830  67.663 227.225  1.00  0.00    -0.000 C 
BRANCH  22  23
ATOM     23  C   UNL     1     100.666  66.544 228.270  1.00  0.00    -0.000 C 
BRANCH  23  24
ATOM     24  C   UNL     1      99.287  66.487 228.953  1.00  0.00    -0.000 C 
BRANCH  24  25
ATOM     25  C   UNL     1      99.069  65.194 229.753  1.00  0.00    -0.003 C 
ATOM     26  C   UNL     1     100.330  64.335 229.764  1.00  0.00     0.004 C 
ENDBRANCH  24  25
ENDBRANCH  23  24
ENDBRANCH  22  23
ENDBRANCH  21  22
ENDBRANCH  20  21
ENDBRANCH  19  20
ENDBRANCH  18  19
ENDBRANCH  17  18
ENDBRANCH  16  17
ENDBRANCH  15  16
ENDBRANCH   1  15
TORSDOF 22
ENDMDL
MODEL 9
REMARK VINA RESULT:    -2.323      3.032      6.333
REMARK INTER + INTRA:         -10.237
REMARK INTER:                  -6.095
REMARK INTRA:                  -4.143
REMARK UNBOUND:                -4.927
REMARK SMILES CCCCCCCCCCCCCCCCCCCCCCCC(=O)[O-]
REMARK SMILES IDX 13 1 14 2 15 3 16 4 17 5 18 6 19 7 20 8 21 9 22 10 23 11
REMARK SMILES IDX 24 12 25 13 26 14 12 15 11 16 10 17 9 18 8 19 7 20 6 21 5 22
REMARK SMILES IDX 4 23 3 24 2 25 1 26
REMARK H PARENT
REMARK Flexibility Score: inf
ROOT
ATOM      1  C   UNL     1      98.577  64.604 225.378  1.00  0.00     0.000 C 
ENDROOT
BRANCH   1   2
ATOM      2  C   UNL     1      97.044  64.627 225.258  1.00  0.00     0.000 C 
BRANCH   2   3
ATOM      3  C   UNL     1      96.498  65.323 223.995  1.00  0.00     0.000 C 
BRANCH   3   4
ATOM      4  C   UNL     1      95.304  66.269 224.227  1.00  0.00     0.000 C 
BRANCH   4   5
ATOM      5  C   UNL     1      95.028  66.527 225.718  1.00  0.00     0.000 C 
BRANCH   5   6
ATOM      6  C   UNL     1      95.776  67.758 226.262  1.00  0.00     0.000 C 
BRANCH   6   7
ATOM      7  C   UNL     1      95.813  67.877 227.796  1.00  0.00     0.000 C 
BRANCH   7   8
ATOM      8  C   UNL     1      97.091  67.293 228.416  1.00  0.00     0.000 C 
BRANCH   8   9
ATOM      9  C   UNL     1      96.862  65.852 228.897  1.00  0.00     0.000 C 
BRANCH   9  10
ATOM     10  C   UNL     1      96.057  65.790 230.205  1.00  0.00     0.006 C 
BRANCH  10  11
ATOM     11  C   UNL     1      96.857  66.303 231.409  1.00  0.00     0.053 C 
BRANCH  11  12
ATOM     12  C   UNL     1      97.120  65.193 232.376  1.00  0.00     0.041 C 
ATOM     13  O   UNL     1      97.598  65.444 233.513  1.00  0.00    -0.550 OA
ATOM     14  O   UNL     1      96.797  63.884 232.038  1.00  0.00    -0.550 OA
ENDBRANCH  11  12
ENDBRANCH  10  11
ENDBRANCH   9  10
ENDBRANCH   8   9
ENDBRANCH   7   8
ENDBRANCH   6   7
ENDBRANCH   5   6
ENDBRANCH   4   5
ENDBRANCH   3   4
ENDBRANCH   2   3
ENDBRANCH   1   2
BRANCH   1  15
ATOM     15  C   UNL     1      99.177  66.007 225.580  1.00  0.00     0.000 C 
BRANCH  15  16
ATOM     16  C   UNL     1     100.703  66.023 225.404  1.00  0.00     0.000 C 
BRANCH  16  17
ATOM     17  C   UNL     1     101.216  64.817 224.602  1.00  0.00     0.000 C 
BRANCH  17  18
ATOM     18  C   UNL     1     102.214  63.992 225.428  1.00  0.00    -0.000 C 
BRANCH  18  19
ATOM     19  C   UNL     1     101.717  62.565 225.710  1.00  0.00    -0.000 C 
BRANCH  19  20
ATOM     20  C   UNL     1     101.623  62.256 227.215  1.00  0.00    -0.000 C 
BRANCH  20  21
ATOM     21  C   UNL     1     100.260  62.645 227.810  1.00  0.00    -0.000 C 
BRANCH  21  22
ATOM     22  C   UNL     1     100.327  63.927 228.657  1.00  0.00    -0.000 C 
BRANCH  22  23
ATOM     23  C   UNL     1     101.769  64.340 229.007  1.00  0.00    -0.000 C 
BRANCH  23  24
ATOM     24  C   UNL     1     101.966  65.838 229.304  1.00  0.00    -0.000 C 
BRANCH  24  25
ATOM     25  C   UNL     1     100.696  66.667 229.064  1.00  0.00    -0.003 C 
ATOM     26  C   UNL     1     100.256  67.381 230.339  1.00  0.00     0.004 C 
ENDBRANCH  24  25
ENDBRANCH  23  24
ENDBRANCH  22  23
ENDBRANCH  21  22
ENDBRANCH  20  21
ENDBRANCH  19  20
ENDBRANCH  18  19
ENDBRANCH  17  18
ENDBRANCH  16  17
ENDBRANCH  15  16
ENDBRANCH   1  15
TORSDOF 22
ENDMDL
