MODEL 1
REMARK VINA RESULT:    -5.008      0.000      0.000
REMARK INTER + INTRA:          -7.730
REMARK INTER:                  -6.765
REMARK INTRA:                  -0.965
REMARK UNBOUND:                -0.965
REMARK SMILES CC(=O)CCC=C(C)CCC=C(C)C
REMARK SMILES IDX 7 1 6 2 8 3 9 4 10 5 11 6 13 7 12 8 14 9 5 10 4 11 2 12 3 13
REMARK SMILES IDX 1 14
REMARK H PARENT
REMARK Flexibility Score: inf
ROOT
ATOM      1  C   UNL     1     -42.288  17.716  14.789  1.00  0.00    -0.077 C 
ATOM      2  C   UNL     1     -41.088  17.133  15.006  1.00  0.00    -0.028 C 
ATOM      3  C   UNL     1     -42.465  18.548  13.545  1.00  0.00     0.039 C 
ENDROOT
BRANCH   1   4
ATOM      4  C   UNL     1     -43.464  17.552  15.736  1.00  0.00     0.034 C 
BRANCH   4   5
ATOM      5  C   UNL     1     -43.767  18.847  16.508  1.00  0.00     0.032 C 
BRANCH   5   6
ATOM      6  C   UNL     1     -42.526  19.426  17.144  1.00  0.00    -0.028 C 
ATOM      7  C   UNL     1     -40.711  19.638  18.785  1.00  0.00     0.039 C 
ATOM      8  C   UNL     1     -41.983  18.991  18.302  1.00  0.00    -0.080 C 
ATOM      9  C   UNL     1     -42.621  17.895  19.124  1.00  0.00     0.039 C 
ENDBRANCH   5   6
ENDBRANCH   4   5
ENDBRANCH   1   4
BRANCH   2  10
ATOM     10  C   UNL     1     -40.763  16.302  16.227  1.00  0.00     0.035 C 
BRANCH  10  11
ATOM     11  C   UNL     1     -39.316  15.795  16.213  1.00  0.00     0.079 C 
BRANCH  11  12
ATOM     12  C   UNL     1     -39.184  14.497  15.458  1.00  0.00     0.130 C 
ATOM     13  O   UNL     1     -38.238  14.330  14.704  1.00  0.00    -0.300 OA
ATOM     14  C   UNL     1     -40.181  13.392  15.640  1.00  0.00     0.087 C 
ENDBRANCH  11  12
ENDBRANCH  10  11
ENDBRANCH   2  10
TORSDOF 6
ENDMDL
MODEL 2
REMARK VINA RESULT:    -4.976      1.291      1.749
REMARK INTER + INTRA:          -7.686
REMARK INTER:                  -7.099
REMARK INTRA:                  -0.587
REMARK UNBOUND:                -0.965
REMARK SMILES CC(=O)CCC=C(C)CCC=C(C)C
REMARK SMILES IDX 7 1 6 2 8 3 9 4 10 5 11 6 13 7 12 8 14 9 5 10 4 11 2 12 3 13
REMARK SMILES IDX 1 14
REMARK H PARENT
REMARK Flexibility Score: inf
ROOT
ATOM      1  C   UNL     1     -41.112  17.538  13.819  1.00  0.00    -0.077 C 
ATOM      2  C   UNL     1     -40.154  16.618  14.073  1.00  0.00    -0.028 C 
ATOM      3  C   UNL     1     -41.434  17.858  12.382  1.00  0.00     0.039 C 
ENDROOT
BRANCH   1   4
ATOM      4  C   UNL     1     -41.886  18.243  14.920  1.00  0.00     0.034 C 
BRANCH   4   5
ATOM      5  C   UNL     1     -43.075  17.406  15.416  1.00  0.00     0.032 C 
BRANCH   5   6
ATOM      6  C   UNL     1     -43.827  18.098  16.528  1.00  0.00    -0.028 C 
ATOM      7  C   UNL     1     -44.243  18.940  18.797  1.00  0.00     0.039 C 
ATOM      8  C   UNL     1     -43.406  18.168  17.810  1.00  0.00    -0.080 C 
ATOM      9  C   UNL     1     -42.142  17.485  18.278  1.00  0.00     0.039 C 
ENDBRANCH   5   6
ENDBRANCH   4   5
ENDBRANCH   1   4
BRANCH   2  10
ATOM     10  C   UNL     1     -39.709  16.227  15.465  1.00  0.00     0.035 C 
BRANCH  10  11
ATOM     11  C   UNL     1     -40.545  15.075  16.037  1.00  0.00     0.079 C 
BRANCH  11  12
ATOM     12  C   UNL     1     -39.912  13.734  15.765  1.00  0.00     0.130 C 
ATOM     13  O   UNL     1     -38.778  13.682  15.314  1.00  0.00    -0.300 OA
ATOM     14  C   UNL     1     -40.642  12.460  16.067  1.00  0.00     0.087 C 
ENDBRANCH  11  12
ENDBRANCH  10  11
ENDBRANCH   2  10
TORSDOF 6
ENDMDL
MODEL 3
REMARK VINA RESULT:    -4.945      1.786      4.177
REMARK INTER + INTRA:          -7.645
REMARK INTER:                  -6.384
REMARK INTRA:                  -1.261
REMARK UNBOUND:                -0.965
REMARK SMILES CC(=O)CCC=C(C)CCC=C(C)C
REMARK SMILES IDX 7 1 6 2 8 3 9 4 10 5 11 6 13 7 12 8 14 9 5 10 4 11 2 12 3 13
REMARK SMILES IDX 1 14
REMARK H PARENT
REMARK Flexibility Score: inf
ROOT
ATOM      1  C   UNL     1     -42.598  17.924  15.556  1.00  0.00    -0.077 C 
ATOM      2  C   UNL     1     -42.483  18.127  14.224  1.00  0.00    -0.028 C 
ATOM      3  C   UNL     1     -43.980  17.839  16.151  1.00  0.00     0.039 C 
ENDROOT
BRANCH   1   4
ATOM      4  C   UNL     1     -41.394  17.760  16.469  1.00  0.00     0.034 C 
BRANCH   4   5
ATOM      5  C   UNL     1     -40.965  16.290  16.597  1.00  0.00     0.032 C 
BRANCH   5   6
ATOM      6  C   UNL     1     -39.484  16.114  16.360  1.00  0.00    -0.028 C 
ATOM      7  C   UNL     1     -37.430  15.010  15.586  1.00  0.00     0.039 C 
ATOM      8  C   UNL     1     -38.922  15.017  15.806  1.00  0.00    -0.080 C 
ATOM      9  C   UNL     1     -39.738  13.806  15.420  1.00  0.00     0.039 C 
ENDBRANCH   5   6
ENDBRANCH   4   5
ENDBRANCH   1   4
BRANCH   2  10
ATOM     10  C   UNL     1     -41.160  18.266  13.504  1.00  0.00     0.035 C 
BRANCH  10  11
ATOM     11  C   UNL     1     -40.942  17.149  12.476  1.00  0.00     0.079 C 
BRANCH  11  12
ATOM     12  C   UNL     1     -39.550  16.574  12.560  1.00  0.00     0.130 C 
ATOM     13  O   UNL     1     -39.364  15.400  12.282  1.00  0.00    -0.300 OA
ATOM     14  C   UNL     1     -38.384  17.430  12.952  1.00  0.00     0.087 C 
ENDBRANCH  11  12
ENDBRANCH  10  11
ENDBRANCH   2  10
TORSDOF 6
ENDMDL
MODEL 4
REMARK VINA RESULT:    -4.802      2.650      4.970
REMARK INTER + INTRA:          -7.451
REMARK INTER:                  -6.535
REMARK INTRA:                  -0.917
REMARK UNBOUND:                -0.965
REMARK SMILES CC(=O)CCC=C(C)CCC=C(C)C
REMARK SMILES IDX 7 1 6 2 8 3 9 4 10 5 11 6 13 7 12 8 14 9 5 10 4 11 2 12 3 13
REMARK SMILES IDX 1 14
REMARK H PARENT
REMARK Flexibility Score: inf
ROOT
ATOM      1  C   UNL     1     -41.420  17.131  14.986  1.00  0.00    -0.077 C 
ATOM      2  C   UNL     1     -40.848  16.164  15.738  1.00  0.00    -0.028 C 
ATOM      3  C   UNL     1     -42.838  17.536  15.298  1.00  0.00     0.039 C 
ENDROOT
BRANCH   1   4
ATOM      4  C   UNL     1     -40.686  17.835  13.857  1.00  0.00     0.034 C 
BRANCH   4   5
ATOM      5  C   UNL     1     -40.975  17.189  12.492  1.00  0.00     0.032 C 
BRANCH   5   6
ATOM      6  C   UNL     1     -39.725  17.061  11.655  1.00  0.00    -0.028 C 
ATOM      7  C   UNL     1     -38.062  15.955  10.225  1.00  0.00     0.039 C 
ATOM      8  C   UNL     1     -39.304  15.914  11.077  1.00  0.00    -0.080 C 
ATOM      9  C   UNL     1     -40.030  14.603  11.274  1.00  0.00     0.039 C 
ENDBRANCH   5   6
ENDBRANCH   4   5
ENDBRANCH   1   4
BRANCH   2  10
ATOM     10  C   UNL     1     -39.447  15.640  15.514  1.00  0.00     0.035 C 
BRANCH  10  11
ATOM     11  C   UNL     1     -39.443  14.310  14.749  1.00  0.00     0.079 C 
BRANCH  11  12
ATOM     12  C   UNL     1     -39.549  13.128  15.680  1.00  0.00     0.130 C 
ATOM     13  O   UNL     1     -38.533  12.614  16.121  1.00  0.00    -0.300 OA
ATOM     14  C   UNL     1     -40.885  12.591  16.097  1.00  0.00     0.087 C 
ENDBRANCH  11  12
ENDBRANCH  10  11
ENDBRANCH   2  10
TORSDOF 6
ENDMDL
MODEL 5
REMARK VINA RESULT:    -4.736      1.895      4.124
REMARK INTER + INTRA:          -7.363
REMARK INTER:                  -6.114
REMARK INTRA:                  -1.249
REMARK UNBOUND:                -0.965
REMARK SMILES CC(=O)CCC=C(C)CCC=C(C)C
REMARK SMILES IDX 7 1 6 2 8 3 9 4 10 5 11 6 13 7 12 8 14 9 5 10 4 11 2 12 3 13
REMARK SMILES IDX 1 14
REMARK H PARENT
REMARK Flexibility Score: inf
ROOT
ATOM      1  C   UNL     1     -42.128  18.311  15.780  1.00  0.00    -0.077 C 
ATOM      2  C   UNL     1     -41.423  17.504  16.604  1.00  0.00    -0.028 C 
ATOM      3  C   UNL     1     -42.553  19.662  16.294  1.00  0.00     0.039 C 
ENDROOT
BRANCH   1   4
ATOM      4  C   UNL     1     -42.490  17.919  14.358  1.00  0.00     0.034 C 
BRANCH   4   5
ATOM      5  C   UNL     1     -41.389  18.304  13.356  1.00  0.00     0.032 C 
BRANCH   5   6
ATOM      6  C   UNL     1     -40.996  17.140  12.477  1.00  0.00    -0.028 C 
ATOM      7  C   UNL     1     -39.492  15.531  11.390  1.00  0.00     0.039 C 
ATOM      8  C   UNL     1     -39.723  16.745  12.253  1.00  0.00    -0.080 C 
ATOM      9  C   UNL     1     -38.540  17.489  12.825  1.00  0.00     0.039 C 
ENDBRANCH   5   6
ENDBRANCH   4   5
ENDBRANCH   1   4
BRANCH   2  10
ATOM     10  C   UNL     1     -40.963  16.112  16.230  1.00  0.00     0.035 C 
BRANCH  10  11
ATOM     11  C   UNL     1     -39.445  16.042  16.020  1.00  0.00     0.079 C 
BRANCH  11  12
ATOM     12  C   UNL     1     -39.025  14.736  15.395  1.00  0.00     0.130 C 
ATOM     13  O   UNL     1     -37.913  14.632  14.901  1.00  0.00    -0.300 OA
ATOM     14  C   UNL     1     -39.942  13.550  15.396  1.00  0.00     0.087 C 
ENDBRANCH  11  12
ENDBRANCH  10  11
ENDBRANCH   2  10
TORSDOF 6
ENDMDL
MODEL 6
REMARK VINA RESULT:    -4.705      1.293      3.706
REMARK INTER + INTRA:          -7.321
REMARK INTER:                  -6.485
REMARK INTRA:                  -0.836
REMARK UNBOUND:                -0.965
REMARK SMILES CC(=O)CCC=C(C)CCC=C(C)C
REMARK SMILES IDX 7 1 6 2 8 3 9 4 10 5 11 6 13 7 12 8 14 9 5 10 4 11 2 12 3 13
REMARK SMILES IDX 1 14
REMARK H PARENT
REMARK Flexibility Score: inf
ROOT
ATOM      1  C   UNL     1     -42.075  17.817  17.706  1.00  0.00    -0.077 C 
ATOM      2  C   UNL     1     -41.118  16.867  17.807  1.00  0.00    -0.028 C 
ATOM      3  C   UNL     1     -43.106  17.914  18.801  1.00  0.00     0.039 C 
ENDROOT
BRANCH   1   4
ATOM      4  C   UNL     1     -42.139  18.798  16.548  1.00  0.00     0.034 C 
BRANCH   4   5
ATOM      5  C   UNL     1     -43.114  18.334  15.454  1.00  0.00     0.032 C 
BRANCH   5   6
ATOM      6  C   UNL     1     -42.392  17.698  14.290  1.00  0.00    -0.028 C 
ATOM      7  C   UNL     1     -41.257  17.591  12.114  1.00  0.00     0.039 C 
ATOM      8  C   UNL     1     -42.018  18.353  13.169  1.00  0.00    -0.080 C 
ATOM      9  C   UNL     1     -42.353  19.808  12.942  1.00  0.00     0.039 C 
ENDBRANCH   5   6
ENDBRANCH   4   5
ENDBRANCH   1   4
BRANCH   2  10
ATOM     10  C   UNL     1     -40.045  16.638  16.767  1.00  0.00     0.035 C 
BRANCH  10  11
ATOM     11  C   UNL     1     -40.272  15.342  15.978  1.00  0.00     0.079 C 
BRANCH  11  12
ATOM     12  C   UNL     1     -39.089  15.002  15.107  1.00  0.00     0.130 C 
ATOM     13  O   UNL     1     -39.249  14.834  13.908  1.00  0.00    -0.300 OA
ATOM     14  C   UNL     1     -37.710  14.897  15.685  1.00  0.00     0.087 C 
ENDBRANCH  11  12
ENDBRANCH  10  11
ENDBRANCH   2  10
TORSDOF 6
ENDMDL
MODEL 7
REMARK VINA RESULT:    -4.672      2.940      4.440
REMARK INTER + INTRA:          -7.276
REMARK INTER:                  -6.659
REMARK INTRA:                  -0.617
REMARK UNBOUND:                -0.965
REMARK SMILES CC(=O)CCC=C(C)CCC=C(C)C
REMARK SMILES IDX 7 1 6 2 8 3 9 4 10 5 11 6 13 7 12 8 14 9 5 10 4 11 2 12 3 13
REMARK SMILES IDX 1 14
REMARK H PARENT
REMARK Flexibility Score: inf
ROOT
ATOM      1  C   UNL     1     -39.604  14.669  14.936  1.00  0.00    -0.077 C 
ATOM      2  C   UNL     1     -39.781  14.690  13.596  1.00  0.00    -0.028 C 
ATOM      3  C   UNL     1     -39.975  13.417  15.688  1.00  0.00     0.039 C 
ENDROOT
BRANCH   1   4
ATOM      4  C   UNL     1     -39.031  15.846  15.707  1.00  0.00     0.034 C 
BRANCH   4   5
ATOM      5  C   UNL     1     -40.029  16.403  16.734  1.00  0.00     0.032 C 
BRANCH   5   6
ATOM      6  C   UNL     1     -41.305  16.877  16.079  1.00  0.00    -0.028 C 
ATOM      7  C   UNL     1     -43.505  17.959  15.926  1.00  0.00     0.039 C 
ATOM      8  C   UNL     1     -42.314  17.499  16.727  1.00  0.00    -0.080 C 
ATOM      9  C   UNL     1     -42.288  17.726  18.221  1.00  0.00     0.039 C 
ENDBRANCH   5   6
ENDBRANCH   4   5
ENDBRANCH   1   4
BRANCH   2  10
ATOM     10  C   UNL     1     -39.483  15.890  12.725  1.00  0.00     0.035 C 
BRANCH  10  11
ATOM     11  C   UNL     1     -39.853  15.645  11.256  1.00  0.00     0.079 C 
BRANCH  11  12
ATOM     12  C   UNL     1     -38.630  15.475  10.391  1.00  0.00     0.130 C 
ATOM     13  O   UNL     1     -38.005  14.427  10.427  1.00  0.00    -0.300 OA
ATOM     14  C   UNL     1     -38.185  16.564   9.462  1.00  0.00     0.087 C 
ENDBRANCH  11  12
ENDBRANCH  10  11
ENDBRANCH   2  10
TORSDOF 6
ENDMDL
MODEL 8
REMARK VINA RESULT:    -4.622      1.411      2.002
REMARK INTER + INTRA:          -7.209
REMARK INTER:                  -6.370
REMARK INTRA:                  -0.839
REMARK UNBOUND:                -0.965
REMARK SMILES CC(=O)CCC=C(C)CCC=C(C)C
REMARK SMILES IDX 7 1 6 2 8 3 9 4 10 5 11 6 13 7 12 8 14 9 5 10 4 11 2 12 3 13
REMARK SMILES IDX 1 14
REMARK H PARENT
REMARK Flexibility Score: inf
ROOT
ATOM      1  C   UNL     1     -41.645  18.289  13.607  1.00  0.00    -0.077 C 
ATOM      2  C   UNL     1     -40.582  17.811  12.923  1.00  0.00    -0.028 C 
ATOM      3  C   UNL     1     -42.141  19.675  13.282  1.00  0.00     0.039 C 
ENDROOT
BRANCH   1   4
ATOM      4  C   UNL     1     -42.368  17.481  14.671  1.00  0.00     0.034 C 
BRANCH   4   5
ATOM      5  C   UNL     1     -41.949  17.894  16.091  1.00  0.00     0.032 C 
BRANCH   5   6
ATOM      6  C   UNL     1     -43.141  18.064  17.003  1.00  0.00    -0.028 C 
ATOM      7  C   UNL     1     -44.375  18.144  19.125  1.00  0.00     0.039 C 
ATOM      8  C   UNL     1     -43.113  17.888  18.342  1.00  0.00    -0.080 C 
ATOM      9  C   UNL     1     -41.868  17.429  19.064  1.00  0.00     0.039 C 
ENDBRANCH   5   6
ENDBRANCH   4   5
ENDBRANCH   1   4
BRANCH   2  10
ATOM     10  C   UNL     1     -39.962  16.454  13.169  1.00  0.00     0.035 C 
BRANCH  10  11
ATOM     11  C   UNL     1     -38.765  16.530  14.125  1.00  0.00     0.079 C 
BRANCH  11  12
ATOM     12  C   UNL     1     -38.727  15.356  15.071  1.00  0.00     0.130 C 
ATOM     13  O   UNL     1     -37.653  14.868  15.386  1.00  0.00    -0.300 OA
ATOM     14  C   UNL     1     -39.988  14.795  15.656  1.00  0.00     0.087 C 
ENDBRANCH  11  12
ENDBRANCH  10  11
ENDBRANCH   2  10
TORSDOF 6
ENDMDL
MODEL 9
REMARK VINA RESULT:    -4.621      3.714      4.761
REMARK INTER + INTRA:          -7.207
REMARK INTER:                  -6.217
REMARK INTRA:                  -0.990
REMARK UNBOUND:                -0.965
REMARK SMILES CC(=O)CCC=C(C)CCC=C(C)C
REMARK SMILES IDX 7 1 6 2 8 3 9 4 10 5 11 6 13 7 12 8 14 9 5 10 4 11 2 12 3 13
REMARK SMILES IDX 1 14
REMARK H PARENT
REMARK Flexibility Score: inf
ROOT
ATOM      1  C   UNL     1     -40.035  17.395  12.346  1.00  0.00    -0.077 C 
ATOM      2  C   UNL     1     -39.999  16.783  11.141  1.00  0.00    -0.028 C 
ATOM      3  C   UNL     1     -40.977  18.556  12.531  1.00  0.00     0.039 C 
ENDROOT
BRANCH   1   4
ATOM      4  C   UNL     1     -39.180  16.949  13.520  1.00  0.00     0.034 C 
BRANCH   4   5
ATOM      5  C   UNL     1     -39.892  15.896  14.384  1.00  0.00     0.032 C 
BRANCH   5   6
ATOM      6  C   UNL     1     -39.981  16.321  15.830  1.00  0.00    -0.028 C 
ATOM      7  C   UNL     1     -41.025  17.210  17.869  1.00  0.00     0.039 C 
ATOM      8  C   UNL     1     -41.070  16.887  16.397  1.00  0.00    -0.080 C 
ATOM      9  C   UNL     1     -42.310  17.215  15.599  1.00  0.00     0.039 C 
ENDBRANCH   5   6
ENDBRANCH   4   5
ENDBRANCH   1   4
BRANCH   2  10
ATOM     10  C   UNL     1     -39.078  15.631  10.809  1.00  0.00     0.035 C 
BRANCH  10  11
ATOM     11  C   UNL     1     -37.930  16.055   9.884  1.00  0.00     0.079 C 
BRANCH  11  12
ATOM     12  C   UNL     1     -36.780  16.651  10.655  1.00  0.00     0.130 C 
ATOM     13  O   UNL     1     -36.045  15.922  11.303  1.00  0.00    -0.300 OA
ATOM     14  C   UNL     1     -36.504  18.124  10.615  1.00  0.00     0.087 C 
ENDBRANCH  11  12
ENDBRANCH  10  11
ENDBRANCH   2  10
TORSDOF 6
ENDMDL
