MODEL 1
REMARK VINA RESULT:    -5.331      0.000      0.000
REMARK INTER + INTRA:         -12.057
REMARK INTER:                  -9.694
REMARK INTRA:                  -2.363
REMARK UNBOUND:                -2.363
REMARK SMILES CCCCCC=CCC=CCCCCCCCC(=O)[O-]
REMARK SMILES IDX 11 1 12 2 13 3 14 4 15 5 16 6 17 7 18 8 19 9 20 10 10 11
REMARK SMILES IDX 9 12 8 13 7 14 6 15 5 16 4 17 3 18 2 19 1 20
REMARK H PARENT
REMARK Flexibility Score: inf
ROOT
ATOM      1  C   UNL     1      23.547  11.702  -3.338  1.00  0.00     0.027 C 
ENDROOT
BRANCH   1   2
ATOM      2  C   UNL     1      22.551  10.632  -2.861  1.00  0.00     0.004 C 
BRANCH   2   3
ATOM      3  C   UNL     1      22.214  10.706  -1.360  1.00  0.00     0.000 C 
BRANCH   3   4
ATOM      4  C   UNL     1      23.439  11.027  -0.491  1.00  0.00     0.000 C 
BRANCH   4   5
ATOM      5  C   UNL     1      23.305  12.414   0.154  1.00  0.00     0.000 C 
BRANCH   5   6
ATOM      6  C   UNL     1      24.629  12.939   0.741  1.00  0.00     0.006 C 
BRANCH   6   7
ATOM      7  C   UNL     1      25.442  13.810  -0.233  1.00  0.00     0.053 C 
BRANCH   7   8
ATOM      8  C   UNL     1      26.772  14.216   0.326  1.00  0.00     0.041 C 
ATOM      9  O   UNL     1      27.701  14.581  -0.442  1.00  0.00    -0.550 OA
ATOM     10  O   UNL     1      26.975  14.226   1.701  1.00  0.00    -0.550 OA
ENDBRANCH   7   8
ENDBRANCH   6   7
ENDBRANCH   5   6
ENDBRANCH   4   5
ENDBRANCH   3   4
ENDBRANCH   2   3
ENDBRANCH   1   2
BRANCH   1  11
ATOM     11  C   UNL     1      22.868  12.971  -3.781  1.00  0.00    -0.031 C 
ATOM     12  C   UNL     1      22.674  13.996  -2.938  1.00  0.00    -0.027 C 
BRANCH  12  13
ATOM     13  C   UNL     1      21.963  15.248  -3.375  1.00  0.00     0.054 C 
BRANCH  13  14
ATOM     14  C   UNL     1      21.577  16.087  -2.188  1.00  0.00    -0.027 C 
ATOM     15  C   UNL     1      21.934  15.741  -0.943  1.00  0.00    -0.031 C 
BRANCH  15  16
ATOM     16  C   UNL     1      21.463  16.519   0.257  1.00  0.00     0.027 C 
BRANCH  16  17
ATOM     17  C   UNL     1      22.389  16.332   1.470  1.00  0.00     0.004 C 
BRANCH  17  18
ATOM     18  C   UNL     1      23.306  17.548   1.695  1.00  0.00     0.000 C 
BRANCH  18  19
ATOM     19  C   UNL     1      24.776  17.246   1.368  1.00  0.00    -0.003 C 
ATOM     20  C   UNL     1      25.115  17.478  -0.104  1.00  0.00     0.004 C 
ENDBRANCH  18  19
ENDBRANCH  17  18
ENDBRANCH  16  17
ENDBRANCH  15  16
ENDBRANCH  13  14
ENDBRANCH  12  13
ENDBRANCH   1  11
TORSDOF 14
ENDMDL
MODEL 2
REMARK VINA RESULT:    -5.307      1.839      2.575
REMARK INTER + INTRA:         -12.013
REMARK INTER:                  -9.142
REMARK INTRA:                  -2.871
REMARK UNBOUND:                -2.363
REMARK SMILES CCCCCC=CCC=CCCCCCCCC(=O)[O-]
REMARK SMILES IDX 11 1 12 2 13 3 14 4 15 5 16 6 17 7 18 8 19 9 20 10 10 11
REMARK SMILES IDX 9 12 8 13 7 14 6 15 5 16 4 17 3 18 2 19 1 20
REMARK H PARENT
REMARK Flexibility Score: inf
ROOT
ATOM      1  C   UNL     1      22.956  12.038  -2.505  1.00  0.00     0.027 C 
ENDROOT
BRANCH   1   2
ATOM      2  C   UNL     1      22.786  11.497  -1.075  1.00  0.00     0.004 C 
BRANCH   2   3
ATOM      3  C   UNL     1      24.110  11.297  -0.313  1.00  0.00     0.000 C 
BRANCH   3   4
ATOM      4  C   UNL     1      24.328  12.347   0.786  1.00  0.00     0.000 C 
BRANCH   4   5
ATOM      5  C   UNL     1      25.115  13.550   0.247  1.00  0.00     0.000 C 
BRANCH   5   6
ATOM      6  C   UNL     1      26.228  14.021   1.201  1.00  0.00     0.006 C 
BRANCH   6   7
ATOM      7  C   UNL     1      26.264  15.544   1.418  1.00  0.00     0.053 C 
BRANCH   7   8
ATOM      8  C   UNL     1      26.700  16.293   0.195  1.00  0.00     0.041 C 
ATOM      9  O   UNL     1      27.699  15.906  -0.465  1.00  0.00    -0.550 OA
ATOM     10  O   UNL     1      25.979  17.400  -0.236  1.00  0.00    -0.550 OA
ENDBRANCH   7   8
ENDBRANCH   6   7
ENDBRANCH   5   6
ENDBRANCH   4   5
ENDBRANCH   3   4
ENDBRANCH   2   3
ENDBRANCH   1   2
BRANCH   1  11
ATOM     11  C   UNL     1      22.689  13.516  -2.601  1.00  0.00    -0.031 C 
ATOM     12  C   UNL     1      22.014  14.173  -1.645  1.00  0.00    -0.027 C 
BRANCH  12  13
ATOM     13  C   UNL     1      21.719  15.643  -1.761  1.00  0.00     0.054 C 
BRANCH  13  14
ATOM     14  C   UNL     1      22.426  16.419  -0.685  1.00  0.00    -0.027 C 
ATOM     15  C   UNL     1      22.315  16.081   0.608  1.00  0.00    -0.031 C 
BRANCH  15  16
ATOM     16  C   UNL     1      22.934  16.914   1.697  1.00  0.00     0.027 C 
BRANCH  16  17
ATOM     17  C   UNL     1      22.949  16.184   3.050  1.00  0.00     0.004 C 
BRANCH  17  18
ATOM     18  C   UNL     1      22.568  14.699   2.915  1.00  0.00     0.000 C 
BRANCH  18  19
ATOM     19  C   UNL     1      23.215  13.823   3.999  1.00  0.00    -0.003 C 
ATOM     20  C   UNL     1      24.483  14.446   4.584  1.00  0.00     0.004 C 
ENDBRANCH  18  19
ENDBRANCH  17  18
ENDBRANCH  16  17
ENDBRANCH  15  16
ENDBRANCH  13  14
ENDBRANCH  12  13
ENDBRANCH   1  11
TORSDOF 14
ENDMDL
MODEL 3
REMARK VINA RESULT:    -5.292      1.827      3.053
REMARK INTER + INTRA:         -11.986
REMARK INTER:                  -9.124
REMARK INTRA:                  -2.861
REMARK UNBOUND:                -2.363
REMARK SMILES CCCCCC=CCC=CCCCCCCCC(=O)[O-]
REMARK SMILES IDX 11 1 12 2 13 3 14 4 15 5 16 6 17 7 18 8 19 9 20 10 10 11
REMARK SMILES IDX 9 12 8 13 7 14 6 15 5 16 4 17 3 18 2 19 1 20
REMARK H PARENT
REMARK Flexibility Score: inf
ROOT
ATOM      1  C   UNL     1      22.831  13.463  -2.591  1.00  0.00     0.027 C 
ENDROOT
BRANCH   1   2
ATOM      2  C   UNL     1      23.570  12.546  -1.602  1.00  0.00     0.004 C 
BRANCH   2   3
ATOM      3  C   UNL     1      23.446  12.974  -0.128  1.00  0.00     0.000 C 
BRANCH   3   4
ATOM      4  C   UNL     1      24.807  13.268   0.522  1.00  0.00     0.000 C 
BRANCH   4   5
ATOM      5  C   UNL     1      25.406  14.572  -0.025  1.00  0.00     0.000 C 
BRANCH   5   6
ATOM      6  C   UNL     1      26.154  15.388   1.045  1.00  0.00     0.006 C 
BRANCH   6   7
ATOM      7  C   UNL     1      27.190  14.575   1.841  1.00  0.00     0.053 C 
BRANCH   7   8
ATOM      8  C   UNL     1      28.601  14.974   1.532  1.00  0.00     0.041 C 
ATOM      9  O   UNL     1      29.551  14.553   2.242  1.00  0.00    -0.550 OA
ATOM     10  O   UNL     1      28.870  15.785   0.437  1.00  0.00    -0.550 OA
ENDBRANCH   7   8
ENDBRANCH   6   7
ENDBRANCH   5   6
ENDBRANCH   4   5
ENDBRANCH   3   4
ENDBRANCH   2   3
ENDBRANCH   1   2
BRANCH   1  11
ATOM     11  C   UNL     1      22.003  14.513  -1.899  1.00  0.00    -0.031 C 
ATOM     12  C   UNL     1      22.217  15.822  -2.099  1.00  0.00    -0.027 C 
BRANCH  12  13
ATOM     13  C   UNL     1      21.411  16.868  -1.378  1.00  0.00     0.054 C 
BRANCH  13  14
ATOM     14  C   UNL     1      21.636  16.790   0.106  1.00  0.00    -0.027 C 
ATOM     15  C   UNL     1      22.811  17.136   0.654  1.00  0.00    -0.031 C 
BRANCH  15  16
ATOM     16  C   UNL     1      23.077  16.962   2.124  1.00  0.00     0.027 C 
BRANCH  16  17
ATOM     17  C   UNL     1      22.694  15.560   2.623  1.00  0.00     0.004 C 
BRANCH  17  18
ATOM     18  C   UNL     1      23.645  15.052   3.722  1.00  0.00     0.000 C 
BRANCH  18  19
ATOM     19  C   UNL     1      23.462  13.556   4.015  1.00  0.00    -0.003 C 
ATOM     20  C   UNL     1      24.786  12.838   4.277  1.00  0.00     0.004 C 
ENDBRANCH  18  19
ENDBRANCH  17  18
ENDBRANCH  16  17
ENDBRANCH  15  16
ENDBRANCH  13  14
ENDBRANCH  12  13
ENDBRANCH   1  11
TORSDOF 14
ENDMDL
MODEL 4
REMARK VINA RESULT:    -5.237      2.115      4.555
REMARK INTER + INTRA:         -11.886
REMARK INTER:                  -9.209
REMARK INTRA:                  -2.677
REMARK UNBOUND:                -2.363
REMARK SMILES CCCCCC=CCC=CCCCCCCCC(=O)[O-]
REMARK SMILES IDX 11 1 12 2 13 3 14 4 15 5 16 6 17 7 18 8 19 9 20 10 10 11
REMARK SMILES IDX 9 12 8 13 7 14 6 15 5 16 4 17 3 18 2 19 1 20
REMARK H PARENT
REMARK Flexibility Score: inf
ROOT
ATOM      1  C   UNL     1      21.406  16.459  -2.263  1.00  0.00     0.027 C 
ENDROOT
BRANCH   1   2
ATOM      2  C   UNL     1      21.453  16.918  -0.796  1.00  0.00     0.004 C 
BRANCH   2   3
ATOM      3  C   UNL     1      22.841  17.393  -0.326  1.00  0.00     0.000 C 
BRANCH   3   4
ATOM      4  C   UNL     1      23.181  16.920   1.096  1.00  0.00     0.000 C 
BRANCH   4   5
ATOM      5  C   UNL     1      22.196  15.840   1.565  1.00  0.00     0.000 C 
BRANCH   5   6
ATOM      6  C   UNL     1      22.450  15.377   3.011  1.00  0.00     0.006 C 
BRANCH   6   7
ATOM      7  C   UNL     1      22.809  13.886   3.137  1.00  0.00     0.053 C 
BRANCH   7   8
ATOM      8  C   UNL     1      23.811  13.620   4.219  1.00  0.00     0.041 C 
ATOM      9  O   UNL     1      24.552  14.546   4.641  1.00  0.00    -0.550 OA
ATOM     10  O   UNL     1      23.902  12.355   4.787  1.00  0.00    -0.550 OA
ENDBRANCH   7   8
ENDBRANCH   6   7
ENDBRANCH   5   6
ENDBRANCH   4   5
ENDBRANCH   3   4
ENDBRANCH   2   3
ENDBRANCH   1   2
BRANCH   1  11
ATOM     11  C   UNL     1      22.220  15.217  -2.508  1.00  0.00    -0.031 C 
ATOM     12  C   UNL     1      22.108  14.136  -1.722  1.00  0.00    -0.027 C 
BRANCH  12  13
ATOM     13  C   UNL     1      22.948  12.909  -1.949  1.00  0.00     0.054 C 
BRANCH  13  14
ATOM     14  C   UNL     1      23.863  12.663  -0.782  1.00  0.00    -0.027 C 
ATOM     15  C   UNL     1      24.618  13.645  -0.266  1.00  0.00    -0.031 C 
BRANCH  15  16
ATOM     16  C   UNL     1      25.612  13.382   0.832  1.00  0.00     0.027 C 
BRANCH  16  17
ATOM     17  C   UNL     1      26.308  14.667   1.307  1.00  0.00     0.004 C 
BRANCH  17  18
ATOM     18  C   UNL     1      27.097  15.354   0.177  1.00  0.00     0.000 C 
BRANCH  18  19
ATOM     19  C   UNL     1      26.765  16.848   0.050  1.00  0.00    -0.003 C 
ATOM     20  C   UNL     1      26.868  17.592   1.381  1.00  0.00     0.004 C 
ENDBRANCH  18  19
ENDBRANCH  17  18
ENDBRANCH  16  17
ENDBRANCH  15  16
ENDBRANCH  13  14
ENDBRANCH  12  13
ENDBRANCH   1  11
TORSDOF 14
ENDMDL
MODEL 5
REMARK VINA RESULT:    -5.228      2.148      3.284
REMARK INTER + INTRA:         -11.869
REMARK INTER:                  -9.157
REMARK INTRA:                  -2.713
REMARK UNBOUND:                -2.363
REMARK SMILES CCCCCC=CCC=CCCCCCCCC(=O)[O-]
REMARK SMILES IDX 11 1 12 2 13 3 14 4 15 5 16 6 17 7 18 8 19 9 20 10 10 11
REMARK SMILES IDX 9 12 8 13 7 14 6 15 5 16 4 17 3 18 2 19 1 20
REMARK H PARENT
REMARK Flexibility Score: inf
ROOT
ATOM      1  C   UNL     1      22.879  13.039  -2.336  1.00  0.00     0.027 C 
ENDROOT
BRANCH   1   2
ATOM      2  C   UNL     1      23.307  12.020  -1.267  1.00  0.00     0.004 C 
BRANCH   2   3
ATOM      3  C   UNL     1      23.302  12.572   0.172  1.00  0.00     0.000 C 
BRANCH   3   4
ATOM      4  C   UNL     1      24.715  12.830   0.715  1.00  0.00     0.000 C 
BRANCH   4   5
ATOM      5  C   UNL     1      25.354  14.045   0.026  1.00  0.00     0.000 C 
BRANCH   5   6
ATOM      6  C   UNL     1      26.194  14.910   0.984  1.00  0.00     0.006 C 
BRANCH   6   7
ATOM      7  C   UNL     1      26.710  16.217   0.356  1.00  0.00     0.053 C 
BRANCH   7   8
ATOM      8  C   UNL     1      26.630  17.382   1.295  1.00  0.00     0.041 C 
ATOM      9  O   UNL     1      27.447  17.490   2.247  1.00  0.00    -0.550 OA
ATOM     10  O   UNL     1      25.672  18.369   1.098  1.00  0.00    -0.550 OA
ENDBRANCH   7   8
ENDBRANCH   6   7
ENDBRANCH   5   6
ENDBRANCH   4   5
ENDBRANCH   3   4
ENDBRANCH   2   3
ENDBRANCH   1   2
BRANCH   1  11
ATOM     11  C   UNL     1      21.956  14.096  -1.793  1.00  0.00    -0.031 C 
ATOM     12  C   UNL     1      22.313  15.389  -1.751  1.00  0.00    -0.027 C 
BRANCH  12  13
ATOM     13  C   UNL     1      21.401  16.437  -1.175  1.00  0.00     0.054 C 
BRANCH  13  14
ATOM     14  C   UNL     1      21.540  16.505   0.321  1.00  0.00    -0.027 C 
ATOM     15  C   UNL     1      22.743  16.478   0.913  1.00  0.00    -0.031 C 
BRANCH  15  16
ATOM     16  C   UNL     1      22.884  16.440   2.410  1.00  0.00     0.027 C 
BRANCH  16  17
ATOM     17  C   UNL     1      22.669  15.029   2.980  1.00  0.00     0.004 C 
BRANCH  17  18
ATOM     18  C   UNL     1      23.814  14.597   3.914  1.00  0.00     0.000 C 
BRANCH  18  19
ATOM     19  C   UNL     1      23.595  13.197   4.506  1.00  0.00    -0.003 C 
ATOM     20  C   UNL     1      24.864  12.345   4.495  1.00  0.00     0.004 C 
ENDBRANCH  18  19
ENDBRANCH  17  18
ENDBRANCH  16  17
ENDBRANCH  15  16
ENDBRANCH  13  14
ENDBRANCH  12  13
ENDBRANCH   1  11
TORSDOF 14
ENDMDL
MODEL 6
REMARK VINA RESULT:    -5.154      1.787      5.104
REMARK INTER + INTRA:         -11.736
REMARK INTER:                  -9.284
REMARK INTRA:                  -2.452
REMARK UNBOUND:                -2.363
REMARK SMILES CCCCCC=CCC=CCCCCCCCC(=O)[O-]
REMARK SMILES IDX 11 1 12 2 13 3 14 4 15 5 16 6 17 7 18 8 19 9 20 10 10 11
REMARK SMILES IDX 9 12 8 13 7 14 6 15 5 16 4 17 3 18 2 19 1 20
REMARK H PARENT
REMARK Flexibility Score: inf
ROOT
ATOM      1  C   UNL     1      23.625  15.309   3.628  1.00  0.00     0.027 C 
ENDROOT
BRANCH   1   2
ATOM      2  C   UNL     1      23.466  13.808   3.332  1.00  0.00     0.004 C 
BRANCH   2   3
ATOM      3  C   UNL     1      24.743  12.978   3.565  1.00  0.00     0.000 C 
BRANCH   3   4
ATOM      4  C   UNL     1      25.856  13.305   2.558  1.00  0.00     0.000 C 
BRANCH   4   5
ATOM      5  C   UNL     1      25.367  13.104   1.116  1.00  0.00     0.000 C 
BRANCH   5   6
ATOM      6  C   UNL     1      25.603  14.334   0.221  1.00  0.00     0.006 C 
BRANCH   6   7
ATOM      7  C   UNL     1      26.242  15.527   0.955  1.00  0.00     0.053 C 
BRANCH   7   8
ATOM      8  C   UNL     1      26.319  16.757   0.103  1.00  0.00     0.041 C 
ATOM      9  O   UNL     1      27.423  17.329  -0.092  1.00  0.00    -0.550 OA
ATOM     10  O   UNL     1      25.173  17.253  -0.507  1.00  0.00    -0.550 OA
ENDBRANCH   7   8
ENDBRANCH   6   7
ENDBRANCH   5   6
ENDBRANCH   4   5
ENDBRANCH   3   4
ENDBRANCH   2   3
ENDBRANCH   1   2
BRANCH   1  11
ATOM     11  C   UNL     1      22.845  16.174   2.675  1.00  0.00    -0.031 C 
ATOM     12  C   UNL     1      22.536  15.756   1.438  1.00  0.00    -0.027 C 
BRANCH  12  13
ATOM     13  C   UNL     1      21.786  16.637   0.476  1.00  0.00     0.054 C 
BRANCH  13  14
ATOM     14  C   UNL     1      21.585  15.942  -0.841  1.00  0.00    -0.027 C 
ATOM     15  C   UNL     1      22.180  14.771  -1.112  1.00  0.00    -0.031 C 
BRANCH  15  16
ATOM     16  C   UNL     1      22.066  14.123  -2.465  1.00  0.00     0.027 C 
BRANCH  16  17
ATOM     17  C   UNL     1      22.988  12.900  -2.604  1.00  0.00     0.004 C 
BRANCH  17  18
ATOM     18  C   UNL     1      22.865  11.940  -1.406  1.00  0.00     0.000 C 
BRANCH  18  19
ATOM     19  C   UNL     1      22.130  10.640  -1.765  1.00  0.00    -0.003 C 
ATOM     20  C   UNL     1      22.629  10.020  -3.069  1.00  0.00     0.004 C 
ENDBRANCH  18  19
ENDBRANCH  17  18
ENDBRANCH  16  17
ENDBRANCH  15  16
ENDBRANCH  13  14
ENDBRANCH  12  13
ENDBRANCH   1  11
TORSDOF 14
ENDMDL
MODEL 7
REMARK VINA RESULT:    -5.143      2.279      4.334
REMARK INTER + INTRA:         -11.716
REMARK INTER:                  -8.977
REMARK INTRA:                  -2.738
REMARK UNBOUND:                -2.363
REMARK SMILES CCCCCC=CCC=CCCCCCCCC(=O)[O-]
REMARK SMILES IDX 11 1 12 2 13 3 14 4 15 5 16 6 17 7 18 8 19 9 20 10 10 11
REMARK SMILES IDX 9 12 8 13 7 14 6 15 5 16 4 17 3 18 2 19 1 20
REMARK H PARENT
REMARK Flexibility Score: inf
ROOT
ATOM      1  C   UNL     1      21.909  16.318  -1.652  1.00  0.00     0.027 C 
ENDROOT
BRANCH   1   2
ATOM      2  C   UNL     1      21.753  14.838  -2.042  1.00  0.00     0.004 C 
BRANCH   2   3
ATOM      3  C   UNL     1      23.006  13.980  -1.782  1.00  0.00     0.000 C 
BRANCH   3   4
ATOM      4  C   UNL     1      22.865  13.082  -0.544  1.00  0.00     0.000 C 
BRANCH   4   5
ATOM      5  C   UNL     1      24.130  13.145   0.325  1.00  0.00     0.000 C 
BRANCH   5   6
ATOM      6  C   UNL     1      25.237  14.026  -0.281  1.00  0.00     0.006 C 
BRANCH   6   7
ATOM      7  C   UNL     1      26.450  14.231   0.644  1.00  0.00     0.053 C 
BRANCH   7   8
ATOM      8  C   UNL     1      26.620  15.658   1.067  1.00  0.00     0.041 C 
ATOM      9  O   UNL     1      26.735  16.569   0.206  1.00  0.00    -0.550 OA
ATOM     10  O   UNL     1      26.617  15.988   2.417  1.00  0.00    -0.550 OA
ENDBRANCH   7   8
ENDBRANCH   6   7
ENDBRANCH   5   6
ENDBRANCH   4   5
ENDBRANCH   3   4
ENDBRANCH   2   3
ENDBRANCH   1   2
BRANCH   1  11
ATOM     11  C   UNL     1      22.038  16.516  -0.166  1.00  0.00    -0.031 C 
ATOM     12  C   UNL     1      23.147  17.036   0.381  1.00  0.00    -0.027 C 
BRANCH  12  13
ATOM     13  C   UNL     1      23.287  17.199   1.870  1.00  0.00     0.054 C 
BRANCH  13  14
ATOM     14  C   UNL     1      22.603  16.076   2.598  1.00  0.00    -0.027 C 
ATOM     15  C   UNL     1      23.302  15.076   3.155  1.00  0.00    -0.031 C 
BRANCH  15  16
ATOM     16  C   UNL     1      22.619  13.897   3.794  1.00  0.00     0.027 C 
BRANCH  16  17
ATOM     17  C   UNL     1      23.617  12.946   4.476  1.00  0.00     0.004 C 
BRANCH  17  18
ATOM     18  C   UNL     1      25.078  13.290   4.131  1.00  0.00     0.000 C 
BRANCH  18  19
ATOM     19  C   UNL     1      25.959  12.041   3.985  1.00  0.00    -0.003 C 
ATOM     20  C   UNL     1      26.282  11.385   5.327  1.00  0.00     0.004 C 
ENDBRANCH  18  19
ENDBRANCH  17  18
ENDBRANCH  16  17
ENDBRANCH  15  16
ENDBRANCH  13  14
ENDBRANCH  12  13
ENDBRANCH   1  11
TORSDOF 14
ENDMDL
MODEL 8
REMARK VINA RESULT:    -5.137      2.523      5.150
REMARK INTER + INTRA:         -11.704
REMARK INTER:                  -9.136
REMARK INTRA:                  -2.568
REMARK UNBOUND:                -2.363
REMARK SMILES CCCCCC=CCC=CCCCCCCCC(=O)[O-]
REMARK SMILES IDX 11 1 12 2 13 3 14 4 15 5 16 6 17 7 18 8 19 9 20 10 10 11
REMARK SMILES IDX 9 12 8 13 7 14 6 15 5 16 4 17 3 18 2 19 1 20
REMARK H PARENT
REMARK Flexibility Score: inf
ROOT
ATOM      1  C   UNL     1      21.435  16.636   0.528  1.00  0.00     0.027 C 
ENDROOT
BRANCH   1   2
ATOM      2  C   UNL     1      21.489  16.406  -0.992  1.00  0.00     0.004 C 
BRANCH   2   3
ATOM      3  C   UNL     1      22.737  15.640  -1.472  1.00  0.00     0.000 C 
BRANCH   3   4
ATOM      4  C   UNL     1      22.389  14.322  -2.179  1.00  0.00     0.000 C 
BRANCH   4   5
ATOM      5  C   UNL     1      22.529  13.131  -1.220  1.00  0.00     0.000 C 
BRANCH   5   6
ATOM      6  C   UNL     1      23.964  12.576  -1.152  1.00  0.00     0.006 C 
BRANCH   6   7
ATOM      7  C   UNL     1      24.059  11.057  -1.382  1.00  0.00     0.053 C 
BRANCH   7   8
ATOM      8  C   UNL     1      23.629  10.652  -2.758  1.00  0.00     0.041 C 
ATOM      9  O   UNL     1      22.611   9.929  -2.920  1.00  0.00    -0.550 OA
ATOM     10  O   UNL     1      24.333  11.103  -3.868  1.00  0.00    -0.550 OA
ENDBRANCH   7   8
ENDBRANCH   6   7
ENDBRANCH   5   6
ENDBRANCH   4   5
ENDBRANCH   3   4
ENDBRANCH   2   3
ENDBRANCH   1   2
BRANCH   1  11
ATOM     11  C   UNL     1      22.457  15.821   1.274  1.00  0.00    -0.031 C 
ATOM     12  C   UNL     1      22.466  15.758   2.614  1.00  0.00    -0.027 C 
BRANCH  12  13
ATOM     13  C   UNL     1      23.510  14.971   3.357  1.00  0.00     0.054 C 
BRANCH  13  14
ATOM     14  C   UNL     1      24.571  14.469   2.417  1.00  0.00    -0.027 C 
ATOM     15  C   UNL     1      25.866  14.766   2.602  1.00  0.00    -0.031 C 
BRANCH  15  16
ATOM     16  C   UNL     1      26.919  14.355   1.609  1.00  0.00     0.027 C 
BRANCH  16  17
ATOM     17  C   UNL     1      26.599  14.842   0.186  1.00  0.00     0.004 C 
BRANCH  17  18
ATOM     18  C   UNL     1      26.933  16.332  -0.008  1.00  0.00     0.000 C 
BRANCH  18  19
ATOM     19  C   UNL     1      25.678  17.197  -0.198  1.00  0.00    -0.003 C 
ATOM     20  C   UNL     1      25.387  18.090   1.007  1.00  0.00     0.004 C 
ENDBRANCH  18  19
ENDBRANCH  17  18
ENDBRANCH  16  17
ENDBRANCH  15  16
ENDBRANCH  13  14
ENDBRANCH  12  13
ENDBRANCH   1  11
TORSDOF 14
ENDMDL
MODEL 9
REMARK VINA RESULT:    -5.128      2.542      5.070
REMARK INTER + INTRA:         -11.688
REMARK INTER:                  -8.844
REMARK INTRA:                  -2.844
REMARK UNBOUND:                -2.363
REMARK SMILES CCCCCC=CCC=CCCCCCCCC(=O)[O-]
REMARK SMILES IDX 11 1 12 2 13 3 14 4 15 5 16 6 17 7 18 8 19 9 20 10 10 11
REMARK SMILES IDX 9 12 8 13 7 14 6 15 5 16 4 17 3 18 2 19 1 20
REMARK H PARENT
REMARK Flexibility Score: inf
ROOT
ATOM      1  C   UNL     1      22.470  14.745   3.363  1.00  0.00     0.027 C 
ENDROOT
BRANCH   1   2
ATOM      2  C   UNL     1      23.423  13.550   3.534  1.00  0.00     0.004 C 
BRANCH   2   3
ATOM      3  C   UNL     1      24.874  13.941   3.873  1.00  0.00     0.000 C 
BRANCH   3   4
ATOM      4  C   UNL     1      25.886  13.430   2.836  1.00  0.00     0.000 C 
BRANCH   4   5
ATOM      5  C   UNL     1      25.168  12.851   1.609  1.00  0.00     0.000 C 
BRANCH   5   6
ATOM      6  C   UNL     1      25.397  13.677   0.329  1.00  0.00     0.006 C 
BRANCH   6   7
ATOM      7  C   UNL     1      24.226  13.622  -0.668  1.00  0.00     0.053 C 
BRANCH   7   8
ATOM      8  C   UNL     1      24.156  12.322  -1.409  1.00  0.00     0.041 C 
ATOM      9  O   UNL     1      24.851  12.141  -2.443  1.00  0.00    -0.550 OA
ATOM     10  O   UNL     1      23.349  11.295  -0.937  1.00  0.00    -0.550 OA
ENDBRANCH   7   8
ENDBRANCH   6   7
ENDBRANCH   5   6
ENDBRANCH   4   5
ENDBRANCH   3   4
ENDBRANCH   2   3
ENDBRANCH   1   2
BRANCH   1  11
ATOM     11  C   UNL     1      23.057  15.837   2.509  1.00  0.00    -0.031 C 
ATOM     12  C   UNL     1      22.514  16.178   1.331  1.00  0.00    -0.027 C 
BRANCH  12  13
ATOM     13  C   UNL     1      23.124  17.246   0.464  1.00  0.00     0.054 C 
BRANCH  13  14
ATOM     14  C   UNL     1      24.512  17.585   0.931  1.00  0.00    -0.027 C 
ATOM     15  C   UNL     1      25.591  17.274   0.199  1.00  0.00    -0.031 C 
BRANCH  15  16
ATOM     16  C   UNL     1      26.987  17.518   0.707  1.00  0.00     0.027 C 
BRANCH  16  17
ATOM     17  C   UNL     1      27.243  16.829   2.057  1.00  0.00     0.004 C 
BRANCH  17  18
ATOM     18  C   UNL     1      28.629  16.161   2.116  1.00  0.00     0.000 C 
BRANCH  18  19
ATOM     19  C   UNL     1      28.805  15.071   1.049  1.00  0.00    -0.003 C 
ATOM     20  C   UNL     1      30.241  14.555   0.962  1.00  0.00     0.004 C 
ENDBRANCH  18  19
ENDBRANCH  17  18
ENDBRANCH  16  17
ENDBRANCH  15  16
ENDBRANCH  13  14
ENDBRANCH  12  13
ENDBRANCH   1  11
TORSDOF 14
ENDMDL
