MODEL 1
REMARK VINA RESULT:    -3.313      0.000      0.000
REMARK INTER + INTRA:          -4.359
REMARK INTER:                  -4.088
REMARK INTRA:                  -0.272
REMARK UNBOUND:                -0.272
REMARK SMILES C=CCc1ccc(OC)c(OC)c1
REMARK SMILES IDX 7 1 10 2 13 3 4 4 5 5 6 6 8 7 9 8 11 9 12 10 3 11 2 12 1 13
REMARK H PARENT
REMARK Flexibility Score: inf
ROOT
ATOM      1  C   UNL     1     139.558 143.192 143.924  1.00  0.00     0.160 A 
ATOM      2  C   UNL     1     139.715 141.801 143.819  1.00  0.00     0.160 A 
ATOM      3  C   UNL     1     138.576 140.970 143.824  1.00  0.00     0.054 A 
ATOM      4  C   UNL     1     137.291 141.520 143.936  1.00  0.00    -0.040 A 
ATOM      5  C   UNL     1     137.144 142.912 144.029  1.00  0.00     0.008 A 
ATOM      6  C   UNL     1     138.266 143.741 144.027  1.00  0.00     0.051 A 
ENDROOT
BRANCH   1   7
ATOM      7  O   UNL     1     140.710 143.994 143.919  1.00  0.00    -0.493 OA
ATOM      8  C   UNL     1     140.713 145.403 144.123  1.00  0.00     0.278 C 
ENDBRANCH   1   7
BRANCH   2   9
ATOM      9  O   UNL     1     141.015 141.283 143.712  1.00  0.00    -0.493 OA
ATOM     10  C   UNL     1     141.399 140.247 142.812  1.00  0.00     0.278 C 
ENDBRANCH   2   9
BRANCH   4  11
ATOM     11  C   UNL     1     136.075 140.633 143.909  1.00  0.00     0.062 C 
BRANCH  11  12
ATOM     12  C   UNL     1     136.203 139.588 142.836  1.00  0.00    -0.030 C 
ATOM     13  C   UNL     1     135.553 139.692 141.673  1.00  0.00     0.004 C 
ENDBRANCH  11  12
ENDBRANCH   4  11
TORSDOF 4
ENDMDL
MODEL 2
REMARK VINA RESULT:    -3.306      3.322      5.060
REMARK INTER + INTRA:          -4.351
REMARK INTER:                  -4.044
REMARK INTRA:                  -0.307
REMARK UNBOUND:                -0.272
REMARK SMILES C=CCc1ccc(OC)c(OC)c1
REMARK SMILES IDX 7 1 10 2 13 3 4 4 5 5 6 6 8 7 9 8 11 9 12 10 3 11 2 12 1 13
REMARK H PARENT
REMARK Flexibility Score: inf
ROOT
ATOM      1  C   UNL     1     143.639 143.540 142.700  1.00  0.00     0.160 A 
ATOM      2  C   UNL     1     142.833 143.756 141.571  1.00  0.00     0.160 A 
ATOM      3  C   UNL     1     141.547 144.310 141.730  1.00  0.00     0.054 A 
ATOM      4  C   UNL     1     141.064 144.642 143.004  1.00  0.00    -0.040 A 
ATOM      5  C   UNL     1     141.881 144.433 144.125  1.00  0.00     0.008 A 
ATOM      6  C   UNL     1     143.155 143.884 143.976  1.00  0.00     0.051 A 
ENDROOT
BRANCH   1   7
ATOM      7  O   UNL     1     144.915 142.986 142.512  1.00  0.00    -0.493 OA
ATOM      8  C   UNL     1     145.294 141.676 142.922  1.00  0.00     0.278 C 
ENDBRANCH   1   7
BRANCH   2   9
ATOM      9  O   UNL     1     143.345 143.410 140.311  1.00  0.00    -0.493 OA
ATOM     10  C   UNL     1     143.239 144.222 139.146  1.00  0.00     0.278 C 
ENDBRANCH   2   9
BRANCH   4  11
ATOM     11  C   UNL     1     139.702 145.263 143.168  1.00  0.00     0.062 C 
BRANCH  11  12
ATOM     12  C   UNL     1     138.652 144.429 142.488  1.00  0.00    -0.030 C 
ATOM     13  C   UNL     1     138.024 143.436 143.125  1.00  0.00     0.004 C 
ENDBRANCH  11  12
ENDBRANCH   4  11
TORSDOF 4
ENDMDL
MODEL 3
REMARK VINA RESULT:    -3.291      4.173      5.842
REMARK INTER + INTRA:          -4.332
REMARK INTER:                  -4.033
REMARK INTRA:                  -0.299
REMARK UNBOUND:                -0.272
REMARK SMILES C=CCc1ccc(OC)c(OC)c1
REMARK SMILES IDX 7 1 10 2 13 3 4 4 5 5 6 6 8 7 9 8 11 9 12 10 3 11 2 12 1 13
REMARK H PARENT
REMARK Flexibility Score: inf
ROOT
ATOM      1  C   UNL     1     144.333 142.748 141.475  1.00  0.00     0.160 A 
ATOM      2  C   UNL     1     144.382 142.757 142.878  1.00  0.00     0.160 A 
ATOM      3  C   UNL     1     143.349 143.381 143.607  1.00  0.00     0.054 A 
ATOM      4  C   UNL     1     142.278 143.997 142.942  1.00  0.00    -0.040 A 
ATOM      5  C   UNL     1     142.232 143.973 141.541  1.00  0.00     0.008 A 
ATOM      6  C   UNL     1     143.251 143.359 140.813  1.00  0.00     0.051 A 
ENDROOT
BRANCH   1   7
ATOM      7  O   UNL     1     145.376 142.121 140.776  1.00  0.00    -0.493 OA
ATOM      8  C   UNL     1     145.251 140.888 140.076  1.00  0.00     0.278 C 
ENDBRANCH   1   7
BRANCH   2   9
ATOM      9  O   UNL     1     145.469 142.135 143.511  1.00  0.00    -0.493 OA
ATOM     10  C   UNL     1     145.419 140.850 144.124  1.00  0.00     0.278 C 
ENDBRANCH   2   9
BRANCH   4  11
ATOM     11  C   UNL     1     141.160 144.635 143.724  1.00  0.00     0.062 C 
BRANCH  11  12
ATOM     12  C   UNL     1     140.201 145.338 142.804  1.00  0.00    -0.030 C 
ATOM     13  C   UNL     1     138.951 144.901 142.627  1.00  0.00     0.004 C 
ENDBRANCH  11  12
ENDBRANCH   4  11
TORSDOF 4
ENDMDL
MODEL 4
REMARK VINA RESULT:    -3.258      2.970      5.091
REMARK INTER + INTRA:          -4.291
REMARK INTER:                  -3.959
REMARK INTRA:                  -0.332
REMARK UNBOUND:                -0.272
REMARK SMILES C=CCc1ccc(OC)c(OC)c1
REMARK SMILES IDX 7 1 10 2 13 3 4 4 5 5 6 6 8 7 9 8 11 9 12 10 3 11 2 12 1 13
REMARK H PARENT
REMARK Flexibility Score: inf
ROOT
ATOM      1  C   UNL     1     142.997 141.893 144.075  1.00  0.00     0.160 A 
ATOM      2  C   UNL     1     141.594 141.866 144.060  1.00  0.00     0.160 A 
ATOM      3  C   UNL     1     140.875 143.078 144.054  1.00  0.00     0.054 A 
ATOM      4  C   UNL     1     141.549 144.309 144.067  1.00  0.00    -0.040 A 
ATOM      5  C   UNL     1     142.951 144.325 144.070  1.00  0.00     0.008 A 
ATOM      6  C   UNL     1     143.670 143.129 144.078  1.00  0.00     0.051 A 
ENDROOT
BRANCH   1   7
ATOM      7  O   UNL     1     143.687 140.670 144.083  1.00  0.00    -0.493 OA
ATOM      8  C   UNL     1     144.225 140.039 142.926  1.00  0.00     0.278 C 
ENDBRANCH   1   7
BRANCH   2   9
ATOM      9  O   UNL     1     140.951 140.618 144.051  1.00  0.00    -0.493 OA
ATOM     10  C   UNL     1     140.269 140.070 142.927  1.00  0.00     0.278 C 
ENDBRANCH   2   9
BRANCH   4  11
ATOM     11  C   UNL     1     140.778 145.602 144.028  1.00  0.00     0.062 C 
BRANCH  11  12
ATOM     12  C   UNL     1     139.703 145.549 142.978  1.00  0.00    -0.030 C 
ATOM     13  C   UNL     1     139.867 146.112 141.777  1.00  0.00     0.004 C 
ENDBRANCH  11  12
ENDBRANCH   4  11
TORSDOF 4
ENDMDL
MODEL 5
REMARK VINA RESULT:    -3.251      3.284      7.161
REMARK INTER + INTRA:          -4.282
REMARK INTER:                  -3.962
REMARK INTRA:                  -0.320
REMARK UNBOUND:                -0.272
REMARK SMILES C=CCc1ccc(OC)c(OC)c1
REMARK SMILES IDX 7 1 10 2 13 3 4 4 5 5 6 6 8 7 9 8 11 9 12 10 3 11 2 12 1 13
REMARK H PARENT
REMARK Flexibility Score: inf
ROOT
ATOM      1  C   UNL     1     142.162 138.316 143.480  1.00  0.00     0.160 A 
ATOM      2  C   UNL     1     141.870 139.687 143.403  1.00  0.00     0.160 A 
ATOM      3  C   UNL     1     142.901 140.630 143.589  1.00  0.00     0.054 A 
ATOM      4  C   UNL     1     144.213 140.211 143.855  1.00  0.00    -0.040 A 
ATOM      5  C   UNL     1     144.497 138.839 143.919  1.00  0.00     0.008 A 
ATOM      6  C   UNL     1     143.481 137.899 143.737  1.00  0.00     0.051 A 
ENDROOT
BRANCH   1   7
ATOM      7  O   UNL     1     141.115 137.400 143.292  1.00  0.00    -0.493 OA
ATOM      8  C   UNL     1     140.913 136.233 144.082  1.00  0.00     0.278 C 
ENDBRANCH   1   7
BRANCH   2   9
ATOM      9  O   UNL     1     140.546 140.073 143.138  1.00  0.00    -0.493 OA
ATOM     10  C   UNL     1     139.628 140.534 144.125  1.00  0.00     0.278 C 
ENDBRANCH   2   9
BRANCH   4  11
ATOM     11  C   UNL     1     145.318 141.220 144.022  1.00  0.00     0.062 C 
BRANCH  11  12
ATOM     12  C   UNL     1     145.359 142.163 142.852  1.00  0.00    -0.030 C 
ATOM     13  C   UNL     1     146.034 141.869 141.737  1.00  0.00     0.004 C 
ENDBRANCH  11  12
ENDBRANCH   4  11
TORSDOF 4
ENDMDL
MODEL 6
REMARK VINA RESULT:    -3.242      3.975      6.810
REMARK INTER + INTRA:          -4.272
REMARK INTER:                  -3.900
REMARK INTRA:                  -0.372
REMARK UNBOUND:                -0.272
REMARK SMILES C=CCc1ccc(OC)c(OC)c1
REMARK SMILES IDX 7 1 10 2 13 3 4 4 5 5 6 6 8 7 9 8 11 9 12 10 3 11 2 12 1 13
REMARK H PARENT
REMARK Flexibility Score: inf
ROOT
ATOM      1  C   UNL     1     141.583 139.011 143.934  1.00  0.00     0.160 A 
ATOM      2  C   UNL     1     142.728 138.228 143.713  1.00  0.00     0.160 A 
ATOM      3  C   UNL     1     143.995 138.843 143.681  1.00  0.00     0.054 A 
ATOM      4  C   UNL     1     144.123 140.228 143.863  1.00  0.00    -0.040 A 
ATOM      5  C   UNL     1     142.975 141.000 144.093  1.00  0.00     0.008 A 
ATOM      6  C   UNL     1     141.716 140.399 144.125  1.00  0.00     0.051 A 
ENDROOT
BRANCH   1   7
ATOM      7  O   UNL     1     140.333 138.373 143.959  1.00  0.00    -0.493 OA
ATOM      8  C   UNL     1     139.393 138.398 142.891  1.00  0.00     0.278 C 
ENDBRANCH   1   7
BRANCH   2   9
ATOM      9  O   UNL     1     142.564 136.846 143.533  1.00  0.00    -0.493 OA
ATOM     10  C   UNL     1     142.534 136.196 142.265  1.00  0.00     0.278 C 
ENDBRANCH   2   9
BRANCH   4  11
ATOM     11  C   UNL     1     145.482 140.877 143.860  1.00  0.00     0.062 C 
BRANCH  11  12
ATOM     12  C   UNL     1     145.524 142.018 142.882  1.00  0.00    -0.030 C 
ATOM     13  C   UNL     1     145.864 141.835 141.603  1.00  0.00     0.004 C 
ENDBRANCH  11  12
ENDBRANCH   4  11
TORSDOF 4
ENDMDL
MODEL 7
REMARK VINA RESULT:    -3.225      1.284      2.512
REMARK INTER + INTRA:          -4.251
REMARK INTER:                  -3.883
REMARK INTRA:                  -0.368
REMARK UNBOUND:                -0.272
REMARK SMILES C=CCc1ccc(OC)c(OC)c1
REMARK SMILES IDX 7 1 10 2 13 3 4 4 5 5 6 6 8 7 9 8 11 9 12 10 3 11 2 12 1 13
REMARK H PARENT
REMARK Flexibility Score: inf
ROOT
ATOM      1  C   UNL     1     140.081 142.537 143.927  1.00  0.00     0.160 A 
ATOM      2  C   UNL     1     138.929 143.308 143.708  1.00  0.00     0.160 A 
ATOM      3  C   UNL     1     137.667 142.682 143.683  1.00  0.00     0.054 A 
ATOM      4  C   UNL     1     137.553 141.296 143.870  1.00  0.00    -0.040 A 
ATOM      5  C   UNL     1     138.708 140.536 144.100  1.00  0.00     0.008 A 
ATOM      6  C   UNL     1     139.962 141.148 144.124  1.00  0.00     0.051 A 
ENDROOT
BRANCH   1   7
ATOM      7  O   UNL     1     141.325 143.187 143.945  1.00  0.00    -0.493 OA
ATOM      8  C   UNL     1     142.255 143.180 142.867  1.00  0.00     0.278 C 
ENDBRANCH   1   7
BRANCH   2   9
ATOM      9  O   UNL     1     139.078 144.691 143.521  1.00  0.00    -0.493 OA
ATOM     10  C   UNL     1     139.124 145.333 142.250  1.00  0.00     0.278 C 
ENDBRANCH   2   9
BRANCH   4  11
ATOM     11  C   UNL     1     136.200 140.634 143.874  1.00  0.00     0.062 C 
BRANCH  11  12
ATOM     12  C   UNL     1     136.126 139.568 142.817  1.00  0.00    -0.030 C 
ATOM     13  C   UNL     1     135.751 139.846 141.565  1.00  0.00     0.004 C 
ENDBRANCH  11  12
ENDBRANCH   4  11
TORSDOF 4
ENDMDL
MODEL 8
REMARK VINA RESULT:    -3.213      3.624      5.240
REMARK INTER + INTRA:          -4.235
REMARK INTER:                  -3.938
REMARK INTRA:                  -0.297
REMARK UNBOUND:                -0.272
REMARK SMILES C=CCc1ccc(OC)c(OC)c1
REMARK SMILES IDX 7 1 10 2 13 3 4 4 5 5 6 6 8 7 9 8 11 9 12 10 3 11 2 12 1 13
REMARK H PARENT
REMARK Flexibility Score: inf
ROOT
ATOM      1  C   UNL     1     142.609 141.568 143.949  1.00  0.00     0.160 A 
ATOM      2  C   UNL     1     143.397 142.700 143.688  1.00  0.00     0.160 A 
ATOM      3  C   UNL     1     142.787 143.967 143.599  1.00  0.00     0.054 A 
ATOM      4  C   UNL     1     141.401 144.106 143.765  1.00  0.00    -0.040 A 
ATOM      5  C   UNL     1     140.624 142.971 144.037  1.00  0.00     0.008 A 
ATOM      6  C   UNL     1     141.220 141.712 144.125  1.00  0.00     0.051 A 
ENDROOT
BRANCH   1   7
ATOM      7  O   UNL     1     143.244 140.318 144.030  1.00  0.00    -0.493 OA
ATOM      8  C   UNL     1     142.686 139.098 143.555  1.00  0.00     0.278 C 
ENDBRANCH   1   7
BRANCH   2   9
ATOM      9  O   UNL     1     144.780 142.526 143.524  1.00  0.00    -0.493 OA
ATOM     10  C   UNL     1     145.444 142.484 142.264  1.00  0.00     0.278 C 
ENDBRANCH   2   9
BRANCH   4  11
ATOM     11  C   UNL     1     140.756 145.465 143.702  1.00  0.00     0.062 C 
BRANCH  11  12
ATOM     12  C   UNL     1     139.698 145.503 142.634  1.00  0.00    -0.030 C 
ATOM     13  C   UNL     1     139.840 146.244 141.531  1.00  0.00     0.004 C 
ENDBRANCH  11  12
ENDBRANCH   4  11
TORSDOF 4
ENDMDL
MODEL 9
REMARK VINA RESULT:    -3.183      3.226      5.614
REMARK INTER + INTRA:          -4.198
REMARK INTER:                  -3.874
REMARK INTRA:                  -0.325
REMARK UNBOUND:                -0.272
REMARK SMILES C=CCc1ccc(OC)c(OC)c1
REMARK SMILES IDX 7 1 10 2 13 3 4 4 5 5 6 6 8 7 9 8 11 9 12 10 3 11 2 12 1 13
REMARK H PARENT
REMARK Flexibility Score: inf
ROOT
ATOM      1  C   UNL     1     143.561 140.719 143.537  1.00  0.00     0.160 A 
ATOM      2  C   UNL     1     142.189 140.434 143.454  1.00  0.00     0.160 A 
ATOM      3  C   UNL     1     141.741 139.111 143.638  1.00  0.00     0.054 A 
ATOM      4  C   UNL     1     142.653 138.077 143.898  1.00  0.00    -0.040 A 
ATOM      5  C   UNL     1     144.020 138.373 143.990  1.00  0.00     0.008 A 
ATOM      6  C   UNL     1     144.472 139.681 143.808  1.00  0.00     0.051 A 
ENDROOT
BRANCH   1   7
ATOM      7  O   UNL     1     143.979 142.046 143.348  1.00  0.00    -0.493 OA
ATOM      8  C   UNL     1     145.081 142.437 142.536  1.00  0.00     0.278 C 
ENDBRANCH   1   7
BRANCH   2   9
ATOM      9  O   UNL     1     141.304 141.490 143.189  1.00  0.00    -0.493 OA
ATOM     10  C   UNL     1     140.363 142.009 144.125  1.00  0.00     0.278 C 
ENDBRANCH   2   9
BRANCH   4  11
ATOM     11  C   UNL     1     142.168 136.669 144.125  1.00  0.00     0.062 C 
BRANCH  11  12
ATOM     12  C   UNL     1     141.445 136.154 142.912  1.00  0.00    -0.030 C 
ATOM     13  C   UNL     1     142.103 135.734 141.828  1.00  0.00     0.004 C 
ENDBRANCH  11  12
ENDBRANCH   4  11
TORSDOF 4
ENDMDL
