MODEL 1
REMARK VINA RESULT:    -2.478      0.000      0.000
REMARK INTER + INTRA:          -2.478
REMARK INTER:                  -2.478
REMARK INTRA:                   0.000
REMARK UNBOUND:                 0.000
REMARK SMILES CC(=O)[O-]
REMARK SMILES IDX 1 1 2 2 3 3 4 4
REMARK H PARENT
REMARK Flexibility Score: inf
ROOT
ATOM      1  C   UNL     1       1.560  20.666 -19.750  1.00  0.00     0.063 C 
ATOM      2  C   UNL     1       1.431  21.803 -18.793  1.00  0.00     0.038 C 
ATOM      3  O   UNL     1       1.342  22.983 -19.222  1.00  0.00    -0.550 OA
ATOM      4  O   UNL     1       1.463  21.567 -17.425  1.00  0.00    -0.550 OA
ENDROOT
TORSDOF 0
ENDMDL
MODEL 2
REMARK VINA RESULT:    -2.454      2.236      2.570
REMARK INTER + INTRA:          -2.454
REMARK INTER:                  -2.454
REMARK INTRA:                   0.000
REMARK UNBOUND:                 0.000
REMARK SMILES CC(=O)[O-]
REMARK SMILES IDX 1 1 2 2 3 3 4 4
REMARK H PARENT
REMARK Flexibility Score: inf
ROOT
ATOM      1  C   UNL     1       2.088  19.491 -20.250  1.00  0.00     0.063 C 
ATOM      2  C   UNL     1       2.735  20.821 -20.445  1.00  0.00     0.038 C 
ATOM      3  O   UNL     1       3.534  21.001 -21.400  1.00  0.00    -0.550 OA
ATOM      4  O   UNL     1       2.497  21.849 -19.542  1.00  0.00    -0.550 OA
ENDROOT
TORSDOF 0
ENDMDL
MODEL 3
REMARK VINA RESULT:    -2.445      0.473      1.667
REMARK INTER + INTRA:          -2.445
REMARK INTER:                  -2.445
REMARK INTRA:                   0.000
REMARK UNBOUND:                 0.000
REMARK SMILES CC(=O)[O-]
REMARK SMILES IDX 1 1 2 2 3 3 4 4
REMARK H PARENT
REMARK Flexibility Score: inf
ROOT
ATOM      1  C   UNL     1       1.344  21.030 -19.538  1.00  0.00     0.063 C 
ATOM      2  C   UNL     1       1.470  22.054 -18.460  1.00  0.00     0.038 C 
ATOM      3  O   UNL     1       1.381  21.714 -17.252  1.00  0.00    -0.550 OA
ATOM      4  O   UNL     1       1.633  23.393 -18.790  1.00  0.00    -0.550 OA
ENDROOT
TORSDOF 0
ENDMDL
MODEL 4
REMARK VINA RESULT:    -2.434      1.820      2.295
REMARK INTER + INTRA:          -2.434
REMARK INTER:                  -2.434
REMARK INTRA:                   0.000
REMARK UNBOUND:                 0.000
REMARK SMILES CC(=O)[O-]
REMARK SMILES IDX 1 1 2 2 3 3 4 4
REMARK H PARENT
REMARK Flexibility Score: inf
ROOT
ATOM      1  C   UNL     1       0.954  22.178 -18.403  1.00  0.00     0.063 C 
ATOM      2  C   UNL     1       1.646  21.445 -19.502  1.00  0.00     0.038 C 
ATOM      3  O   UNL     1       1.146  20.389 -19.969  1.00  0.00    -0.550 OA
ATOM      4  O   UNL     1       2.871  21.896 -19.976  1.00  0.00    -0.550 OA
ENDROOT
TORSDOF 0
ENDMDL
MODEL 5
REMARK VINA RESULT:    -2.378      2.439      3.062
REMARK INTER + INTRA:          -2.378
REMARK INTER:                  -2.378
REMARK INTRA:                   0.000
REMARK UNBOUND:                 0.000
REMARK SMILES CC(=O)[O-]
REMARK SMILES IDX 1 1 2 2 3 3 4 4
REMARK H PARENT
REMARK Flexibility Score: inf
ROOT
ATOM      1  C   UNL     1       3.138  21.820 -15.567  1.00  0.00     0.063 C 
ATOM      2  C   UNL     1       2.471  22.241 -16.833  1.00  0.00     0.038 C 
ATOM      3  O   UNL     1       1.420  21.665 -17.215  1.00  0.00    -0.550 OA
ATOM      4  O   UNL     1       3.039  23.234 -17.621  1.00  0.00    -0.550 OA
ENDROOT
TORSDOF 0
ENDMDL
MODEL 6
REMARK VINA RESULT:    -2.370      1.442      1.776
REMARK INTER + INTRA:          -2.370
REMARK INTER:                  -2.370
REMARK INTRA:                   0.000
REMARK UNBOUND:                 0.000
REMARK SMILES CC(=O)[O-]
REMARK SMILES IDX 1 1 2 2 3 3 4 4
REMARK H PARENT
REMARK Flexibility Score: inf
ROOT
ATOM      1  C   UNL     1       1.718  21.773 -17.268  1.00  0.00     0.063 C 
ATOM      2  C   UNL     1       1.435  22.080 -18.700  1.00  0.00     0.038 C 
ATOM      3  O   UNL     1       1.540  23.259 -19.126  1.00  0.00    -0.550 OA
ATOM      4  O   UNL     1       1.003  21.073 -19.554  1.00  0.00    -0.550 OA
ENDROOT
TORSDOF 0
ENDMDL
MODEL 7
REMARK VINA RESULT:    -2.294     11.510     11.821
REMARK INTER + INTRA:          -2.294
REMARK INTER:                  -2.294
REMARK INTRA:                   0.000
REMARK UNBOUND:                 0.000
REMARK SMILES CC(=O)[O-]
REMARK SMILES IDX 1 1 2 2 3 3 4 4
REMARK H PARENT
REMARK Flexibility Score: inf
ROOT
ATOM      1  C   UNL     1      -4.695  31.439 -18.934  1.00  0.00     0.063 C 
ATOM      2  C   UNL     1      -4.818  31.613 -17.458  1.00  0.00     0.038 C 
ATOM      3  O   UNL     1      -3.792  31.819 -16.759  1.00  0.00    -0.550 OA
ATOM      4  O   UNL     1      -6.058  31.496 -16.845  1.00  0.00    -0.550 OA
ENDROOT
TORSDOF 0
ENDMDL
MODEL 8
REMARK VINA RESULT:    -2.291     11.976     12.458
REMARK INTER + INTRA:          -2.291
REMARK INTER:                  -2.291
REMARK INTRA:                   0.000
REMARK UNBOUND:                 0.000
REMARK SMILES CC(=O)[O-]
REMARK SMILES IDX 1 1 2 2 3 3 4 4
REMARK H PARENT
REMARK Flexibility Score: inf
ROOT
ATOM      1  C   UNL     1      -4.601  31.415 -18.841  1.00  0.00     0.063 C 
ATOM      2  C   UNL     1      -5.890  31.814 -18.205  1.00  0.00     0.038 C 
ATOM      3  O   UNL     1      -6.736  32.481 -18.855  1.00  0.00    -0.550 OA
ATOM      4  O   UNL     1      -6.137  31.497 -16.875  1.00  0.00    -0.550 OA
ENDROOT
TORSDOF 0
ENDMDL
MODEL 9
REMARK VINA RESULT:    -2.242      9.739     10.255
REMARK INTER + INTRA:          -2.242
REMARK INTER:                  -2.242
REMARK INTRA:                   0.000
REMARK UNBOUND:                 0.000
REMARK SMILES CC(=O)[O-]
REMARK SMILES IDX 1 1 2 2 3 3 4 4
REMARK H PARENT
REMARK Flexibility Score: inf
ROOT
ATOM      1  C   UNL     1       7.792  23.018  -9.738  1.00  0.00     0.063 C 
ATOM      2  C   UNL     1       7.709  23.544 -11.131  1.00  0.00     0.038 C 
ATOM      3  O   UNL     1       6.637  24.049 -11.553  1.00  0.00    -0.550 OA
ATOM      4  O   UNL     1       8.800  23.428 -11.984  1.00  0.00    -0.550 OA
ENDROOT
TORSDOF 0
ENDMDL
