MODEL 1
REMARK VINA RESULT:    -2.869      0.000      0.000
REMARK INTER + INTRA:          -3.976
REMARK INTER:                  -3.707
REMARK INTRA:                  -0.269
REMARK UNBOUND:                -0.269
REMARK SMILES CCCCCCC(=O)[O-]
REMARK SMILES IDX 5 1 6 2 7 3 8 4 9 5 4 6 3 7 2 8 1 9
REMARK H PARENT
REMARK Flexibility Score: inf
ROOT
ATOM      1  C   UNL     1     144.228 159.701 153.372  1.00  0.00     0.006 C 
ENDROOT
BRANCH   1   2
ATOM      2  C   UNL     1     144.498 159.944 154.865  1.00  0.00     0.053 C 
BRANCH   2   3
ATOM      3  C   UNL     1     144.740 158.665 155.606  1.00  0.00     0.041 C 
ATOM      4  O   UNL     1     143.862 157.764 155.619  1.00  0.00    -0.550 OA
ATOM      5  O   UNL     1     145.951 158.454 156.254  1.00  0.00    -0.550 OA
ENDBRANCH   2   3
ENDBRANCH   1   2
BRANCH   1   6
ATOM      6  C   UNL     1     142.822 160.123 152.898  1.00  0.00     0.000 C 
BRANCH   6   7
ATOM      7  C   UNL     1     141.739 160.125 153.992  1.00  0.00    -0.000 C 
BRANCH   7   8
ATOM      8  C   UNL     1     140.415 159.505 153.523  1.00  0.00    -0.003 C 
ATOM      9  C   UNL     1     140.645 158.138 152.883  1.00  0.00     0.004 C 
ENDBRANCH   7   8
ENDBRANCH   6   7
ENDBRANCH   1   6
TORSDOF 5
ENDMDL
MODEL 2
REMARK VINA RESULT:    -2.801     18.732     20.079
REMARK INTER + INTRA:          -3.889
REMARK INTER:                  -3.553
REMARK INTRA:                  -0.336
REMARK UNBOUND:                -0.269
REMARK SMILES CCCCCCC(=O)[O-]
REMARK SMILES IDX 5 1 6 2 7 3 8 4 9 5 4 6 3 7 2 8 1 9
REMARK H PARENT
REMARK Flexibility Score: inf
ROOT
ATOM      1  C   UNL     1     142.483 139.880 145.710  1.00  0.00     0.006 C 
ENDROOT
BRANCH   1   2
ATOM      2  C   UNL     1     143.628 139.875 144.685  1.00  0.00     0.053 C 
BRANCH   2   3
ATOM      3  C   UNL     1     144.440 141.132 144.745  1.00  0.00     0.041 C 
ATOM      4  O   UNL     1     145.064 141.434 145.796  1.00  0.00    -0.550 OA
ATOM      5  O   UNL     1     144.538 141.952 143.628  1.00  0.00    -0.550 OA
ENDBRANCH   2   3
ENDBRANCH   1   2
BRANCH   1   6
ATOM      6  C   UNL     1     141.434 140.989 145.493  1.00  0.00     0.000 C 
BRANCH   6   7
ATOM      7  C   UNL     1     141.199 141.910 146.705  1.00  0.00    -0.000 C 
BRANCH   7   8
ATOM      8  C   UNL     1     142.081 141.550 147.909  1.00  0.00    -0.003 C 
ATOM      9  C   UNL     1     141.375 141.875 149.223  1.00  0.00     0.004 C 
ENDBRANCH   7   8
ENDBRANCH   6   7
ENDBRANCH   1   6
TORSDOF 5
ENDMDL
MODEL 3
REMARK VINA RESULT:    -2.780      1.411      1.909
REMARK INTER + INTRA:          -3.861
REMARK INTER:                  -3.648
REMARK INTRA:                  -0.213
REMARK UNBOUND:                -0.269
REMARK SMILES CCCCCCC(=O)[O-]
REMARK SMILES IDX 5 1 6 2 7 3 8 4 9 5 4 6 3 7 2 8 1 9
REMARK H PARENT
REMARK Flexibility Score: inf
ROOT
ATOM      1  C   UNL     1     144.001 157.597 154.241  1.00  0.00     0.006 C 
ENDROOT
BRANCH   1   2
ATOM      2  C   UNL     1     144.401 158.355 155.517  1.00  0.00     0.053 C 
BRANCH   2   3
ATOM      3  C   UNL     1     144.630 157.429 156.672  1.00  0.00     0.041 C 
ATOM      4  O   UNL     1     145.647 157.565 157.400  1.00  0.00    -0.550 OA
ATOM      5  O   UNL     1     143.701 156.439 156.966  1.00  0.00    -0.550 OA
ENDBRANCH   2   3
ENDBRANCH   1   2
BRANCH   1   6
ATOM      6  C   UNL     1     142.908 158.287 153.401  1.00  0.00     0.000 C 
BRANCH   6   7
ATOM      7  C   UNL     1     142.525 159.705 153.867  1.00  0.00    -0.000 C 
BRANCH   7   8
ATOM      8  C   UNL     1     141.035 160.017 153.667  1.00  0.00    -0.003 C 
ATOM      9  C   UNL     1     140.239 158.744 153.389  1.00  0.00     0.004 C 
ENDBRANCH   7   8
ENDBRANCH   6   7
ENDBRANCH   1   6
TORSDOF 5
ENDMDL
MODEL 4
REMARK VINA RESULT:    -2.656     18.821     20.099
REMARK INTER + INTRA:          -3.702
REMARK INTER:                  -3.346
REMARK INTRA:                  -0.356
REMARK UNBOUND:                -0.269
REMARK SMILES CCCCCCC(=O)[O-]
REMARK SMILES IDX 5 1 6 2 7 3 8 4 9 5 4 6 3 7 2 8 1 9
REMARK H PARENT
REMARK Flexibility Score: inf
ROOT
ATOM      1  C   UNL     1     144.185 140.452 145.908  1.00  0.00     0.006 C 
ENDROOT
BRANCH   1   2
ATOM      2  C   UNL     1     144.341 140.638 144.391  1.00  0.00     0.053 C 
BRANCH   2   3
ATOM      3  C   UNL     1     144.932 141.971 144.047  1.00  0.00     0.041 C 
ATOM      4  O   UNL     1     144.433 143.026 144.519  1.00  0.00    -0.550 OA
ATOM      5  O   UNL     1     146.057 142.046 143.235  1.00  0.00    -0.550 OA
ENDBRANCH   2   3
ENDBRANCH   1   2
BRANCH   1   6
ATOM      6  C   UNL     1     142.727 140.326 146.392  1.00  0.00     0.000 C 
BRANCH   6   7
ATOM      7  C   UNL     1     141.658 140.675 145.339  1.00  0.00    -0.000 C 
BRANCH   7   8
ATOM      8  C   UNL     1     140.673 141.750 145.821  1.00  0.00    -0.003 C 
ATOM      9  C   UNL     1     141.409 143.017 146.248  1.00  0.00     0.004 C 
ENDBRANCH   7   8
ENDBRANCH   6   7
ENDBRANCH   1   6
TORSDOF 5
ENDMDL
MODEL 5
REMARK VINA RESULT:    -2.656     17.956     19.333
REMARK INTER + INTRA:          -3.701
REMARK INTER:                  -3.396
REMARK INTRA:                  -0.305
REMARK UNBOUND:                -0.269
REMARK SMILES CCCCCCC(=O)[O-]
REMARK SMILES IDX 5 1 6 2 7 3 8 4 9 5 4 6 3 7 2 8 1 9
REMARK H PARENT
REMARK Flexibility Score: inf
ROOT
ATOM      1  C   UNL     1     142.211 142.700 147.235  1.00  0.00     0.006 C 
ENDROOT
BRANCH   1   2
ATOM      2  C   UNL     1     142.192 142.795 148.768  1.00  0.00     0.053 C 
BRANCH   2   3
ATOM      3  C   UNL     1     141.785 141.503 149.406  1.00  0.00     0.041 C 
ATOM      4  O   UNL     1     142.509 140.480 149.283  1.00  0.00    -0.550 OA
ATOM      5  O   UNL     1     140.625 141.436 150.167  1.00  0.00    -0.550 OA
ENDBRANCH   2   3
ENDBRANCH   1   2
BRANCH   1   6
ATOM      6  C   UNL     1     140.978 142.007 146.620  1.00  0.00     0.000 C 
BRANCH   6   7
ATOM      7  C   UNL     1     141.280 141.055 145.448  1.00  0.00    -0.000 C 
BRANCH   7   8
ATOM      8  C   UNL     1     142.381 140.036 145.775  1.00  0.00    -0.003 C 
ATOM      9  C   UNL     1     143.366 139.901 144.617  1.00  0.00     0.004 C 
ENDBRANCH   7   8
ENDBRANCH   6   7
ENDBRANCH   1   6
TORSDOF 5
ENDMDL
MODEL 6
REMARK VINA RESULT:    -2.618     18.637     20.070
REMARK INTER + INTRA:          -3.652
REMARK INTER:                  -3.292
REMARK INTRA:                  -0.360
REMARK UNBOUND:                -0.269
REMARK SMILES CCCCCCC(=O)[O-]
REMARK SMILES IDX 5 1 6 2 7 3 8 4 9 5 4 6 3 7 2 8 1 9
REMARK H PARENT
REMARK Flexibility Score: inf
ROOT
ATOM      1  C   UNL     1     142.577 139.875 145.462  1.00  0.00     0.006 C 
ENDROOT
BRANCH   1   2
ATOM      2  C   UNL     1     142.350 140.963 146.523  1.00  0.00     0.053 C 
BRANCH   2   3
ATOM      3  C   UNL     1     141.208 141.864 146.167  1.00  0.00     0.041 C 
ATOM      4  O   UNL     1     141.250 143.086 146.465  1.00  0.00    -0.550 OA
ATOM      5  O   UNL     1     140.114 141.362 145.474  1.00  0.00    -0.550 OA
ENDBRANCH   2   3
ENDBRANCH   1   2
BRANCH   1   6
ATOM      6  C   UNL     1     143.779 140.130 144.529  1.00  0.00     0.000 C 
BRANCH   6   7
ATOM      7  C   UNL     1     144.612 141.380 144.867  1.00  0.00    -0.000 C 
BRANCH   7   8
ATOM      8  C   UNL     1     144.457 142.500 143.828  1.00  0.00    -0.003 C 
ATOM      9  C   UNL     1     144.096 143.824 144.497  1.00  0.00     0.004 C 
ENDBRANCH   7   8
ENDBRANCH   6   7
ENDBRANCH   1   6
TORSDOF 5
ENDMDL
MODEL 7
REMARK VINA RESULT:    -2.609     19.106     20.142
REMARK INTER + INTRA:          -3.641
REMARK INTER:                  -3.309
REMARK INTRA:                  -0.332
REMARK UNBOUND:                -0.269
REMARK SMILES CCCCCCC(=O)[O-]
REMARK SMILES IDX 5 1 6 2 7 3 8 4 9 5 4 6 3 7 2 8 1 9
REMARK H PARENT
REMARK Flexibility Score: inf
ROOT
ATOM      1  C   UNL     1     144.366 140.187 146.749  1.00  0.00     0.006 C 
ENDROOT
BRANCH   1   2
ATOM      2  C   UNL     1     145.012 141.213 145.805  1.00  0.00     0.053 C 
BRANCH   2   3
ATOM      3  C   UNL     1     144.608 140.996 144.379  1.00  0.00     0.041 C 
ATOM      4  O   UNL     1     144.174 139.875 144.007  1.00  0.00    -0.550 OA
ATOM      5  O   UNL     1     144.677 142.044 143.469  1.00  0.00    -0.550 OA
ENDBRANCH   2   3
ENDBRANCH   1   2
BRANCH   1   6
ATOM      6  C   UNL     1     143.351 140.782 147.745  1.00  0.00     0.000 C 
BRANCH   6   7
ATOM      7  C   UNL     1     142.633 142.057 147.262  1.00  0.00    -0.000 C 
BRANCH   7   8
ATOM      8  C   UNL     1     141.143 141.831 146.974  1.00  0.00    -0.003 C 
ATOM      9  C   UNL     1     140.930 141.319 145.551  1.00  0.00     0.004 C 
ENDBRANCH   7   8
ENDBRANCH   6   7
ENDBRANCH   1   6
TORSDOF 5
ENDMDL
MODEL 8
REMARK VINA RESULT:    -2.573     18.035     19.513
REMARK INTER + INTRA:          -3.594
REMARK INTER:                  -3.264
REMARK INTRA:                  -0.331
REMARK UNBOUND:                -0.269
REMARK SMILES CCCCCCC(=O)[O-]
REMARK SMILES IDX 5 1 6 2 7 3 8 4 9 5 4 6 3 7 2 8 1 9
REMARK H PARENT
REMARK Flexibility Score: inf
ROOT
ATOM      1  C   UNL     1     140.787 141.743 146.025  1.00  0.00     0.006 C 
ENDROOT
BRANCH   1   2
ATOM      2  C   UNL     1     141.672 142.736 146.793  1.00  0.00     0.053 C 
BRANCH   2   3
ATOM      3  C   UNL     1     141.401 142.706 148.266  1.00  0.00     0.041 C 
ATOM      4  O   UNL     1     141.262 143.781 148.907  1.00  0.00    -0.550 OA
ATOM      5  O   UNL     1     141.264 141.490 148.925  1.00  0.00    -0.550 OA
ENDBRANCH   2   3
ENDBRANCH   1   2
BRANCH   1   6
ATOM      6  C   UNL     1     141.564 140.660 145.248  1.00  0.00     0.000 C 
BRANCH   6   7
ATOM      7  C   UNL     1     142.823 140.127 145.955  1.00  0.00    -0.000 C 
BRANCH   7   8
ATOM      8  C   UNL     1     144.031 140.006 145.015  1.00  0.00    -0.003 C 
ATOM      9  C   UNL     1     144.348 141.345 144.354  1.00  0.00     0.004 C 
ENDBRANCH   7   8
ENDBRANCH   6   7
ENDBRANCH   1   6
TORSDOF 5
ENDMDL
