MODEL 1
REMARK VINA RESULT:    -2.979      0.000      0.000
REMARK INTER + INTRA:          -3.818
REMARK INTER:                  -3.676
REMARK INTRA:                  -0.142
REMARK UNBOUND:                -0.142
REMARK SMILES CCCCCC(=O)[O-]
REMARK SMILES IDX 4 1 5 2 6 3 7 4 8 5 3 6 2 7 1 8
REMARK H PARENT
REMARK Flexibility Score: inf
ROOT
ATOM      1  C   UNL     1     111.674  65.206 217.709  1.00  0.00     0.006 C 
ENDROOT
BRANCH   1   2
ATOM      2  C   UNL     1     113.008  65.849 218.120  1.00  0.00     0.053 C 
BRANCH   2   3
ATOM      3  C   UNL     1     113.482  66.850 217.112  1.00  0.00     0.041 C 
ATOM      4  O   UNL     1     114.099  66.469 216.082  1.00  0.00    -0.550 OA
ATOM      5  O   UNL     1     113.215  68.200 217.294  1.00  0.00    -0.550 OA
ENDBRANCH   2   3
ENDBRANCH   1   2
BRANCH   1   6
ATOM      6  C   UNL     1     111.821  63.865 216.965  1.00  0.00     0.000 C 
BRANCH   6   7
ATOM      7  C   UNL     1     111.576  63.994 215.454  1.00  0.00    -0.003 C 
ATOM      8  C   UNL     1     110.251  63.350 215.057  1.00  0.00     0.004 C 
ENDBRANCH   6   7
ENDBRANCH   1   6
TORSDOF 4
ENDMDL
MODEL 2
REMARK VINA RESULT:    -2.893      0.849      1.492
REMARK INTER + INTRA:          -3.712
REMARK INTER:                  -3.613
REMARK INTRA:                  -0.098
REMARK UNBOUND:                -0.142
REMARK SMILES CCCCCC(=O)[O-]
REMARK SMILES IDX 4 1 5 2 6 3 7 4 8 5 3 6 2 7 1 8
REMARK H PARENT
REMARK Flexibility Score: inf
ROOT
ATOM      1  C   UNL     1     111.845  64.674 216.680  1.00  0.00     0.006 C 
ENDROOT
BRANCH   1   2
ATOM      2  C   UNL     1     112.202  65.768 217.699  1.00  0.00     0.053 C 
BRANCH   2   3
ATOM      3  C   UNL     1     113.132  66.790 217.122  1.00  0.00     0.041 C 
ATOM      4  O   UNL     1     113.004  68.006 217.424  1.00  0.00    -0.550 OA
ATOM      5  O   UNL     1     114.161  66.394 216.278  1.00  0.00    -0.550 OA
ENDBRANCH   2   3
ENDBRANCH   1   2
BRANCH   1   6
ATOM      6  C   UNL     1     111.814  63.250 217.267  1.00  0.00     0.000 C 
BRANCH   6   7
ATOM      7  C   UNL     1     110.939  62.289 216.447  1.00  0.00    -0.003 C 
ATOM      8  C   UNL     1     110.331  62.996 215.239  1.00  0.00     0.004 C 
ENDBRANCH   6   7
ENDBRANCH   1   6
TORSDOF 4
ENDMDL
MODEL 3
REMARK VINA RESULT:    -2.798      1.769      3.274
REMARK INTER + INTRA:          -3.595
REMARK INTER:                  -3.356
REMARK INTRA:                  -0.239
REMARK UNBOUND:                -0.142
REMARK SMILES CCCCCC(=O)[O-]
REMARK SMILES IDX 4 1 5 2 6 3 7 4 8 5 3 6 2 7 1 8
REMARK H PARENT
REMARK Flexibility Score: inf
ROOT
ATOM      1  C   UNL     1     111.670  65.517 218.206  1.00  0.00     0.006 C 
ENDROOT
BRANCH   1   2
ATOM      2  C   UNL     1     112.369  65.637 216.842  1.00  0.00     0.053 C 
BRANCH   2   3
ATOM      3  C   UNL     1     113.549  66.556 216.895  1.00  0.00     0.041 C 
ATOM      4  O   UNL     1     114.711  66.108 216.712  1.00  0.00    -0.550 OA
ATOM      5  O   UNL     1     113.362  67.915 217.115  1.00  0.00    -0.550 OA
ENDBRANCH   2   3
ENDBRANCH   1   2
BRANCH   1   6
ATOM      6  C   UNL     1     112.498  64.782 219.277  1.00  0.00     0.000 C 
BRANCH   6   7
ATOM      7  C   UNL     1     112.479  65.498 220.636  1.00  0.00    -0.003 C 
ATOM      8  C   UNL     1     112.032  66.949 220.485  1.00  0.00     0.004 C 
ENDBRANCH   6   7
ENDBRANCH   1   6
TORSDOF 4
ENDMDL
MODEL 4
REMARK VINA RESULT:    -2.760      1.602      2.512
REMARK INTER + INTRA:          -3.548
REMARK INTER:                  -3.416
REMARK INTRA:                  -0.132
REMARK UNBOUND:                -0.142
REMARK SMILES CCCCCC(=O)[O-]
REMARK SMILES IDX 4 1 5 2 6 3 7 4 8 5 3 6 2 7 1 8
REMARK H PARENT
REMARK Flexibility Score: inf
ROOT
ATOM      1  C   UNL     1     112.198  64.523 216.874  1.00  0.00     0.006 C 
ENDROOT
BRANCH   1   2
ATOM      2  C   UNL     1     112.154  65.912 217.532  1.00  0.00     0.053 C 
BRANCH   2   3
ATOM      3  C   UNL     1     113.233  66.812 217.016  1.00  0.00     0.041 C 
ATOM      4  O   UNL     1     114.135  66.354 216.266  1.00  0.00    -0.550 OA
ATOM      5  O   UNL     1     113.224  68.163 217.337  1.00  0.00    -0.550 OA
ENDBRANCH   2   3
ENDBRANCH   1   2
BRANCH   1   6
ATOM      6  C   UNL     1     112.071  63.350 217.864  1.00  0.00     0.000 C 
BRANCH   6   7
ATOM      7  C   UNL     1     112.513  63.724 219.288  1.00  0.00    -0.003 C 
ATOM      8  C   UNL     1     112.011  62.702 220.303  1.00  0.00     0.004 C 
ENDBRANCH   6   7
ENDBRANCH   1   6
TORSDOF 4
ENDMDL
MODEL 5
REMARK VINA RESULT:    -2.696     11.712     13.092
REMARK INTER + INTRA:          -3.469
REMARK INTER:                  -3.237
REMARK INTRA:                  -0.233
REMARK UNBOUND:                -0.142
REMARK SMILES CCCCCC(=O)[O-]
REMARK SMILES IDX 4 1 5 2 6 3 7 4 8 5 3 6 2 7 1 8
REMARK H PARENT
REMARK Flexibility Score: inf
ROOT
ATOM      1  C   UNL     1     101.183  58.135 218.025  1.00  0.00     0.006 C 
ENDROOT
BRANCH   1   2
ATOM      2  C   UNL     1     100.462  59.481 217.850  1.00  0.00     0.053 C 
BRANCH   2   3
ATOM      3  C   UNL     1     100.214  60.159 219.162  1.00  0.00     0.041 C 
ATOM      4  O   UNL     1      99.309  59.740 219.931  1.00  0.00    -0.550 OA
ATOM      5  O   UNL     1     101.004  61.233 219.550  1.00  0.00    -0.550 OA
ENDBRANCH   2   3
ENDBRANCH   1   2
BRANCH   1   6
ATOM      6  C   UNL     1     102.717  58.222 217.924  1.00  0.00     0.000 C 
BRANCH   6   7
ATOM      7  C   UNL     1     103.409  58.132 219.293  1.00  0.00    -0.003 C 
ATOM      8  C   UNL     1     104.047  59.465 219.673  1.00  0.00     0.004 C 
ENDBRANCH   6   7
ENDBRANCH   1   6
TORSDOF 4
ENDMDL
MODEL 6
REMARK VINA RESULT:    -2.693     16.681     17.481
REMARK INTER + INTRA:          -3.465
REMARK INTER:                  -3.374
REMARK INTRA:                  -0.091
REMARK UNBOUND:                -0.142
REMARK SMILES CCCCCC(=O)[O-]
REMARK SMILES IDX 4 1 5 2 6 3 7 4 8 5 3 6 2 7 1 8
REMARK H PARENT
REMARK Flexibility Score: inf
ROOT
ATOM      1  C   UNL     1     113.171  55.101 229.624  1.00  0.00     0.006 C 
ENDROOT
BRANCH   1   2
ATOM      2  C   UNL     1     113.873  53.928 228.922  1.00  0.00     0.053 C 
BRANCH   2   3
ATOM      3  C   UNL     1     113.584  53.900 227.453  1.00  0.00     0.041 C 
ATOM      4  O   UNL     1     114.377  54.445 226.640  1.00  0.00    -0.550 OA
ATOM      5  O   UNL     1     112.456  53.243 226.979  1.00  0.00    -0.550 OA
ENDBRANCH   2   3
ENDBRANCH   1   2
BRANCH   1   6
ATOM      6  C   UNL     1     113.271  55.070 231.161  1.00  0.00     0.000 C 
BRANCH   6   7
ATOM      7  C   UNL     1     113.115  53.654 231.738  1.00  0.00    -0.003 C 
ATOM      8  C   UNL     1     113.717  53.562 233.136  1.00  0.00     0.004 C 
ENDBRANCH   6   7
ENDBRANCH   1   6
TORSDOF 4
ENDMDL
MODEL 7
REMARK VINA RESULT:    -2.683     15.414     16.162
REMARK INTER + INTRA:          -3.453
REMARK INTER:                  -3.347
REMARK INTRA:                  -0.106
REMARK UNBOUND:                -0.142
REMARK SMILES CCCCCC(=O)[O-]
REMARK SMILES IDX 4 1 5 2 6 3 7 4 8 5 3 6 2 7 1 8
REMARK H PARENT
REMARK Flexibility Score: inf
ROOT
ATOM      1  C   UNL     1      98.677  64.586 225.520  1.00  0.00     0.006 C 
ENDROOT
BRANCH   1   2
ATOM      2  C   UNL     1      99.522  65.863 225.384  1.00  0.00     0.053 C 
BRANCH   2   3
ATOM      3  C   UNL     1     100.872  65.582 224.802  1.00  0.00     0.041 C 
ATOM      4  O   UNL     1     101.813  66.405 224.957  1.00  0.00    -0.550 OA
ATOM      5  O   UNL     1     101.102  64.396 224.117  1.00  0.00    -0.550 OA
ENDBRANCH   2   3
ENDBRANCH   1   2
BRANCH   1   6
ATOM      6  C   UNL     1      97.270  64.690 224.903  1.00  0.00     0.000 C 
BRANCH   6   7
ATOM      7  C   UNL     1      96.369  65.689 225.644  1.00  0.00    -0.003 C 
ATOM      8  C   UNL     1      95.649  65.018 226.810  1.00  0.00     0.004 C 
ENDBRANCH   6   7
ENDBRANCH   1   6
TORSDOF 4
ENDMDL
MODEL 8
REMARK VINA RESULT:    -2.599     12.862     14.052
REMARK INTER + INTRA:          -3.349
REMARK INTER:                  -3.174
REMARK INTRA:                  -0.176
REMARK UNBOUND:                -0.142
REMARK SMILES CCCCCC(=O)[O-]
REMARK SMILES IDX 4 1 5 2 6 3 7 4 8 5 3 6 2 7 1 8
REMARK H PARENT
REMARK Flexibility Score: inf
ROOT
ATOM      1  C   UNL     1     100.713  57.911 218.880  1.00  0.00     0.006 C 
ENDROOT
BRANCH   1   2
ATOM      2  C   UNL     1     101.526  58.395 220.092  1.00  0.00     0.053 C 
BRANCH   2   3
ATOM      3  C   UNL     1     102.121  59.749 219.863  1.00  0.00     0.041 C 
ATOM      4  O   UNL     1     103.370  59.888 219.784  1.00  0.00    -0.550 OA
ATOM      5  O   UNL     1     101.294  60.854 219.705  1.00  0.00    -0.550 OA
ENDBRANCH   2   3
ENDBRANCH   1   2
BRANCH   1   6
ATOM      6  C   UNL     1      99.187  58.020 219.059  1.00  0.00     0.000 C 
BRANCH   6   7
ATOM      7  C   UNL     1      98.771  58.187 220.529  1.00  0.00    -0.003 C 
ATOM      8  C   UNL     1      97.578  57.298 220.866  1.00  0.00     0.004 C 
ENDBRANCH   6   7
ENDBRANCH   1   6
TORSDOF 4
ENDMDL
MODEL 9
REMARK VINA RESULT:    -2.540     17.163     18.007
REMARK INTER + INTRA:          -3.276
REMARK INTER:                  -3.208
REMARK INTRA:                  -0.068
REMARK UNBOUND:                -0.142
REMARK SMILES CCCCCC(=O)[O-]
REMARK SMILES IDX 4 1 5 2 6 3 7 4 8 5 3 6 2 7 1 8
REMARK H PARENT
REMARK Flexibility Score: inf
ROOT
ATOM      1  C   UNL     1      97.532  64.222 225.777  1.00  0.00     0.006 C 
ENDROOT
BRANCH   1   2
ATOM      2  C   UNL     1      97.221  64.368 227.276  1.00  0.00     0.053 C 
BRANCH   2   3
ATOM      3  C   UNL     1      95.968  65.152 227.514  1.00  0.00     0.041 C 
ATOM      4  O   UNL     1      95.908  65.979 228.462  1.00  0.00    -0.550 OA
ATOM      5  O   UNL     1      94.877  64.993 226.669  1.00  0.00    -0.550 OA
ENDBRANCH   2   3
ENDBRANCH   1   2
BRANCH   1   6
ATOM      6  C   UNL     1      98.747  65.039 225.301  1.00  0.00     0.000 C 
BRANCH   6   7
ATOM      7  C   UNL     1     100.086  64.405 225.707  1.00  0.00    -0.003 C 
ATOM      8  C   UNL     1     101.170  64.705 224.676  1.00  0.00     0.004 C 
ENDBRANCH   6   7
ENDBRANCH   1   6
TORSDOF 4
ENDMDL
