MODEL 1
REMARK VINA RESULT:    -3.378      0.000      0.000
REMARK INTER + INTRA:          -4.534
REMARK INTER:                  -4.365
REMARK INTRA:                  -0.169
REMARK UNBOUND:                -0.169
REMARK SMILES CCCCCCC(=O)[O-]
REMARK SMILES IDX 5 1 6 2 7 3 8 4 9 5 4 6 3 7 2 8 1 9
REMARK H PARENT
REMARK Flexibility Score: inf
ROOT
ATOM      1  C   UNL     1     -13.454   6.077  -0.706  1.00  0.00     0.006 C 
ENDROOT
BRANCH   1   2
ATOM      2  C   UNL     1     -14.002   7.111   0.286  1.00  0.00     0.053 C 
BRANCH   2   3
ATOM      3  C   UNL     1     -13.077   8.283   0.382  1.00  0.00     0.041 C 
ATOM      4  O   UNL     1     -13.305   9.204   1.210  1.00  0.00    -0.550 OA
ATOM      5  O   UNL     1     -11.937   8.335  -0.409  1.00  0.00    -0.550 OA
ENDBRANCH   2   3
ENDBRANCH   1   2
BRANCH   1   6
ATOM      6  C   UNL     1     -14.556   5.207  -1.336  1.00  0.00     0.000 C 
BRANCH   6   7
ATOM      7  C   UNL     1     -15.880   5.164  -0.550  1.00  0.00    -0.000 C 
BRANCH   7   8
ATOM      8  C   UNL     1     -16.903   4.191  -1.155  1.00  0.00    -0.003 C 
ATOM      9  C   UNL     1     -16.566   3.875  -2.610  1.00  0.00     0.004 C 
ENDBRANCH   7   8
ENDBRANCH   6   7
ENDBRANCH   1   6
TORSDOF 5
ENDMDL
MODEL 2
REMARK VINA RESULT:    -3.146     11.181     12.633
REMARK INTER + INTRA:          -4.234
REMARK INTER:                  -3.874
REMARK INTRA:                  -0.360
REMARK UNBOUND:                -0.169
REMARK SMILES CCCCCCC(=O)[O-]
REMARK SMILES IDX 5 1 6 2 7 3 8 4 9 5 4 6 3 7 2 8 1 9
REMARK H PARENT
REMARK Flexibility Score: inf
ROOT
ATOM      1  C   UNL     1     -16.087  13.453  10.368  1.00  0.00     0.006 C 
ENDROOT
BRANCH   1   2
ATOM      2  C   UNL     1     -14.855  12.861  11.065  1.00  0.00     0.053 C 
BRANCH   2   3
ATOM      3  C   UNL     1     -13.787  13.899  11.208  1.00  0.00     0.041 C 
ATOM      4  O   UNL     1     -13.698  14.835  10.370  1.00  0.00    -0.550 OA
ATOM      5  O   UNL     1     -12.921  13.861  12.292  1.00  0.00    -0.550 OA
ENDBRANCH   2   3
ENDBRANCH   1   2
BRANCH   1   6
ATOM      6  C   UNL     1     -16.424  12.746   9.043  1.00  0.00     0.000 C 
BRANCH   6   7
ATOM      7  C   UNL     1     -15.209  12.211   8.263  1.00  0.00    -0.000 C 
BRANCH   7   8
ATOM      8  C   UNL     1     -14.855  13.073   7.043  1.00  0.00    -0.003 C 
ATOM      9  C   UNL     1     -13.412  13.566   7.119  1.00  0.00     0.004 C 
ENDBRANCH   7   8
ENDBRANCH   6   7
ENDBRANCH   1   6
TORSDOF 5
ENDMDL
MODEL 3
REMARK VINA RESULT:    -3.134     10.727     13.099
REMARK INTER + INTRA:          -4.219
REMARK INTER:                  -3.940
REMARK INTRA:                  -0.279
REMARK UNBOUND:                -0.169
REMARK SMILES CCCCCCC(=O)[O-]
REMARK SMILES IDX 5 1 6 2 7 3 8 4 9 5 4 6 3 7 2 8 1 9
REMARK H PARENT
REMARK Flexibility Score: inf
ROOT
ATOM      1  C   UNL     1     -15.739  13.103   9.622  1.00  0.00     0.006 C 
ENDROOT
BRANCH   1   2
ATOM      2  C   UNL     1     -14.529  12.580   8.839  1.00  0.00     0.053 C 
BRANCH   2   3
ATOM      3  C   UNL     1     -14.526  13.138   7.451  1.00  0.00     0.041 C 
ATOM      4  O   UNL     1     -13.444  13.495   6.914  1.00  0.00    -0.550 OA
ATOM      5  O   UNL     1     -15.711  13.220   6.731  1.00  0.00    -0.550 OA
ENDBRANCH   2   3
ENDBRANCH   1   2
BRANCH   1   6
ATOM      6  C   UNL     1     -15.345  13.824  10.924  1.00  0.00     0.000 C 
BRANCH   6   7
ATOM      7  C   UNL     1     -13.893  14.333  10.972  1.00  0.00    -0.000 C 
BRANCH   7   8
ATOM      8  C   UNL     1     -13.125  13.836  12.206  1.00  0.00    -0.003 C 
ATOM      9  C   UNL     1     -13.974  12.871  13.029  1.00  0.00     0.004 C 
ENDBRANCH   7   8
ENDBRANCH   6   7
ENDBRANCH   1   6
TORSDOF 5
ENDMDL
MODEL 4
REMARK VINA RESULT:    -3.107      3.043      5.024
REMARK INTER + INTRA:          -4.184
REMARK INTER:                  -4.072
REMARK INTRA:                  -0.112
REMARK UNBOUND:                -0.169
REMARK SMILES CCCCCCC(=O)[O-]
REMARK SMILES IDX 5 1 6 2 7 3 8 4 9 5 4 6 3 7 2 8 1 9
REMARK H PARENT
REMARK Flexibility Score: inf
ROOT
ATOM      1  C   UNL     1     -15.941   6.148  -0.115  1.00  0.00     0.006 C 
ENDROOT
BRANCH   1   2
ATOM      2  C   UNL     1     -16.058   4.638  -0.357  1.00  0.00     0.053 C 
BRANCH   2   3
ATOM      3  C   UNL     1     -15.901   4.330  -1.812  1.00  0.00     0.041 C 
ATOM      4  O   UNL     1     -14.753   4.177  -2.307  1.00  0.00    -0.550 OA
ATOM      5  O   UNL     1     -17.024   4.163  -2.613  1.00  0.00    -0.550 OA
ENDBRANCH   2   3
ENDBRANCH   1   2
BRANCH   1   6
ATOM      6  C   UNL     1     -14.484   6.619   0.046  1.00  0.00     0.000 C 
BRANCH   6   7
ATOM      7  C   UNL     1     -14.311   7.955   0.792  1.00  0.00    -0.000 C 
BRANCH   7   8
ATOM      8  C   UNL     1     -12.962   8.630   0.503  1.00  0.00    -0.003 C 
ATOM      9  C   UNL     1     -12.135   7.807  -0.481  1.00  0.00     0.004 C 
ENDBRANCH   7   8
ENDBRANCH   6   7
ENDBRANCH   1   6
TORSDOF 5
ENDMDL
MODEL 5
REMARK VINA RESULT:    -3.060     10.584     12.443
REMARK INTER + INTRA:          -4.123
REMARK INTER:                  -3.959
REMARK INTRA:                  -0.164
REMARK UNBOUND:                -0.169
REMARK SMILES CCCCCCC(=O)[O-]
REMARK SMILES IDX 5 1 6 2 7 3 8 4 9 5 4 6 3 7 2 8 1 9
REMARK H PARENT
REMARK Flexibility Score: inf
ROOT
ATOM      1  C   UNL     1     -14.372  13.353   9.502  1.00  0.00     0.006 C 
ENDROOT
BRANCH   1   2
ATOM      2  C   UNL     1     -13.821  14.525  10.325  1.00  0.00     0.053 C 
BRANCH   2   3
ATOM      3  C   UNL     1     -13.879  14.208  11.786  1.00  0.00     0.041 C 
ATOM      4  O   UNL     1     -12.857  13.779  12.383  1.00  0.00    -0.550 OA
ATOM      5  O   UNL     1     -15.049  14.433  12.500  1.00  0.00    -0.550 OA
ENDBRANCH   2   3
ENDBRANCH   1   2
BRANCH   1   6
ATOM      6  C   UNL     1     -13.935  13.398   8.027  1.00  0.00     0.000 C 
BRANCH   6   7
ATOM      7  C   UNL     1     -15.008  12.952   7.017  1.00  0.00    -0.000 C 
BRANCH   7   8
ATOM      8  C   UNL     1     -16.063  12.024   7.636  1.00  0.00    -0.003 C 
ATOM      9  C   UNL     1     -15.868  10.583   7.171  1.00  0.00     0.004 C 
ENDBRANCH   7   8
ENDBRANCH   6   7
ENDBRANCH   1   6
TORSDOF 5
ENDMDL
MODEL 6
REMARK VINA RESULT:    -3.037      3.026      5.135
REMARK INTER + INTRA:          -4.094
REMARK INTER:                  -3.947
REMARK INTRA:                  -0.147
REMARK UNBOUND:                -0.169
REMARK SMILES CCCCCCC(=O)[O-]
REMARK SMILES IDX 5 1 6 2 7 3 8 4 9 5 4 6 3 7 2 8 1 9
REMARK H PARENT
REMARK Flexibility Score: inf
ROOT
ATOM      1  C   UNL     1     -14.072   6.043  -0.411  1.00  0.00     0.006 C 
ENDROOT
BRANCH   1   2
ATOM      2  C   UNL     1     -14.431   4.974  -1.450  1.00  0.00     0.053 C 
BRANCH   2   3
ATOM      3  C   UNL     1     -15.861   4.560  -1.301  1.00  0.00     0.041 C 
ATOM      4  O   UNL     1     -16.492   4.094  -2.287  1.00  0.00    -0.550 OA
ATOM      5  O   UNL     1     -16.483   4.644  -0.062  1.00  0.00    -0.550 OA
ENDBRANCH   2   3
ENDBRANCH   1   2
BRANCH   1   6
ATOM      6  C   UNL     1     -12.737   6.748  -0.712  1.00  0.00     0.000 C 
BRANCH   6   7
ATOM      7  C   UNL     1     -12.546   8.105  -0.009  1.00  0.00    -0.000 C 
BRANCH   7   8
ATOM      8  C   UNL     1     -13.742   8.497   0.870  1.00  0.00    -0.003 C 
ATOM      9  C   UNL     1     -13.367   9.611   1.843  1.00  0.00     0.004 C 
ENDBRANCH   7   8
ENDBRANCH   6   7
ENDBRANCH   1   6
TORSDOF 5
ENDMDL
MODEL 7
REMARK VINA RESULT:    -2.840     11.384     13.144
REMARK INTER + INTRA:          -3.839
REMARK INTER:                  -3.660
REMARK INTRA:                  -0.179
REMARK UNBOUND:                -0.169
REMARK SMILES CCCCCCC(=O)[O-]
REMARK SMILES IDX 5 1 6 2 7 3 8 4 9 5 4 6 3 7 2 8 1 9
REMARK H PARENT
REMARK Flexibility Score: inf
ROOT
ATOM      1  C   UNL     1     -13.800  14.430  10.223  1.00  0.00     0.006 C 
ENDROOT
BRANCH   1   2
ATOM      2  C   UNL     1     -13.974  14.020  11.690  1.00  0.00     0.053 C 
BRANCH   2   3
ATOM      3  C   UNL     1     -15.414  14.104  12.088  1.00  0.00     0.041 C 
ATOM      4  O   UNL     1     -16.070  15.157  11.872  1.00  0.00    -0.550 OA
ATOM      5  O   UNL     1     -16.045  13.004  12.653  1.00  0.00    -0.550 OA
ENDBRANCH   2   3
ENDBRANCH   1   2
BRANCH   1   6
ATOM      6  C   UNL     1     -14.285  13.352   9.237  1.00  0.00     0.000 C 
BRANCH   6   7
ATOM      7  C   UNL     1     -13.755  13.501   7.798  1.00  0.00    -0.000 C 
BRANCH   7   8
ATOM      8  C   UNL     1     -14.732  12.962   6.743  1.00  0.00    -0.003 C 
ATOM      9  C   UNL     1     -16.152  12.885   7.297  1.00  0.00     0.004 C 
ENDBRANCH   7   8
ENDBRANCH   6   7
ENDBRANCH   1   6
TORSDOF 5
ENDMDL
MODEL 8
REMARK VINA RESULT:    -2.762      9.686     10.242
REMARK INTER + INTRA:          -3.738
REMARK INTER:                  -3.582
REMARK INTRA:                  -0.156
REMARK UNBOUND:                -0.169
REMARK SMILES CCCCCCC(=O)[O-]
REMARK SMILES IDX 5 1 6 2 7 3 8 4 9 5 4 6 3 7 2 8 1 9
REMARK H PARENT
REMARK Flexibility Score: inf
ROOT
ATOM      1  C   UNL     1     -15.571  11.311   7.228  1.00  0.00     0.006 C 
ENDROOT
BRANCH   1   2
ATOM      2  C   UNL     1     -15.431  12.836   7.143  1.00  0.00     0.053 C 
BRANCH   2   3
ATOM      3  C   UNL     1     -14.180  13.284   7.830  1.00  0.00     0.041 C 
ATOM      4  O   UNL     1     -13.197  13.687   7.154  1.00  0.00    -0.550 OA
ATOM      5  O   UNL     1     -14.117  13.302   9.217  1.00  0.00    -0.550 OA
ENDBRANCH   2   3
ENDBRANCH   1   2
BRANCH   1   6
ATOM      6  C   UNL     1     -16.909  10.864   7.845  1.00  0.00     0.000 C 
BRANCH   6   7
ATOM      7  C   UNL     1     -16.952   9.398   8.314  1.00  0.00    -0.000 C 
BRANCH   7   8
ATOM      8  C   UNL     1     -15.568   8.850   8.690  1.00  0.00    -0.003 C 
ATOM      9  C   UNL     1     -15.680   7.747   9.739  1.00  0.00     0.004 C 
ENDBRANCH   7   8
ENDBRANCH   6   7
ENDBRANCH   1   6
TORSDOF 5
ENDMDL
MODEL 9
REMARK VINA RESULT:    -2.708     10.296     12.643
REMARK INTER + INTRA:          -3.668
REMARK INTER:                  -3.414
REMARK INTRA:                  -0.254
REMARK UNBOUND:                -0.169
REMARK SMILES CCCCCCC(=O)[O-]
REMARK SMILES IDX 5 1 6 2 7 3 8 4 9 5 4 6 3 7 2 8 1 9
REMARK H PARENT
REMARK Flexibility Score: inf
ROOT
ATOM      1  C   UNL     1     -15.781  12.762   9.146  1.00  0.00     0.006 C 
ENDROOT
BRANCH   1   2
ATOM      2  C   UNL     1     -15.907  11.258   9.417  1.00  0.00     0.053 C 
BRANCH   2   3
ATOM      3  C   UNL     1     -15.502  10.475   8.209  1.00  0.00     0.041 C 
ATOM      4  O   UNL     1     -15.104   9.285   8.329  1.00  0.00    -0.550 OA
ATOM      5  O   UNL     1     -15.609  11.041   6.945  1.00  0.00    -0.550 OA
ENDBRANCH   2   3
ENDBRANCH   1   2
BRANCH   1   6
ATOM      6  C   UNL     1     -14.363  13.302   9.406  1.00  0.00     0.000 C 
BRANCH   6   7
ATOM      7  C   UNL     1     -14.263  14.354  10.526  1.00  0.00    -0.000 C 
BRANCH   7   8
ATOM      8  C   UNL     1     -13.352  13.912  11.682  1.00  0.00    -0.003 C 
ATOM      9  C   UNL     1     -14.113  13.043  12.679  1.00  0.00     0.004 C 
ENDBRANCH   7   8
ENDBRANCH   6   7
ENDBRANCH   1   6
TORSDOF 5
ENDMDL
