MODEL 1
REMARK VINA RESULT:    -5.499      0.000      0.000
REMARK INTER + INTRA:          -6.109
REMARK INTER:                  -5.982
REMARK INTRA:                  -0.127
REMARK UNBOUND:                -0.127
REMARK SMILES Cc1ccc(C(C)C)cc1O
REMARK SMILES IDX 1 1 2 2 10 3 9 4 5 5 4 6 3 7 11 8 6 10 7 11 8 12
REMARK H PARENT 11 9
REMARK Flexibility Score: inf
ROOT
ATOM      1  C   UNL     1      10.250   4.244  79.525  1.00  0.00     0.048 C 
ATOM      2  C   UNL     1       9.451   5.515  79.594  1.00  0.00    -0.009 A 
ATOM      3  C   UNL     1       8.112   5.487  80.023  1.00  0.00     0.118 A 
ATOM      4  C   UNL     1       7.372   6.676  80.087  1.00  0.00     0.050 A 
ATOM      5  C   UNL     1       7.955   7.904  79.724  1.00  0.00    -0.042 A 
ATOM      6  C   UNL     1       9.292   7.921  79.296  1.00  0.00     0.004 A 
ATOM      7  C   UNL     1      10.033   6.739  79.233  1.00  0.00     0.007 A 
ENDROOT
BRANCH   3   8
ATOM      8  O   UNL     1       7.521   4.276  80.387  1.00  0.00    -0.508 OA
ATOM      9  H   UNL     1       7.321   3.556  79.704  1.00  0.00     0.293 HD
ENDBRANCH   3   8
BRANCH   5  10
ATOM     10  C   UNL     1       7.162   9.196  79.788  1.00  0.00     0.013 C 
ATOM     11  C   UNL     1       8.071  10.413  79.581  1.00  0.00     0.012 C 
ATOM     12  C   UNL     1       6.386   9.304  81.106  1.00  0.00     0.012 C 
ENDBRANCH   5  10
TORSDOF 2
ENDMDL
MODEL 2
REMARK VINA RESULT:    -5.258      1.335      2.480
REMARK INTER + INTRA:          -5.847
REMARK INTER:                  -5.731
REMARK INTRA:                  -0.116
REMARK UNBOUND:                -0.127
REMARK SMILES Cc1ccc(C(C)C)cc1O
REMARK SMILES IDX 1 1 2 2 10 3 9 4 5 5 4 6 3 7 11 8 6 10 7 11 8 12
REMARK H PARENT 11 9
REMARK Flexibility Score: inf
ROOT
ATOM      1  C   UNL     1       9.535   6.500  78.848  1.00  0.00     0.048 C 
ATOM      2  C   UNL     1       8.533   7.267  79.664  1.00  0.00    -0.009 A 
ATOM      3  C   UNL     1       7.297   6.685  79.998  1.00  0.00     0.118 A 
ATOM      4  C   UNL     1       6.367   7.406  80.761  1.00  0.00     0.050 A 
ATOM      5  C   UNL     1       6.656   8.712  81.198  1.00  0.00    -0.042 A 
ATOM      6  C   UNL     1       7.892   9.285  80.858  1.00  0.00     0.004 A 
ATOM      7  C   UNL     1       8.822   8.569  80.100  1.00  0.00     0.007 A 
ENDROOT
BRANCH   3   8
ATOM      8  O   UNL     1       6.998   5.391  79.573  1.00  0.00    -0.508 OA
ATOM      9  H   UNL     1       7.195   4.583  80.151  1.00  0.00     0.293 HD
ENDBRANCH   3   8
BRANCH   5  10
ATOM     10  C   UNL     1       5.655   9.501  82.023  1.00  0.00     0.013 C 
ATOM     11  C   UNL     1       4.429   8.648  82.368  1.00  0.00     0.012 C 
ATOM     12  C   UNL     1       5.245  10.793  81.307  1.00  0.00     0.012 C 
ENDBRANCH   5  10
TORSDOF 2
ENDMDL
MODEL 3
REMARK VINA RESULT:    -5.038      1.875      4.623
REMARK INTER + INTRA:          -5.608
REMARK INTER:                  -5.488
REMARK INTRA:                  -0.120
REMARK UNBOUND:                -0.127
REMARK SMILES Cc1ccc(C(C)C)cc1O
REMARK SMILES IDX 1 1 2 2 10 3 9 4 5 5 4 6 3 7 11 8 6 10 7 11 8 12
REMARK H PARENT 11 9
REMARK Flexibility Score: inf
ROOT
ATOM      1  C   UNL     1       4.891  10.820  81.977  1.00  0.00     0.048 C 
ATOM      2  C   UNL     1       5.808   9.877  81.251  1.00  0.00    -0.009 A 
ATOM      3  C   UNL     1       5.768   8.498  81.525  1.00  0.00     0.118 A 
ATOM      4  C   UNL     1       6.626   7.624  80.843  1.00  0.00     0.050 A 
ATOM      5  C   UNL     1       7.533   8.111  79.884  1.00  0.00    -0.042 A 
ATOM      6  C   UNL     1       7.566   9.490  79.618  1.00  0.00     0.004 A 
ATOM      7  C   UNL     1       6.712  10.364  80.295  1.00  0.00     0.007 A 
ENDROOT
BRANCH   3   8
ATOM      8  O   UNL     1       4.873   8.001  82.472  1.00  0.00    -0.508 OA
ATOM      9  H   UNL     1       4.085   7.422  82.207  1.00  0.00     0.293 HD
ENDBRANCH   3   8
BRANCH   5  10
ATOM     10  C   UNL     1       8.467   7.173  79.141  1.00  0.00     0.013 C 
ATOM     11  C   UNL     1       8.306   5.730  79.633  1.00  0.00     0.012 C 
ATOM     12  C   UNL     1       9.924   7.636  79.256  1.00  0.00     0.012 C 
ENDBRANCH   5  10
TORSDOF 2
ENDMDL
MODEL 4
REMARK VINA RESULT:    -4.971      2.015      3.152
REMARK INTER + INTRA:          -5.534
REMARK INTER:                  -5.406
REMARK INTRA:                  -0.128
REMARK UNBOUND:                -0.127
REMARK SMILES Cc1ccc(C(C)C)cc1O
REMARK SMILES IDX 1 1 2 2 10 3 9 4 5 5 4 6 3 7 11 8 6 10 7 11 8 12
REMARK H PARENT 11 9
REMARK Flexibility Score: inf
ROOT
ATOM      1  C   UNL     1       9.356   6.160  78.811  1.00  0.00     0.048 C 
ATOM      2  C   UNL     1       8.427   7.028  79.612  1.00  0.00    -0.009 A 
ATOM      3  C   UNL     1       8.805   8.337  79.961  1.00  0.00     0.118 A 
ATOM      4  C   UNL     1       7.933   9.142  80.708  1.00  0.00     0.050 A 
ATOM      5  C   UNL     1       6.678   8.654  81.116  1.00  0.00    -0.042 A 
ATOM      6  C   UNL     1       6.310   7.345  80.764  1.00  0.00     0.004 A 
ATOM      7  C   UNL     1       7.176   6.541  80.019  1.00  0.00     0.007 A 
ENDROOT
BRANCH   3   8
ATOM      8  O   UNL     1      10.045   8.835  79.562  1.00  0.00    -0.508 OA
ATOM      9  H   UNL     1      10.481   8.543  78.695  1.00  0.00     0.293 HD
ENDBRANCH   3   8
BRANCH   5  10
ATOM     10  C   UNL     1       5.728   9.517  81.926  1.00  0.00     0.013 C 
ATOM     11  C   UNL     1       4.487   8.723  82.351  1.00  0.00     0.012 C 
ATOM     12  C   UNL     1       5.336  10.782  81.154  1.00  0.00     0.012 C 
ENDBRANCH   5  10
TORSDOF 2
ENDMDL
MODEL 5
REMARK VINA RESULT:    -4.950      8.605      9.887
REMARK INTER + INTRA:          -5.512
REMARK INTER:                  -5.386
REMARK INTRA:                  -0.126
REMARK UNBOUND:                -0.127
REMARK SMILES Cc1ccc(C(C)C)cc1O
REMARK SMILES IDX 1 1 2 2 10 3 9 4 5 5 4 6 3 7 11 8 6 10 7 11 8 12
REMARK H PARENT 11 9
REMARK Flexibility Score: inf
ROOT
ATOM      1  C   UNL     1       2.551   1.646  88.196  1.00  0.00     0.048 C 
ATOM      2  C   UNL     1       2.214   2.990  87.616  1.00  0.00    -0.009 A 
ATOM      3  C   UNL     1       2.947   3.496  86.527  1.00  0.00     0.118 A 
ATOM      4  C   UNL     1       2.627   4.750  85.990  1.00  0.00     0.050 A 
ATOM      5  C   UNL     1       1.577   5.516  86.530  1.00  0.00    -0.042 A 
ATOM      6  C   UNL     1       0.852   5.003  87.617  1.00  0.00     0.004 A 
ATOM      7  C   UNL     1       1.167   3.752  88.154  1.00  0.00     0.007 A 
ENDROOT
BRANCH   3   8
ATOM      8  O   UNL     1       3.990   2.747  85.980  1.00  0.00    -0.508 OA
ATOM      9  H   UNL     1       3.837   2.104  85.214  1.00  0.00     0.293 HD
ENDBRANCH   3   8
BRANCH   5  10
ATOM     10  C   UNL     1       1.224   6.876  85.956  1.00  0.00     0.013 C 
ATOM     11  C   UNL     1       2.445   7.535  85.304  1.00  0.00     0.012 C 
ATOM     12  C   UNL     1       0.610   7.786  87.026  1.00  0.00     0.012 C 
ENDBRANCH   5  10
TORSDOF 2
ENDMDL
MODEL 6
REMARK VINA RESULT:    -4.936      2.366      4.922
REMARK INTER + INTRA:          -5.496
REMARK INTER:                  -5.369
REMARK INTRA:                  -0.128
REMARK UNBOUND:                -0.127
REMARK SMILES Cc1ccc(C(C)C)cc1O
REMARK SMILES IDX 1 1 2 2 10 3 9 4 5 5 4 6 3 7 11 8 6 10 7 11 8 12
REMARK H PARENT 11 9
REMARK Flexibility Score: inf
ROOT
ATOM      1  C   UNL     1       5.146  10.440  81.791  1.00  0.00     0.048 C 
ATOM      2  C   UNL     1       6.102   9.528  81.074  1.00  0.00    -0.009 A 
ATOM      3  C   UNL     1       7.077  10.060  80.212  1.00  0.00     0.118 A 
ATOM      4  C   UNL     1       7.966   9.204  79.546  1.00  0.00     0.050 A 
ATOM      5  C   UNL     1       7.894   7.811  79.730  1.00  0.00    -0.042 A 
ATOM      6  C   UNL     1       6.916   7.289  80.593  1.00  0.00     0.004 A 
ATOM      7  C   UNL     1       6.029   8.139  81.258  1.00  0.00     0.007 A 
ENDROOT
BRANCH   3   8
ATOM      8  O   UNL     1       7.161  11.440  80.020  1.00  0.00    -0.508 OA
ATOM      9  H   UNL     1       7.332  12.074  80.792  1.00  0.00     0.293 HD
ENDBRANCH   3   8
BRANCH   5  10
ATOM     10  C   UNL     1       8.851   6.876  79.014  1.00  0.00     0.013 C 
ATOM     11  C   UNL     1       8.694   5.435  79.515  1.00  0.00     0.012 C 
ATOM     12  C   UNL     1      10.301   7.355  79.154  1.00  0.00     0.012 C 
ENDBRANCH   5  10
TORSDOF 2
ENDMDL
MODEL 7
REMARK VINA RESULT:    -4.930      9.365     10.404
REMARK INTER + INTRA:          -5.490
REMARK INTER:                  -5.363
REMARK INTRA:                  -0.127
REMARK UNBOUND:                -0.127
REMARK SMILES Cc1ccc(C(C)C)cc1O
REMARK SMILES IDX 1 1 2 2 10 3 9 4 5 5 4 6 3 7 11 8 6 10 7 11 8 12
REMARK H PARENT 11 9
REMARK Flexibility Score: inf
ROOT
ATOM      1  C   UNL     1       2.601   0.954  88.814  1.00  0.00     0.048 C 
ATOM      2  C   UNL     1       2.370   2.240  88.072  1.00  0.00    -0.009 A 
ATOM      3  C   UNL     1       1.273   3.059  88.397  1.00  0.00     0.118 A 
ATOM      4  C   UNL     1       1.064   4.258  87.701  1.00  0.00     0.050 A 
ATOM      5  C   UNL     1       1.941   4.655  86.675  1.00  0.00    -0.042 A 
ATOM      6  C   UNL     1       3.033   3.831  86.357  1.00  0.00     0.004 A 
ATOM      7  C   UNL     1       3.245   2.636  87.049  1.00  0.00     0.007 A 
ENDROOT
BRANCH   3   8
ATOM      8  O   UNL     1       0.396   2.678  89.413  1.00  0.00    -0.508 OA
ATOM      9  H   UNL     1      -0.563   3.004  89.436  1.00  0.00     0.293 HD
ENDBRANCH   3   8
BRANCH   5  10
ATOM     10  C   UNL     1       1.722   5.951  85.915  1.00  0.00     0.013 C 
ATOM     11  C   UNL     1       3.014   6.416  85.234  1.00  0.00     0.012 C 
ATOM     12  C   UNL     1       1.158   7.041  86.833  1.00  0.00     0.012 C 
ENDBRANCH   5  10
TORSDOF 2
ENDMDL
MODEL 8
REMARK VINA RESULT:    -4.864      8.167     10.214
REMARK INTER + INTRA:          -5.418
REMARK INTER:                  -5.293
REMARK INTRA:                  -0.126
REMARK UNBOUND:                -0.127
REMARK SMILES Cc1ccc(C(C)C)cc1O
REMARK SMILES IDX 1 1 2 2 10 3 9 4 5 5 4 6 3 7 11 8 6 10 7 11 8 12
REMARK H PARENT 11 9
REMARK Flexibility Score: inf
ROOT
ATOM      1  C   UNL     1       1.429   8.919  85.242  1.00  0.00     0.048 C 
ATOM      2  C   UNL     1       1.572   7.515  85.760  1.00  0.00    -0.009 A 
ATOM      3  C   UNL     1       2.576   6.671  85.253  1.00  0.00     0.118 A 
ATOM      4  C   UNL     1       2.703   5.363  85.741  1.00  0.00     0.050 A 
ATOM      5  C   UNL     1       1.834   4.881  86.737  1.00  0.00    -0.042 A 
ATOM      6  C   UNL     1       0.835   5.731  87.236  1.00  0.00     0.004 A 
ATOM      7  C   UNL     1       0.705   7.035  86.753  1.00  0.00     0.007 A 
ENDROOT
BRANCH   3   8
ATOM      8  O   UNL     1       3.445   7.137  84.266  1.00  0.00    -0.508 OA
ATOM      9  H   UNL     1       3.142   7.794  83.557  1.00  0.00     0.293 HD
ENDBRANCH   3   8
BRANCH   5  10
ATOM     10  C   UNL     1       1.964   3.466  87.271  1.00  0.00     0.013 C 
ATOM     11  C   UNL     1       1.504   3.382  88.731  1.00  0.00     0.012 C 
ATOM     12  C   UNL     1       3.397   2.944  87.113  1.00  0.00     0.012 C 
ENDBRANCH   5  10
TORSDOF 2
ENDMDL
MODEL 9
REMARK VINA RESULT:    -4.804      1.294      2.115
REMARK INTER + INTRA:          -5.353
REMARK INTER:                  -5.226
REMARK INTRA:                  -0.127
REMARK UNBOUND:                -0.127
REMARK SMILES Cc1ccc(C(C)C)cc1O
REMARK SMILES IDX 1 1 2 2 10 3 9 4 5 5 4 6 3 7 11 8 6 10 7 11 8 12
REMARK H PARENT 11 9
REMARK Flexibility Score: inf
ROOT
ATOM      1  C   UNL     1       8.889   5.212  79.596  1.00  0.00     0.048 C 
ATOM      2  C   UNL     1       8.724   6.705  79.652  1.00  0.00    -0.009 A 
ATOM      3  C   UNL     1       7.476   7.268  79.973  1.00  0.00     0.118 A 
ATOM      4  C   UNL     1       7.329   8.662  80.024  1.00  0.00     0.050 A 
ATOM      5  C   UNL     1       8.421   9.508  79.757  1.00  0.00    -0.042 A 
ATOM      6  C   UNL     1       9.663   8.936  79.437  1.00  0.00     0.004 A 
ATOM      7  C   UNL     1       9.813   7.548  79.386  1.00  0.00     0.007 A 
ENDROOT
BRANCH   3   8
ATOM      8  O   UNL     1       6.385   6.441  80.242  1.00  0.00    -0.508 OA
ATOM      9  H   UNL     1       5.586   6.397  79.621  1.00  0.00     0.293 HD
ENDBRANCH   3   8
BRANCH   5  10
ATOM     10  C   UNL     1       8.272  11.018  79.809  1.00  0.00     0.013 C 
ATOM     11  C   UNL     1       6.939  11.464  79.197  1.00  0.00     0.012 C 
ATOM     12  C   UNL     1       9.454  11.714  79.124  1.00  0.00     0.012 C 
ENDBRANCH   5  10
TORSDOF 2
ENDMDL
