MODEL 1
REMARK VINA RESULT:    -4.426      0.000      0.000
REMARK INTER + INTRA:          -4.426
REMARK INTER:                  -4.426
REMARK INTRA:                   0.000
REMARK UNBOUND:                 0.000
REMARK SMILES CC1=CC(=O)[C@H]2C[C@@H]1C2(C)C
REMARK SMILES IDX 1 1 2 2 3 3 4 4 5 5 6 6 7 7 8 8 9 9 10 10 11 11
REMARK H PARENT
REMARK Flexibility Score: inf
ROOT
ATOM      1  C   UNL     1      68.239 -15.600  15.430  1.00  0.00     0.040 C 
ATOM      2  C   UNL     1      67.249 -15.568  14.308  1.00  0.00    -0.066 C 
ATOM      3  C   UNL     1      66.071 -16.248  14.382  1.00  0.00     0.047 C 
ATOM      4  C   UNL     1      65.179 -16.162  13.181  1.00  0.00     0.159 C 
ATOM      5  O   UNL     1      64.084 -16.777  13.112  1.00  0.00    -0.295 OA
ATOM      6  C   UNL     1      65.693 -15.275  12.046  1.00  0.00     0.067 C 
ATOM      7  C   UNL     1      66.181 -13.995  12.759  1.00  0.00     0.021 C 
ATOM      8  C   UNL     1      67.504 -14.750  13.024  1.00  0.00     0.022 C 
ATOM      9  C   UNL     1      67.184 -15.628  11.779  1.00  0.00    -0.019 C 
ATOM     10  C   UNL     1      67.605 -17.125  11.808  1.00  0.00     0.012 C 
ATOM     11  C   UNL     1      67.712 -15.001  10.463  1.00  0.00     0.012 C 
ENDROOT
TORSDOF 0
ENDMDL
MODEL 2
REMARK VINA RESULT:    -4.407      1.697      3.425
REMARK INTER + INTRA:          -4.407
REMARK INTER:                  -4.407
REMARK INTRA:                   0.000
REMARK UNBOUND:                 0.000
REMARK SMILES CC1=CC(=O)[C@H]2C[C@@H]1C2(C)C
REMARK SMILES IDX 1 1 2 2 3 3 4 4 5 5 6 6 7 7 8 8 9 9 10 10 11 11
REMARK H PARENT
REMARK Flexibility Score: inf
ROOT
ATOM      1  C   UNL     1      67.839 -16.922  10.252  1.00  0.00     0.040 C 
ATOM      2  C   UNL     1      66.934 -16.116  11.130  1.00  0.00    -0.066 C 
ATOM      3  C   UNL     1      66.543 -14.859  10.782  1.00  0.00     0.047 C 
ATOM      4  C   UNL     1      65.661 -14.144  11.759  1.00  0.00     0.159 C 
ATOM      5  O   UNL     1      65.265 -12.964  11.570  1.00  0.00    -0.295 OA
ATOM      6  C   UNL     1      65.276 -14.947  13.003  1.00  0.00     0.067 C 
ATOM      7  C   UNL     1      64.877 -16.333  12.449  1.00  0.00     0.021 C 
ATOM      8  C   UNL     1      66.384 -16.675  12.460  1.00  0.00     0.022 C 
ATOM      9  C   UNL     1      66.559 -15.609  13.581  1.00  0.00    -0.019 C 
ATOM     10  C   UNL     1      67.872 -14.777  13.605  1.00  0.00     0.012 C 
ATOM     11  C   UNL     1      66.331 -16.198  14.997  1.00  0.00     0.012 C 
ENDROOT
TORSDOF 0
ENDMDL
MODEL 3
REMARK VINA RESULT:    -4.311      1.690      2.195
REMARK INTER + INTRA:          -4.311
REMARK INTER:                  -4.311
REMARK INTRA:                   0.000
REMARK UNBOUND:                 0.000
REMARK SMILES CC1=CC(=O)[C@H]2C[C@@H]1C2(C)C
REMARK SMILES IDX 1 1 2 2 3 3 4 4 5 5 6 6 7 7 8 8 9 9 10 10 11 11
REMARK H PARENT
REMARK Flexibility Score: inf
ROOT
ATOM      1  C   UNL     1      66.967 -16.234  14.976  1.00  0.00     0.040 C 
ATOM      2  C   UNL     1      66.861 -15.620  13.616  1.00  0.00    -0.066 C 
ATOM      3  C   UNL     1      66.042 -14.558  13.378  1.00  0.00     0.047 C 
ATOM      4  C   UNL     1      66.000 -14.055  11.968  1.00  0.00     0.159 C 
ATOM      5  O   UNL     1      65.254 -13.105  11.614  1.00  0.00    -0.295 OA
ATOM      6  C   UNL     1      66.928 -14.775  10.987  1.00  0.00     0.067 C 
ATOM      7  C   UNL     1      68.269 -14.883  11.747  1.00  0.00     0.021 C 
ATOM      8  C   UNL     1      67.686 -16.146  12.421  1.00  0.00     0.022 C 
ATOM      9  C   UNL     1      66.757 -16.309  11.183  1.00  0.00    -0.019 C 
ATOM     10  C   UNL     1      65.325 -16.870  11.407  1.00  0.00     0.012 C 
ATOM     11  C   UNL     1      67.426 -17.125  10.047  1.00  0.00     0.012 C 
ENDROOT
TORSDOF 0
ENDMDL
MODEL 4
REMARK VINA RESULT:    -4.166      1.770      2.990
REMARK INTER + INTRA:          -4.166
REMARK INTER:                  -4.166
REMARK INTRA:                   0.000
REMARK UNBOUND:                 0.000
REMARK SMILES CC1=CC(=O)[C@H]2C[C@@H]1C2(C)C
REMARK SMILES IDX 1 1 2 2 3 3 4 4 5 5 6 6 7 7 8 8 9 9 10 10 11 11
REMARK H PARENT
REMARK Flexibility Score: inf
ROOT
ATOM      1  C   UNL     1      65.270 -13.042  11.636  1.00  0.00     0.040 C 
ATOM      2  C   UNL     1      65.993 -14.319  11.928  1.00  0.00    -0.066 C 
ATOM      3  C   UNL     1      66.612 -14.527  13.124  1.00  0.00     0.047 C 
ATOM      4  C   UNL     1      67.327 -15.833  13.283  1.00  0.00     0.159 C 
ATOM      5  O   UNL     1      67.969 -16.126  14.325  1.00  0.00    -0.295 OA
ATOM      6  C   UNL     1      67.225 -16.785  12.090  1.00  0.00     0.067 C 
ATOM      7  C   UNL     1      65.729 -16.748  11.705  1.00  0.00     0.021 C 
ATOM      8  C   UNL     1      66.057 -15.469  10.900  1.00  0.00     0.022 C 
ATOM      9  C   UNL     1      67.522 -15.984  10.791  1.00  0.00    -0.019 C 
ATOM     10  C   UNL     1      68.673 -14.938  10.815  1.00  0.00     0.012 C 
ATOM     11  C   UNL     1      67.733 -16.908   9.564  1.00  0.00     0.012 C 
ENDROOT
TORSDOF 0
ENDMDL
MODEL 5
REMARK VINA RESULT:    -4.163      2.127      3.580
REMARK INTER + INTRA:          -4.163
REMARK INTER:                  -4.163
REMARK INTRA:                   0.000
REMARK UNBOUND:                 0.000
REMARK SMILES CC1=CC(=O)[C@H]2C[C@@H]1C2(C)C
REMARK SMILES IDX 1 1 2 2 3 3 4 4 5 5 6 6 7 7 8 8 9 9 10 10 11 11
REMARK H PARENT
REMARK Flexibility Score: inf
ROOT
ATOM      1  C   UNL     1      64.871 -17.125  11.194  1.00  0.00     0.040 C 
ATOM      2  C   UNL     1      66.004 -16.216  11.551  1.00  0.00    -0.066 C 
ATOM      3  C   UNL     1      66.981 -15.911  10.653  1.00  0.00     0.047 C 
ATOM      4  C   UNL     1      68.077 -15.015  11.142  1.00  0.00     0.159 C 
ATOM      5  O   UNL     1      69.055 -14.693  10.419  1.00  0.00    -0.295 OA
ATOM      6  C   UNL     1      67.924 -14.519  12.581  1.00  0.00     0.067 C 
ATOM      7  C   UNL     1      66.446 -14.080  12.674  1.00  0.00     0.021 C 
ATOM      8  C   UNL     1      66.112 -15.564  12.947  1.00  0.00     0.022 C 
ATOM      9  C   UNL     1      67.563 -15.732  13.485  1.00  0.00    -0.019 C 
ATOM     10  C   UNL     1      68.289 -17.084  13.234  1.00  0.00     0.012 C 
ATOM     11  C   UNL     1      67.674 -15.395  14.995  1.00  0.00     0.012 C 
ENDROOT
TORSDOF 0
ENDMDL
MODEL 6
REMARK VINA RESULT:    -3.978      1.445      2.390
REMARK INTER + INTRA:          -3.978
REMARK INTER:                  -3.978
REMARK INTRA:                   0.000
REMARK UNBOUND:                 0.000
REMARK SMILES CC1=CC(=O)[C@H]2C[C@@H]1C2(C)C
REMARK SMILES IDX 1 1 2 2 3 3 4 4 5 5 6 6 7 7 8 8 9 9 10 10 11 11
REMARK H PARENT
REMARK Flexibility Score: inf
ROOT
ATOM      1  C   UNL     1      69.152 -17.125  11.380  1.00  0.00     0.040 C 
ATOM      2  C   UNL     1      68.129 -16.478  12.260  1.00  0.00    -0.066 C 
ATOM      3  C   UNL     1      67.613 -17.123  13.343  1.00  0.00     0.047 C 
ATOM      4  C   UNL     1      66.575 -16.380  14.126  1.00  0.00     0.159 C 
ATOM      5  O   UNL     1      65.996 -16.884  15.123  1.00  0.00    -0.295 OA
ATOM      6  C   UNL     1      66.266 -14.967  13.629  1.00  0.00     0.067 C 
ATOM      7  C   UNL     1      67.657 -14.344  13.375  1.00  0.00     0.021 C 
ATOM      8  C   UNL     1      67.623 -15.043  11.997  1.00  0.00     0.022 C 
ATOM      9  C   UNL     1      66.070 -15.017  12.087  1.00  0.00    -0.019 C 
ATOM     10  C   UNL     1      65.279 -16.212  11.482  1.00  0.00     0.012 C 
ATOM     11  C   UNL     1      65.468 -13.703  11.526  1.00  0.00     0.012 C 
ENDROOT
TORSDOF 0
ENDMDL
MODEL 7
REMARK VINA RESULT:    -3.802      1.318      3.291
REMARK INTER + INTRA:          -3.802
REMARK INTER:                  -3.802
REMARK INTRA:                   0.000
REMARK UNBOUND:                 0.000
REMARK SMILES CC1=CC(=O)[C@H]2C[C@@H]1C2(C)C
REMARK SMILES IDX 1 1 2 2 3 3 4 4 5 5 6 6 7 7 8 8 9 9 10 10 11 11
REMARK H PARENT
REMARK Flexibility Score: inf
ROOT
ATOM      1  C   UNL     1      69.160 -14.949  10.002  1.00  0.00     0.040 C 
ATOM      2  C   UNL     1      68.101 -15.559  10.864  1.00  0.00    -0.066 C 
ATOM      3  C   UNL     1      66.967 -16.091  10.328  1.00  0.00     0.047 C 
ATOM      4  C   UNL     1      65.969 -16.643  11.299  1.00  0.00     0.159 C 
ATOM      5  O   UNL     1      64.867 -17.125  10.929  1.00  0.00    -0.295 OA
ATOM      6  C   UNL     1      66.382 -16.578  12.770  1.00  0.00     0.067 C 
ATOM      7  C   UNL     1      67.844 -17.077  12.774  1.00  0.00     0.021 C 
ATOM      8  C   UNL     1      68.247 -15.632  12.400  1.00  0.00     0.022 C 
ATOM      9  C   UNL     1      66.926 -15.152  13.069  1.00  0.00    -0.019 C 
ATOM     10  C   UNL     1      66.187 -13.934  12.446  1.00  0.00     0.012 C 
ATOM     11  C   UNL     1      67.094 -14.892  14.588  1.00  0.00     0.012 C 
ENDROOT
TORSDOF 0
ENDMDL
MODEL 8
REMARK VINA RESULT:    -3.774      1.845      2.699
REMARK INTER + INTRA:          -3.774
REMARK INTER:                  -3.774
REMARK INTRA:                   0.000
REMARK UNBOUND:                 0.000
REMARK SMILES CC1=CC(=O)[C@H]2C[C@@H]1C2(C)C
REMARK SMILES IDX 1 1 2 2 3 3 4 4 5 5 6 6 7 7 8 8 9 9 10 10 11 11
REMARK H PARENT
REMARK Flexibility Score: inf
ROOT
ATOM      1  C   UNL     1      66.431 -16.895  15.667  1.00  0.00     0.040 C 
ATOM      2  C   UNL     1      66.568 -16.626  14.202  1.00  0.00    -0.066 C 
ATOM      3  C   UNL     1      67.612 -17.124  13.482  1.00  0.00     0.047 C 
ATOM      4  C   UNL     1      67.652 -16.758  12.031  1.00  0.00     0.159 C 
ATOM      5  O   UNL     1      68.586 -17.124  11.271  1.00  0.00    -0.295 OA
ATOM      6  C   UNL     1      66.481 -15.907  11.537  1.00  0.00     0.067 C 
ATOM      7  C   UNL     1      65.236 -16.592  12.142  1.00  0.00     0.021 C 
ATOM      8  C   UNL     1      65.526 -15.787  13.430  1.00  0.00     0.022 C 
ATOM      9  C   UNL     1      66.259 -14.741  12.541  1.00  0.00    -0.019 C 
ATOM     10  C   UNL     1      67.508 -14.024  13.129  1.00  0.00     0.012 C 
ATOM     11  C   UNL     1      65.296 -13.660  11.986  1.00  0.00     0.012 C 
ENDROOT
TORSDOF 0
ENDMDL
MODEL 9
REMARK VINA RESULT:    -2.514      1.692      3.426
REMARK INTER + INTRA:          -2.514
REMARK INTER:                  -2.514
REMARK INTRA:                   0.000
REMARK UNBOUND:                 0.000
REMARK SMILES CC1=CC(=O)[C@H]2C[C@@H]1C2(C)C
REMARK SMILES IDX 1 1 2 2 3 3 4 4 5 5 6 6 7 7 8 8 9 9 10 10 11 11
REMARK H PARENT
REMARK Flexibility Score: inf
ROOT
ATOM      1  C   UNL     1      65.249 -12.887  11.626  1.00  0.00     0.040 C 
ATOM      2  C   UNL     1      66.028 -14.137  11.886  1.00  0.00    -0.066 C 
ATOM      3  C   UNL     1      66.340 -15.002  10.880  1.00  0.00     0.047 C 
ATOM      4  C   UNL     1      67.097 -16.233  11.274  1.00  0.00     0.159 C 
ATOM      5  O   UNL     1      67.408 -17.125  10.443  1.00  0.00    -0.295 OA
ATOM      6  C   UNL     1      67.463 -16.330  12.756  1.00  0.00     0.067 C 
ATOM      7  C   UNL     1      68.006 -14.927  13.104  1.00  0.00     0.021 C 
ATOM      8  C   UNL     1      66.533 -14.500  13.299  1.00  0.00     0.022 C 
ATOM      9  C   UNL     1      66.201 -15.991  13.600  1.00  0.00    -0.019 C 
ATOM     10  C   UNL     1      64.827 -16.547  13.131  1.00  0.00     0.012 C 
ATOM     11  C   UNL     1      66.382 -16.344  15.099  1.00  0.00     0.012 C 
ENDROOT
TORSDOF 0
ENDMDL
