MODEL 1
REMARK VINA RESULT:    -4.023      0.000      0.000
REMARK INTER + INTRA:          -4.841
REMARK INTER:                  -4.729
REMARK INTRA:                  -0.112
REMARK UNBOUND:                -0.112
REMARK SMILES O=C([O-])CCC(=O)[O-]
REMARK SMILES IDX 4 1 2 2 1 3 3 4 5 5 6 6 7 7 8 8
REMARK H PARENT
REMARK Flexibility Score: inf
ROOT
ATOM      1  C   UNL     1      52.521  50.852   5.007  1.00  0.00     0.059 C 
ENDROOT
BRANCH   1   2
ATOM      2  C   UNL     1      52.274  50.577   6.459  1.00  0.00     0.042 C 
ATOM      3  O   UNL     1      53.242  50.398   7.244  1.00  0.00    -0.550 OA
ATOM      4  O   UNL     1      50.974  50.479   6.938  1.00  0.00    -0.550 OA
ENDBRANCH   1   2
BRANCH   1   5
ATOM      5  C   UNL     1      53.611  49.938   4.437  1.00  0.00     0.059 C 
BRANCH   5   6
ATOM      6  C   UNL     1      54.868  50.698   4.139  1.00  0.00     0.042 C 
ATOM      7  O   UNL     1      55.786  50.163   3.462  1.00  0.00    -0.550 OA
ATOM      8  O   UNL     1      55.008  52.009   4.574  1.00  0.00    -0.550 OA
ENDBRANCH   5   6
ENDBRANCH   1   5
TORSDOF 3
ENDMDL
MODEL 2
REMARK VINA RESULT:    -4.006      0.160      1.155
REMARK INTER + INTRA:          -4.820
REMARK INTER:                  -4.707
REMARK INTRA:                  -0.114
REMARK UNBOUND:                -0.112
REMARK SMILES O=C([O-])CCC(=O)[O-]
REMARK SMILES IDX 4 1 2 2 1 3 3 4 5 5 6 6 7 7 8 8
REMARK H PARENT
REMARK Flexibility Score: inf
ROOT
ATOM      1  C   UNL     1      52.484  50.863   4.944  1.00  0.00     0.059 C 
ENDROOT
BRANCH   1   2
ATOM      2  C   UNL     1      52.203  50.695   6.406  1.00  0.00     0.042 C 
ATOM      3  O   UNL     1      53.134  50.403   7.201  1.00  0.00    -0.550 OA
ATOM      4  O   UNL     1      50.905  50.820   6.884  1.00  0.00    -0.550 OA
ENDBRANCH   1   2
BRANCH   1   5
ATOM      5  C   UNL     1      53.621  49.948   4.479  1.00  0.00     0.059 C 
BRANCH   5   6
ATOM      6  C   UNL     1      54.846  50.730   4.114  1.00  0.00     0.042 C 
ATOM      7  O   UNL     1      54.952  51.937   4.457  1.00  0.00    -0.550 OA
ATOM      8  O   UNL     1      55.887  50.114   3.432  1.00  0.00    -0.550 OA
ENDBRANCH   5   6
ENDBRANCH   1   5
TORSDOF 3
ENDMDL
MODEL 3
REMARK VINA RESULT:    -4.001      0.198      3.961
REMARK INTER + INTRA:          -4.815
REMARK INTER:                  -4.702
REMARK INTRA:                  -0.113
REMARK UNBOUND:                -0.112
REMARK SMILES O=C([O-])CCC(=O)[O-]
REMARK SMILES IDX 4 1 2 2 1 3 3 4 5 5 6 6 7 7 8 8
REMARK H PARENT
REMARK Flexibility Score: inf
ROOT
ATOM      1  C   UNL     1      53.597  49.800   4.588  1.00  0.00     0.059 C 
ENDROOT
BRANCH   1   2
ATOM      2  C   UNL     1      54.732  50.687   4.178  1.00  0.00     0.042 C 
ATOM      3  O   UNL     1      54.699  51.919   4.433  1.00  0.00    -0.550 OA
ATOM      4  O   UNL     1      55.809  50.159   3.477  1.00  0.00    -0.550 OA
ENDBRANCH   1   2
BRANCH   1   5
ATOM      5  C   UNL     1      52.368  50.615   5.007  1.00  0.00     0.059 C 
BRANCH   5   6
ATOM      6  C   UNL     1      52.133  50.540   6.484  1.00  0.00     0.042 C 
ATOM      7  O   UNL     1      50.959  50.470   6.937  1.00  0.00    -0.550 OA
ATOM      8  O   UNL     1      53.210  50.505   7.359  1.00  0.00    -0.550 OA
ENDBRANCH   5   6
ENDBRANCH   1   5
TORSDOF 3
ENDMDL
MODEL 4
REMARK VINA RESULT:    -3.875      1.724      3.874
REMARK INTER + INTRA:          -4.666
REMARK INTER:                  -4.586
REMARK INTRA:                  -0.080
REMARK UNBOUND:                -0.112
REMARK SMILES O=C([O-])CCC(=O)[O-]
REMARK SMILES IDX 4 1 2 2 1 3 3 4 5 5 6 6 7 7 8 8
REMARK H PARENT
REMARK Flexibility Score: inf
ROOT
ATOM      1  C   UNL     1      54.293  50.134   4.252  1.00  0.00     0.059 C 
ENDROOT
BRANCH   1   2
ATOM      2  C   UNL     1      55.116  51.386   4.251  1.00  0.00     0.042 C 
ATOM      3  O   UNL     1      56.315  51.357   3.870  1.00  0.00    -0.550 OA
ATOM      4  O   UNL     1      54.569  52.578   4.709  1.00  0.00    -0.550 OA
ENDBRANCH   1   2
BRANCH   1   5
ATOM      5  C   UNL     1      53.159  50.205   5.281  1.00  0.00     0.059 C 
BRANCH   5   6
ATOM      6  C   UNL     1      51.814  50.121   4.626  1.00  0.00     0.042 C 
ATOM      7  O   UNL     1      51.001  51.078   4.725  1.00  0.00    -0.550 OA
ATOM      8  O   UNL     1      51.475  49.004   3.874  1.00  0.00    -0.550 OA
ENDBRANCH   5   6
ENDBRANCH   1   5
TORSDOF 3
ENDMDL
MODEL 5
REMARK VINA RESULT:    -3.869      1.750      2.257
REMARK INTER + INTRA:          -4.660
REMARK INTER:                  -4.595
REMARK INTRA:                  -0.065
REMARK UNBOUND:                -0.112
REMARK SMILES O=C([O-])CCC(=O)[O-]
REMARK SMILES IDX 4 1 2 2 1 3 3 4 5 5 6 6 7 7 8 8
REMARK H PARENT
REMARK Flexibility Score: inf
ROOT
ATOM      1  C   UNL     1      52.944  50.251   5.180  1.00  0.00     0.059 C 
ENDROOT
BRANCH   1   2
ATOM      2  C   UNL     1      51.663  50.010   4.442  1.00  0.00     0.042 C 
ATOM      3  O   UNL     1      51.534  48.992   3.712  1.00  0.00    -0.550 OA
ATOM      4  O   UNL     1      50.627  50.931   4.527  1.00  0.00    -0.550 OA
ENDBRANCH   1   2
BRANCH   1   5
ATOM      5  C   UNL     1      54.160  50.124   4.256  1.00  0.00     0.059 C 
BRANCH   5   6
ATOM      6  C   UNL     1      54.986  51.374   4.254  1.00  0.00     0.042 C 
ATOM      7  O   UNL     1      54.496  52.458   4.669  1.00  0.00    -0.550 OA
ATOM      8  O   UNL     1      56.309  51.333   3.834  1.00  0.00    -0.550 OA
ENDBRANCH   5   6
ENDBRANCH   1   5
TORSDOF 3
ENDMDL
MODEL 6
REMARK VINA RESULT:    -3.867      1.836      2.071
REMARK INTER + INTRA:          -4.657
REMARK INTER:                  -4.571
REMARK INTRA:                  -0.086
REMARK UNBOUND:                -0.112
REMARK SMILES O=C([O-])CCC(=O)[O-]
REMARK SMILES IDX 4 1 2 2 1 3 3 4 5 5 6 6 7 7 8 8
REMARK H PARENT
REMARK Flexibility Score: inf
ROOT
ATOM      1  C   UNL     1      53.759  52.495   5.029  1.00  0.00     0.059 C 
ENDROOT
BRANCH   1   2
ATOM      2  C   UNL     1      53.627  52.461   6.521  1.00  0.00     0.042 C 
ATOM      3  O   UNL     1      54.624  52.703   7.251  1.00  0.00    -0.550 OA
ATOM      4  O   UNL     1      52.414  52.122   7.106  1.00  0.00    -0.550 OA
ENDBRANCH   1   2
BRANCH   1   5
ATOM      5  C   UNL     1      55.110  51.936   4.569  1.00  0.00     0.059 C 
BRANCH   5   6
ATOM      6  C   UNL     1      54.972  50.558   3.998  1.00  0.00     0.042 C 
ATOM      7  O   UNL     1      55.947  50.013   3.416  1.00  0.00    -0.550 OA
ATOM      8  O   UNL     1      53.780  49.861   4.143  1.00  0.00    -0.550 OA
ENDBRANCH   5   6
ENDBRANCH   1   5
TORSDOF 3
ENDMDL
MODEL 7
REMARK VINA RESULT:    -3.857      1.756      3.862
REMARK INTER + INTRA:          -4.646
REMARK INTER:                  -4.523
REMARK INTRA:                  -0.122
REMARK UNBOUND:                -0.112
REMARK SMILES O=C([O-])CCC(=O)[O-]
REMARK SMILES IDX 4 1 2 2 1 3 3 4 5 5 6 6 7 7 8 8
REMARK H PARENT
REMARK Flexibility Score: inf
ROOT
ATOM      1  C   UNL     1      54.400  51.924   4.812  1.00  0.00     0.059 C 
ENDROOT
BRANCH   1   2
ATOM      2  C   UNL     1      54.514  50.557   4.209  1.00  0.00     0.042 C 
ATOM      3  O   UNL     1      53.571  49.731   4.326  1.00  0.00    -0.550 OA
ATOM      4  O   UNL     1      55.679  50.182   3.552  1.00  0.00    -0.550 OA
ENDBRANCH   1   2
BRANCH   1   5
ATOM      5  C   UNL     1      55.064  51.989   6.192  1.00  0.00     0.059 C 
BRANCH   5   6
ATOM      6  C   UNL     1      54.122  51.572   7.279  1.00  0.00     0.042 C 
ATOM      7  O   UNL     1      52.904  51.891   7.219  1.00  0.00    -0.550 OA
ATOM      8  O   UNL     1      54.578  50.797   8.337  1.00  0.00    -0.550 OA
ENDBRANCH   5   6
ENDBRANCH   1   5
TORSDOF 3
ENDMDL
MODEL 8
REMARK VINA RESULT:    -3.767      1.967      2.464
REMARK INTER + INTRA:          -4.540
REMARK INTER:                  -4.467
REMARK INTRA:                  -0.073
REMARK UNBOUND:                -0.112
REMARK SMILES O=C([O-])CCC(=O)[O-]
REMARK SMILES IDX 4 1 2 2 1 3 3 4 5 5 6 6 7 7 8 8
REMARK H PARENT
REMARK Flexibility Score: inf
ROOT
ATOM      1  C   UNL     1      53.008  52.241   5.422  1.00  0.00     0.059 C 
ENDROOT
BRANCH   1   2
ATOM      2  C   UNL     1      53.088  52.677   6.853  1.00  0.00     0.042 C 
ATOM      3  O   UNL     1      52.048  53.040   7.464  1.00  0.00    -0.550 OA
ATOM      4  O   UNL     1      54.316  52.721   7.500  1.00  0.00    -0.550 OA
ENDBRANCH   1   2
BRANCH   1   5
ATOM      5  C   UNL     1      54.396  51.938   4.847  1.00  0.00     0.059 C 
BRANCH   5   6
ATOM      6  C   UNL     1      54.459  50.564   4.252  1.00  0.00     0.042 C 
ATOM      7  O   UNL     1      53.483  49.776   4.371  1.00  0.00    -0.550 OA
ATOM      8  O   UNL     1      55.578  50.169   3.530  1.00  0.00    -0.550 OA
ENDBRANCH   5   6
ENDBRANCH   1   5
TORSDOF 3
ENDMDL
MODEL 9
REMARK VINA RESULT:    -3.759      2.000      2.863
REMARK INTER + INTRA:          -4.531
REMARK INTER:                  -4.425
REMARK INTRA:                  -0.106
REMARK UNBOUND:                -0.112
REMARK SMILES O=C([O-])CCC(=O)[O-]
REMARK SMILES IDX 4 1 2 2 1 3 3 4 5 5 6 6 7 7 8 8
REMARK H PARENT
REMARK Flexibility Score: inf
ROOT
ATOM      1  C   UNL     1      53.188  49.748   4.357  1.00  0.00     0.059 C 
ENDROOT
BRANCH   1   2
ATOM      2  C   UNL     1      51.699  49.732   4.195  1.00  0.00     0.042 C 
ATOM      3  O   UNL     1      51.007  50.704   4.598  1.00  0.00    -0.550 OA
ATOM      4  O   UNL     1      51.071  48.626   3.637  1.00  0.00    -0.550 OA
ENDBRANCH   1   2
BRANCH   1   5
ATOM      5  C   UNL     1      53.701  51.144   4.726  1.00  0.00     0.059 C 
BRANCH   5   6
ATOM      6  C   UNL     1      54.134  51.213   6.159  1.00  0.00     0.042 C 
ATOM      7  O   UNL     1      55.044  52.010   6.509  1.00  0.00    -0.550 OA
ATOM      8  O   UNL     1      53.505  50.426   7.114  1.00  0.00    -0.550 OA
ENDBRANCH   5   6
ENDBRANCH   1   5
TORSDOF 3
ENDMDL
