MODEL 1
REMARK VINA RESULT:    -4.586      0.000      0.000
REMARK INTER + INTRA:          -9.859
REMARK INTER:                  -8.607
REMARK INTRA:                  -1.252
REMARK UNBOUND:                -1.252
REMARK SMILES O=C([O-])CCCCCCCCCCCCCCC(=O)[O-]
REMARK SMILES IDX 10 1 9 2 8 3 7 4 6 5 5 6 4 7 2 8 1 9 3 10 11 11 12 12 13 13
REMARK SMILES IDX 14 14 15 15 16 16 17 17 18 18 19 19 20 20
REMARK H PARENT
REMARK Flexibility Score: inf
ROOT
ATOM      1  C   UNL     1      -1.199  -4.760  -0.516  1.00  0.00     0.000 C 
ENDROOT
BRANCH   1   2
ATOM      2  C   UNL     1      -1.410  -4.891  -2.035  1.00  0.00     0.000 C 
BRANCH   2   3
ATOM      3  C   UNL     1      -2.437  -5.977  -2.397  1.00  0.00     0.000 C 
BRANCH   3   4
ATOM      4  C   UNL     1      -3.802  -5.391  -2.798  1.00  0.00     0.000 C 
BRANCH   4   5
ATOM      5  C   UNL     1      -4.839  -5.486  -1.667  1.00  0.00     0.000 C 
BRANCH   5   6
ATOM      6  C   UNL     1      -6.248  -5.065  -2.117  1.00  0.00     0.006 C 
BRANCH   6   7
ATOM      7  C   UNL     1      -6.838  -6.032  -3.153  1.00  0.00     0.053 C 
BRANCH   7   8
ATOM      8  C   UNL     1      -7.827  -5.350  -4.049  1.00  0.00     0.041 C 
ATOM      9  O   UNL     1      -7.901  -5.664  -5.267  1.00  0.00    -0.550 OA
ATOM     10  O   UNL     1      -8.685  -4.388  -3.534  1.00  0.00    -0.550 OA
ENDBRANCH   7   8
ENDBRANCH   6   7
ENDBRANCH   5   6
ENDBRANCH   4   5
ENDBRANCH   3   4
ENDBRANCH   2   3
ENDBRANCH   1   2
BRANCH   1  11
ATOM     11  C   UNL     1      -1.951  -3.561   0.084  1.00  0.00     0.000 C 
BRANCH  11  12
ATOM     12  C   UNL     1      -3.021  -3.983   1.107  1.00  0.00     0.000 C 
BRANCH  12  13
ATOM     13  C   UNL     1      -2.840  -5.436   1.574  1.00  0.00     0.000 C 
BRANCH  13  14
ATOM     14  C   UNL     1      -3.033  -5.597   3.092  1.00  0.00     0.000 C 
BRANCH  14  15
ATOM     15  C   UNL     1      -3.237  -4.240   3.798  1.00  0.00     0.000 C 
BRANCH  15  16
ATOM     16  C   UNL     1      -4.063  -4.339   5.092  1.00  0.00     0.006 C 
BRANCH  16  17
ATOM     17  C   UNL     1      -5.461  -3.724   4.957  1.00  0.00     0.053 C 
BRANCH  17  18
ATOM     18  C   UNL     1      -5.973  -3.292   6.294  1.00  0.00     0.041 C 
ATOM     19  O   UNL     1      -6.040  -4.116   7.244  1.00  0.00    -0.550 OA
ATOM     20  O   UNL     1      -6.331  -1.967   6.507  1.00  0.00    -0.550 OA
ENDBRANCH  17  18
ENDBRANCH  16  17
ENDBRANCH  15  16
ENDBRANCH  14  15
ENDBRANCH  13  14
ENDBRANCH  12  13
ENDBRANCH  11  12
ENDBRANCH   1  11
TORSDOF 15
ENDMDL
MODEL 2
REMARK VINA RESULT:    -4.488      1.456      2.379
REMARK INTER + INTRA:          -9.676
REMARK INTER:                  -8.402
REMARK INTRA:                  -1.274
REMARK UNBOUND:                -1.252
REMARK SMILES O=C([O-])CCCCCCCCCCCCCCC(=O)[O-]
REMARK SMILES IDX 10 1 9 2 8 3 7 4 6 5 5 6 4 7 2 8 1 9 3 10 11 11 12 12 13 13
REMARK SMILES IDX 14 14 15 15 16 16 17 17 18 18 19 19 20 20
REMARK H PARENT
REMARK Flexibility Score: inf
ROOT
ATOM      1  C   UNL     1      -1.509  -4.634   1.433  1.00  0.00     0.000 C 
ENDROOT
BRANCH   1   2
ATOM      2  C   UNL     1      -3.026  -4.503   1.210  1.00  0.00     0.000 C 
BRANCH   2   3
ATOM      3  C   UNL     1      -3.433  -4.758  -0.252  1.00  0.00     0.000 C 
BRANCH   3   4
ATOM      4  C   UNL     1      -2.278  -5.322  -1.097  1.00  0.00     0.000 C 
BRANCH   4   5
ATOM      5  C   UNL     1      -2.767  -6.260  -2.214  1.00  0.00     0.000 C 
BRANCH   5   6
ATOM      6  C   UNL     1      -4.283  -6.516  -2.151  1.00  0.00     0.006 C 
BRANCH   6   7
ATOM      7  C   UNL     1      -5.006  -6.018  -3.410  1.00  0.00     0.053 C 
BRANCH   7   8
ATOM      8  C   UNL     1      -6.427  -5.639  -3.120  1.00  0.00     0.041 C 
ATOM      9  O   UNL     1      -7.356  -6.039  -3.872  1.00  0.00    -0.550 OA
ATOM     10  O   UNL     1      -6.728  -4.869  -2.005  1.00  0.00    -0.550 OA
ENDBRANCH   7   8
ENDBRANCH   6   7
ENDBRANCH   5   6
ENDBRANCH   4   5
ENDBRANCH   3   4
ENDBRANCH   2   3
ENDBRANCH   1   2
BRANCH   1  11
ATOM     11  C   UNL     1      -1.151  -5.759   2.418  1.00  0.00     0.000 C 
BRANCH  11  12
ATOM     12  C   UNL     1      -2.313  -6.112   3.363  1.00  0.00     0.000 C 
BRANCH  12  13
ATOM     13  C   UNL     1      -1.926  -5.967   4.843  1.00  0.00     0.000 C 
BRANCH  13  14
ATOM     14  C   UNL     1      -2.736  -4.873   5.561  1.00  0.00     0.000 C 
BRANCH  14  15
ATOM     15  C   UNL     1      -3.989  -4.458   4.760  1.00  0.00     0.000 C 
BRANCH  15  16
ATOM     16  C   UNL     1      -4.044  -2.955   4.441  1.00  0.00     0.006 C 
BRANCH  16  17
ATOM     17  C   UNL     1      -4.994  -2.183   5.364  1.00  0.00     0.053 C 
BRANCH  17  18
ATOM     18  C   UNL     1      -6.188  -3.019   5.701  1.00  0.00     0.041 C 
ATOM     19  O   UNL     1      -7.105  -3.184   4.854  1.00  0.00    -0.550 OA
ATOM     20  O   UNL     1      -6.267  -3.655   6.933  1.00  0.00    -0.550 OA
ENDBRANCH  17  18
ENDBRANCH  16  17
ENDBRANCH  15  16
ENDBRANCH  14  15
ENDBRANCH  13  14
ENDBRANCH  12  13
ENDBRANCH  11  12
ENDBRANCH   1  11
TORSDOF 15
ENDMDL
MODEL 3
REMARK VINA RESULT:    -4.475      3.310      4.061
REMARK INTER + INTRA:          -9.651
REMARK INTER:                  -8.084
REMARK INTRA:                  -1.567
REMARK UNBOUND:                -1.252
REMARK SMILES O=C([O-])CCCCCCCCCCCCCCC(=O)[O-]
REMARK SMILES IDX 10 1 9 2 8 3 7 4 6 5 5 6 4 7 2 8 1 9 3 10 11 11 12 12 13 13
REMARK SMILES IDX 14 14 15 15 16 16 17 17 18 18 19 19 20 20
REMARK H PARENT
REMARK Flexibility Score: inf
ROOT
ATOM      1  C   UNL     1      -1.097  -4.750  -0.234  1.00  0.00     0.000 C 
ENDROOT
BRANCH   1   2
ATOM      2  C   UNL     1      -0.848  -4.524  -1.736  1.00  0.00     0.000 C 
BRANCH   2   3
ATOM      3  C   UNL     1      -2.034  -4.977  -2.605  1.00  0.00     0.000 C 
BRANCH   3   4
ATOM      4  C   UNL     1      -2.636  -6.313  -2.136  1.00  0.00     0.000 C 
BRANCH   4   5
ATOM      5  C   UNL     1      -4.140  -6.208  -1.836  1.00  0.00     0.000 C 
BRANCH   5   6
ATOM      6  C   UNL     1      -4.988  -6.031  -3.107  1.00  0.00     0.006 C 
BRANCH   6   7
ATOM      7  C   UNL     1      -6.479  -6.290  -2.849  1.00  0.00     0.053 C 
BRANCH   7   8
ATOM      8  C   UNL     1      -7.349  -5.369  -3.650  1.00  0.00     0.041 C 
ATOM      9  O   UNL     1      -7.580  -4.200  -3.243  1.00  0.00    -0.550 OA
ATOM     10  O   UNL     1      -7.882  -5.794  -4.860  1.00  0.00    -0.550 OA
ENDBRANCH   7   8
ENDBRANCH   6   7
ENDBRANCH   5   6
ENDBRANCH   4   5
ENDBRANCH   3   4
ENDBRANCH   2   3
ENDBRANCH   1   2
BRANCH   1  11
ATOM     11  C   UNL     1      -1.750  -3.534   0.446  1.00  0.00     0.000 C 
BRANCH  11  12
ATOM     12  C   UNL     1      -2.991  -3.913   1.274  1.00  0.00     0.000 C 
BRANCH  12  13
ATOM     13  C   UNL     1      -3.000  -5.400   1.664  1.00  0.00     0.000 C 
BRANCH  13  14
ATOM     14  C   UNL     1      -2.847  -5.613   3.181  1.00  0.00     0.000 C 
BRANCH  14  15
ATOM     15  C   UNL     1      -1.950  -6.825   3.509  1.00  0.00     0.000 C 
BRANCH  15  16
ATOM     16  C   UNL     1      -0.554  -6.748   2.869  1.00  0.00     0.006 C 
BRANCH  16  17
ATOM     17  C   UNL     1       0.358  -5.719   3.547  1.00  0.00     0.053 C 
BRANCH  17  18
ATOM     18  C   UNL     1       1.350  -6.405   4.432  1.00  0.00     0.041 C 
ATOM     19  O   UNL     1       2.248  -5.740   5.013  1.00  0.00    -0.550 OA
ATOM     20  O   UNL     1       1.255  -7.773   4.655  1.00  0.00    -0.550 OA
ENDBRANCH  17  18
ENDBRANCH  16  17
ENDBRANCH  15  16
ENDBRANCH  14  15
ENDBRANCH  13  14
ENDBRANCH  12  13
ENDBRANCH  11  12
ENDBRANCH   1  11
TORSDOF 15
ENDMDL
MODEL 4
REMARK VINA RESULT:    -4.466      3.396      4.489
REMARK INTER + INTRA:          -9.633
REMARK INTER:                  -8.081
REMARK INTRA:                  -1.552
REMARK UNBOUND:                -1.252
REMARK SMILES O=C([O-])CCCCCCCCCCCCCCC(=O)[O-]
REMARK SMILES IDX 10 1 9 2 8 3 7 4 6 5 5 6 4 7 2 8 1 9 3 10 11 11 12 12 13 13
REMARK SMILES IDX 14 14 15 15 16 16 17 17 18 18 19 19 20 20
REMARK H PARENT
REMARK Flexibility Score: inf
ROOT
ATOM      1  C   UNL     1      -1.498  -4.595   1.224  1.00  0.00     0.000 C 
ENDROOT
BRANCH   1   2
ATOM      2  C   UNL     1      -1.106  -4.646  -0.263  1.00  0.00     0.000 C 
BRANCH   2   3
ATOM      3  C   UNL     1      -1.926  -3.671  -1.125  1.00  0.00     0.000 C 
BRANCH   3   4
ATOM      4  C   UNL     1      -2.453  -4.322  -2.416  1.00  0.00     0.000 C 
BRANCH   4   5
ATOM      5  C   UNL     1      -2.182  -5.835  -2.467  1.00  0.00     0.000 C 
BRANCH   5   6
ATOM      6  C   UNL     1      -3.451  -6.673  -2.240  1.00  0.00     0.006 C 
BRANCH   6   7
ATOM      7  C   UNL     1      -4.708  -5.799  -2.121  1.00  0.00     0.053 C 
BRANCH   7   8
ATOM      8  C   UNL     1      -5.757  -6.196  -3.115  1.00  0.00     0.041 C 
ATOM      9  O   UNL     1      -6.587  -7.100  -2.834  1.00  0.00    -0.550 OA
ATOM     10  O   UNL     1      -5.834  -5.547  -4.340  1.00  0.00    -0.550 OA
ENDBRANCH   7   8
ENDBRANCH   6   7
ENDBRANCH   5   6
ENDBRANCH   4   5
ENDBRANCH   3   4
ENDBRANCH   2   3
ENDBRANCH   1   2
BRANCH   1  11
ATOM     11  C   UNL     1      -2.965  -4.991   1.462  1.00  0.00     0.000 C 
BRANCH  11  12
ATOM     12  C   UNL     1      -3.166  -5.755   2.783  1.00  0.00     0.000 C 
BRANCH  12  13
ATOM     13  C   UNL     1      -2.887  -4.877   4.013  1.00  0.00     0.000 C 
BRANCH  13  14
ATOM     14  C   UNL     1      -2.010  -5.588   5.059  1.00  0.00     0.000 C 
BRANCH  14  15
ATOM     15  C   UNL     1      -0.505  -5.453   4.743  1.00  0.00     0.000 C 
BRANCH  15  16
ATOM     16  C   UNL     1       0.057  -6.622   3.917  1.00  0.00     0.006 C 
BRANCH  16  17
ATOM     17  C   UNL     1      -0.501  -7.983   4.351  1.00  0.00     0.053 C 
BRANCH  17  18
ATOM     18  C   UNL     1       0.358  -8.581   5.420  1.00  0.00     0.041 C 
ATOM     19  O   UNL     1       1.571  -8.831   5.193  1.00  0.00    -0.550 OA
ATOM     20  O   UNL     1      -0.169  -8.818   6.684  1.00  0.00    -0.550 OA
ENDBRANCH  17  18
ENDBRANCH  16  17
ENDBRANCH  15  16
ENDBRANCH  14  15
ENDBRANCH  13  14
ENDBRANCH  12  13
ENDBRANCH  11  12
ENDBRANCH   1  11
TORSDOF 15
ENDMDL
MODEL 5
REMARK VINA RESULT:    -4.463      2.999      3.801
REMARK INTER + INTRA:          -9.629
REMARK INTER:                  -7.992
REMARK INTRA:                  -1.637
REMARK UNBOUND:                -1.252
REMARK SMILES O=C([O-])CCCCCCCCCCCCCCC(=O)[O-]
REMARK SMILES IDX 10 1 9 2 8 3 7 4 6 5 5 6 4 7 2 8 1 9 3 10 11 11 12 12 13 13
REMARK SMILES IDX 14 14 15 15 16 16 17 17 18 18 19 19 20 20
REMARK H PARENT
REMARK Flexibility Score: inf
ROOT
ATOM      1  C   UNL     1      -1.187  -4.870  -2.058  1.00  0.00     0.000 C 
ENDROOT
BRANCH   1   2
ATOM      2  C   UNL     1      -2.597  -5.034  -2.654  1.00  0.00     0.000 C 
BRANCH   2   3
ATOM      3  C   UNL     1      -3.125  -6.474  -2.533  1.00  0.00     0.000 C 
BRANCH   3   4
ATOM      4  C   UNL     1      -4.514  -6.541  -1.875  1.00  0.00     0.000 C 
BRANCH   4   5
ATOM      5  C   UNL     1      -5.136  -5.150  -1.669  1.00  0.00     0.000 C 
BRANCH   5   6
ATOM      6  C   UNL     1      -6.410  -4.939  -2.505  1.00  0.00     0.006 C 
BRANCH   6   7
ATOM      7  C   UNL     1      -6.243  -3.820  -3.542  1.00  0.00     0.053 C 
BRANCH   7   8
ATOM      8  C   UNL     1      -5.576  -4.313  -4.790  1.00  0.00     0.041 C 
ATOM      9  O   UNL     1      -5.763  -5.495  -5.184  1.00  0.00    -0.550 OA
ATOM     10  O   UNL     1      -4.771  -3.460  -5.532  1.00  0.00    -0.550 OA
ENDBRANCH   7   8
ENDBRANCH   6   7
ENDBRANCH   5   6
ENDBRANCH   4   5
ENDBRANCH   3   4
ENDBRANCH   2   3
ENDBRANCH   1   2
BRANCH   1  11
ATOM     11  C   UNL     1      -1.209  -4.235  -0.657  1.00  0.00     0.000 C 
BRANCH  11  12
ATOM     12  C   UNL     1      -1.389  -5.275   0.463  1.00  0.00     0.000 C 
BRANCH  12  13
ATOM     13  C   UNL     1      -2.743  -5.133   1.177  1.00  0.00     0.000 C 
BRANCH  13  14
ATOM     14  C   UNL     1      -2.640  -4.321   2.481  1.00  0.00     0.000 C 
BRANCH  14  15
ATOM     15  C   UNL     1      -1.773  -5.033   3.542  1.00  0.00     0.000 C 
BRANCH  15  16
ATOM     16  C   UNL     1      -2.200  -6.486   3.809  1.00  0.00     0.006 C 
BRANCH  16  17
ATOM     17  C   UNL     1      -1.056  -7.489   3.621  1.00  0.00     0.053 C 
BRANCH  17  18
ATOM     18  C   UNL     1      -0.559  -7.968   4.949  1.00  0.00     0.041 C 
ATOM     19  O   UNL     1      -1.097  -7.561   6.012  1.00  0.00    -0.550 OA
ATOM     20  O   UNL     1       0.469  -8.901   5.011  1.00  0.00    -0.550 OA
ENDBRANCH  17  18
ENDBRANCH  16  17
ENDBRANCH  15  16
ENDBRANCH  14  15
ENDBRANCH  13  14
ENDBRANCH  12  13
ENDBRANCH  11  12
ENDBRANCH   1  11
TORSDOF 15
ENDMDL
MODEL 6
REMARK VINA RESULT:    -4.428     12.621     14.153
REMARK INTER + INTRA:          -9.564
REMARK INTER:                  -8.593
REMARK INTRA:                  -0.971
REMARK UNBOUND:                -1.252
REMARK SMILES O=C([O-])CCCCCCCCCCCCCCC(=O)[O-]
REMARK SMILES IDX 10 1 9 2 8 3 7 4 6 5 5 6 4 7 2 8 1 9 3 10 11 11 12 12 13 13
REMARK SMILES IDX 14 14 15 15 16 16 17 17 18 18 19 19 20 20
REMARK H PARENT
REMARK Flexibility Score: inf
ROOT
ATOM      1  C   UNL     1       3.013   5.032   1.883  1.00  0.00     0.000 C 
ENDROOT
BRANCH   1   2
ATOM      2  C   UNL     1       1.832   5.081   0.897  1.00  0.00     0.000 C 
BRANCH   2   3
ATOM      3  C   UNL     1       2.281   5.339  -0.551  1.00  0.00     0.000 C 
BRANCH   3   4
ATOM      4  C   UNL     1       3.687   5.958  -0.633  1.00  0.00     0.000 C 
BRANCH   4   5
ATOM      5  C   UNL     1       4.075   6.354  -2.068  1.00  0.00     0.000 C 
BRANCH   5   6
ATOM      6  C   UNL     1       5.588   6.569  -2.236  1.00  0.00     0.006 C 
BRANCH   6   7
ATOM      7  C   UNL     1       6.363   5.244  -2.246  1.00  0.00     0.053 C 
BRANCH   7   8
ATOM      8  C   UNL     1       6.909   4.931  -3.606  1.00  0.00     0.041 C 
ATOM      9  O   UNL     1       6.796   3.770  -4.083  1.00  0.00    -0.550 OA
ATOM     10  O   UNL     1       7.518   5.927  -4.357  1.00  0.00    -0.550 OA
ENDBRANCH   7   8
ENDBRANCH   6   7
ENDBRANCH   5   6
ENDBRANCH   4   5
ENDBRANCH   3   4
ENDBRANCH   2   3
ENDBRANCH   1   2
BRANCH   1  11
ATOM     11  C   UNL     1       2.796   5.932   3.111  1.00  0.00     0.000 C 
BRANCH  11  12
ATOM     12  C   UNL     1       1.453   6.682   3.068  1.00  0.00     0.000 C 
BRANCH  12  13
ATOM     13  C   UNL     1       1.285   7.647   4.251  1.00  0.00     0.000 C 
BRANCH  13  14
ATOM     14  C   UNL     1       1.478   6.953   5.611  1.00  0.00     0.000 C 
BRANCH  14  15
ATOM     15  C   UNL     1       0.989   7.828   6.785  1.00  0.00     0.000 C 
BRANCH  15  16
ATOM     16  C   UNL     1       0.059   8.974   6.351  1.00  0.00     0.006 C 
BRANCH  16  17
ATOM     17  C   UNL     1      -1.406   8.729   6.728  1.00  0.00     0.053 C 
BRANCH  17  18
ATOM     18  C   UNL     1      -2.222   8.456   5.504  1.00  0.00     0.041 C 
ATOM     19  O   UNL     1      -2.164   7.331   4.942  1.00  0.00    -0.550 OA
ATOM     20  O   UNL     1      -3.083   9.428   5.011  1.00  0.00    -0.550 OA
ENDBRANCH  17  18
ENDBRANCH  16  17
ENDBRANCH  15  16
ENDBRANCH  14  15
ENDBRANCH  13  14
ENDBRANCH  12  13
ENDBRANCH  11  12
ENDBRANCH   1  11
TORSDOF 15
ENDMDL
MODEL 7
REMARK VINA RESULT:    -4.427     12.748     15.501
REMARK INTER + INTRA:          -9.561
REMARK INTER:                  -8.174
REMARK INTRA:                  -1.387
REMARK UNBOUND:                -1.252
REMARK SMILES O=C([O-])CCCCCCCCCCCCCCC(=O)[O-]
REMARK SMILES IDX 10 1 9 2 8 3 7 4 6 5 5 6 4 7 2 8 1 9 3 10 11 11 12 12 13 13
REMARK SMILES IDX 14 14 15 15 16 16 17 17 18 18 19 19 20 20
REMARK H PARENT
REMARK Flexibility Score: inf
ROOT
ATOM      1  C   UNL     1       0.880   7.755   6.211  1.00  0.00     0.000 C 
ENDROOT
BRANCH   1   2
ATOM      2  C   UNL     1       1.251   6.296   6.531  1.00  0.00     0.000 C 
BRANCH   2   3
ATOM      3  C   UNL     1       2.336   6.186   7.616  1.00  0.00     0.000 C 
BRANCH   3   4
ATOM      4  C   UNL     1       3.404   5.131   7.279  1.00  0.00     0.000 C 
BRANCH   4   5
ATOM      5  C   UNL     1       3.160   4.458   5.918  1.00  0.00     0.000 C 
BRANCH   5   6
ATOM      6  C   UNL     1       4.437   4.365   5.065  1.00  0.00     0.006 C 
BRANCH   6   7
ATOM      7  C   UNL     1       4.910   2.915   4.890  1.00  0.00     0.053 C 
BRANCH   7   8
ATOM      8  C   UNL     1       5.817   2.488   6.004  1.00  0.00     0.041 C 
ATOM      9  O   UNL     1       5.987   1.265   6.251  1.00  0.00    -0.550 OA
ATOM     10  O   UNL     1       6.497   3.441   6.751  1.00  0.00    -0.550 OA
ENDBRANCH   7   8
ENDBRANCH   6   7
ENDBRANCH   5   6
ENDBRANCH   4   5
ENDBRANCH   3   4
ENDBRANCH   2   3
ENDBRANCH   1   2
BRANCH   1  11
ATOM     11  C   UNL     1       0.748   8.014   4.701  1.00  0.00     0.000 C 
BRANCH  11  12
ATOM     12  C   UNL     1       1.903   7.400   3.890  1.00  0.00     0.000 C 
BRANCH  12  13
ATOM     13  C   UNL     1       1.421   6.311   2.920  1.00  0.00     0.000 C 
BRANCH  13  14
ATOM     14  C   UNL     1       2.581   5.631   2.171  1.00  0.00     0.000 C 
BRANCH  14  15
ATOM     15  C   UNL     1       2.108   4.929   0.881  1.00  0.00     0.000 C 
BRANCH  15  16
ATOM     16  C   UNL     1       3.241   4.664  -0.125  1.00  0.00     0.006 C 
BRANCH  16  17
ATOM     17  C   UNL     1       3.459   5.827  -1.099  1.00  0.00     0.053 C 
BRANCH  17  18
ATOM     18  C   UNL     1       4.824   5.748  -1.709  1.00  0.00     0.041 C 
ATOM     19  O   UNL     1       5.248   6.683  -2.437  1.00  0.00    -0.550 OA
ATOM     20  O   UNL     1       5.646   4.663  -1.434  1.00  0.00    -0.550 OA
ENDBRANCH  17  18
ENDBRANCH  16  17
ENDBRANCH  15  16
ENDBRANCH  14  15
ENDBRANCH  13  14
ENDBRANCH  12  13
ENDBRANCH  11  12
ENDBRANCH   1  11
TORSDOF 15
ENDMDL
MODEL 8
REMARK VINA RESULT:    -4.402     12.054     15.061
REMARK INTER + INTRA:          -9.514
REMARK INTER:                  -8.222
REMARK INTRA:                  -1.292
REMARK UNBOUND:                -1.252
REMARK SMILES O=C([O-])CCCCCCCCCCCCCCC(=O)[O-]
REMARK SMILES IDX 10 1 9 2 8 3 7 4 6 5 5 6 4 7 2 8 1 9 3 10 11 11 12 12 13 13
REMARK SMILES IDX 14 14 15 15 16 16 17 17 18 18 19 19 20 20
REMARK H PARENT
REMARK Flexibility Score: inf
ROOT
ATOM      1  C   UNL     1       2.965   5.763   3.034  1.00  0.00     0.000 C 
ENDROOT
BRANCH   1   2
ATOM      2  C   UNL     1       2.539   4.740   4.102  1.00  0.00     0.000 C 
BRANCH   2   3
ATOM      3  C   UNL     1       3.306   4.911   5.424  1.00  0.00     0.000 C 
BRANCH   3   4
ATOM      4  C   UNL     1       2.395   5.351   6.584  1.00  0.00     0.000 C 
BRANCH   4   5
ATOM      5  C   UNL     1       1.089   5.999   6.095  1.00  0.00     0.000 C 
BRANCH   5   6
ATOM      6  C   UNL     1       1.143   7.536   6.120  1.00  0.00     0.006 C 
BRANCH   6   7
ATOM      7  C   UNL     1       0.635   8.154   4.810  1.00  0.00     0.053 C 
BRANCH   7   8
ATOM      8  C   UNL     1      -0.756   7.700   4.485  1.00  0.00     0.041 C 
ATOM      9  O   UNL     1      -1.743   8.192   5.094  1.00  0.00    -0.550 OA
ATOM     10  O   UNL     1      -0.964   6.754   3.490  1.00  0.00    -0.550 OA
ENDBRANCH   7   8
ENDBRANCH   6   7
ENDBRANCH   5   6
ENDBRANCH   4   5
ENDBRANCH   3   4
ENDBRANCH   2   3
ENDBRANCH   1   2
BRANCH   1  11
ATOM     11  C   UNL     1       2.742   5.249   1.602  1.00  0.00     0.000 C 
BRANCH  11  12
ATOM     12  C   UNL     1       1.261   5.283   1.182  1.00  0.00     0.000 C 
BRANCH  12  13
ATOM     13  C   UNL     1       1.065   4.910  -0.296  1.00  0.00     0.000 C 
BRANCH  13  14
ATOM     14  C   UNL     1       2.396   4.831  -1.066  1.00  0.00     0.000 C 
BRANCH  14  15
ATOM     15  C   UNL     1       2.334   5.588  -2.410  1.00  0.00     0.000 C 
BRANCH  15  16
ATOM     16  C   UNL     1       3.326   6.760  -2.500  1.00  0.00     0.006 C 
BRANCH  16  17
ATOM     17  C   UNL     1       4.631   6.499  -1.739  1.00  0.00     0.053 C 
BRANCH  17  18
ATOM     18  C   UNL     1       5.666   5.932  -2.658  1.00  0.00     0.041 C 
ATOM     19  O   UNL     1       5.517   6.008  -3.906  1.00  0.00    -0.550 OA
ATOM     20  O   UNL     1       6.820   5.360  -2.137  1.00  0.00    -0.550 OA
ENDBRANCH  17  18
ENDBRANCH  16  17
ENDBRANCH  15  16
ENDBRANCH  14  15
ENDBRANCH  13  14
ENDBRANCH  12  13
ENDBRANCH  11  12
ENDBRANCH   1  11
TORSDOF 15
ENDMDL
MODEL 9
REMARK VINA RESULT:    -4.341     12.316     15.455
REMARK INTER + INTRA:          -9.399
REMARK INTER:                  -8.376
REMARK INTRA:                  -1.023
REMARK UNBOUND:                -1.252
REMARK SMILES O=C([O-])CCCCCCCCCCCCCCC(=O)[O-]
REMARK SMILES IDX 10 1 9 2 8 3 7 4 6 5 5 6 4 7 2 8 1 9 3 10 11 11 12 12 13 13
REMARK SMILES IDX 14 14 15 15 16 16 17 17 18 18 19 19 20 20
REMARK H PARENT
REMARK Flexibility Score: inf
ROOT
ATOM      1  C   UNL     1       3.022   5.203   1.012  1.00  0.00     0.000 C 
ENDROOT
BRANCH   1   2
ATOM      2  C   UNL     1       2.605   4.766   2.428  1.00  0.00     0.000 C 
BRANCH   2   3
ATOM      3  C   UNL     1       2.991   5.797   3.502  1.00  0.00     0.000 C 
BRANCH   3   4
ATOM      4  C   UNL     1       2.449   5.431   4.895  1.00  0.00     0.000 C 
BRANCH   4   5
ATOM      5  C   UNL     1       1.588   6.550   5.504  1.00  0.00     0.000 C 
BRANCH   5   6
ATOM      6  C   UNL     1       1.072   7.544   4.449  1.00  0.00     0.006 C 
BRANCH   6   7
ATOM      7  C   UNL     1      -0.383   7.262   4.051  1.00  0.00     0.053 C 
BRANCH   7   8
ATOM      8  C   UNL     1      -1.347   7.759   5.085  1.00  0.00     0.041 C 
ATOM      9  O   UNL     1      -1.822   8.923   5.003  1.00  0.00    -0.550 OA
ATOM     10  O   UNL     1      -1.743   6.927   6.123  1.00  0.00    -0.550 OA
ENDBRANCH   7   8
ENDBRANCH   6   7
ENDBRANCH   5   6
ENDBRANCH   4   5
ENDBRANCH   3   4
ENDBRANCH   2   3
ENDBRANCH   1   2
BRANCH   1  11
ATOM     11  C   UNL     1       2.426   4.303  -0.084  1.00  0.00     0.000 C 
BRANCH  11  12
ATOM     12  C   UNL     1       1.568   5.087  -1.093  1.00  0.00     0.000 C 
BRANCH  12  13
ATOM     13  C   UNL     1       2.308   5.338  -2.416  1.00  0.00     0.000 C 
BRANCH  13  14
ATOM     14  C   UNL     1       2.984   6.720  -2.461  1.00  0.00     0.000 C 
BRANCH  14  15
ATOM     15  C   UNL     1       4.480   6.647  -2.087  1.00  0.00     0.000 C 
BRANCH  15  16
ATOM     16  C   UNL     1       5.290   5.689  -2.978  1.00  0.00     0.006 C 
BRANCH  16  17
ATOM     17  C   UNL     1       6.485   5.064  -2.250  1.00  0.00     0.053 C 
BRANCH  17  18
ATOM     18  C   UNL     1       7.736   5.242  -3.052  1.00  0.00     0.041 C 
ATOM     19  O   UNL     1       8.815   4.721  -2.667  1.00  0.00    -0.550 OA
ATOM     20  O   UNL     1       7.699   5.943  -4.250  1.00  0.00    -0.550 OA
ENDBRANCH  17  18
ENDBRANCH  16  17
ENDBRANCH  15  16
ENDBRANCH  14  15
ENDBRANCH  13  14
ENDBRANCH  12  13
ENDBRANCH  11  12
ENDBRANCH   1  11
TORSDOF 15
ENDMDL
