MODEL 1
REMARK VINA RESULT:    32.325      0.000      0.000
REMARK INTER + INTRA:          54.552
REMARK INTER:                  49.333
REMARK INTRA:                   5.220
REMARK UNBOUND:                 5.220
REMARK SMILES OC[C@@H]1O[C@](CO)(O[C@H]2O[C@H](CO)[C@@H](O)[C@H](O)[C@@H]2O)[C@H](O)[C@H]1O
REMARK SMILES IDX 8 1 9 2 11 3 14 4 10 5 16 6 18 7 12 8 13 9 15 11 17 13 19 15
REMARK SMILES IDX 5 17 20 18 4 19 22 20 3 21 6 22 7 23 21 25 23 27 2 29 1 30
REMARK H PARENT 13 10 15 12 17 14 19 16 7 24 21 26 23 28 1 31
REMARK Flexibility Score: inf
ROOT
ATOM      1  O   UNL     1      85.323 109.704 103.898  1.00  0.00    -0.313 OA
ENDROOT
BRANCH   1   2
ATOM      2  C   UNL     1      85.054 108.919 105.052  1.00  0.00     0.285 C 
ATOM      3  C   UNL     1      84.596 106.697 105.768  1.00  0.00     0.178 C 
ATOM      4  C   UNL     1      85.895 106.602 106.625  1.00  0.00     0.177 C 
ATOM      5  O   UNL     1      84.740 107.585 104.666  1.00  0.00    -0.341 OA
ATOM      6  C   UNL     1      86.951 107.604 106.138  1.00  0.00     0.179 C 
ATOM      7  C   UNL     1      86.309 108.989 105.972  1.00  0.00     0.202 C 
BRANCH   3   8
ATOM      8  C   UNL     1      83.337 107.011 106.607  1.00  0.00     0.191 C 
BRANCH   8   9
ATOM      9  O   UNL     1      82.231 107.212 105.761  1.00  0.00    -0.394 OA
ATOM     10  H   UNL     1      81.443 106.816 106.214  1.00  0.00     0.210 HD
ENDBRANCH   8   9
ENDBRANCH   3   8
BRANCH   4  11
ATOM     11  O   UNL     1      86.423 105.297 106.615  1.00  0.00    -0.387 OA
ATOM     12  H   UNL     1      85.671 104.673 106.409  1.00  0.00     0.211 HD
ENDBRANCH   4  11
BRANCH   6  13
ATOM     13  O   UNL     1      88.012 107.664 107.061  1.00  0.00    -0.387 OA
ATOM     14  H   UNL     1      88.571 108.450 106.821  1.00  0.00     0.211 HD
ENDBRANCH   6  13
BRANCH   7  15
ATOM     15  O   UNL     1      85.933 109.509 107.223  1.00  0.00    -0.385 OA
ATOM     16  H   UNL     1      86.761 109.840 107.662  1.00  0.00     0.211 HD
ENDBRANCH   7  15
ENDBRANCH   1   2
BRANCH   1  17
ATOM     17  C   UNL     1      84.340 109.713 102.852  1.00  0.00     0.224 C 
ATOM     18  C   UNL     1      82.999 109.171 103.401  1.00  0.00     0.208 C 
ATOM     19  O   UNL     1      84.800 108.793 101.881  1.00  0.00    -0.337 OA
ATOM     20  C   UNL     1      83.125 107.690 103.174  1.00  0.00     0.180 C 
ATOM     21  C   UNL     1      83.994 107.636 101.928  1.00  0.00     0.179 C 
BRANCH  17  22
ATOM     22  C   UNL     1      84.135 111.071 102.113  1.00  0.00     0.225 C 
BRANCH  22  23
ATOM     23  O   UNL     1      84.395 112.149 102.973  1.00  0.00    -0.391 OA
ATOM     24  H   UNL     1      84.288 111.814 103.903  1.00  0.00     0.210 HD
ENDBRANCH  22  23
ENDBRANCH  17  22
BRANCH  18  25
ATOM     25  O   UNL     1      82.831 109.436 104.772  1.00  0.00    -0.385 OA
ATOM     26  H   UNL     1      82.576 110.390 104.857  1.00  0.00     0.211 HD
ENDBRANCH  18  25
BRANCH  20  27
ATOM     27  O   UNL     1      81.875 107.100 102.930  1.00  0.00    -0.387 OA
ATOM     28  H   UNL     1      81.391 107.100 103.798  1.00  0.00     0.211 HD
ENDBRANCH  20  27
BRANCH  21  29
ATOM     29  C   UNL     1      84.876 106.385 101.892  1.00  0.00     0.191 C 
BRANCH  29  30
ATOM     30  O   UNL     1      84.123 105.256 102.245  1.00  0.00    -0.394 OA
ATOM     31  H   UNL     1      84.766 104.505 102.349  1.00  0.00     0.210 HD
ENDBRANCH  29  30
ENDBRANCH  21  29
ENDBRANCH   1  17
TORSDOF 13
ENDMDL
MODEL 2
REMARK VINA RESULT:    32.390      1.580      5.740
REMARK INTER + INTRA:          54.652
REMARK INTER:                  53.063
REMARK INTRA:                   1.588
REMARK UNBOUND:                 5.220
REMARK SMILES OC[C@@H]1O[C@](CO)(O[C@H]2O[C@H](CO)[C@@H](O)[C@H](O)[C@@H]2O)[C@H](O)[C@H]1O
REMARK SMILES IDX 8 1 9 2 11 3 14 4 10 5 16 6 18 7 12 8 13 9 15 11 17 13 19 15
REMARK SMILES IDX 5 17 20 18 4 19 22 20 3 21 6 22 7 23 21 25 23 27 2 29 1 30
REMARK H PARENT 13 10 15 12 17 14 19 16 7 24 21 26 23 28 1 31
REMARK Flexibility Score: inf
ROOT
ATOM      1  O   UNL     1      86.501 108.168 105.039  1.00  0.00    -0.313 OA
ENDROOT
BRANCH   1   2
ATOM      2  C   UNL     1      85.264 108.780 104.696  1.00  0.00     0.285 C 
ATOM      3  C   UNL     1      83.984 109.559 102.848  1.00  0.00     0.178 C 
ATOM      4  C   UNL     1      82.833 108.535 103.091  1.00  0.00     0.177 C 
ATOM      5  O   UNL     1      85.242 109.074 103.303  1.00  0.00    -0.341 OA
ATOM      6  C   UNL     1      83.332 107.323 103.889  1.00  0.00     0.179 C 
ATOM      7  C   UNL     1      84.125 107.804 105.114  1.00  0.00     0.202 C 
BRANCH   3   8
ATOM      8  C   UNL     1      83.670 110.968 103.401  1.00  0.00     0.191 C 
BRANCH   8   9
ATOM      9  O   UNL     1      84.459 111.930 102.745  1.00  0.00    -0.394 OA
ATOM     10  H   UNL     1      85.379 111.849 103.108  1.00  0.00     0.210 HD
ENDBRANCH   8   9
ENDBRANCH   3   8
BRANCH   4  11
ATOM     11  O   UNL     1      82.257 108.114 101.877  1.00  0.00    -0.387 OA
ATOM     12  H   UNL     1      81.792 107.248 102.052  1.00  0.00     0.211 HD
ENDBRANCH   4  11
BRANCH   6  13
ATOM     13  O   UNL     1      82.238 106.536 104.293  1.00  0.00    -0.387 OA
ATOM     14  H   UNL     1      82.035 106.770 105.238  1.00  0.00     0.211 HD
ENDBRANCH   6  13
BRANCH   7  15
ATOM     15  O   UNL     1      83.274 108.454 106.025  1.00  0.00    -0.385 OA
ATOM     16  H   UNL     1      82.634 108.996 105.492  1.00  0.00     0.211 HD
ENDBRANCH   7  15
ENDBRANCH   1   2
BRANCH   1  17
ATOM     17  C   UNL     1      86.653 107.674 106.378  1.00  0.00     0.224 C 
ATOM     18  C   UNL     1      86.450 108.835 107.381  1.00  0.00     0.208 C 
ATOM     19  O   UNL     1      88.002 107.258 106.485  1.00  0.00    -0.337 OA
ATOM     20  C   UNL     1      87.835 109.406 107.509  1.00  0.00     0.180 C 
ATOM     21  C   UNL     1      88.704 108.179 107.291  1.00  0.00     0.179 C 
BRANCH  17  22
ATOM     22  C   UNL     1      85.778 106.442 106.761  1.00  0.00     0.225 C 
BRANCH  22  23
ATOM     23  O   UNL     1      86.417 105.247 106.394  1.00  0.00    -0.391 OA
ATOM     24  H   UNL     1      86.115 104.546 107.031  1.00  0.00     0.210 HD
ENDBRANCH  22  23
ENDBRANCH  17  22
BRANCH  18  25
ATOM     25  O   UNL     1      85.566 109.815 106.899  1.00  0.00    -0.385 OA
ATOM     26  H   UNL     1      84.740 109.760 107.445  1.00  0.00     0.211 HD
ENDBRANCH  18  25
BRANCH  20  27
ATOM     27  O   UNL     1      88.052 109.945 108.787  1.00  0.00    -0.387 OA
ATOM     28  H   UNL     1      87.597 110.828 108.800  1.00  0.00     0.211 HD
ENDBRANCH  20  27
BRANCH  21  29
ATOM     29  C   UNL     1      90.044 108.527 106.638  1.00  0.00     0.191 C 
BRANCH  29  30
ATOM     30  O   UNL     1      91.101 108.089 107.448  1.00  0.00    -0.394 OA
ATOM     31  H   UNL     1      91.384 107.203 107.097  1.00  0.00     0.210 HD
ENDBRANCH  29  30
ENDBRANCH  21  29
ENDBRANCH   1  17
TORSDOF 13
ENDMDL
MODEL 3
REMARK VINA RESULT:    33.320      1.508      5.569
REMARK INTER + INTRA:          56.071
REMARK INTER:                  54.441
REMARK INTRA:                   1.630
REMARK UNBOUND:                 5.220
REMARK SMILES OC[C@@H]1O[C@](CO)(O[C@H]2O[C@H](CO)[C@@H](O)[C@H](O)[C@@H]2O)[C@H](O)[C@H]1O
REMARK SMILES IDX 8 1 9 2 11 3 14 4 10 5 16 6 18 7 12 8 13 9 15 11 17 13 19 15
REMARK SMILES IDX 5 17 20 18 4 19 22 20 3 21 6 22 7 23 21 25 23 27 2 29 1 30
REMARK H PARENT 13 10 15 12 17 14 19 16 7 24 21 26 23 28 1 31
REMARK Flexibility Score: inf
ROOT
ATOM      1  O   UNL     1      86.565 107.933 104.858  1.00  0.00    -0.313 OA
ENDROOT
BRANCH   1   2
ATOM      2  C   UNL     1      85.311 107.906 104.187  1.00  0.00     0.285 C 
ATOM      3  C   UNL     1      82.968 108.121 104.540  1.00  0.00     0.178 C 
ATOM      4  C   UNL     1      82.852 109.391 103.642  1.00  0.00     0.177 C 
ATOM      5  O   UNL     1      84.254 107.998 105.137  1.00  0.00    -0.341 OA
ATOM      6  C   UNL     1      84.205 110.106 103.521  1.00  0.00     0.179 C 
ATOM      7  C   UNL     1      85.297 109.085 103.170  1.00  0.00     0.202 C 
BRANCH   3   8
ATOM      8  C   UNL     1      82.536 106.825 103.818  1.00  0.00     0.191 C 
BRANCH   8   9
ATOM      9  O   UNL     1      83.363 106.596 102.703  1.00  0.00    -0.394 OA
ATOM     10  H   UNL     1      82.816 106.770 101.894  1.00  0.00     0.210 HD
ENDBRANCH   8   9
ENDBRANCH   3   8
BRANCH   4  11
ATOM     11  O   UNL     1      81.876 110.278 104.133  1.00  0.00    -0.387 OA
ATOM     12  H   UNL     1      80.984 109.858 103.975  1.00  0.00     0.211 HD
ENDBRANCH   4  11
BRANCH   6  13
ATOM     13  O   UNL     1      84.129 111.103 102.530  1.00  0.00    -0.387 OA
ATOM     14  H   UNL     1      83.194 111.113 102.190  1.00  0.00     0.211 HD
ENDBRANCH   6  13
BRANCH   7  15
ATOM     15  O   UNL     1      85.093 108.573 101.876  1.00  0.00    -0.385 OA
ATOM     16  H   UNL     1      84.161 108.798 101.616  1.00  0.00     0.211 HD
ENDBRANCH   7  15
ENDBRANCH   1   2
BRANCH   1  17
ATOM     17  C   UNL     1      86.587 107.572 106.247  1.00  0.00     0.224 C 
ATOM     18  C   UNL     1      86.245 108.811 107.107  1.00  0.00     0.208 C 
ATOM     19  O   UNL     1      87.927 107.219 106.533  1.00  0.00    -0.337 OA
ATOM     20  C   UNL     1      87.591 109.445 107.322  1.00  0.00     0.180 C 
ATOM     21  C   UNL     1      88.512 108.236 107.315  1.00  0.00     0.179 C 
BRANCH  17  22
ATOM     22  C   UNL     1      85.711 106.348 106.653  1.00  0.00     0.225 C 
BRANCH  22  23
ATOM     23  O   UNL     1      86.326 105.147 106.266  1.00  0.00    -0.391 OA
ATOM     24  H   UNL     1      86.798 104.789 107.064  1.00  0.00     0.210 HD
ENDBRANCH  22  23
ENDBRANCH  17  22
BRANCH  18  25
ATOM     25  O   UNL     1      85.390 109.708 106.444  1.00  0.00    -0.385 OA
ATOM     26  H   UNL     1      85.094 109.268 105.606  1.00  0.00     0.211 HD
ENDBRANCH  18  25
BRANCH  20  27
ATOM     27  O   UNL     1      87.655 110.107 108.558  1.00  0.00    -0.387 OA
ATOM     28  H   UNL     1      87.380 109.445 109.246  1.00  0.00     0.211 HD
ENDBRANCH  20  27
BRANCH  21  29
ATOM     29  C   UNL     1      89.905 108.573 106.775  1.00  0.00     0.191 C 
BRANCH  29  30
ATOM     30  O   UNL     1      90.873 107.792 107.421  1.00  0.00    -0.394 OA
ATOM     31  H   UNL     1      91.664 107.763 106.820  1.00  0.00     0.210 HD
ENDBRANCH  29  30
ENDBRANCH  21  29
ENDBRANCH   1  17
TORSDOF 13
ENDMDL
MODEL 4
REMARK VINA RESULT:    35.154      1.449      3.642
REMARK INTER + INTRA:          58.869
REMARK INTER:                  58.001
REMARK INTRA:                   0.868
REMARK UNBOUND:                 5.220
REMARK SMILES OC[C@@H]1O[C@](CO)(O[C@H]2O[C@H](CO)[C@@H](O)[C@H](O)[C@@H]2O)[C@H](O)[C@H]1O
REMARK SMILES IDX 8 1 9 2 11 3 14 4 10 5 16 6 18 7 12 8 13 9 15 11 17 13 19 15
REMARK SMILES IDX 5 17 20 18 4 19 22 20 3 21 6 22 7 23 21 25 23 27 2 29 1 30
REMARK H PARENT 13 10 15 12 17 14 19 16 7 24 21 26 23 28 1 31
REMARK Flexibility Score: inf
ROOT
ATOM      1  O   UNL     1      85.014 107.301 104.558  1.00  0.00    -0.313 OA
ENDROOT
BRANCH   1   2
ATOM      2  C   UNL     1      85.787 106.937 105.694  1.00  0.00     0.285 C 
ATOM      3  C   UNL     1      87.960 106.232 106.361  1.00  0.00     0.178 C 
ATOM      4  C   UNL     1      88.212 107.506 107.225  1.00  0.00     0.177 C 
ATOM      5  O   UNL     1      87.071 106.483 105.278  1.00  0.00    -0.341 OA
ATOM      6  C   UNL     1      87.322 108.670 106.766  1.00  0.00     0.179 C 
ATOM      7  C   UNL     1      85.872 108.183 106.624  1.00  0.00     0.202 C 
BRANCH   3   8
ATOM      8  C   UNL     1      87.526 105.008 107.197  1.00  0.00     0.191 C 
BRANCH   8   9
ATOM      9  O   UNL     1      87.292 103.906 106.354  1.00  0.00    -0.394 OA
ATOM     10  H   UNL     1      87.925 103.192 106.626  1.00  0.00     0.210 HD
ENDBRANCH   8   9
ENDBRANCH   3   8
BRANCH   4  11
ATOM     11  O   UNL     1      89.567 107.888 107.192  1.00  0.00    -0.387 OA
ATOM     12  H   UNL     1      89.822 107.997 106.233  1.00  0.00     0.211 HD
ENDBRANCH   4  11
BRANCH   6  13
ATOM     13  O   UNL     1      87.397 109.722 107.698  1.00  0.00    -0.387 OA
ATOM     14  H   UNL     1      86.826 109.474 108.473  1.00  0.00     0.211 HD
ENDBRANCH   6  13
BRANCH   7  15
ATOM     15  O   UNL     1      85.339 107.855 107.882  1.00  0.00    -0.385 OA
ATOM     16  H   UNL     1      84.462 108.317 107.957  1.00  0.00     0.211 HD
ENDBRANCH   7  15
ENDBRANCH   1   2
BRANCH   1  17
ATOM     17  C   UNL     1      83.759 107.959 104.786  1.00  0.00     0.224 C 
ATOM     18  C   UNL     1      82.762 107.570 103.669  1.00  0.00     0.208 C 
ATOM     19  O   UNL     1      84.019 109.344 104.655  1.00  0.00    -0.337 OA
ATOM     20  C   UNL     1      83.032 108.604 102.612  1.00  0.00     0.180 C 
ATOM     21  C   UNL     1      83.456 109.803 103.445  1.00  0.00     0.179 C 
BRANCH  17  22
ATOM     22  C   UNL     1      83.125 107.760 106.197  1.00  0.00     0.225 C 
BRANCH  22  23
ATOM     23  O   UNL     1      81.987 106.942 106.120  1.00  0.00    -0.391 OA
ATOM     24  H   UNL     1      81.801 106.612 107.039  1.00  0.00     0.210 HD
ENDBRANCH  22  23
ENDBRANCH  17  22
BRANCH  18  25
ATOM     25  O   UNL     1      83.002 106.283 103.157  1.00  0.00    -0.385 OA
ATOM     26  H   UNL     1      83.985 106.153 103.135  1.00  0.00     0.211 HD
ENDBRANCH  18  25
BRANCH  20  27
ATOM     27  O   UNL     1      81.875 108.900 101.875  1.00  0.00    -0.387 OA
ATOM     28  H   UNL     1      82.087 108.698 100.925  1.00  0.00     0.211 HD
ENDBRANCH  20  27
BRANCH  21  29
ATOM     29  C   UNL     1      84.459 110.694 102.709  1.00  0.00     0.191 C 
BRANCH  29  30
ATOM     30  O   UNL     1      84.365 112.012 103.176  1.00  0.00    -0.394 OA
ATOM     31  H   UNL     1      83.482 112.094 103.625  1.00  0.00     0.210 HD
ENDBRANCH  29  30
ENDBRANCH  21  29
ENDBRANCH   1  17
TORSDOF 13
ENDMDL
