MODEL 1
REMARK VINA RESULT:    -5.039      0.000      0.000
REMARK INTER + INTRA:          -9.695
REMARK INTER:                  -7.838
REMARK INTRA:                  -1.858
REMARK UNBOUND:                -1.858
REMARK SMILES COc1cc(CNC(=O)CCCCC=CC(C)C)ccc1O
REMARK SMILES IDX 11 1 12 2 13 3 14 4 15 5 16 6 17 7 18 8 10 9 8 10 9 11 7 12
REMARK SMILES IDX 6 14 5 15 4 16 19 17 3 18 20 19 21 20 2 21 1 22 22 23
REMARK H PARENT 7 13 22 24
REMARK Flexibility Score: inf
ROOT
ATOM      1  C   UNL     1     120.960 117.572 118.793  1.00  0.00     0.010 C 
ENDROOT
BRANCH   1   2
ATOM      2  C   UNL     1     119.708 117.683 117.916  1.00  0.00     0.005 C 
BRANCH   2   3
ATOM      3  C   UNL     1     119.501 119.127 117.440  1.00  0.00     0.027 C 
BRANCH   3   4
ATOM      4  C   UNL     1     118.035 119.455 117.300  1.00  0.00    -0.031 C 
ATOM      5  C   UNL     1     117.226 119.835 118.308  1.00  0.00    -0.028 C 
BRANCH   5   6
ATOM      6  C   UNL     1     117.645 120.005 119.754  1.00  0.00     0.005 C 
ATOM      7  C   UNL     1     118.315 121.368 119.938  1.00  0.00     0.012 C 
ATOM      8  C   UNL     1     116.420 119.880 120.662  1.00  0.00     0.012 C 
ENDBRANCH   5   6
ENDBRANCH   3   4
ENDBRANCH   2   3
ENDBRANCH   1   2
BRANCH   1   9
ATOM      9  C   UNL     1     121.238 118.884 119.526  1.00  0.00     0.100 C 
BRANCH   9  10
ATOM     10  C   UNL     1     120.949 118.734 120.988  1.00  0.00     0.220 C 
ATOM     11  O   UNL     1     120.772 119.761 121.696  1.00  0.00    -0.275 OA
ATOM     12  N   UNL     1     120.828 117.425 121.565  1.00  0.00    -0.352 N 
ATOM     13  H   UNL     1     121.006 116.590 120.965  1.00  0.00     0.163 HD
BRANCH  12  14
ATOM     14  C   UNL     1     120.285 117.210 122.903  1.00  0.00     0.151 C 
BRANCH  14  15
ATOM     15  C   UNL     1     118.844 116.788 122.806  1.00  0.00    -0.025 A 
ATOM     16  C   UNL     1     118.219 116.719 121.552  1.00  0.00     0.056 A 
ATOM     17  C   UNL     1     118.100 116.514 123.963  1.00  0.00     0.009 A 
ATOM     18  C   UNL     1     116.860 116.359 121.446  1.00  0.00     0.160 A 
ATOM     19  C   UNL     1     116.755 116.154 123.865  1.00  0.00     0.050 A 
ATOM     20  C   UNL     1     116.132 116.073 122.616  1.00  0.00     0.157 A 
BRANCH  18  21
ATOM     21  O   UNL     1     116.206 116.280 120.204  1.00  0.00    -0.493 OA
ATOM     22  C   UNL     1     116.805 115.795 119.006  1.00  0.00     0.278 C 
ENDBRANCH  18  21
BRANCH  20  23
ATOM     23  O   UNL     1     114.788 115.707 122.557  1.00  0.00    -0.504 OA
ATOM     24  H   UNL     1     114.040 116.377 122.696  1.00  0.00     0.293 HD
ENDBRANCH  20  23
ENDBRANCH  14  15
ENDBRANCH  12  14
ENDBRANCH   9  10
ENDBRANCH   1   9
TORSDOF 10
ENDMDL
MODEL 2
REMARK VINA RESULT:    -5.008      2.327      5.456
REMARK INTER + INTRA:          -9.647
REMARK INTER:                  -7.748
REMARK INTRA:                  -1.900
REMARK UNBOUND:                -1.858
REMARK SMILES COc1cc(CNC(=O)CCCCC=CC(C)C)ccc1O
REMARK SMILES IDX 11 1 12 2 13 3 14 4 15 5 16 6 17 7 18 8 10 9 8 10 9 11 7 12
REMARK SMILES IDX 6 14 5 15 4 16 19 17 3 18 20 19 21 20 2 21 1 22 22 23
REMARK H PARENT 7 13 22 24
REMARK Flexibility Score: inf
ROOT
ATOM      1  C   UNL     1     117.773 116.486 120.325  1.00  0.00     0.010 C 
ENDROOT
BRANCH   1   2
ATOM      2  C   UNL     1     119.190 116.982 120.630  1.00  0.00     0.005 C 
BRANCH   2   3
ATOM      3  C   UNL     1     120.117 116.765 119.427  1.00  0.00     0.027 C 
BRANCH   3   4
ATOM      4  C   UNL     1     120.636 118.076 118.889  1.00  0.00    -0.031 C 
ATOM      5  C   UNL     1     120.029 118.820 117.945  1.00  0.00    -0.028 C 
BRANCH   5   6
ATOM      6  C   UNL     1     118.721 118.479 117.262  1.00  0.00     0.005 C 
ATOM      7  C   UNL     1     117.587 119.299 117.882  1.00  0.00     0.012 C 
ATOM      8  C   UNL     1     118.833 118.762 115.762  1.00  0.00     0.012 C 
ENDBRANCH   5   6
ENDBRANCH   3   4
ENDBRANCH   2   3
ENDBRANCH   1   2
BRANCH   1   9
ATOM      9  C   UNL     1     116.929 116.412 121.598  1.00  0.00     0.100 C 
BRANCH   9  10
ATOM     10  C   UNL     1     116.872 117.753 122.262  1.00  0.00     0.220 C 
ATOM     11  O   UNL     1     117.075 117.843 123.503  1.00  0.00    -0.275 OA
ATOM     12  N   UNL     1     116.636 118.933 121.479  1.00  0.00    -0.352 N 
ATOM     13  H   UNL     1     116.444 118.831 120.458  1.00  0.00     0.163 HD
BRANCH  12  14
ATOM     14  C   UNL     1     116.837 120.277 122.013  1.00  0.00     0.151 C 
BRANCH  14  15
ATOM     15  C   UNL     1     118.303 120.615 121.997  1.00  0.00    -0.025 A 
ATOM     16  C   UNL     1     119.007 120.733 123.204  1.00  0.00     0.056 A 
ATOM     17  C   UNL     1     118.965 120.868 120.786  1.00  0.00     0.009 A 
ATOM     18  C   UNL     1     120.373 121.083 123.209  1.00  0.00     0.160 A 
ATOM     19  C   UNL     1     120.318 121.213 120.782  1.00  0.00     0.050 A 
ATOM     20  C   UNL     1     121.025 121.320 121.984  1.00  0.00     0.157 A 
BRANCH  18  21
ATOM     21  O   UNL     1     121.105 121.208 124.402  1.00  0.00    -0.493 OA
ATOM     22  C   UNL     1     121.915 120.179 124.962  1.00  0.00     0.278 C 
ENDBRANCH  18  21
BRANCH  20  23
ATOM     23  O   UNL     1     122.376 121.663 121.942  1.00  0.00    -0.504 OA
ATOM     24  H   UNL     1     123.095 120.990 121.702  1.00  0.00     0.293 HD
ENDBRANCH  20  23
ENDBRANCH  14  15
ENDBRANCH  12  14
ENDBRANCH   9  10
ENDBRANCH   1   9
TORSDOF 10
ENDMDL
MODEL 3
REMARK VINA RESULT:    -4.992      1.340      3.108
REMARK INTER + INTRA:          -9.621
REMARK INTER:                  -7.683
REMARK INTRA:                  -1.938
REMARK UNBOUND:                -1.858
REMARK SMILES COc1cc(CNC(=O)CCCCC=CC(C)C)ccc1O
REMARK SMILES IDX 11 1 12 2 13 3 14 4 15 5 16 6 17 7 18 8 10 9 8 10 9 11 7 12
REMARK SMILES IDX 6 14 5 15 4 16 19 17 3 18 20 19 21 20 2 21 1 22 22 23
REMARK H PARENT 7 13 22 24
REMARK Flexibility Score: inf
ROOT
ATOM      1  C   UNL     1     119.926 121.036 120.278  1.00  0.00     0.010 C 
ENDROOT
BRANCH   1   2
ATOM      2  C   UNL     1     118.488 120.602 120.583  1.00  0.00     0.005 C 
BRANCH   2   3
ATOM      3  C   UNL     1     117.581 120.818 119.365  1.00  0.00     0.027 C 
BRANCH   3   4
ATOM      4  C   UNL     1     117.031 119.511 118.851  1.00  0.00    -0.031 C 
ATOM      5  C   UNL     1     117.617 118.736 117.918  1.00  0.00    -0.028 C 
BRANCH   5   6
ATOM      6  C   UNL     1     118.931 119.036 117.226  1.00  0.00     0.005 C 
ATOM      7  C   UNL     1     120.036 118.159 117.818  1.00  0.00     0.012 C 
ATOM      8  C   UNL     1     118.791 118.784 115.723  1.00  0.00     0.012 C 
ENDBRANCH   5   6
ENDBRANCH   3   4
ENDBRANCH   2   3
ENDBRANCH   1   2
BRANCH   1   9
ATOM      9  C   UNL     1     120.750 121.152 121.561  1.00  0.00     0.100 C 
BRANCH   9  10
ATOM     10  C   UNL     1     120.802 119.832 122.266  1.00  0.00     0.220 C 
ATOM     11  O   UNL     1     120.617 119.784 123.512  1.00  0.00    -0.275 OA
ATOM     12  N   UNL     1     121.011 118.625 121.517  1.00  0.00    -0.352 N 
ATOM     13  H   UNL     1     121.188 118.693 120.491  1.00  0.00     0.163 HD
BRANCH  12  14
ATOM     14  C   UNL     1     120.802 117.301 122.096  1.00  0.00     0.151 C 
BRANCH  14  15
ATOM     15  C   UNL     1     119.338 116.957 122.062  1.00  0.00    -0.025 A 
ATOM     16  C   UNL     1     118.628 116.795 123.261  1.00  0.00     0.056 A 
ATOM     17  C   UNL     1     118.683 116.743 120.839  1.00  0.00     0.009 A 
ATOM     18  C   UNL     1     117.265 116.438 123.247  1.00  0.00     0.160 A 
ATOM     19  C   UNL     1     117.332 116.393 120.818  1.00  0.00     0.050 A 
ATOM     20  C   UNL     1     116.619 116.241 122.011  1.00  0.00     0.157 A 
BRANCH  18  21
ATOM     21  O   UNL     1     116.527 116.269 124.432  1.00  0.00    -0.493 OA
ATOM     22  C   UNL     1     116.918 115.428 125.512  1.00  0.00     0.278 C 
ENDBRANCH  18  21
BRANCH  20  23
ATOM     23  O   UNL     1     115.270 115.895 121.951  1.00  0.00    -0.504 OA
ATOM     24  H   UNL     1     114.539 116.590 121.850  1.00  0.00     0.293 HD
ENDBRANCH  20  23
ENDBRANCH  14  15
ENDBRANCH  12  14
ENDBRANCH   9  10
ENDBRANCH   1   9
TORSDOF 10
ENDMDL
MODEL 4
REMARK VINA RESULT:    -4.978      2.643      4.157
REMARK INTER + INTRA:          -9.600
REMARK INTER:                  -7.711
REMARK INTRA:                  -1.889
REMARK UNBOUND:                -1.858
REMARK SMILES COc1cc(CNC(=O)CCCCC=CC(C)C)ccc1O
REMARK SMILES IDX 11 1 12 2 13 3 14 4 15 5 16 6 17 7 18 8 10 9 8 10 9 11 7 12
REMARK SMILES IDX 6 14 5 15 4 16 19 17 3 18 20 19 21 20 2 21 1 22 22 23
REMARK H PARENT 7 13 22 24
REMARK Flexibility Score: inf
ROOT
ATOM      1  C   UNL     1     121.429 118.156 120.037  1.00  0.00     0.010 C 
ENDROOT
BRANCH   1   2
ATOM      2  C   UNL     1     120.499 119.330 120.363  1.00  0.00     0.005 C 
BRANCH   2   3
ATOM      3  C   UNL     1     120.543 120.388 119.252  1.00  0.00     0.027 C 
BRANCH   3   4
ATOM      4  C   UNL     1     119.156 120.749 118.781  1.00  0.00    -0.031 C 
ATOM      5  C   UNL     1     118.411 120.016 117.932  1.00  0.00    -0.028 C 
BRANCH   5   6
ATOM      6  C   UNL     1     118.829 118.700 117.307  1.00  0.00     0.005 C 
ATOM      7  C   UNL     1     117.881 117.589 117.763  1.00  0.00     0.012 C 
ATOM      8  C   UNL     1     118.814 118.828 115.782  1.00  0.00     0.012 C 
ENDBRANCH   5   6
ENDBRANCH   3   4
ENDBRANCH   2   3
ENDBRANCH   1   2
BRANCH   1   9
ATOM      9  C   UNL     1     120.686 116.823 120.129  1.00  0.00     0.100 C 
BRANCH   9  10
ATOM     10  C   UNL     1     119.801 116.803 121.337  1.00  0.00     0.220 C 
ATOM     11  O   UNL     1     120.308 116.948 122.482  1.00  0.00    -0.275 OA
ATOM     12  N   UNL     1     118.381 116.670 121.185  1.00  0.00    -0.352 N 
ATOM     13  H   UNL     1     117.987 116.524 120.229  1.00  0.00     0.163 HD
BRANCH  12  14
ATOM     14  C   UNL     1     117.451 116.915 122.284  1.00  0.00     0.151 C 
BRANCH  14  15
ATOM     15  C   UNL     1     117.027 118.359 122.279  1.00  0.00    -0.025 A 
ATOM     16  C   UNL     1     116.762 119.014 123.490  1.00  0.00     0.056 A 
ATOM     17  C   UNL     1     116.843 119.044 121.069  1.00  0.00     0.009 A 
ATOM     18  C   UNL     1     116.330 120.356 123.501  1.00  0.00     0.160 A 
ATOM     19  C   UNL     1     116.419 120.374 121.072  1.00  0.00     0.050 A 
ATOM     20  C   UNL     1     116.163 121.034 122.278  1.00  0.00     0.157 A 
BRANCH  18  21
ATOM     21  O   UNL     1     116.057 121.041 124.698  1.00  0.00    -0.493 OA
ATOM     22  C   UNL     1     115.238 120.535 125.748  1.00  0.00     0.278 C 
ENDBRANCH  18  21
BRANCH  20  23
ATOM     23  O   UNL     1     115.745 122.364 122.243  1.00  0.00    -0.504 OA
ATOM     24  H   UNL     1     114.936 122.660 121.709  1.00  0.00     0.293 HD
ENDBRANCH  20  23
ENDBRANCH  14  15
ENDBRANCH  12  14
ENDBRANCH   9  10
ENDBRANCH   1   9
TORSDOF 10
ENDMDL
MODEL 5
REMARK VINA RESULT:    -4.938      2.467      3.672
REMARK INTER + INTRA:          -9.537
REMARK INTER:                  -7.492
REMARK INTRA:                  -2.045
REMARK UNBOUND:                -1.858
REMARK SMILES COc1cc(CNC(=O)CCCCC=CC(C)C)ccc1O
REMARK SMILES IDX 11 1 12 2 13 3 14 4 15 5 16 6 17 7 18 8 10 9 8 10 9 11 7 12
REMARK SMILES IDX 6 14 5 15 4 16 19 17 3 18 20 19 21 20 2 21 1 22 22 23
REMARK H PARENT 7 13 22 24
REMARK Flexibility Score: inf
ROOT
ATOM      1  C   UNL     1     121.101 118.109 119.152  1.00  0.00     0.010 C 
ENDROOT
BRANCH   1   2
ATOM      2  C   UNL     1     120.130 118.134 117.967  1.00  0.00     0.005 C 
BRANCH   2   3
ATOM      3  C   UNL     1     119.722 119.573 117.625  1.00  0.00     0.027 C 
BRANCH   3   4
ATOM      4  C   UNL     1     119.423 120.371 118.870  1.00  0.00    -0.031 C 
ATOM      5  C   UNL     1     118.205 120.508 119.429  1.00  0.00    -0.028 C 
BRANCH   5   6
ATOM      6  C   UNL     1     116.926 119.882 118.913  1.00  0.00     0.005 C 
ATOM      7  C   UNL     1     116.731 118.506 119.551  1.00  0.00     0.012 C 
ATOM      8  C   UNL     1     115.741 120.797 119.233  1.00  0.00     0.012 C 
ENDBRANCH   5   6
ENDBRANCH   3   4
ENDBRANCH   2   3
ENDBRANCH   1   2
BRANCH   1   9
ATOM      9  C   UNL     1     121.305 116.683 119.666  1.00  0.00     0.100 C 
BRANCH   9  10
ATOM     10  C   UNL     1     120.762 116.549 121.056  1.00  0.00     0.220 C 
ATOM     11  O   UNL     1     121.557 116.393 122.022  1.00  0.00    -0.275 OA
ATOM     12  N   UNL     1     119.349 116.645 121.287  1.00  0.00    -0.352 N 
ATOM     13  H   UNL     1     118.710 116.746 120.468  1.00  0.00     0.163 HD
BRANCH  12  14
ATOM     14  C   UNL     1     118.786 116.795 122.625  1.00  0.00     0.151 C 
BRANCH  14  15
ATOM     15  C   UNL     1     118.347 118.219 122.835  1.00  0.00    -0.025 A 
ATOM     16  C   UNL     1     119.294 119.253 122.811  1.00  0.00     0.056 A 
ATOM     17  C   UNL     1     117.004 118.519 123.109  1.00  0.00     0.009 A 
ATOM     18  C   UNL     1     118.905 120.589 123.041  1.00  0.00     0.160 A 
ATOM     19  C   UNL     1     116.611 119.840 123.334  1.00  0.00     0.050 A 
ATOM     20  C   UNL     1     117.551 120.875 123.300  1.00  0.00     0.157 A 
BRANCH  18  21
ATOM     21  O   UNL     1     119.830 121.647 123.022  1.00  0.00    -0.493 OA
ATOM     22  C   UNL     1     121.200 121.515 122.659  1.00  0.00     0.278 C 
ENDBRANCH  18  21
BRANCH  20  23
ATOM     23  O   UNL     1     117.121 122.182 123.525  1.00  0.00    -0.504 OA
ATOM     24  H   UNL     1     117.211 122.630 124.430  1.00  0.00     0.293 HD
ENDBRANCH  20  23
ENDBRANCH  14  15
ENDBRANCH  12  14
ENDBRANCH   9  10
ENDBRANCH   1   9
TORSDOF 10
ENDMDL
MODEL 6
REMARK VINA RESULT:    -4.910      1.940      2.934
REMARK INTER + INTRA:          -9.495
REMARK INTER:                  -7.446
REMARK INTRA:                  -2.050
REMARK UNBOUND:                -1.858
REMARK SMILES COc1cc(CNC(=O)CCCCC=CC(C)C)ccc1O
REMARK SMILES IDX 11 1 12 2 13 3 14 4 15 5 16 6 17 7 18 8 10 9 8 10 9 11 7 12
REMARK SMILES IDX 6 14 5 15 4 16 19 17 3 18 20 19 21 20 2 21 1 22 22 23
REMARK H PARENT 7 13 22 24
REMARK Flexibility Score: inf
ROOT
ATOM      1  C   UNL     1     119.631 120.963 118.980  1.00  0.00     0.010 C 
ENDROOT
BRANCH   1   2
ATOM      2  C   UNL     1     119.733 120.036 117.764  1.00  0.00     0.005 C 
BRANCH   2   3
ATOM      3  C   UNL     1     118.376 119.391 117.452  1.00  0.00     0.027 C 
BRANCH   3   4
ATOM      4  C   UNL     1     117.448 119.462 118.639  1.00  0.00    -0.031 C 
ATOM      5  C   UNL     1     117.040 118.405 119.368  1.00  0.00    -0.028 C 
BRANCH   5   6
ATOM      6  C   UNL     1     117.443 116.964 119.129  1.00  0.00     0.005 C 
ATOM      7  C   UNL     1     118.881 116.747 119.605  1.00  0.00     0.012 C 
ATOM      8  C   UNL     1     116.483 116.031 119.871  1.00  0.00     0.012 C 
ENDBRANCH   5   6
ENDBRANCH   3   4
ENDBRANCH   2   3
ENDBRANCH   1   2
BRANCH   1   9
ATOM      9  C   UNL     1     121.016 121.303 119.531  1.00  0.00     0.100 C 
BRANCH   9  10
ATOM     10  C   UNL     1     121.160 120.789 120.930  1.00  0.00     0.220 C 
ATOM     11  O   UNL     1     121.420 121.593 121.865  1.00  0.00    -0.275 OA
ATOM     12  N   UNL     1     120.953 119.396 121.208  1.00  0.00    -0.352 N 
ATOM     13  H   UNL     1     120.766 118.746 120.414  1.00  0.00     0.163 HD
BRANCH  12  14
ATOM     14  C   UNL     1     120.810 118.885 122.568  1.00  0.00     0.151 C 
BRANCH  14  15
ATOM     15  C   UNL     1     119.388 118.453 122.801  1.00  0.00    -0.025 A 
ATOM     16  C   UNL     1     118.355 119.401 122.769  1.00  0.00     0.056 A 
ATOM     17  C   UNL     1     119.087 117.116 123.104  1.00  0.00     0.009 A 
ATOM     18  C   UNL     1     117.021 119.019 123.020  1.00  0.00     0.160 A 
ATOM     19  C   UNL     1     117.769 116.730 123.350  1.00  0.00     0.050 A 
ATOM     20  C   UNL     1     116.735 117.671 123.308  1.00  0.00     0.157 A 
BRANCH  18  21
ATOM     21  O   UNL     1     115.964 119.946 122.994  1.00  0.00    -0.493 OA
ATOM     22  C   UNL     1     116.053 121.256 122.444  1.00  0.00     0.278 C 
ENDBRANCH  18  21
BRANCH  20  23
ATOM     23  O   UNL     1     115.430 117.249 123.555  1.00  0.00    -0.504 OA
ATOM     24  H   UNL     1     115.123 116.958 124.477  1.00  0.00     0.293 HD
ENDBRANCH  20  23
ENDBRANCH  14  15
ENDBRANCH  12  14
ENDBRANCH   9  10
ENDBRANCH   1   9
TORSDOF 10
ENDMDL
MODEL 7
REMARK VINA RESULT:    -4.896      2.363      4.674
REMARK INTER + INTRA:          -9.472
REMARK INTER:                  -7.091
REMARK INTRA:                  -2.381
REMARK UNBOUND:                -1.858
REMARK SMILES COc1cc(CNC(=O)CCCCC=CC(C)C)ccc1O
REMARK SMILES IDX 11 1 12 2 13 3 14 4 15 5 16 6 17 7 18 8 10 9 8 10 9 11 7 12
REMARK SMILES IDX 6 14 5 15 4 16 19 17 3 18 20 19 21 20 2 21 1 22 22 23
REMARK H PARENT 7 13 22 24
REMARK Flexibility Score: inf
ROOT
ATOM      1  C   UNL     1     117.599 117.698 118.358  1.00  0.00     0.010 C 
ENDROOT
BRANCH   1   2
ATOM      2  C   UNL     1     118.514 118.396 117.346  1.00  0.00     0.005 C 
BRANCH   2   3
ATOM      3  C   UNL     1     119.990 118.176 117.700  1.00  0.00     0.027 C 
BRANCH   3   4
ATOM      4  C   UNL     1     120.198 118.138 119.194  1.00  0.00    -0.031 C 
ATOM      5  C   UNL     1     120.430 119.213 119.971  1.00  0.00    -0.028 C 
BRANCH   5   6
ATOM      6  C   UNL     1     120.517 120.646 119.486  1.00  0.00     0.005 C 
ATOM      7  C   UNL     1     119.166 121.338 119.679  1.00  0.00     0.012 C 
ATOM      8  C   UNL     1     121.615 121.384 120.257  1.00  0.00     0.012 C 
ENDBRANCH   5   6
ENDBRANCH   3   4
ENDBRANCH   2   3
ENDBRANCH   1   2
BRANCH   1   9
ATOM      9  C   UNL     1     116.734 118.710 119.110  1.00  0.00     0.100 C 
BRANCH   9  10
ATOM     10  C   UNL     1     116.768 118.431 120.581  1.00  0.00     0.220 C 
ATOM     11  O   UNL     1     116.985 117.257 120.986  1.00  0.00    -0.275 OA
ATOM     12  N   UNL     1     116.602 119.504 121.519  1.00  0.00    -0.352 N 
ATOM     13  H   UNL     1     116.396 120.462 121.160  1.00  0.00     0.163 HD
BRANCH  12  14
ATOM     14  C   UNL     1     116.892 119.348 122.942  1.00  0.00     0.151 C 
BRANCH  14  15
ATOM     15  C   UNL     1     118.353 119.607 123.193  1.00  0.00    -0.025 A 
ATOM     16  C   UNL     1     119.229 118.530 123.395  1.00  0.00     0.056 A 
ATOM     17  C   UNL     1     118.841 120.919 123.282  1.00  0.00     0.009 A 
ATOM     18  C   UNL     1     120.594 118.755 123.666  1.00  0.00     0.160 A 
ATOM     19  C   UNL     1     120.192 121.150 123.547  1.00  0.00     0.050 A 
ATOM     20  C   UNL     1     121.071 120.078 123.737  1.00  0.00     0.157 A 
BRANCH  18  21
ATOM     21  O   UNL     1     121.497 117.698 123.871  1.00  0.00    -0.493 OA
ATOM     22  C   UNL     1     121.790 116.689 122.910  1.00  0.00     0.278 C 
ENDBRANCH  18  21
BRANCH  20  23
ATOM     23  O   UNL     1     122.414 120.347 123.996  1.00  0.00    -0.504 OA
ATOM     24  H   UNL     1     123.157 119.743 123.666  1.00  0.00     0.293 HD
ENDBRANCH  20  23
ENDBRANCH  14  15
ENDBRANCH  12  14
ENDBRANCH   9  10
ENDBRANCH   1   9
TORSDOF 10
ENDMDL
MODEL 8
REMARK VINA RESULT:    -4.887      2.041      3.878
REMARK INTER + INTRA:          -9.458
REMARK INTER:                  -7.487
REMARK INTRA:                  -1.971
REMARK UNBOUND:                -1.858
REMARK SMILES COc1cc(CNC(=O)CCCCC=CC(C)C)ccc1O
REMARK SMILES IDX 11 1 12 2 13 3 14 4 15 5 16 6 17 7 18 8 10 9 8 10 9 11 7 12
REMARK SMILES IDX 6 14 5 15 4 16 19 17 3 18 20 19 21 20 2 21 1 22 22 23
REMARK H PARENT 7 13 22 24
REMARK Flexibility Score: inf
ROOT
ATOM      1  C   UNL     1     119.941 120.337 123.645  1.00  0.00     0.010 C 
ENDROOT
BRANCH   1   2
ATOM      2  C   UNL     1     120.304 121.209 122.438  1.00  0.00     0.005 C 
BRANCH   2   3
ATOM      3  C   UNL     1     120.183 120.412 121.132  1.00  0.00     0.027 C 
BRANCH   3   4
ATOM      4  C   UNL     1     119.554 121.241 120.040  1.00  0.00    -0.031 C 
ATOM      5  C   UNL     1     118.271 121.153 119.642  1.00  0.00    -0.028 C 
BRANCH   5   6
ATOM      6  C   UNL     1     117.233 120.215 120.223  1.00  0.00     0.005 C 
ATOM      7  C   UNL     1     116.650 120.821 121.501  1.00  0.00     0.012 C 
ATOM      8  C   UNL     1     116.129 119.968 119.192  1.00  0.00     0.012 C 
ENDBRANCH   5   6
ENDBRANCH   3   4
ENDBRANCH   2   3
ENDBRANCH   1   2
BRANCH   1   9
ATOM      9  C   UNL     1     121.075 119.371 123.989  1.00  0.00     0.100 C 
BRANCH   9  10
ATOM     10  C   UNL     1     120.824 118.033 123.365  1.00  0.00     0.220 C 
ATOM     11  O   UNL     1     119.831 117.350 123.736  1.00  0.00    -0.275 OA
ATOM     12  N   UNL     1     121.682 117.556 122.319  1.00  0.00    -0.352 N 
ATOM     13  H   UNL     1     122.513 118.126 122.048  1.00  0.00     0.163 HD
BRANCH  12  14
ATOM     14  C   UNL     1     121.338 116.402 121.493  1.00  0.00     0.151 C 
BRANCH  14  15
ATOM     15  C   UNL     1     120.498 116.845 120.326  1.00  0.00    -0.025 A 
ATOM     16  C   UNL     1     119.134 116.520 120.282  1.00  0.00     0.056 A 
ATOM     17  C   UNL     1     121.077 117.536 119.250  1.00  0.00     0.009 A 
ATOM     18  C   UNL     1     118.341 116.897 119.179  1.00  0.00     0.160 A 
ATOM     19  C   UNL     1     120.297 117.915 118.157  1.00  0.00     0.050 A 
ATOM     20  C   UNL     1     118.935 117.603 118.115  1.00  0.00     0.157 A 
BRANCH  18  21
ATOM     21  O   UNL     1     116.971 116.588 119.107  1.00  0.00    -0.493 OA
ATOM     22  C   UNL     1     116.144 116.321 120.235  1.00  0.00     0.278 C 
ENDBRANCH  18  21
BRANCH  20  23
ATOM     23  O   UNL     1     118.186 118.001 117.009  1.00  0.00    -0.504 OA
ATOM     24  H   UNL     1     118.164 117.462 116.151  1.00  0.00     0.293 HD
ENDBRANCH  20  23
ENDBRANCH  14  15
ENDBRANCH  12  14
ENDBRANCH   9  10
ENDBRANCH   1   9
TORSDOF 10
ENDMDL
MODEL 9
REMARK VINA RESULT:    -4.869      2.262      4.043
REMARK INTER + INTRA:          -9.431
REMARK INTER:                  -7.375
REMARK INTRA:                  -2.056
REMARK UNBOUND:                -1.858
REMARK SMILES COc1cc(CNC(=O)CCCCC=CC(C)C)ccc1O
REMARK SMILES IDX 11 1 12 2 13 3 14 4 15 5 16 6 17 7 18 8 10 9 8 10 9 11 7 12
REMARK SMILES IDX 6 14 5 15 4 16 19 17 3 18 20 19 21 20 2 21 1 22 22 23
REMARK H PARENT 7 13 22 24
REMARK Flexibility Score: inf
ROOT
ATOM      1  C   UNL     1     116.473 119.363 119.251  1.00  0.00     0.010 C 
ENDROOT
BRANCH   1   2
ATOM      2  C   UNL     1     117.516 119.225 118.137  1.00  0.00     0.005 C 
BRANCH   2   3
ATOM      3  C   UNL     1     117.894 117.754 117.920  1.00  0.00     0.027 C 
BRANCH   3   4
ATOM      4  C   UNL     1     118.351 117.109 119.206  1.00  0.00    -0.031 C 
ATOM      5  C   UNL     1     119.622 117.079 119.649  1.00  0.00    -0.028 C 
BRANCH   5   6
ATOM      6  C   UNL     1     120.814 117.691 118.941  1.00  0.00     0.005 C 
ATOM      7  C   UNL     1     121.233 118.977 119.656  1.00  0.00     0.012 C 
ATOM      8  C   UNL     1     121.969 116.687 118.918  1.00  0.00     0.012 C 
ENDBRANCH   5   6
ENDBRANCH   3   4
ENDBRANCH   2   3
ENDBRANCH   1   2
BRANCH   1   9
ATOM      9  C   UNL     1     116.350 120.815 119.714  1.00  0.00     0.100 C 
BRANCH   9  10
ATOM     10  C   UNL     1     116.934 120.974 121.084  1.00  0.00     0.220 C 
ATOM     11  O   UNL     1     116.169 121.147 122.071  1.00  0.00    -0.275 OA
ATOM     12  N   UNL     1     118.354 120.882 121.275  1.00  0.00    -0.352 N 
ATOM     13  H   UNL     1     118.969 120.767 120.440  1.00  0.00     0.163 HD
BRANCH  12  14
ATOM     14  C   UNL     1     118.957 120.756 122.599  1.00  0.00     0.151 C 
BRANCH  14  15
ATOM     15  C   UNL     1     119.297 119.315 122.867  1.00  0.00    -0.025 A 
ATOM     16  C   UNL     1     118.274 118.360 122.955  1.00  0.00     0.056 A 
ATOM     17  C   UNL     1     120.626 118.924 123.084  1.00  0.00     0.009 A 
ATOM     18  C   UNL     1     118.572 117.012 123.240  1.00  0.00     0.160 A 
ATOM     19  C   UNL     1     120.930 117.590 123.364  1.00  0.00     0.050 A 
ATOM     20  C   UNL     1     119.913 116.633 123.441  1.00  0.00     0.157 A 
BRANCH  18  21
ATOM     21  O   UNL     1     117.569 116.031 123.333  1.00  0.00    -0.493 OA
ATOM     22  C   UNL     1     116.480 115.902 122.425  1.00  0.00     0.278 C 
ENDBRANCH  18  21
BRANCH  20  23
ATOM     23  O   UNL     1     120.254 115.310 123.719  1.00  0.00    -0.504 OA
ATOM     24  H   UNL     1     119.802 114.529 123.257  1.00  0.00     0.293 HD
ENDBRANCH  20  23
ENDBRANCH  14  15
ENDBRANCH  12  14
ENDBRANCH   9  10
ENDBRANCH   1   9
TORSDOF 10
ENDMDL
