MODEL 1
REMARK VINA RESULT:    -7.872      0.000      0.000
REMARK INTER + INTRA:          -9.388
REMARK INTER:                  -9.253
REMARK INTRA:                  -0.135
REMARK UNBOUND:                -0.135
REMARK SMILES CC1(C)CC[C@]2(C(=O)[O-])CC[C@]3(C)C(=CC[C@H]4[C@@]5(C)CC[C@H](O)[C@](C)(CO)[C@H]5CC[C@]43C)[C@@H]2C1
REMARK SMILES IDX 6 1 5 2 10 3 33 4 4 5 11 6 14 7 34 8 2 9 12 10 15 11 1 12
REMARK SMILES IDX 3 13 13 14 31 15 16 16 17 17 30 18 32 19 18 20 29 21 28 22
REMARK SMILES IDX 20 23 19 24 24 25 21 26 22 27 25 28 7 29 8 30 9 31 26 32
REMARK SMILES IDX 27 33 23 35
REMARK H PARENT 27 34 23 36
REMARK Flexibility Score: inf
ROOT
ATOM      1  C   UNL     1     -27.470 -13.473  -1.334  1.00  0.00     0.017 C 
ATOM      2  C   UNL     1     -26.830 -12.808  -0.070  1.00  0.00     0.014 C 
ATOM      3  C   UNL     1     -28.638 -12.579  -1.835  1.00  0.00     0.014 C 
ATOM      4  C   UNL     1     -28.002 -14.912  -0.994  1.00  0.00     0.028 C 
ATOM      5  C   UNL     1     -26.307 -13.847   0.947  1.00  0.00     0.007 C 
ATOM      6  C   UNL     1     -29.426 -13.193  -3.007  1.00  0.00     0.013 C 
ATOM      7  C   UNL     1     -28.874 -15.474  -2.110  1.00  0.00    -0.064 C 
ATOM      8  C   UNL     1     -28.584 -14.984   0.434  1.00  0.00     0.015 C 
ATOM      9  C   UNL     1     -27.457 -14.756   1.505  1.00  0.00    -0.035 C 
ATOM     10  C   UNL     1     -30.005 -14.627  -2.727  1.00  0.00    -0.006 C 
ATOM     11  C   UNL     1     -28.444 -16.617  -2.689  1.00  0.00    -0.027 C 
ATOM     12  C   UNL     1     -28.079 -14.088   2.748  1.00  0.00     0.011 C 
ATOM     13  C   UNL     1     -26.867 -16.118   1.933  1.00  0.00     0.011 C 
ATOM     14  C   UNL     1     -31.147 -14.514  -1.660  1.00  0.00     0.017 C 
ATOM     15  C   UNL     1     -30.581 -15.297  -4.088  1.00  0.00    -0.020 C 
ATOM     16  C   UNL     1     -28.602 -16.918  -4.150  1.00  0.00     0.032 C 
ATOM     17  C   UNL     1     -29.383 -15.843  -4.966  1.00  0.00     0.006 C 
ATOM     18  C   UNL     1     -31.514 -16.510  -3.781  1.00  0.00     0.008 C 
ATOM     19  C   UNL     1     -31.442 -14.238  -4.840  1.00  0.00     0.012 C 
ATOM     20  C   UNL     1     -29.788 -16.396  -6.407  1.00  0.00    -0.025 C 
ATOM     21  C   UNL     1     -31.623 -17.598  -4.881  1.00  0.00     0.005 C 
ATOM     22  C   UNL     1     -31.113 -17.281  -6.336  1.00  0.00     0.006 C 
ATOM     23  C   UNL     1     -28.533 -17.132  -7.054  1.00  0.00     0.010 C 
ATOM     24  C   UNL     1     -30.020 -15.192  -7.380  1.00  0.00     0.012 C 
ATOM     25  C   UNL     1     -31.050 -18.585  -7.241  1.00  0.00     0.020 C 
ATOM     26  C   UNL     1     -28.453 -18.662  -6.936  1.00  0.00     0.033 C 
ATOM     27  C   UNL     1     -29.793 -19.424  -6.848  1.00  0.00     0.123 C 
ATOM     28  C   UNL     1     -32.318 -19.467  -7.013  1.00  0.00     0.017 C 
ENDROOT
BRANCH   1  29
ATOM     29  C   UNL     1     -26.395 -13.566  -2.428  1.00  0.00     0.048 C 
ATOM     30  O   UNL     1     -25.346 -14.247  -2.246  1.00  0.00    -0.550 OA
ATOM     31  O   UNL     1     -26.618 -13.032  -3.694  1.00  0.00    -0.550 OA
ENDBRANCH   1  29
BRANCH  25  32
ATOM     32  C   UNL     1     -31.026 -18.257  -8.767  1.00  0.00     0.165 C 
BRANCH  32  33
ATOM     33  O   UNL     1     -31.326 -19.399  -9.541  1.00  0.00    -0.396 OA
ATOM     34  H   UNL     1     -32.254 -19.653  -9.295  1.00  0.00     0.210 HD
ENDBRANCH  32  33
ENDBRANCH  25  32
BRANCH  27  35
ATOM     35  O   UNL     1     -29.696 -20.599  -7.628  1.00  0.00    -0.392 OA
ATOM     36  H   UNL     1     -29.598 -21.363  -6.999  1.00  0.00     0.210 HD
ENDBRANCH  27  35
TORSDOF 4
ENDMDL
MODEL 2
REMARK VINA RESULT:    -7.774      1.742      8.116
REMARK INTER + INTRA:          -9.272
REMARK INTER:                  -8.772
REMARK INTRA:                  -0.500
REMARK UNBOUND:                -0.135
REMARK SMILES CC1(C)CC[C@]2(C(=O)[O-])CC[C@]3(C)C(=CC[C@H]4[C@@]5(C)CC[C@H](O)[C@](C)(CO)[C@H]5CC[C@]43C)[C@@H]2C1
REMARK SMILES IDX 6 1 5 2 10 3 33 4 4 5 11 6 14 7 34 8 2 9 12 10 15 11 1 12
REMARK SMILES IDX 3 13 13 14 31 15 16 16 17 17 30 18 32 19 18 20 29 21 28 22
REMARK SMILES IDX 20 23 19 24 24 25 21 26 22 27 25 28 7 29 8 30 9 31 26 32
REMARK SMILES IDX 27 33 23 35
REMARK H PARENT 27 34 23 36
REMARK Flexibility Score: inf
ROOT
ATOM      1  C   UNL     1     -30.304 -17.586  -6.799  1.00  0.00     0.017 C 
ATOM      2  C   UNL     1     -30.787 -18.252  -8.131  1.00  0.00     0.014 C 
ATOM      3  C   UNL     1     -31.382 -17.818  -5.703  1.00  0.00     0.014 C 
ATOM      4  C   UNL     1     -30.069 -16.046  -7.005  1.00  0.00     0.028 C 
ATOM      5  C   UNL     1     -30.327 -17.474  -9.385  1.00  0.00     0.007 C 
ATOM      6  C   UNL     1     -31.074 -17.102  -4.375  1.00  0.00     0.013 C 
ATOM      7  C   UNL     1     -29.875 -15.320  -5.678  1.00  0.00    -0.064 C 
ATOM      8  C   UNL     1     -31.100 -15.434  -7.977  1.00  0.00     0.015 C 
ATOM      9  C   UNL     1     -30.914 -16.020  -9.423  1.00  0.00    -0.035 C 
ATOM     10  C   UNL     1     -30.847 -15.552  -4.504  1.00  0.00    -0.006 C 
ATOM     11  C   UNL     1     -28.694 -14.686  -5.510  1.00  0.00    -0.027 C 
ATOM     12  C   UNL     1     -32.283 -16.041 -10.132  1.00  0.00     0.011 C 
ATOM     13  C   UNL     1     -29.965 -15.110 -10.232  1.00  0.00     0.011 C 
ATOM     14  C   UNL     1     -32.209 -14.869  -4.875  1.00  0.00     0.017 C 
ATOM     15  C   UNL     1     -30.273 -14.932  -3.120  1.00  0.00    -0.020 C 
ATOM     16  C   UNL     1     -27.974 -14.608  -4.196  1.00  0.00     0.032 C 
ATOM     17  C   UNL     1     -28.728 -15.248  -2.990  1.00  0.00     0.006 C 
ATOM     18  C   UNL     1     -30.428 -13.379  -3.078  1.00  0.00     0.008 C 
ATOM     19  C   UNL     1     -31.104 -15.504  -1.933  1.00  0.00     0.012 C 
ATOM     20  C   UNL     1     -28.058 -14.828  -1.604  1.00  0.00    -0.025 C 
ATOM     21  C   UNL     1     -29.418 -12.604  -2.191  1.00  0.00     0.005 C 
ATOM     22  C   UNL     1     -28.558 -13.388  -1.132  1.00  0.00     0.006 C 
ATOM     23  C   UNL     1     -26.476 -14.974  -1.725  1.00  0.00     0.010 C 
ATOM     24  C   UNL     1     -28.418 -15.886  -0.509  1.00  0.00     0.012 C 
ATOM     25  C   UNL     1     -27.400 -12.487  -0.522  1.00  0.00     0.020 C 
ATOM     26  C   UNL     1     -25.656 -13.713  -2.039  1.00  0.00     0.033 C 
ATOM     27  C   UNL     1     -26.240 -12.366  -1.560  1.00  0.00     0.123 C 
ATOM     28  C   UNL     1     -27.934 -11.053  -0.213  1.00  0.00     0.017 C 
ENDROOT
BRANCH   1  29
ATOM     29  C   UNL     1     -28.991 -18.256  -6.372  1.00  0.00     0.048 C 
ATOM     30  O   UNL     1     -28.999 -19.361  -5.756  1.00  0.00    -0.550 OA
ATOM     31  O   UNL     1     -27.762 -17.744  -6.782  1.00  0.00    -0.550 OA
ENDBRANCH   1  29
BRANCH  25  32
ATOM     32  C   UNL     1     -26.858 -13.042   0.833  1.00  0.00     0.165 C 
BRANCH  32  33
ATOM     33  O   UNL     1     -26.232 -12.026   1.588  1.00  0.00    -0.396 OA
ATOM     34  H   UNL     1     -25.838 -12.482   2.376  1.00  0.00     0.210 HD
ENDBRANCH  32  33
ENDBRANCH  25  32
BRANCH  27  35
ATOM     35  O   UNL     1     -25.186 -11.569  -1.061  1.00  0.00    -0.392 OA
ATOM     36  H   UNL     1     -24.623 -11.304  -1.837  1.00  0.00     0.210 HD
ENDBRANCH  27  35
TORSDOF 4
ENDMDL
MODEL 3
REMARK VINA RESULT:    -7.737      2.300      8.006
REMARK INTER + INTRA:          -9.229
REMARK INTER:                  -8.877
REMARK INTRA:                  -0.352
REMARK UNBOUND:                -0.135
REMARK SMILES CC1(C)CC[C@]2(C(=O)[O-])CC[C@]3(C)C(=CC[C@H]4[C@@]5(C)CC[C@H](O)[C@](C)(CO)[C@H]5CC[C@]43C)[C@@H]2C1
REMARK SMILES IDX 6 1 5 2 10 3 33 4 4 5 11 6 14 7 34 8 2 9 12 10 15 11 1 12
REMARK SMILES IDX 3 13 13 14 31 15 16 16 17 17 30 18 32 19 18 20 29 21 28 22
REMARK SMILES IDX 20 23 19 24 24 25 21 26 22 27 25 28 7 29 8 30 9 31 26 32
REMARK SMILES IDX 27 33 23 35
REMARK H PARENT 27 34 23 36
REMARK Flexibility Score: inf
ROOT
ATOM      1  C   UNL     1     -31.299 -18.184  -4.363  1.00  0.00     0.017 C 
ATOM      2  C   UNL     1     -31.936 -19.319  -5.233  1.00  0.00     0.014 C 
ATOM      3  C   UNL     1     -31.903 -16.819  -4.799  1.00  0.00     0.014 C 
ATOM      4  C   UNL     1     -29.737 -18.161  -4.538  1.00  0.00     0.028 C 
ATOM      5  C   UNL     1     -30.949 -20.475  -5.513  1.00  0.00     0.007 C 
ATOM      6  C   UNL     1     -31.263 -15.608  -4.095  1.00  0.00     0.013 C 
ATOM      7  C   UNL     1     -29.117 -16.906  -3.937  1.00  0.00    -0.064 C 
ATOM      8  C   UNL     1     -29.319 -18.510  -5.983  1.00  0.00     0.015 C 
ATOM      9  C   UNL     1     -29.696 -19.996  -6.326  1.00  0.00    -0.035 C 
ATOM     10  C   UNL     1     -29.701 -15.513  -4.247  1.00  0.00    -0.006 C 
ATOM     11  C   UNL     1     -28.222 -17.097  -2.943  1.00  0.00    -0.027 C 
ATOM     12  C   UNL     1     -29.997 -20.096  -7.836  1.00  0.00     0.011 C 
ATOM     13  C   UNL     1     -28.501 -20.920  -6.010  1.00  0.00     0.011 C 
ATOM     14  C   UNL     1     -29.356 -15.176  -5.738  1.00  0.00     0.017 C 
ATOM     15  C   UNL     1     -29.091 -14.375  -3.265  1.00  0.00    -0.020 C 
ATOM     16  C   UNL     1     -28.089 -16.186  -1.759  1.00  0.00     0.032 C 
ATOM     17  C   UNL     1     -29.013 -14.929  -1.784  1.00  0.00     0.006 C 
ATOM     18  C   UNL     1     -27.640 -13.975  -3.681  1.00  0.00     0.008 C 
ATOM     19  C   UNL     1     -29.968 -13.093  -3.380  1.00  0.00     0.012 C 
ATOM     20  C   UNL     1     -28.571 -13.867  -0.679  1.00  0.00    -0.025 C 
ATOM     21  C   UNL     1     -26.723 -13.426  -2.557  1.00  0.00     0.005 C 
ATOM     22  C   UNL     1     -27.359 -12.967  -1.193  1.00  0.00     0.006 C 
ATOM     23  C   UNL     1     -28.296 -14.627   0.693  1.00  0.00     0.010 C 
ATOM     24  C   UNL     1     -29.787 -12.947  -0.325  1.00  0.00     0.012 C 
ATOM     25  C   UNL     1     -26.255 -12.700  -0.082  1.00  0.00     0.020 C 
ATOM     26  C   UNL     1     -26.844 -14.988   1.041  1.00  0.00     0.033 C 
ATOM     27  C   UNL     1     -25.743 -14.067   0.473  1.00  0.00     0.123 C 
ATOM     28  C   UNL     1     -25.041 -11.934  -0.695  1.00  0.00     0.017 C 
ENDROOT
BRANCH   1  29
ATOM     29  C   UNL     1     -31.649 -18.448  -2.892  1.00  0.00     0.048 C 
ATOM     30  O   UNL     1     -32.752 -18.057  -2.410  1.00  0.00    -0.550 OA
ATOM     31  O   UNL     1     -30.835 -19.251  -2.097  1.00  0.00    -0.550 OA
ENDBRANCH   1  29
BRANCH  25  32
ATOM     32  C   UNL     1     -26.781 -11.805   1.084  1.00  0.00     0.165 C 
BRANCH  32  33
ATOM     33  O   UNL     1     -27.288 -10.580   0.600  1.00  0.00    -0.396 OA
ATOM     34  H   UNL     1     -26.676 -10.307  -0.133  1.00  0.00     0.210 HD
ENDBRANCH  32  33
ENDBRANCH  25  32
BRANCH  27  35
ATOM     35  O   UNL     1     -24.755 -13.879   1.465  1.00  0.00    -0.392 OA
ATOM     36  H   UNL     1     -24.405 -12.953   1.362  1.00  0.00     0.210 HD
ENDBRANCH  27  35
TORSDOF 4
ENDMDL
MODEL 4
REMARK VINA RESULT:    -7.737      8.169     11.707
REMARK INTER + INTRA:          -9.229
REMARK INTER:                  -8.775
REMARK INTRA:                  -0.454
REMARK UNBOUND:                -0.135
REMARK SMILES CC1(C)CC[C@]2(C(=O)[O-])CC[C@]3(C)C(=CC[C@H]4[C@@]5(C)CC[C@H](O)[C@](C)(CO)[C@H]5CC[C@]43C)[C@@H]2C1
REMARK SMILES IDX 6 1 5 2 10 3 33 4 4 5 11 6 14 7 34 8 2 9 12 10 15 11 1 12
REMARK SMILES IDX 3 13 13 14 31 15 16 16 17 17 30 18 32 19 18 20 29 21 28 22
REMARK SMILES IDX 20 23 19 24 24 25 21 26 22 27 25 28 7 29 8 30 9 31 26 32
REMARK SMILES IDX 27 33 23 35
REMARK H PARENT 27 34 23 36
REMARK Flexibility Score: inf
ROOT
ATOM      1  C   UNL     1     -35.812 -14.306 -13.307  1.00  0.00     0.017 C 
ATOM      2  C   UNL     1     -35.391 -13.930 -14.767  1.00  0.00     0.014 C 
ATOM      3  C   UNL     1     -35.612 -13.066 -12.392  1.00  0.00     0.014 C 
ATOM      4  C   UNL     1     -34.954 -15.511 -12.776  1.00  0.00     0.028 C 
ATOM      5  C   UNL     1     -34.767 -15.121 -15.530  1.00  0.00     0.007 C 
ATOM      6  C   UNL     1     -35.880 -13.349 -10.902  1.00  0.00     0.013 C 
ATOM      7  C   UNL     1     -35.137 -15.720 -11.277  1.00  0.00    -0.064 C 
ATOM      8  C   UNL     1     -33.500 -15.447 -13.289  1.00  0.00     0.015 C 
ATOM      9  C   UNL     1     -33.452 -15.634 -14.848  1.00  0.00    -0.035 C 
ATOM     10  C   UNL     1     -35.038 -14.532 -10.299  1.00  0.00    -0.006 C 
ATOM     11  C   UNL     1     -35.633 -16.917 -10.895  1.00  0.00    -0.027 C 
ATOM     12  C   UNL     1     -32.247 -14.850 -15.406  1.00  0.00     0.011 C 
ATOM     13  C   UNL     1     -33.253 -17.128 -15.184  1.00  0.00     0.011 C 
ATOM     14  C   UNL     1     -33.533 -14.100 -10.229  1.00  0.00     0.017 C 
ATOM     15  C   UNL     1     -35.572 -14.929  -8.820  1.00  0.00    -0.020 C 
ATOM     16  C   UNL     1     -36.574 -17.095  -9.742  1.00  0.00     0.032 C 
ATOM     17  C   UNL     1     -36.891 -15.796  -8.939  1.00  0.00     0.006 C 
ATOM     18  C   UNL     1     -34.526 -15.790  -8.043  1.00  0.00     0.008 C 
ATOM     19  C   UNL     1     -35.786 -13.622  -7.998  1.00  0.00     0.012 C 
ATOM     20  C   UNL     1     -37.614 -16.134  -7.558  1.00  0.00    -0.025 C 
ATOM     21  C   UNL     1     -35.084 -16.742  -6.953  1.00  0.00     0.005 C 
ATOM     22  C   UNL     1     -36.558 -16.550  -6.437  1.00  0.00     0.006 C 
ATOM     23  C   UNL     1     -38.760 -17.208  -7.819  1.00  0.00     0.010 C 
ATOM     24  C   UNL     1     -38.420 -14.883  -7.072  1.00  0.00     0.012 C 
ATOM     25  C   UNL     1     -37.037 -17.770  -5.540  1.00  0.00     0.020 C 
ATOM     26  C   UNL     1     -38.441 -18.686  -7.548  1.00  0.00     0.033 C 
ATOM     27  C   UNL     1     -37.385 -18.982  -6.461  1.00  0.00     0.123 C 
ATOM     28  C   UNL     1     -35.900 -18.206  -4.563  1.00  0.00     0.017 C 
ENDROOT
BRANCH   1  29
ATOM     29  C   UNL     1     -37.297 -14.696 -13.318  1.00  0.00     0.048 C 
ATOM     30  O   UNL     1     -38.197 -13.816 -13.188  1.00  0.00    -0.550 OA
ATOM     31  O   UNL     1     -37.692 -15.996 -13.623  1.00  0.00    -0.550 OA
ENDBRANCH   1  29
BRANCH  25  32
ATOM     32  C   UNL     1     -38.259 -17.407  -4.637  1.00  0.00     0.165 C 
BRANCH  32  33
ATOM     33  O   UNL     1     -38.156 -18.016  -3.368  1.00  0.00    -0.396 OA
ATOM     34  H   UNL     1     -38.157 -17.270  -2.712  1.00  0.00     0.210 HD
ENDBRANCH  32  33
ENDBRANCH  25  32
BRANCH  27  35
ATOM     35  O   UNL     1     -37.815 -20.094  -5.703  1.00  0.00    -0.392 OA
ATOM     36  H   UNL     1     -38.291 -19.741  -4.904  1.00  0.00     0.210 HD
ENDBRANCH  27  35
TORSDOF 4
ENDMDL
MODEL 5
REMARK VINA RESULT:    -7.722      2.690      8.215
REMARK INTER + INTRA:          -9.212
REMARK INTER:                  -8.918
REMARK INTRA:                  -0.293
REMARK UNBOUND:                -0.135
REMARK SMILES CC1(C)CC[C@]2(C(=O)[O-])CC[C@]3(C)C(=CC[C@H]4[C@@]5(C)CC[C@H](O)[C@](C)(CO)[C@H]5CC[C@]43C)[C@@H]2C1
REMARK SMILES IDX 6 1 5 2 10 3 33 4 4 5 11 6 14 7 34 8 2 9 12 10 15 11 1 12
REMARK SMILES IDX 3 13 13 14 31 15 16 16 17 17 30 18 32 19 18 20 29 21 28 22
REMARK SMILES IDX 20 23 19 24 24 25 21 26 22 27 25 28 7 29 8 30 9 31 26 32
REMARK SMILES IDX 27 33 23 35
REMARK H PARENT 27 34 23 36
REMARK Flexibility Score: inf
ROOT
ATOM      1  C   UNL     1     -30.132 -15.446  -6.690  1.00  0.00     0.017 C 
ATOM      2  C   UNL     1     -30.505 -16.215  -8.001  1.00  0.00     0.014 C 
ATOM      3  C   UNL     1     -28.603 -15.586  -6.443  1.00  0.00     0.014 C 
ATOM      4  C   UNL     1     -30.930 -16.023  -5.464  1.00  0.00     0.028 C 
ATOM      5  C   UNL     1     -31.914 -16.845  -7.939  1.00  0.00     0.007 C 
ATOM      6  C   UNL     1     -28.135 -14.971  -5.112  1.00  0.00     0.013 C 
ATOM      7  C   UNL     1     -30.391 -15.497  -4.139  1.00  0.00    -0.064 C 
ATOM      8  C   UNL     1     -31.117 -17.551  -5.572  1.00  0.00     0.015 C 
ATOM      9  C   UNL     1     -32.032 -17.913  -6.796  1.00  0.00    -0.035 C 
ATOM     10  C   UNL     1     -28.879 -15.519  -3.839  1.00  0.00    -0.006 C 
ATOM     11  C   UNL     1     -31.257 -14.794  -3.377  1.00  0.00    -0.027 C 
ATOM     12  C   UNL     1     -31.611 -19.293  -7.341  1.00  0.00     0.011 C 
ATOM     13  C   UNL     1     -33.502 -18.005  -6.335  1.00  0.00     0.011 C 
ATOM     14  C   UNL     1     -28.462 -17.012  -3.612  1.00  0.00     0.017 C 
ATOM     15  C   UNL     1     -28.515 -14.634  -2.529  1.00  0.00    -0.020 C 
ATOM     16  C   UNL     1     -30.860 -13.610  -2.545  1.00  0.00     0.032 C 
ATOM     17  C   UNL     1     -29.335 -13.281  -2.549  1.00  0.00     0.006 C 
ATOM     18  C   UNL     1     -28.893 -15.380  -1.210  1.00  0.00     0.008 C 
ATOM     19  C   UNL     1     -26.974 -14.402  -2.495  1.00  0.00     0.012 C 
ATOM     20  C   UNL     1     -28.968 -12.241  -1.396  1.00  0.00    -0.025 C 
ATOM     21  C   UNL     1     -29.203 -14.492   0.024  1.00  0.00     0.005 C 
ATOM     22  C   UNL     1     -28.790 -12.974   0.009  1.00  0.00     0.006 C 
ATOM     23  C   UNL     1     -30.038 -11.062  -1.398  1.00  0.00     0.010 C 
ATOM     24  C   UNL     1     -27.640 -11.501  -1.767  1.00  0.00     0.012 C 
ATOM     25  C   UNL     1     -29.428 -12.173   1.224  1.00  0.00     0.020 C 
ATOM     26  C   UNL     1     -31.202 -11.141  -0.398  1.00  0.00     0.033 C 
ATOM     27  C   UNL     1     -30.934 -11.894   0.923  1.00  0.00     0.123 C 
ATOM     28  C   UNL     1     -29.337 -13.013   2.537  1.00  0.00     0.017 C 
ENDROOT
BRANCH   1  29
ATOM     29  C   UNL     1     -30.482 -13.964  -6.882  1.00  0.00     0.048 C 
ATOM     30  O   UNL     1     -29.686 -13.184  -7.480  1.00  0.00    -0.550 OA
ATOM     31  O   UNL     1     -31.742 -13.478  -6.541  1.00  0.00    -0.550 OA
ENDBRANCH   1  29
BRANCH  25  32
ATOM     32  C   UNL     1     -28.678 -10.835   1.521  1.00  0.00     0.165 C 
BRANCH  32  33
ATOM     33  O   UNL     1     -27.964 -10.908   2.736  1.00  0.00    -0.396 OA
ATOM     34  H   UNL     1     -28.271 -11.742   3.178  1.00  0.00     0.210 HD
ENDBRANCH  32  33
ENDBRANCH  25  32
BRANCH  27  35
ATOM     35  O   UNL     1     -31.545 -11.184   1.980  1.00  0.00    -0.392 OA
ATOM     36  H   UNL     1     -32.456 -11.563   2.103  1.00  0.00     0.210 HD
ENDBRANCH  27  35
TORSDOF 4
ENDMDL
MODEL 6
REMARK VINA RESULT:    -7.685      2.015      8.037
REMARK INTER + INTRA:          -9.168
REMARK INTER:                  -8.682
REMARK INTRA:                  -0.485
REMARK UNBOUND:                -0.135
REMARK SMILES CC1(C)CC[C@]2(C(=O)[O-])CC[C@]3(C)C(=CC[C@H]4[C@@]5(C)CC[C@H](O)[C@](C)(CO)[C@H]5CC[C@]43C)[C@@H]2C1
REMARK SMILES IDX 6 1 5 2 10 3 33 4 4 5 11 6 14 7 34 8 2 9 12 10 15 11 1 12
REMARK SMILES IDX 3 13 13 14 31 15 16 16 17 17 30 18 32 19 18 20 29 21 28 22
REMARK SMILES IDX 20 23 19 24 24 25 21 26 22 27 25 28 7 29 8 30 9 31 26 32
REMARK SMILES IDX 27 33 23 35
REMARK H PARENT 27 34 23 36
REMARK Flexibility Score: inf
ROOT
ATOM      1  C   UNL     1     -30.113 -17.862  -6.443  1.00  0.00     0.017 C 
ATOM      2  C   UNL     1     -30.802 -18.588  -7.646  1.00  0.00     0.014 C 
ATOM      3  C   UNL     1     -29.765 -18.915  -5.353  1.00  0.00     0.014 C 
ATOM      4  C   UNL     1     -31.060 -16.760  -5.844  1.00  0.00     0.028 C 
ATOM      5  C   UNL     1     -31.867 -17.708  -8.338  1.00  0.00     0.007 C 
ATOM      6  C   UNL     1     -29.190 -18.301  -4.063  1.00  0.00     0.013 C 
ATOM      7  C   UNL     1     -30.545 -16.232  -4.510  1.00  0.00    -0.064 C 
ATOM      8  C   UNL     1     -32.540 -17.196  -5.884  1.00  0.00     0.015 C 
ATOM      9  C   UNL     1     -33.039 -17.329  -7.368  1.00  0.00    -0.035 C 
ATOM     10  C   UNL     1     -30.098 -17.203  -3.399  1.00  0.00    -0.006 C 
ATOM     11  C   UNL     1     -30.263 -14.912  -4.457  1.00  0.00    -0.027 C 
ATOM     12  C   UNL     1     -34.128 -18.421  -7.431  1.00  0.00     0.011 C 
ATOM     13  C   UNL     1     -33.667 -15.995  -7.824  1.00  0.00     0.011 C 
ATOM     14  C   UNL     1     -31.385 -17.889  -2.824  1.00  0.00     0.017 C 
ATOM     15  C   UNL     1     -29.304 -16.432  -2.214  1.00  0.00    -0.020 C 
ATOM     16  C   UNL     1     -29.121 -14.338  -3.673  1.00  0.00     0.032 C 
ATOM     17  C   UNL     1     -28.306 -15.372  -2.836  1.00  0.00     0.006 C 
ATOM     18  C   UNL     1     -30.281 -15.649  -1.281  1.00  0.00     0.008 C 
ATOM     19  C   UNL     1     -28.579 -17.489  -1.327  1.00  0.00     0.012 C 
ATOM     20  C   UNL     1     -27.346 -14.641  -1.793  1.00  0.00    -0.025 C 
ATOM     21  C   UNL     1     -29.698 -14.414  -0.545  1.00  0.00     0.005 C 
ATOM     22  C   UNL     1     -28.138 -14.221  -0.473  1.00  0.00     0.006 C 
ATOM     23  C   UNL     1     -26.597 -13.442  -2.526  1.00  0.00     0.010 C 
ATOM     24  C   UNL     1     -26.169 -15.598  -1.409  1.00  0.00     0.012 C 
ATOM     25  C   UNL     1     -27.742 -12.781   0.069  1.00  0.00     0.020 C 
ATOM     26  C   UNL     1     -27.174 -12.026  -2.370  1.00  0.00     0.033 C 
ATOM     27  C   UNL     1     -27.946 -11.729  -1.066  1.00  0.00     0.123 C 
ATOM     28  C   UNL     1     -28.652 -12.385   1.274  1.00  0.00     0.017 C 
ENDROOT
BRANCH   1  29
ATOM     29  C   UNL     1     -28.818 -17.209  -6.949  1.00  0.00     0.048 C 
ATOM     30  O   UNL     1     -27.776 -17.901  -7.137  1.00  0.00    -0.550 OA
ATOM     31  O   UNL     1     -28.803 -15.878  -7.359  1.00  0.00    -0.550 OA
ENDBRANCH   1  29
BRANCH  25  32
ATOM     32  C   UNL     1     -26.276 -12.723   0.604  1.00  0.00     0.165 C 
BRANCH  32  33
ATOM     33  O   UNL     1     -26.103 -11.653   1.508  1.00  0.00    -0.396 OA
ATOM     34  H   UNL     1     -26.811 -11.764   2.194  1.00  0.00     0.210 HD
ENDBRANCH  32  33
ENDBRANCH  25  32
BRANCH  27  35
ATOM     35  O   UNL     1     -27.607 -10.429  -0.628  1.00  0.00    -0.392 OA
ATOM     36  H   UNL     1     -26.817 -10.136  -1.155  1.00  0.00     0.210 HD
ENDBRANCH  27  35
TORSDOF 4
ENDMDL
MODEL 7
REMARK VINA RESULT:    -7.503      7.725     10.490
REMARK INTER + INTRA:          -8.954
REMARK INTER:                  -8.481
REMARK INTRA:                  -0.473
REMARK UNBOUND:                -0.135
REMARK SMILES CC1(C)CC[C@]2(C(=O)[O-])CC[C@]3(C)C(=CC[C@H]4[C@@]5(C)CC[C@H](O)[C@](C)(CO)[C@H]5CC[C@]43C)[C@@H]2C1
REMARK SMILES IDX 6 1 5 2 10 3 33 4 4 5 11 6 14 7 34 8 2 9 12 10 15 11 1 12
REMARK SMILES IDX 3 13 13 14 31 15 16 16 17 17 30 18 32 19 18 20 29 21 28 22
REMARK SMILES IDX 20 23 19 24 24 25 21 26 22 27 25 28 7 29 8 30 9 31 26 32
REMARK SMILES IDX 27 33 23 35
REMARK H PARENT 27 34 23 36
REMARK Flexibility Score: inf
ROOT
ATOM      1  C   UNL     1     -30.676 -11.787  -9.904  1.00  0.00     0.017 C 
ATOM      2  C   UNL     1     -29.483 -10.928  -9.366  1.00  0.00     0.014 C 
ATOM      3  C   UNL     1     -30.557 -13.227  -9.332  1.00  0.00     0.014 C 
ATOM      4  C   UNL     1     -30.664 -11.829 -11.475  1.00  0.00     0.028 C 
ATOM      5  C   UNL     1     -29.006  -9.870 -10.386  1.00  0.00     0.007 C 
ATOM      6  C   UNL     1     -31.611 -14.202  -9.889  1.00  0.00     0.013 C 
ATOM      7  C   UNL     1     -31.629 -12.874 -12.022  1.00  0.00    -0.064 C 
ATOM      8  C   UNL     1     -29.225 -11.864 -12.035  1.00  0.00     0.015 C 
ATOM      9  C   UNL     1     -28.471 -10.525 -11.707  1.00  0.00    -0.035 C 
ATOM     10  C   UNL     1     -31.640 -14.309 -11.457  1.00  0.00    -0.006 C 
ATOM     11  C   UNL     1     -32.619 -12.416 -12.819  1.00  0.00    -0.027 C 
ATOM     12  C   UNL     1     -26.966 -10.827 -11.554  1.00  0.00     0.011 C 
ATOM     13  C   UNL     1     -28.647  -9.532 -12.876  1.00  0.00     0.011 C 
ATOM     14  C   UNL     1     -30.329 -15.018 -11.942  1.00  0.00     0.017 C 
ATOM     15  C   UNL     1     -32.939 -15.140 -11.959  1.00  0.00    -0.020 C 
ATOM     16  C   UNL     1     -34.008 -12.983 -12.828  1.00  0.00     0.032 C 
ATOM     17  C   UNL     1     -34.223 -14.217 -11.898  1.00  0.00     0.006 C 
ATOM     18  C   UNL     1     -32.783 -15.613 -13.438  1.00  0.00     0.008 C 
ATOM     19  C   UNL     1     -33.080 -16.422 -11.084  1.00  0.00     0.012 C 
ATOM     20  C   UNL     1     -35.605 -14.947 -12.221  1.00  0.00    -0.025 C 
ATOM     21  C   UNL     1     -34.094 -15.834 -14.238  1.00  0.00     0.005 C 
ATOM     22  C   UNL     1     -35.463 -15.931 -13.468  1.00  0.00     0.006 C 
ATOM     23  C   UNL     1     -36.751 -13.850 -12.369  1.00  0.00     0.010 C 
ATOM     24  C   UNL     1     -36.069 -15.761 -10.968  1.00  0.00     0.012 C 
ATOM     25  C   UNL     1     -36.706 -15.880 -14.457  1.00  0.00     0.020 C 
ATOM     26  C   UNL     1     -37.130 -13.388 -13.785  1.00  0.00     0.033 C 
ATOM     27  C   UNL     1     -36.931 -14.408 -14.926  1.00  0.00     0.123 C 
ATOM     28  C   UNL     1     -36.434 -16.761 -15.717  1.00  0.00     0.017 C 
ENDROOT
BRANCH   1  29
ATOM     29  C   UNL     1     -31.987 -11.153  -9.416  1.00  0.00     0.048 C 
ATOM     30  O   UNL     1     -32.434 -11.404  -8.260  1.00  0.00    -0.550 OA
ATOM     31  O   UNL     1     -32.631 -10.175 -10.170  1.00  0.00    -0.550 OA
ENDBRANCH   1  29
BRANCH  25  32
ATOM     32  C   UNL     1     -38.010 -16.448 -13.812  1.00  0.00     0.165 C 
BRANCH  32  33
ATOM     33  O   UNL     1     -38.795 -17.132 -14.765  1.00  0.00    -0.396 OA
ATOM     34  H   UNL     1     -39.402 -16.449 -15.152  1.00  0.00     0.210 HD
ENDBRANCH  32  33
ENDBRANCH  25  32
BRANCH  27  35
ATOM     35  O   UNL     1     -38.028 -14.315 -15.812  1.00  0.00    -0.392 OA
ATOM     36  H   UNL     1     -37.913 -13.477 -16.336  1.00  0.00     0.210 HD
ENDBRANCH  27  35
TORSDOF 4
ENDMDL
MODEL 8
REMARK VINA RESULT:    -7.493      1.893      2.564
REMARK INTER + INTRA:          -8.942
REMARK INTER:                  -8.451
REMARK INTRA:                  -0.491
REMARK UNBOUND:                -0.135
REMARK SMILES CC1(C)CC[C@]2(C(=O)[O-])CC[C@]3(C)C(=CC[C@H]4[C@@]5(C)CC[C@H](O)[C@](C)(CO)[C@H]5CC[C@]43C)[C@@H]2C1
REMARK SMILES IDX 6 1 5 2 10 3 33 4 4 5 11 6 14 7 34 8 2 9 12 10 15 11 1 12
REMARK SMILES IDX 3 13 13 14 31 15 16 16 17 17 30 18 32 19 18 20 29 21 28 22
REMARK SMILES IDX 20 23 19 24 24 25 21 26 22 27 25 28 7 29 8 30 9 31 26 32
REMARK SMILES IDX 27 33 23 35
REMARK H PARENT 27 34 23 36
REMARK Flexibility Score: inf
ROOT
ATOM      1  C   UNL     1     -29.176 -12.268   0.403  1.00  0.00     0.017 C 
ATOM      2  C   UNL     1     -28.802 -11.480   1.704  1.00  0.00     0.014 C 
ATOM      3  C   UNL     1     -30.696 -12.592   0.432  1.00  0.00     0.014 C 
ATOM      4  C   UNL     1     -28.344 -13.597   0.302  1.00  0.00     0.028 C 
ATOM      5  C   UNL     1     -27.375 -11.802   2.202  1.00  0.00     0.007 C 
ATOM      6  C   UNL     1     -31.160 -13.473  -0.742  1.00  0.00     0.013 C 
ATOM      7  C   UNL     1     -28.876 -14.518  -0.789  1.00  0.00    -0.064 C 
ATOM      8  C   UNL     1     -28.116 -14.236   1.689  1.00  0.00     0.015 C 
ATOM      9  C   UNL     1     -27.211 -13.314   2.583  1.00  0.00    -0.035 C 
ATOM     10  C   UNL     1     -30.382 -14.831  -0.890  1.00  0.00    -0.006 C 
ATOM     11  C   UNL     1     -28.017 -14.822  -1.787  1.00  0.00    -0.027 C 
ATOM     12  C   UNL     1     -27.602 -13.515   4.061  1.00  0.00     0.011 C 
ATOM     13  C   UNL     1     -25.731 -13.723   2.415  1.00  0.00     0.011 C 
ATOM     14  C   UNL     1     -30.754 -15.762   0.314  1.00  0.00     0.017 C 
ATOM     15  C   UNL     1     -30.750 -15.561  -2.291  1.00  0.00    -0.020 C 
ATOM     16  C   UNL     1     -28.434 -14.989  -3.219  1.00  0.00     0.032 C 
ATOM     17  C   UNL     1     -29.967 -14.868  -3.480  1.00  0.00     0.006 C 
ATOM     18  C   UNL     1     -30.331 -17.065  -2.283  1.00  0.00     0.008 C 
ATOM     19  C   UNL     1     -32.295 -15.520  -2.486  1.00  0.00     0.012 C 
ATOM     20  C   UNL     1     -30.345 -15.385  -4.941  1.00  0.00    -0.025 C 
ATOM     21  C   UNL     1     -30.026 -17.708  -3.661  1.00  0.00     0.005 C 
ATOM     22  C   UNL     1     -30.481 -16.974  -4.976  1.00  0.00     0.006 C 
ATOM     23  C   UNL     1     -29.308 -14.786  -5.990  1.00  0.00     0.010 C 
ATOM     24  C   UNL     1     -31.699 -14.739  -5.388  1.00  0.00     0.012 C 
ATOM     25  C   UNL     1     -29.847 -17.633  -6.275  1.00  0.00     0.020 C 
ATOM     26  C   UNL     1     -28.127 -15.668  -6.424  1.00  0.00     0.033 C 
ATOM     27  C   UNL     1     -28.353 -17.195  -6.398  1.00  0.00     0.123 C 
ATOM     28  C   UNL     1     -29.894 -19.191  -6.172  1.00  0.00     0.017 C 
ENDROOT
BRANCH   1  29
ATOM     29  C   UNL     1     -28.869 -11.374  -0.807  1.00  0.00     0.048 C 
ATOM     30  O   UNL     1     -29.670 -10.459  -1.154  1.00  0.00    -0.550 OA
ATOM     31  O   UNL     1     -27.639 -11.448  -1.456  1.00  0.00    -0.550 OA
ENDBRANCH   1  29
BRANCH  25  32
ATOM     32  C   UNL     1     -30.628 -17.267  -7.577  1.00  0.00     0.165 C 
BRANCH  32  33
ATOM     33  O   UNL     1     -30.339 -18.175  -8.618  1.00  0.00    -0.396 OA
ATOM     34  H   UNL     1     -30.385 -17.645  -9.456  1.00  0.00     0.210 HD
ENDBRANCH  32  33
ENDBRANCH  25  32
BRANCH  27  35
ATOM     35  O   UNL     1     -27.746 -17.761  -7.541  1.00  0.00    -0.392 OA
ATOM     36  H   UNL     1     -28.106 -18.683  -7.641  1.00  0.00     0.210 HD
ENDBRANCH  27  35
TORSDOF 4
ENDMDL
MODEL 9
REMARK VINA RESULT:    -7.474      2.128      2.733
REMARK INTER + INTRA:          -8.920
REMARK INTER:                  -8.427
REMARK INTRA:                  -0.493
REMARK UNBOUND:                -0.135
REMARK SMILES CC1(C)CC[C@]2(C(=O)[O-])CC[C@]3(C)C(=CC[C@H]4[C@@]5(C)CC[C@H](O)[C@](C)(CO)[C@H]5CC[C@]43C)[C@@H]2C1
REMARK SMILES IDX 6 1 5 2 10 3 33 4 4 5 11 6 14 7 34 8 2 9 12 10 15 11 1 12
REMARK SMILES IDX 3 13 13 14 31 15 16 16 17 17 30 18 32 19 18 20 29 21 28 22
REMARK SMILES IDX 20 23 19 24 24 25 21 26 22 27 25 28 7 29 8 30 9 31 26 32
REMARK SMILES IDX 27 33 23 35
REMARK H PARENT 27 34 23 36
REMARK Flexibility Score: inf
ROOT
ATOM      1  C   UNL     1     -27.914 -12.898  -1.640  1.00  0.00     0.017 C 
ATOM      2  C   UNL     1     -27.182 -11.674  -0.996  1.00  0.00     0.014 C 
ATOM      3  C   UNL     1     -29.275 -12.420  -2.221  1.00  0.00     0.014 C 
ATOM      4  C   UNL     1     -28.152 -14.026  -0.572  1.00  0.00     0.028 C 
ATOM      5  C   UNL     1     -26.340 -12.069   0.238  1.00  0.00     0.007 C 
ATOM      6  C   UNL     1     -30.144 -13.563  -2.776  1.00  0.00     0.013 C 
ATOM      7  C   UNL     1     -29.102 -15.102  -1.085  1.00  0.00    -0.064 C 
ATOM      8  C   UNL     1     -28.468 -13.438   0.820  1.00  0.00     0.015 C 
ATOM      9  C   UNL     1     -27.225 -12.663   1.389  1.00  0.00    -0.035 C 
ATOM     10  C   UNL     1     -30.439 -14.719  -1.752  1.00  0.00    -0.006 C 
ATOM     11  C   UNL     1     -28.604 -16.356  -1.157  1.00  0.00    -0.027 C 
ATOM     12  C   UNL     1     -27.725 -11.517   2.293  1.00  0.00     0.011 C 
ATOM     13  C   UNL     1     -26.369 -13.617   2.249  1.00  0.00     0.011 C 
ATOM     14  C   UNL     1     -31.388 -14.173  -0.631  1.00  0.00     0.017 C 
ATOM     15  C   UNL     1     -31.124 -15.990  -2.492  1.00  0.00    -0.020 C 
ATOM     16  C   UNL     1     -28.957 -17.328  -2.244  1.00  0.00     0.032 C 
ATOM     17  C   UNL     1     -30.021 -16.820  -3.265  1.00  0.00     0.006 C 
ATOM     18  C   UNL     1     -31.794 -16.959  -1.467  1.00  0.00     0.008 C 
ATOM     19  C   UNL     1     -32.253 -15.471  -3.432  1.00  0.00     0.012 C 
ATOM     20  C   UNL     1     -30.573 -18.017  -4.165  1.00  0.00    -0.025 C 
ATOM     21  C   UNL     1     -31.916 -18.444  -1.895  1.00  0.00     0.005 C 
ATOM     22  C   UNL     1     -31.714 -18.834  -3.406  1.00  0.00     0.006 C 
ATOM     23  C   UNL     1     -29.346 -18.901  -4.664  1.00  0.00     0.010 C 
ATOM     24  C   UNL     1     -31.149 -17.442  -5.501  1.00  0.00     0.012 C 
ATOM     25  C   UNL     1     -31.602 -20.406  -3.604  1.00  0.00     0.020 C 
ATOM     26  C   UNL     1     -29.011 -20.181  -3.882  1.00  0.00     0.033 C 
ATOM     27  C   UNL     1     -30.183 -20.883  -3.162  1.00  0.00     0.123 C 
ATOM     28  C   UNL     1     -32.662 -21.142  -2.725  1.00  0.00     0.017 C 
ENDROOT
BRANCH   1  29
ATOM     29  C   UNL     1     -27.038 -13.442  -2.778  1.00  0.00     0.048 C 
ATOM     30  O   UNL     1     -27.151 -12.987  -3.954  1.00  0.00    -0.550 OA
ATOM     31  O   UNL     1     -26.000 -14.332  -2.517  1.00  0.00    -0.550 OA
ENDBRANCH   1  29
BRANCH  25  32
ATOM     32  C   UNL     1     -31.887 -20.848  -5.075  1.00  0.00     0.165 C 
BRANCH  32  33
ATOM     33  O   UNL     1     -32.359 -22.177  -5.128  1.00  0.00    -0.396 OA
ATOM     34  H   UNL     1     -31.549 -22.750  -5.098  1.00  0.00     0.210 HD
ENDBRANCH  32  33
ENDBRANCH  25  32
BRANCH  27  35
ATOM     35  O   UNL     1     -30.038 -22.279  -3.319  1.00  0.00    -0.392 OA
ATOM     36  H   UNL     1     -30.946 -22.654  -3.473  1.00  0.00     0.210 HD
ENDBRANCH  27  35
TORSDOF 4
ENDMDL
