MODEL 1
REMARK VINA RESULT:    -3.858      0.000      0.000
REMARK INTER + INTRA:          -5.035
REMARK INTER:                  -4.985
REMARK INTRA:                  -0.050
REMARK UNBOUND:                -0.050
REMARK SMILES CCCCCCC=O
REMARK SMILES IDX 4 1 3 2 2 3 1 4 5 5 6 6 7 7 8 8
REMARK H PARENT
REMARK Flexibility Score: inf
ROOT
ATOM      1  C   UNL     1      25.708  58.275  -9.416  1.00  0.00     0.000 C 
ENDROOT
BRANCH   1   2
ATOM      2  C   UNL     1      26.915  58.594 -10.313  1.00  0.00    -0.000 C 
BRANCH   2   3
ATOM      3  C   UNL     1      27.286  60.086 -10.291  1.00  0.00    -0.003 C 
ATOM      4  C   UNL     1      28.620  60.376 -10.977  1.00  0.00     0.004 C 
ENDBRANCH   2   3
ENDBRANCH   1   2
BRANCH   1   5
ATOM      5  C   UNL     1      25.697  56.817  -8.918  1.00  0.00     0.008 C 
BRANCH   5   6
ATOM      6  C   UNL     1      24.330  56.123  -9.049  1.00  0.00     0.072 C 
BRANCH   6   7
ATOM      7  C   UNL     1      23.905  55.447  -7.779  1.00  0.00     0.224 C 
ATOM      8  O   UNL     1      22.726  55.205  -7.569  1.00  0.00    -0.303 OA
ENDBRANCH   6   7
ENDBRANCH   5   6
ENDBRANCH   1   5
TORSDOF 5
ENDMDL
MODEL 2
REMARK VINA RESULT:    -3.626      2.624      5.582
REMARK INTER + INTRA:          -4.735
REMARK INTER:                  -4.592
REMARK INTRA:                  -0.143
REMARK UNBOUND:                -0.050
REMARK SMILES CCCCCCC=O
REMARK SMILES IDX 4 1 3 2 2 3 1 4 5 5 6 6 7 7 8 8
REMARK H PARENT
REMARK Flexibility Score: inf
ROOT
ATOM      1  C   UNL     1      24.808  55.207  -8.045  1.00  0.00     0.000 C 
ENDROOT
BRANCH   1   2
ATOM      2  C   UNL     1      23.360  55.705  -8.187  1.00  0.00    -0.000 C 
BRANCH   2   3
ATOM      3  C   UNL     1      22.349  54.776  -7.497  1.00  0.00    -0.003 C 
ATOM      4  C   UNL     1      22.584  54.658  -5.992  1.00  0.00     0.004 C 
ENDBRANCH   2   3
ENDBRANCH   1   2
BRANCH   1   5
ATOM      5  C   UNL     1      25.846  56.220  -8.563  1.00  0.00     0.008 C 
BRANCH   5   6
ATOM      6  C   UNL     1      25.237  57.551  -9.038  1.00  0.00     0.072 C 
BRANCH   6   7
ATOM      7  C   UNL     1      26.240  58.430  -9.725  1.00  0.00     0.224 C 
ATOM      8  O   UNL     1      26.152  59.646  -9.654  1.00  0.00    -0.303 OA
ENDBRANCH   6   7
ENDBRANCH   5   6
ENDBRANCH   1   5
TORSDOF 5
ENDMDL
MODEL 3
REMARK VINA RESULT:    -3.604      2.988      5.580
REMARK INTER + INTRA:          -4.707
REMARK INTER:                  -4.646
REMARK INTRA:                  -0.061
REMARK UNBOUND:                -0.050
REMARK SMILES CCCCCCC=O
REMARK SMILES IDX 4 1 3 2 2 3 1 4 5 5 6 6 7 7 8 8
REMARK H PARENT
REMARK Flexibility Score: inf
ROOT
ATOM      1  C   UNL     1      25.622  58.198  -9.308  1.00  0.00     0.000 C 
ENDROOT
BRANCH   1   2
ATOM      2  C   UNL     1      25.556  56.721  -8.886  1.00  0.00    -0.000 C 
BRANCH   2   3
ATOM      3  C   UNL     1      24.123  56.165  -8.913  1.00  0.00    -0.003 C 
ATOM      4  C   UNL     1      23.735  55.464  -7.612  1.00  0.00     0.004 C 
ENDBRANCH   2   3
ENDBRANCH   1   2
BRANCH   1   5
ATOM      5  C   UNL     1      26.839  58.516 -10.197  1.00  0.00     0.008 C 
BRANCH   5   6
ATOM      6  C   UNL     1      27.115  60.021 -10.364  1.00  0.00     0.072 C 
BRANCH   6   7
ATOM      7  C   UNL     1      28.560  60.313 -10.642  1.00  0.00     0.224 C 
ATOM      8  O   UNL     1      29.424  59.499 -10.355  1.00  0.00    -0.303 OA
ENDBRANCH   6   7
ENDBRANCH   5   6
ENDBRANCH   1   5
TORSDOF 5
ENDMDL
MODEL 4
REMARK VINA RESULT:    -3.483     17.429     18.686
REMARK INTER + INTRA:          -4.551
REMARK INTER:                  -4.313
REMARK INTRA:                  -0.237
REMARK UNBOUND:                -0.050
REMARK SMILES CCCCCCC=O
REMARK SMILES IDX 4 1 3 2 2 3 1 4 5 5 6 6 7 7 8 8
REMARK H PARENT
REMARK Flexibility Score: inf
ROOT
ATOM      1  C   UNL     1      17.837  44.418  -0.013  1.00  0.00     0.000 C 
ENDROOT
BRANCH   1   2
ATOM      2  C   UNL     1      17.215  44.113   1.360  1.00  0.00    -0.000 C 
BRANCH   2   3
ATOM      3  C   UNL     1      15.852  44.796   1.553  1.00  0.00    -0.003 C 
ATOM      4  C   UNL     1      15.368  45.519   0.296  1.00  0.00     0.004 C 
ENDBRANCH   2   3
ENDBRANCH   1   2
BRANCH   1   5
ATOM      5  C   UNL     1      19.306  44.871   0.079  1.00  0.00     0.008 C 
BRANCH   5   6
ATOM      6  C   UNL     1      20.008  44.453   1.383  1.00  0.00     0.072 C 
BRANCH   6   7
ATOM      7  C   UNL     1      20.971  43.320   1.181  1.00  0.00     0.224 C 
ATOM      8  O   UNL     1      20.989  42.702   0.128  1.00  0.00    -0.303 OA
ENDBRANCH   6   7
ENDBRANCH   5   6
ENDBRANCH   1   5
TORSDOF 5
ENDMDL
MODEL 5
REMARK VINA RESULT:    -3.340     17.385     18.491
REMARK INTER + INTRA:          -4.366
REMARK INTER:                  -4.157
REMARK INTRA:                  -0.209
REMARK UNBOUND:                -0.050
REMARK SMILES CCCCCCC=O
REMARK SMILES IDX 4 1 3 2 2 3 1 4 5 5 6 6 7 7 8 8
REMARK H PARENT
REMARK Flexibility Score: inf
ROOT
ATOM      1  C   UNL     1      18.117  44.366  -0.077  1.00  0.00     0.000 C 
ENDROOT
BRANCH   1   2
ATOM      2  C   UNL     1      19.508  44.940   0.238  1.00  0.00    -0.000 C 
BRANCH   2   3
ATOM      3  C   UNL     1      20.166  44.256   1.448  1.00  0.00    -0.003 C 
ATOM      4  C   UNL     1      21.065  43.086   1.051  1.00  0.00     0.004 C 
ENDBRANCH   2   3
ENDBRANCH   1   2
BRANCH   1   5
ATOM      5  C   UNL     1      17.378  43.859   1.175  1.00  0.00     0.008 C 
BRANCH   5   6
ATOM      6  C   UNL     1      16.228  44.774   1.635  1.00  0.00     0.072 C 
BRANCH   6   7
ATOM      7  C   UNL     1      15.474  45.373   0.484  1.00  0.00     0.224 C 
ATOM      8  O   UNL     1      14.572  46.171   0.682  1.00  0.00    -0.303 OA
ENDBRANCH   6   7
ENDBRANCH   5   6
ENDBRANCH   1   5
TORSDOF 5
ENDMDL
MODEL 6
REMARK VINA RESULT:    -3.329      4.123      5.964
REMARK INTER + INTRA:          -4.351
REMARK INTER:                  -4.151
REMARK INTRA:                  -0.200
REMARK UNBOUND:                -0.050
REMARK SMILES CCCCCCC=O
REMARK SMILES IDX 4 1 3 2 2 3 1 4 5 5 6 6 7 7 8 8
REMARK H PARENT
REMARK Flexibility Score: inf
ROOT
ATOM      1  C   UNL     1      30.479  59.028 -12.833  1.00  0.00     0.000 C 
ENDROOT
BRANCH   1   2
ATOM      2  C   UNL     1      30.003  57.649 -13.318  1.00  0.00    -0.000 C 
BRANCH   2   3
ATOM      3  C   UNL     1      31.171  56.727 -13.703  1.00  0.00    -0.003 C 
ATOM      4  C   UNL     1      32.460  57.493 -13.996  1.00  0.00     0.004 C 
ENDBRANCH   2   3
ENDBRANCH   1   2
BRANCH   1   5
ATOM      5  C   UNL     1      30.144  59.294 -11.353  1.00  0.00     0.008 C 
BRANCH   5   6
ATOM      6  C   UNL     1      28.986  60.287 -11.143  1.00  0.00     0.072 C 
BRANCH   6   7
ATOM      7  C   UNL     1      27.783  59.643 -10.518  1.00  0.00     0.224 C 
ATOM      8  O   UNL     1      27.287  58.643 -11.013  1.00  0.00    -0.303 OA
ENDBRANCH   6   7
ENDBRANCH   5   6
ENDBRANCH   1   5
TORSDOF 5
ENDMDL
MODEL 7
REMARK VINA RESULT:    -3.304     16.017     17.102
REMARK INTER + INTRA:          -4.319
REMARK INTER:                  -4.101
REMARK INTRA:                  -0.218
REMARK UNBOUND:                -0.050
REMARK SMILES CCCCCCC=O
REMARK SMILES IDX 4 1 3 2 2 3 1 4 5 5 6 6 7 7 8 8
REMARK H PARENT
REMARK Flexibility Score: inf
ROOT
ATOM      1  C   UNL     1      32.582  45.282   1.898  1.00  0.00     0.000 C 
ENDROOT
BRANCH   1   2
ATOM      2  C   UNL     1      33.412  46.513   2.296  1.00  0.00    -0.000 C 
BRANCH   2   3
ATOM      3  C   UNL     1      33.075  47.017   3.708  1.00  0.00    -0.003 C 
ATOM      4  C   UNL     1      31.805  47.866   3.747  1.00  0.00     0.004 C 
ENDBRANCH   2   3
ENDBRANCH   1   2
BRANCH   1   5
ATOM      5  C   UNL     1      31.671  45.538   0.683  1.00  0.00     0.008 C 
BRANCH   5   6
ATOM      6  C   UNL     1      30.168  45.525   1.015  1.00  0.00     0.072 C 
BRANCH   6   7
ATOM      7  C   UNL     1      29.322  45.147  -0.164  1.00  0.00     0.224 C 
ATOM      8  O   UNL     1      28.422  45.881  -0.543  1.00  0.00    -0.303 OA
ENDBRANCH   6   7
ENDBRANCH   5   6
ENDBRANCH   1   5
TORSDOF 5
ENDMDL
MODEL 8
REMARK VINA RESULT:    -3.198      5.529      7.334
REMARK INTER + INTRA:          -4.182
REMARK INTER:                  -3.995
REMARK INTRA:                  -0.187
REMARK UNBOUND:                -0.050
REMARK SMILES CCCCCCC=O
REMARK SMILES IDX 4 1 3 2 2 3 1 4 5 5 6 6 7 7 8 8
REMARK H PARENT
REMARK Flexibility Score: inf
ROOT
ATOM      1  C   UNL     1      30.380  59.059 -12.917  1.00  0.00     0.000 C 
ENDROOT
BRANCH   1   2
ATOM      2  C   UNL     1      30.223  59.281 -11.404  1.00  0.00    -0.000 C 
BRANCH   2   3
ATOM      3  C   UNL     1      28.981  60.118 -11.058  1.00  0.00    -0.003 C 
ATOM      4  C   UNL     1      27.769  59.259 -10.698  1.00  0.00     0.004 C 
ENDBRANCH   2   3
ENDBRANCH   1   2
BRANCH   1   5
ATOM      5  C   UNL     1      29.951  57.650 -13.368  1.00  0.00     0.008 C 
BRANCH   5   6
ATOM      6  C   UNL     1      31.127  56.688 -13.614  1.00  0.00     0.072 C 
BRANCH   6   7
ATOM      7  C   UNL     1      32.362  57.399 -14.084  1.00  0.00     0.224 C 
ATOM      8  O   UNL     1      33.467  57.032 -13.716  1.00  0.00    -0.303 OA
ENDBRANCH   6   7
ENDBRANCH   5   6
ENDBRANCH   1   5
TORSDOF 5
ENDMDL
MODEL 9
REMARK VINA RESULT:    -3.183      5.646      7.296
REMARK INTER + INTRA:          -4.162
REMARK INTER:                  -3.904
REMARK INTRA:                  -0.258
REMARK UNBOUND:                -0.050
REMARK SMILES CCCCCCC=O
REMARK SMILES IDX 4 1 3 2 2 3 1 4 5 5 6 6 7 7 8 8
REMARK H PARENT
REMARK Flexibility Score: inf
ROOT
ATOM      1  C   UNL     1      31.138  56.903 -13.716  1.00  0.00     0.000 C 
ENDROOT
BRANCH   1   2
ATOM      2  C   UNL     1      32.371  56.868 -12.799  1.00  0.00    -0.000 C 
BRANCH   2   3
ATOM      3  C   UNL     1      33.686  57.051 -13.574  1.00  0.00    -0.003 C 
ATOM      4  C   UNL     1      33.764  58.393 -14.299  1.00  0.00     0.004 C 
ENDBRANCH   2   3
ENDBRANCH   1   2
BRANCH   1   5
ATOM      5  C   UNL     1      30.045  57.867 -13.217  1.00  0.00     0.008 C 
BRANCH   5   6
ATOM      6  C   UNL     1      30.593  59.126 -12.522  1.00  0.00     0.072 C 
BRANCH   6   7
ATOM      7  C   UNL     1      29.880  59.430 -11.237  1.00  0.00     0.224 C 
ATOM      8  O   UNL     1      28.765  59.928 -11.249  1.00  0.00    -0.303 OA
ENDBRANCH   6   7
ENDBRANCH   5   6
ENDBRANCH   1   5
TORSDOF 5
ENDMDL
