MODEL 1
REMARK VINA RESULT:    -4.859      0.000      0.000
REMARK INTER + INTRA:          -6.483
REMARK INTER:                  -6.279
REMARK INTRA:                  -0.204
REMARK UNBOUND:                -0.204
REMARK SMILES C=CC(=O)CCCCC
REMARK SMILES IDX 6 1 7 2 8 3 9 4 5 5 3 6 4 7 2 8 1 9
REMARK H PARENT
REMARK Flexibility Score: inf
ROOT
ATOM      1  C   UNL     1      -5.731 -14.057  28.612  1.00  0.00     0.008 C 
ENDROOT
BRANCH   1   2
ATOM      2  C   UNL     1      -5.996 -14.803  29.933  1.00  0.00     0.000 C 
BRANCH   2   3
ATOM      3  C   UNL     1      -5.050 -14.427  31.088  1.00  0.00    -0.003 C 
ATOM      4  C   UNL     1      -5.421 -15.098  32.409  1.00  0.00     0.004 C 
ENDBRANCH   2   3
ENDBRANCH   1   2
BRANCH   1   5
ATOM      5  C   UNL     1      -4.665 -12.957  28.747  1.00  0.00     0.080 C 
BRANCH   5   6
ATOM      6  C   UNL     1      -3.490 -13.156  27.818  1.00  0.00     0.155 C 
ATOM      7  O   UNL     1      -2.461 -13.763  28.223  1.00  0.00    -0.295 OA
BRANCH   6   8
ATOM      8  C   UNL     1      -3.492 -12.636  26.435  1.00  0.00     0.039 C 
ATOM      9  C   UNL     1      -2.879 -11.511  26.070  1.00  0.00     0.012 C 
ENDBRANCH   6   8
ENDBRANCH   5   6
ENDBRANCH   1   5
TORSDOF 5
ENDMDL
MODEL 2
REMARK VINA RESULT:    -4.839      1.057      1.922
REMARK INTER + INTRA:          -6.457
REMARK INTER:                  -6.254
REMARK INTRA:                  -0.203
REMARK UNBOUND:                -0.204
REMARK SMILES C=CC(=O)CCCCC
REMARK SMILES IDX 6 1 7 2 8 3 9 4 5 5 3 6 4 7 2 8 1 9
REMARK H PARENT
REMARK Flexibility Score: inf
ROOT
ATOM      1  C   UNL     1      -4.722 -13.704  29.956  1.00  0.00     0.008 C 
ENDROOT
BRANCH   1   2
ATOM      2  C   UNL     1      -5.881 -14.714  29.886  1.00  0.00     0.000 C 
BRANCH   2   3
ATOM      3  C   UNL     1      -6.614 -14.762  28.533  1.00  0.00    -0.003 C 
ATOM      4  C   UNL     1      -7.993 -15.415  28.621  1.00  0.00     0.004 C 
ENDBRANCH   2   3
ENDBRANCH   1   2
BRANCH   1   5
ATOM      5  C   UNL     1      -4.667 -12.766  28.738  1.00  0.00     0.080 C 
BRANCH   5   6
ATOM      6  C   UNL     1      -3.468 -13.019  27.853  1.00  0.00     0.155 C 
ATOM      7  O   UNL     1      -2.466 -13.636  28.306  1.00  0.00    -0.295 OA
BRANCH   6   8
ATOM      8  C   UNL     1      -3.416 -12.540  26.456  1.00  0.00     0.039 C 
ATOM      9  C   UNL     1      -2.817 -11.408  26.087  1.00  0.00     0.012 C 
ENDBRANCH   6   8
ENDBRANCH   5   6
ENDBRANCH   1   5
TORSDOF 5
ENDMDL
MODEL 3
REMARK VINA RESULT:    -4.826      2.361      4.297
REMARK INTER + INTRA:          -6.441
REMARK INTER:                  -6.120
REMARK INTRA:                  -0.321
REMARK UNBOUND:                -0.204
REMARK SMILES C=CC(=O)CCCCC
REMARK SMILES IDX 6 1 7 2 8 3 9 4 5 5 3 6 4 7 2 8 1 9
REMARK H PARENT
REMARK Flexibility Score: inf
ROOT
ATOM      1  C   UNL     1      -4.977 -13.089  29.047  1.00  0.00     0.008 C 
ENDROOT
BRANCH   1   2
ATOM      2  C   UNL     1      -5.742 -14.179  28.274  1.00  0.00     0.000 C 
BRANCH   2   3
ATOM      3  C   UNL     1      -6.573 -15.132  29.153  1.00  0.00    -0.003 C 
ATOM      4  C   UNL     1      -7.974 -15.389  28.600  1.00  0.00     0.004 C 
ENDBRANCH   2   3
ENDBRANCH   1   2
BRANCH   1   5
ATOM      5  C   UNL     1      -3.869 -13.658  29.949  1.00  0.00     0.080 C 
BRANCH   5   6
ATOM      6  C   UNL     1      -4.066 -13.322  31.409  1.00  0.00     0.155 C 
ATOM      7  O   UNL     1      -3.982 -12.125  31.799  1.00  0.00    -0.295 OA
BRANCH   6   8
ATOM      8  C   UNL     1      -4.335 -14.365  32.420  1.00  0.00     0.039 C 
ATOM      9  C   UNL     1      -5.480 -15.044  32.492  1.00  0.00     0.012 C 
ENDBRANCH   6   8
ENDBRANCH   5   6
ENDBRANCH   1   5
TORSDOF 5
ENDMDL
MODEL 4
REMARK VINA RESULT:    -4.647      2.065      3.274
REMARK INTER + INTRA:          -6.210
REMARK INTER:                  -5.890
REMARK INTRA:                  -0.320
REMARK UNBOUND:                -0.204
REMARK SMILES C=CC(=O)CCCCC
REMARK SMILES IDX 6 1 7 2 8 3 9 4 5 5 3 6 4 7 2 8 1 9
REMARK H PARENT
REMARK Flexibility Score: inf
ROOT
ATOM      1  C   UNL     1      -3.641 -13.465  30.085  1.00  0.00     0.008 C 
ENDROOT
BRANCH   1   2
ATOM      2  C   UNL     1      -4.066 -13.176  31.536  1.00  0.00     0.000 C 
BRANCH   2   3
ATOM      3  C   UNL     1      -4.108 -14.411  32.455  1.00  0.00    -0.003 C 
ATOM      4  C   UNL     1      -5.483 -15.075  32.503  1.00  0.00     0.004 C 
ENDBRANCH   2   3
ENDBRANCH   1   2
BRANCH   1   5
ATOM      5  C   UNL     1      -4.688 -13.016  29.052  1.00  0.00     0.080 C 
BRANCH   5   6
ATOM      6  C   UNL     1      -5.402 -14.174  28.393  1.00  0.00     0.155 C 
ATOM      7  O   UNL     1      -5.147 -14.475  27.196  1.00  0.00    -0.295 OA
BRANCH   6   8
ATOM      8  C   UNL     1      -6.425 -14.966  29.107  1.00  0.00     0.039 C 
ATOM      9  C   UNL     1      -7.663 -15.154  28.650  1.00  0.00     0.012 C 
ENDBRANCH   6   8
ENDBRANCH   5   6
ENDBRANCH   1   5
TORSDOF 5
ENDMDL
MODEL 5
REMARK VINA RESULT:    -4.582      1.849      4.680
REMARK INTER + INTRA:          -6.126
REMARK INTER:                  -5.854
REMARK INTRA:                  -0.272
REMARK UNBOUND:                -0.204
REMARK SMILES C=CC(=O)CCCCC
REMARK SMILES IDX 6 1 7 2 8 3 9 4 5 5 3 6 4 7 2 8 1 9
REMARK H PARENT
REMARK Flexibility Score: inf
ROOT
ATOM      1  C   UNL     1      -4.050 -12.358  29.187  1.00  0.00     0.008 C 
ENDROOT
BRANCH   1   2
ATOM      2  C   UNL     1      -2.869 -12.583  28.226  1.00  0.00     0.000 C 
BRANCH   2   3
ATOM      3  C   UNL     1      -3.254 -12.658  26.737  1.00  0.00    -0.003 C 
ATOM      4  C   UNL     1      -2.888 -11.394  25.959  1.00  0.00     0.004 C 
ENDBRANCH   2   3
ENDBRANCH   1   2
BRANCH   1   5
ATOM      5  C   UNL     1      -4.181 -13.466  30.246  1.00  0.00     0.080 C 
BRANCH   5   6
ATOM      6  C   UNL     1      -5.398 -14.339  30.039  1.00  0.00     0.155 C 
ATOM      7  O   UNL     1      -5.806 -15.085  30.970  1.00  0.00    -0.295 OA
BRANCH   6   8
ATOM      8  C   UNL     1      -6.127 -14.369  28.754  1.00  0.00     0.039 C 
ATOM      9  C   UNL     1      -7.241 -15.072  28.555  1.00  0.00     0.012 C 
ENDBRANCH   6   8
ENDBRANCH   5   6
ENDBRANCH   1   5
TORSDOF 5
ENDMDL
MODEL 6
REMARK VINA RESULT:    -4.527      1.734      5.057
REMARK INTER + INTRA:          -6.054
REMARK INTER:                  -5.937
REMARK INTRA:                  -0.117
REMARK UNBOUND:                -0.204
REMARK SMILES C=CC(=O)CCCCC
REMARK SMILES IDX 6 1 7 2 8 3 9 4 5 5 3 6 4 7 2 8 1 9
REMARK H PARENT
REMARK Flexibility Score: inf
ROOT
ATOM      1  C   UNL     1      -5.022 -13.465  28.298  1.00  0.00     0.008 C 
ENDROOT
BRANCH   1   2
ATOM      2  C   UNL     1      -3.778 -13.389  27.394  1.00  0.00     0.000 C 
BRANCH   2   3
ATOM      3  C   UNL     1      -3.047 -12.035  27.416  1.00  0.00    -0.003 C 
ATOM      4  C   UNL     1      -2.881 -11.421  26.026  1.00  0.00     0.004 C 
ENDBRANCH   2   3
ENDBRANCH   1   2
BRANCH   1   5
ATOM      5  C   UNL     1      -4.677 -13.725  29.774  1.00  0.00     0.080 C 
BRANCH   5   6
ATOM      6  C   UNL     1      -5.626 -14.694  30.441  1.00  0.00     0.155 C 
ATOM      7  O   UNL     1      -6.526 -15.263  29.765  1.00  0.00    -0.295 OA
BRANCH   6   8
ATOM      8  C   UNL     1      -5.551 -14.988  31.886  1.00  0.00     0.039 C 
ATOM      9  C   UNL     1      -4.739 -14.350  32.728  1.00  0.00     0.012 C 
ENDBRANCH   6   8
ENDBRANCH   5   6
ENDBRANCH   1   5
TORSDOF 5
ENDMDL
MODEL 7
REMARK VINA RESULT:    -4.487      2.426      3.440
REMARK INTER + INTRA:          -6.002
REMARK INTER:                  -5.846
REMARK INTRA:                  -0.156
REMARK UNBOUND:                -0.204
REMARK SMILES C=CC(=O)CCCCC
REMARK SMILES IDX 6 1 7 2 8 3 9 4 5 5 3 6 4 7 2 8 1 9
REMARK H PARENT
REMARK Flexibility Score: inf
ROOT
ATOM      1  C   UNL     1      -4.605 -12.706  29.056  1.00  0.00     0.008 C 
ENDROOT
BRANCH   1   2
ATOM      2  C   UNL     1      -5.468 -13.777  28.364  1.00  0.00     0.000 C 
BRANCH   2   3
ATOM      3  C   UNL     1      -6.210 -14.726  29.323  1.00  0.00    -0.003 C 
ATOM      4  C   UNL     1      -7.490 -15.305  28.722  1.00  0.00     0.004 C 
ENDBRANCH   2   3
ENDBRANCH   1   2
BRANCH   1   5
ATOM      5  C   UNL     1      -3.931 -13.215  30.341  1.00  0.00     0.080 C 
BRANCH   5   6
ATOM      6  C   UNL     1      -2.426 -13.290  30.229  1.00  0.00     0.155 C 
ATOM      7  O   UNL     1      -1.881 -13.401  29.097  1.00  0.00    -0.295 OA
BRANCH   6   8
ATOM      8  C   UNL     1      -1.553 -13.262  31.420  1.00  0.00     0.039 C 
ATOM      9  C   UNL     1      -0.341 -12.708  31.433  1.00  0.00     0.012 C 
ENDBRANCH   6   8
ENDBRANCH   5   6
ENDBRANCH   1   5
TORSDOF 5
ENDMDL
MODEL 8
REMARK VINA RESULT:    -4.465      2.494      3.754
REMARK INTER + INTRA:          -5.974
REMARK INTER:                  -5.551
REMARK INTRA:                  -0.423
REMARK UNBOUND:                -0.204
REMARK SMILES C=CC(=O)CCCCC
REMARK SMILES IDX 6 1 7 2 8 3 9 4 5 5 3 6 4 7 2 8 1 9
REMARK H PARENT
REMARK Flexibility Score: inf
ROOT
ATOM      1  C   UNL     1      -2.732 -12.291  28.054  1.00  0.00     0.008 C 
ENDROOT
BRANCH   1   2
ATOM      2  C   UNL     1      -4.024 -12.129  28.876  1.00  0.00     0.000 C 
BRANCH   2   3
ATOM      3  C   UNL     1      -4.616 -13.444  29.415  1.00  0.00    -0.003 C 
ATOM      4  C   UNL     1      -5.757 -13.984  28.553  1.00  0.00     0.004 C 
ENDBRANCH   2   3
ENDBRANCH   1   2
BRANCH   1   5
ATOM      5  C   UNL     1      -2.061 -13.660  28.255  1.00  0.00     0.080 C 
BRANCH   5   6
ATOM      6  C   UNL     1      -0.675 -13.556  28.850  1.00  0.00     0.155 C 
ATOM      7  O   UNL     1       0.307 -14.082  28.259  1.00  0.00    -0.295 OA
BRANCH   6   8
ATOM      8  C   UNL     1      -0.427 -12.868  30.134  1.00  0.00     0.039 C 
ATOM      9  C   UNL     1      -0.895 -13.300  31.304  1.00  0.00     0.012 C 
ENDBRANCH   6   8
ENDBRANCH   5   6
ENDBRANCH   1   5
TORSDOF 5
ENDMDL
MODEL 9
REMARK VINA RESULT:    -4.386      2.877      4.417
REMARK INTER + INTRA:          -5.872
REMARK INTER:                  -5.509
REMARK INTRA:                  -0.364
REMARK UNBOUND:                -0.204
REMARK SMILES C=CC(=O)CCCCC
REMARK SMILES IDX 6 1 7 2 8 3 9 4 5 5 3 6 4 7 2 8 1 9
REMARK H PARENT
REMARK Flexibility Score: inf
ROOT
ATOM      1  C   UNL     1      -2.464 -12.603  31.215  1.00  0.00     0.008 C 
ENDROOT
BRANCH   1   2
ATOM      2  C   UNL     1      -1.077 -13.253  31.372  1.00  0.00     0.000 C 
BRANCH   2   3
ATOM      3  C   UNL     1      -0.177 -13.163  30.127  1.00  0.00    -0.003 C 
ATOM      4  C   UNL     1      -0.866 -13.650  28.853  1.00  0.00     0.004 C 
ENDBRANCH   2   3
ENDBRANCH   1   2
BRANCH   1   5
ATOM      5  C   UNL     1      -3.601 -13.468  31.784  1.00  0.00     0.080 C 
BRANCH   5   6
ATOM      6  C   UNL     1      -4.608 -13.883  30.736  1.00  0.00     0.155 C 
ATOM      7  O   UNL     1      -5.474 -14.760  31.003  1.00  0.00    -0.295 OA
BRANCH   6   8
ATOM      8  C   UNL     1      -4.601 -13.306  29.376  1.00  0.00     0.039 C 
ATOM      9  C   UNL     1      -5.380 -13.741  28.386  1.00  0.00     0.012 C 
ENDBRANCH   6   8
ENDBRANCH   5   6
ENDBRANCH   1   5
TORSDOF 5
ENDMDL
