MODEL 1
REMARK VINA RESULT:    -4.028      0.000      0.000
REMARK INTER + INTRA:          -9.173
REMARK INTER:                  -7.324
REMARK INTRA:                  -1.849
REMARK UNBOUND:                -1.849
REMARK SMILES CCCCCCCCCCCCCCCC(=O)[O-]
REMARK SMILES IDX 9 1 10 2 11 3 12 4 13 5 14 6 15 7 16 8 17 9 18 10 8 11 7 12
REMARK SMILES IDX 6 13 5 14 4 15 3 16 2 17 1 18
REMARK H PARENT
REMARK Flexibility Score: inf
ROOT
ATOM      1  C   UNL     1      48.650   7.105  20.915  1.00  0.00     0.000 C 
ENDROOT
BRANCH   1   2
ATOM      2  C   UNL     1      50.086   7.648  20.986  1.00  0.00     0.000 C 
BRANCH   2   3
ATOM      3  C   UNL     1      50.607   8.129  19.620  1.00  0.00     0.000 C 
BRANCH   3   4
ATOM      4  C   UNL     1      51.851   7.354  19.152  1.00  0.00     0.000 C 
BRANCH   4   5
ATOM      5  C   UNL     1      51.564   5.955  18.568  1.00  0.00     0.000 C 
BRANCH   5   6
ATOM      6  C   UNL     1      52.699   4.926  18.744  1.00  0.00     0.006 C 
BRANCH   6   7
ATOM      7  C   UNL     1      52.221   3.498  19.050  1.00  0.00     0.053 C 
BRANCH   7   8
ATOM      8  C   UNL     1      53.160   2.776  19.966  1.00  0.00     0.041 C 
ATOM      9  O   UNL     1      54.361   3.140  20.058  1.00  0.00    -0.550 OA
ATOM     10  O   UNL     1      52.716   1.679  20.694  1.00  0.00    -0.550 OA
ENDBRANCH   7   8
ENDBRANCH   6   7
ENDBRANCH   5   6
ENDBRANCH   4   5
ENDBRANCH   3   4
ENDBRANCH   2   3
ENDBRANCH   1   2
BRANCH   1  11
ATOM     11  C   UNL     1      48.479   5.788  21.691  1.00  0.00     0.000 C 
BRANCH  11  12
ATOM     12  C   UNL     1      49.303   4.637  21.091  1.00  0.00    -0.000 C 
BRANCH  12  13
ATOM     13  C   UNL     1      50.123   3.880  22.147  1.00  0.00    -0.000 C 
BRANCH  13  14
ATOM     14  C   UNL     1      49.574   2.464  22.357  1.00  0.00    -0.000 C 
BRANCH  14  15
ATOM     15  C   UNL     1      49.161   1.828  21.024  1.00  0.00    -0.000 C 
BRANCH  15  16
ATOM     16  C   UNL     1      47.693   1.378  21.061  1.00  0.00    -0.000 C 
BRANCH  16  17
ATOM     17  C   UNL     1      46.882   1.908  19.869  1.00  0.00    -0.003 C 
ATOM     18  C   UNL     1      45.847   2.955  20.277  1.00  0.00     0.004 C 
ENDBRANCH  16  17
ENDBRANCH  15  16
ENDBRANCH  14  15
ENDBRANCH  13  14
ENDBRANCH  12  13
ENDBRANCH  11  12
ENDBRANCH   1  11
TORSDOF 14
ENDMDL
MODEL 2
REMARK VINA RESULT:    -3.991      2.047      5.540
REMARK INTER + INTRA:          -9.106
REMARK INTER:                  -7.625
REMARK INTRA:                  -1.481
REMARK UNBOUND:                -1.849
REMARK SMILES CCCCCCCCCCCCCCCC(=O)[O-]
REMARK SMILES IDX 9 1 10 2 11 3 12 4 13 5 14 6 15 7 16 8 17 9 18 10 8 11 7 12
REMARK SMILES IDX 6 13 5 14 4 15 3 16 2 17 1 18
REMARK H PARENT
REMARK Flexibility Score: inf
ROOT
ATOM      1  C   UNL     1      52.295   4.804  19.083  1.00  0.00     0.000 C 
ENDROOT
BRANCH   1   2
ATOM      2  C   UNL     1      51.752   3.408  18.739  1.00  0.00     0.000 C 
BRANCH   2   3
ATOM      3  C   UNL     1      52.611   2.275  19.329  1.00  0.00     0.000 C 
BRANCH   3   4
ATOM      4  C   UNL     1      52.710   2.341  20.863  1.00  0.00     0.000 C 
BRANCH   4   5
ATOM      5  C   UNL     1      51.930   1.242  21.614  1.00  0.00     0.000 C 
BRANCH   5   6
ATOM      6  C   UNL     1      50.606   1.703  22.257  1.00  0.00     0.006 C 
BRANCH   6   7
ATOM      7  C   UNL     1      49.415   0.766  21.999  1.00  0.00     0.053 C 
BRANCH   7   8
ATOM      8  C   UNL     1      48.614   1.194  20.808  1.00  0.00     0.041 C 
ATOM      9  O   UNL     1      48.800   2.328  20.293  1.00  0.00    -0.550 OA
ATOM     10  O   UNL     1      47.638   0.354  20.287  1.00  0.00    -0.550 OA
ENDBRANCH   7   8
ENDBRANCH   6   7
ENDBRANCH   5   6
ENDBRANCH   4   5
ENDBRANCH   3   4
ENDBRANCH   2   3
ENDBRANCH   1   2
BRANCH   1  11
ATOM     11  C   UNL     1      52.325   5.741  17.863  1.00  0.00     0.000 C 
BRANCH  11  12
ATOM     12  C   UNL     1      51.321   6.899  17.983  1.00  0.00    -0.000 C 
BRANCH  12  13
ATOM     13  C   UNL     1      51.511   7.718  19.269  1.00  0.00    -0.000 C 
BRANCH  13  14
ATOM     14  C   UNL     1      50.626   8.970  19.259  1.00  0.00    -0.000 C 
BRANCH  14  15
ATOM     15  C   UNL     1      49.396   8.785  20.156  1.00  0.00    -0.000 C 
BRANCH  15  16
ATOM     16  C   UNL     1      49.718   7.874  21.349  1.00  0.00    -0.000 C 
BRANCH  16  17
ATOM     17  C   UNL     1      48.788   6.654  21.430  1.00  0.00    -0.003 C 
ATOM     18  C   UNL     1      49.551   5.338  21.579  1.00  0.00     0.004 C 
ENDBRANCH  16  17
ENDBRANCH  15  16
ENDBRANCH  14  15
ENDBRANCH  13  14
ENDBRANCH  12  13
ENDBRANCH  11  12
ENDBRANCH   1  11
TORSDOF 14
ENDMDL
MODEL 3
REMARK VINA RESULT:    -3.982      3.010      5.430
REMARK INTER + INTRA:          -9.090
REMARK INTER:                  -7.288
REMARK INTRA:                  -1.802
REMARK UNBOUND:                -1.849
REMARK SMILES CCCCCCCCCCCCCCCC(=O)[O-]
REMARK SMILES IDX 9 1 10 2 11 3 12 4 13 5 14 6 15 7 16 8 17 9 18 10 8 11 7 12
REMARK SMILES IDX 6 13 5 14 4 15 3 16 2 17 1 18
REMARK H PARENT
REMARK Flexibility Score: inf
ROOT
ATOM      1  C   UNL     1      47.177  -0.475  22.657  1.00  0.00     0.000 C 
ENDROOT
BRANCH   1   2
ATOM      2  C   UNL     1      47.897  -0.102  21.351  1.00  0.00     0.000 C 
BRANCH   2   3
ATOM      3  C   UNL     1      47.093   0.892  20.493  1.00  0.00     0.000 C 
BRANCH   3   4
ATOM      4  C   UNL     1      47.827   2.229  20.288  1.00  0.00     0.000 C 
BRANCH   4   5
ATOM      5  C   UNL     1      49.131   2.387  21.098  1.00  0.00     0.000 C 
BRANCH   5   6
ATOM      6  C   UNL     1      50.380   2.737  20.264  1.00  0.00     0.006 C 
BRANCH   6   7
ATOM      7  C   UNL     1      51.665   2.024  20.716  1.00  0.00     0.053 C 
BRANCH   7   8
ATOM      8  C   UNL     1      52.734   2.079  19.669  1.00  0.00     0.041 C 
ATOM      9  O   UNL     1      53.031   3.174  19.123  1.00  0.00    -0.550 OA
ATOM     10  O   UNL     1      53.379   0.915  19.271  1.00  0.00    -0.550 OA
ENDBRANCH   7   8
ENDBRANCH   6   7
ENDBRANCH   5   6
ENDBRANCH   4   5
ENDBRANCH   3   4
ENDBRANCH   2   3
ENDBRANCH   1   2
BRANCH   1  11
ATOM     11  C   UNL     1      46.917   0.747  23.555  1.00  0.00     0.000 C 
BRANCH  11  12
ATOM     12  C   UNL     1      45.633   0.605  24.388  1.00  0.00    -0.000 C 
BRANCH  12  13
ATOM     13  C   UNL     1      44.651  -0.417  23.795  1.00  0.00    -0.000 C 
BRANCH  13  14
ATOM     14  C   UNL     1      43.339   0.259  23.380  1.00  0.00    -0.000 C 
BRANCH  14  15
ATOM     15  C   UNL     1      42.953  -0.118  21.945  1.00  0.00    -0.000 C 
BRANCH  15  16
ATOM     16  C   UNL     1      43.509   0.901  20.940  1.00  0.00    -0.000 C 
BRANCH  16  17
ATOM     17  C   UNL     1      43.737   2.285  21.567  1.00  0.00    -0.003 C 
ATOM     18  C   UNL     1      44.189   3.329  20.546  1.00  0.00     0.004 C 
ENDBRANCH  16  17
ENDBRANCH  15  16
ENDBRANCH  14  15
ENDBRANCH  13  14
ENDBRANCH  12  13
ENDBRANCH  11  12
ENDBRANCH   1  11
TORSDOF 14
ENDMDL
MODEL 4
REMARK VINA RESULT:    -3.955      3.141      5.091
REMARK INTER + INTRA:          -9.041
REMARK INTER:                  -7.625
REMARK INTRA:                  -1.416
REMARK UNBOUND:                -1.849
REMARK SMILES CCCCCCCCCCCCCCCC(=O)[O-]
REMARK SMILES IDX 9 1 10 2 11 3 12 4 13 5 14 6 15 7 16 8 17 9 18 10 8 11 7 12
REMARK SMILES IDX 6 13 5 14 4 15 3 16 2 17 1 18
REMARK H PARENT
REMARK Flexibility Score: inf
ROOT
ATOM      1  C   UNL     1      51.513   6.228  19.375  1.00  0.00     0.000 C 
ENDROOT
BRANCH   1   2
ATOM      2  C   UNL     1      51.126   7.528  18.652  1.00  0.00     0.000 C 
BRANCH   2   3
ATOM      3  C   UNL     1      50.728   8.652  19.626  1.00  0.00     0.000 C 
BRANCH   3   4
ATOM      4  C   UNL     1      49.527   8.274  20.510  1.00  0.00     0.000 C 
BRANCH   4   5
ATOM      5  C   UNL     1      49.887   7.845  21.948  1.00  0.00     0.000 C 
BRANCH   5   6
ATOM      6  C   UNL     1      49.117   8.584  23.062  1.00  0.00     0.006 C 
BRANCH   6   7
ATOM      7  C   UNL     1      49.940   8.851  24.332  1.00  0.00     0.053 C 
BRANCH   7   8
ATOM      8  C   UNL     1      49.901   7.692  25.280  1.00  0.00     0.041 C 
ATOM      9  O   UNL     1      49.050   7.660  26.207  1.00  0.00    -0.550 OA
ATOM     10  O   UNL     1      50.828   6.664  25.160  1.00  0.00    -0.550 OA
ENDBRANCH   7   8
ENDBRANCH   6   7
ENDBRANCH   5   6
ENDBRANCH   4   5
ENDBRANCH   3   4
ENDBRANCH   2   3
ENDBRANCH   1   2
BRANCH   1  11
ATOM     11  C   UNL     1      52.247   5.239  18.453  1.00  0.00     0.000 C 
BRANCH  11  12
ATOM     12  C   UNL     1      51.821   3.781  18.691  1.00  0.00    -0.000 C 
BRANCH  12  13
ATOM     13  C   UNL     1      52.883   2.967  19.444  1.00  0.00    -0.000 C 
BRANCH  13  14
ATOM     14  C   UNL     1      52.234   1.865  20.290  1.00  0.00    -0.000 C 
BRANCH  14  15
ATOM     15  C   UNL     1      50.885   2.325  20.855  1.00  0.00    -0.000 C 
BRANCH  15  16
ATOM     16  C   UNL     1      51.049   2.903  22.268  1.00  0.00    -0.000 C 
BRANCH  16  17
ATOM     17  C   UNL     1      49.972   3.943  22.610  1.00  0.00    -0.003 C 
ATOM     18  C   UNL     1      49.044   4.242  21.433  1.00  0.00     0.004 C 
ENDBRANCH  16  17
ENDBRANCH  15  16
ENDBRANCH  14  15
ENDBRANCH  13  14
ENDBRANCH  12  13
ENDBRANCH  11  12
ENDBRANCH   1  11
TORSDOF 14
ENDMDL
MODEL 5
REMARK VINA RESULT:    -3.943      4.238      6.162
REMARK INTER + INTRA:          -9.019
REMARK INTER:                  -7.230
REMARK INTRA:                  -1.790
REMARK UNBOUND:                -1.849
REMARK SMILES CCCCCCCCCCCCCCCC(=O)[O-]
REMARK SMILES IDX 9 1 10 2 11 3 12 4 13 5 14 6 15 7 16 8 17 9 18 10 8 11 7 12
REMARK SMILES IDX 6 13 5 14 4 15 3 16 2 17 1 18
REMARK H PARENT
REMARK Flexibility Score: inf
ROOT
ATOM      1  C   UNL     1      46.850   2.186  19.902  1.00  0.00     0.000 C 
ENDROOT
BRANCH   1   2
ATOM      2  C   UNL     1      47.832   1.491  20.859  1.00  0.00     0.000 C 
BRANCH   2   3
ATOM      3  C   UNL     1      47.159   1.019  22.161  1.00  0.00     0.000 C 
BRANCH   3   4
ATOM      4  C   UNL     1      47.254  -0.503  22.361  1.00  0.00     0.000 C 
BRANCH   4   5
ATOM      5  C   UNL     1      48.583  -1.139  21.901  1.00  0.00     0.000 C 
BRANCH   5   6
ATOM      6  C   UNL     1      49.695  -1.174  22.969  1.00  0.00     0.006 C 
BRANCH   6   7
ATOM      7  C   UNL     1      51.094  -0.818  22.441  1.00  0.00     0.053 C 
BRANCH   7   8
ATOM      8  C   UNL     1      51.287   0.662  22.318  1.00  0.00     0.041 C 
ATOM      9  O   UNL     1      51.788   1.151  21.272  1.00  0.00    -0.550 OA
ATOM     10  O   UNL     1      50.945   1.498  23.373  1.00  0.00    -0.550 OA
ENDBRANCH   7   8
ENDBRANCH   6   7
ENDBRANCH   5   6
ENDBRANCH   4   5
ENDBRANCH   3   4
ENDBRANCH   2   3
ENDBRANCH   1   2
BRANCH   1  11
ATOM     11  C   UNL     1      45.945   3.201  20.623  1.00  0.00     0.000 C 
BRANCH  11  12
ATOM     12  C   UNL     1      44.577   3.362  19.940  1.00  0.00    -0.000 C 
BRANCH  12  13
ATOM     13  C   UNL     1      43.406   3.271  20.929  1.00  0.00    -0.000 C 
BRANCH  13  14
ATOM     14  C   UNL     1      43.617   2.124  21.925  1.00  0.00    -0.000 C 
BRANCH  14  15
ATOM     15  C   UNL     1      43.246   0.774  21.300  1.00  0.00    -0.000 C 
BRANCH  15  16
ATOM     16  C   UNL     1      43.229  -0.337  22.360  1.00  0.00    -0.000 C 
BRANCH  16  17
ATOM     17  C   UNL     1      43.230   0.214  23.794  1.00  0.00    -0.003 C 
ATOM     18  C   UNL     1      44.263  -0.469  24.689  1.00  0.00     0.004 C 
ENDBRANCH  16  17
ENDBRANCH  15  16
ENDBRANCH  14  15
ENDBRANCH  13  14
ENDBRANCH  12  13
ENDBRANCH  11  12
ENDBRANCH   1  11
TORSDOF 14
ENDMDL
MODEL 6
REMARK VINA RESULT:    -3.935      2.254      5.019
REMARK INTER + INTRA:          -9.004
REMARK INTER:                  -7.308
REMARK INTRA:                  -1.696
REMARK UNBOUND:                -1.849
REMARK SMILES CCCCCCCCCCCCCCCC(=O)[O-]
REMARK SMILES IDX 9 1 10 2 11 3 12 4 13 5 14 6 15 7 16 8 17 9 18 10 8 11 7 12
REMARK SMILES IDX 6 13 5 14 4 15 3 16 2 17 1 18
REMARK H PARENT
REMARK Flexibility Score: inf
ROOT
ATOM      1  C   UNL     1      50.305   6.462  24.744  1.00  0.00     0.000 C 
ENDROOT
BRANCH   1   2
ATOM      2  C   UNL     1      49.126   5.485  24.888  1.00  0.00     0.000 C 
BRANCH   2   3
ATOM      3  C   UNL     1      48.610   4.974  23.531  1.00  0.00     0.000 C 
BRANCH   3   4
ATOM      4  C   UNL     1      49.747   4.575  22.575  1.00  0.00     0.000 C 
BRANCH   4   5
ATOM      5  C   UNL     1      50.263   3.130  22.745  1.00  0.00     0.000 C 
BRANCH   5   6
ATOM      6  C   UNL     1      51.233   2.649  21.647  1.00  0.00     0.006 C 
BRANCH   6   7
ATOM      7  C   UNL     1      50.692   2.788  20.215  1.00  0.00     0.053 C 
BRANCH   7   8
ATOM      8  C   UNL     1      51.776   3.117  19.236  1.00  0.00     0.041 C 
ATOM      9  O   UNL     1      52.611   2.238  18.897  1.00  0.00    -0.550 OA
ATOM     10  O   UNL     1      51.883   4.403  18.722  1.00  0.00    -0.550 OA
ENDBRANCH   7   8
ENDBRANCH   6   7
ENDBRANCH   5   6
ENDBRANCH   4   5
ENDBRANCH   3   4
ENDBRANCH   2   3
ENDBRANCH   1   2
BRANCH   1  11
ATOM     11  C   UNL     1      49.949   7.885  25.207  1.00  0.00     0.000 C 
BRANCH  11  12
ATOM     12  C   UNL     1      49.088   8.642  24.183  1.00  0.00    -0.000 C 
BRANCH  12  13
ATOM     13  C   UNL     1      49.630   8.524  22.750  1.00  0.00    -0.000 C 
BRANCH  13  14
ATOM     14  C   UNL     1      48.494   8.265  21.753  1.00  0.00    -0.000 C 
BRANCH  14  15
ATOM     15  C   UNL     1      49.013   7.556  20.497  1.00  0.00    -0.000 C 
BRANCH  15  16
ATOM     16  C   UNL     1      50.521   7.784  20.320  1.00  0.00    -0.000 C 
BRANCH  16  17
ATOM     17  C   UNL     1      50.941   7.839  18.843  1.00  0.00    -0.003 C 
ATOM     18  C   UNL     1      50.100   8.819  18.025  1.00  0.00     0.004 C 
ENDBRANCH  16  17
ENDBRANCH  15  16
ENDBRANCH  14  15
ENDBRANCH  13  14
ENDBRANCH  12  13
ENDBRANCH  11  12
ENDBRANCH   1  11
TORSDOF 14
ENDMDL
MODEL 7
REMARK VINA RESULT:    -3.929      2.562      4.905
REMARK INTER + INTRA:          -8.994
REMARK INTER:                  -7.603
REMARK INTRA:                  -1.390
REMARK UNBOUND:                -1.849
REMARK SMILES CCCCCCCCCCCCCCCC(=O)[O-]
REMARK SMILES IDX 9 1 10 2 11 3 12 4 13 5 14 6 15 7 16 8 17 9 18 10 8 11 7 12
REMARK SMILES IDX 6 13 5 14 4 15 3 16 2 17 1 18
REMARK H PARENT
REMARK Flexibility Score: inf
ROOT
ATOM      1  C   UNL     1      46.500   2.238  19.919  1.00  0.00     0.000 C 
ENDROOT
BRANCH   1   2
ATOM      2  C   UNL     1      47.120   1.598  21.172  1.00  0.00     0.000 C 
BRANCH   2   3
ATOM      3  C   UNL     1      47.673   2.641  22.160  1.00  0.00     0.000 C 
BRANCH   3   4
ATOM      4  C   UNL     1      48.787   3.507  21.547  1.00  0.00     0.000 C 
BRANCH   4   5
ATOM      5  C   UNL     1      50.165   2.820  21.446  1.00  0.00     0.000 C 
BRANCH   5   6
ATOM      6  C   UNL     1      50.663   2.561  20.009  1.00  0.00     0.006 C 
BRANCH   6   7
ATOM      7  C   UNL     1      51.885   3.398  19.600  1.00  0.00     0.053 C 
BRANCH   7   8
ATOM      8  C   UNL     1      53.154   2.605  19.662  1.00  0.00     0.041 C 
ATOM      9  O   UNL     1      54.228   3.155  20.019  1.00  0.00    -0.550 OA
ATOM     10  O   UNL     1      53.156   1.266  19.291  1.00  0.00    -0.550 OA
ENDBRANCH   7   8
ENDBRANCH   6   7
ENDBRANCH   5   6
ENDBRANCH   4   5
ENDBRANCH   3   4
ENDBRANCH   2   3
ENDBRANCH   1   2
BRANCH   1  11
ATOM     11  C   UNL     1      45.628   3.460  20.254  1.00  0.00     0.000 C 
BRANCH  11  12
ATOM     12  C   UNL     1      44.124   3.157  20.154  1.00  0.00    -0.000 C 
BRANCH  12  13
ATOM     13  C   UNL     1      43.369   3.468  21.455  1.00  0.00    -0.000 C 
BRANCH  13  14
ATOM     14  C   UNL     1      43.417   2.274  22.416  1.00  0.00    -0.000 C 
BRANCH  14  15
ATOM     15  C   UNL     1      43.307   0.947  21.655  1.00  0.00    -0.000 C 
BRANCH  15  16
ATOM     16  C   UNL     1      43.463  -0.247  22.607  1.00  0.00    -0.000 C 
BRANCH  16  17
ATOM     17  C   UNL     1      44.606  -0.055  23.615  1.00  0.00    -0.003 C 
ATOM     18  C   UNL     1      44.312  -0.693  24.972  1.00  0.00     0.004 C 
ENDBRANCH  16  17
ENDBRANCH  15  16
ENDBRANCH  14  15
ENDBRANCH  13  14
ENDBRANCH  12  13
ENDBRANCH  11  12
ENDBRANCH   1  11
TORSDOF 14
ENDMDL
MODEL 8
REMARK VINA RESULT:    -3.924      3.195      5.543
REMARK INTER + INTRA:          -8.984
REMARK INTER:                  -6.523
REMARK INTRA:                  -2.461
REMARK UNBOUND:                -1.849
REMARK SMILES CCCCCCCCCCCCCCCC(=O)[O-]
REMARK SMILES IDX 9 1 10 2 11 3 12 4 13 5 14 6 15 7 16 8 17 9 18 10 8 11 7 12
REMARK SMILES IDX 6 13 5 14 4 15 3 16 2 17 1 18
REMARK H PARENT
REMARK Flexibility Score: inf
ROOT
ATOM      1  C   UNL     1      44.470   3.368  19.966  1.00  0.00     0.000 C 
ENDROOT
BRANCH   1   2
ATOM      2  C   UNL     1      45.521   3.788  21.006  1.00  0.00     0.000 C 
BRANCH   2   3
ATOM      3  C   UNL     1      46.930   3.265  20.671  1.00  0.00     0.000 C 
BRANCH   3   4
ATOM      4  C   UNL     1      46.905   1.887  19.988  1.00  0.00     0.000 C 
BRANCH   4   5
ATOM      5  C   UNL     1      47.799   0.816  20.647  1.00  0.00     0.000 C 
BRANCH   5   6
ATOM      6  C   UNL     1      48.720   1.334  21.771  1.00  0.00     0.006 C 
BRANCH   6   7
ATOM      7  C   UNL     1      50.211   1.378  21.400  1.00  0.00     0.053 C 
BRANCH   7   8
ATOM      8  C   UNL     1      50.577   2.650  20.699  1.00  0.00     0.041 C 
ATOM      9  O   UNL     1      51.135   2.614  19.571  1.00  0.00    -0.550 OA
ATOM     10  O   UNL     1      50.334   3.875  21.307  1.00  0.00    -0.550 OA
ENDBRANCH   7   8
ENDBRANCH   6   7
ENDBRANCH   5   6
ENDBRANCH   4   5
ENDBRANCH   3   4
ENDBRANCH   2   3
ENDBRANCH   1   2
BRANCH   1  11
ATOM     11  C   UNL     1      43.240   2.704  20.608  1.00  0.00     0.000 C 
BRANCH  11  12
ATOM     12  C   UNL     1      43.532   2.149  22.011  1.00  0.00    -0.000 C 
BRANCH  12  13
ATOM     13  C   UNL     1      43.474   0.615  22.067  1.00  0.00    -0.000 C 
BRANCH  13  14
ATOM     14  C   UNL     1      44.744   0.040  22.704  1.00  0.00    -0.000 C 
BRANCH  14  15
ATOM     15  C   UNL     1      45.426   1.075  23.608  1.00  0.00    -0.000 C 
BRANCH  15  16
ATOM     16  C   UNL     1      46.474   0.410  24.512  1.00  0.00    -0.000 C 
BRANCH  16  17
ATOM     17  C   UNL     1      46.650  -1.086  24.211  1.00  0.00    -0.003 C 
ATOM     18  C   UNL     1      48.118  -1.502  24.122  1.00  0.00     0.004 C 
ENDBRANCH  16  17
ENDBRANCH  15  16
ENDBRANCH  14  15
ENDBRANCH  13  14
ENDBRANCH  12  13
ENDBRANCH  11  12
ENDBRANCH   1  11
TORSDOF 14
ENDMDL
MODEL 9
REMARK VINA RESULT:    -3.906      1.376      5.315
REMARK INTER + INTRA:          -8.952
REMARK INTER:                  -7.265
REMARK INTRA:                  -1.687
REMARK UNBOUND:                -1.849
REMARK SMILES CCCCCCCCCCCCCCCC(=O)[O-]
REMARK SMILES IDX 9 1 10 2 11 3 12 4 13 5 14 6 15 7 16 8 17 9 18 10 8 11 7 12
REMARK SMILES IDX 6 13 5 14 4 15 3 16 2 17 1 18
REMARK H PARENT
REMARK Flexibility Score: inf
ROOT
ATOM      1  C   UNL     1      46.969   2.651  20.275  1.00  0.00     0.000 C 
ENDROOT
BRANCH   1   2
ATOM      2  C   UNL     1      46.573   1.321  20.935  1.00  0.00     0.000 C 
BRANCH   2   3
ATOM      3  C   UNL     1      47.781   0.401  21.188  1.00  0.00     0.000 C 
BRANCH   3   4
ATOM      4  C   UNL     1      48.773   0.991  22.206  1.00  0.00     0.000 C 
BRANCH   4   5
ATOM      5  C   UNL     1      50.246   1.001  21.749  1.00  0.00     0.000 C 
BRANCH   5   6
ATOM      6  C   UNL     1      50.817   2.394  21.413  1.00  0.00     0.006 C 
BRANCH   6   7
ATOM      7  C   UNL     1      50.702   2.786  19.931  1.00  0.00     0.053 C 
BRANCH   7   8
ATOM      8  C   UNL     1      52.045   2.931  19.284  1.00  0.00     0.041 C 
ATOM      9  O   UNL     1      52.737   1.912  19.025  1.00  0.00    -0.550 OA
ATOM     10  O   UNL     1      52.547   4.194  18.997  1.00  0.00    -0.550 OA
ENDBRANCH   7   8
ENDBRANCH   6   7
ENDBRANCH   5   6
ENDBRANCH   4   5
ENDBRANCH   3   4
ENDBRANCH   2   3
ENDBRANCH   1   2
BRANCH   1  11
ATOM     11  C   UNL     1      46.488   3.872  21.078  1.00  0.00     0.000 C 
BRANCH  11  12
ATOM     12  C   UNL     1      47.558   4.401  22.047  1.00  0.00    -0.000 C 
BRANCH  12  13
ATOM     13  C   UNL     1      48.567   5.336  21.364  1.00  0.00    -0.000 C 
BRANCH  13  14
ATOM     14  C   UNL     1      48.121   6.799  21.474  1.00  0.00    -0.000 C 
BRANCH  14  15
ATOM     15  C   UNL     1      49.023   7.716  20.639  1.00  0.00    -0.000 C 
BRANCH  15  16
ATOM     16  C   UNL     1      50.415   7.095  20.451  1.00  0.00    -0.000 C 
BRANCH  16  17
ATOM     17  C   UNL     1      51.253   7.832  19.396  1.00  0.00    -0.003 C 
ATOM     18  C   UNL     1      50.557   9.081  18.855  1.00  0.00     0.004 C 
ENDBRANCH  16  17
ENDBRANCH  15  16
ENDBRANCH  14  15
ENDBRANCH  13  14
ENDBRANCH  12  13
ENDBRANCH  11  12
ENDBRANCH   1  11
TORSDOF 14
ENDMDL
