MODEL 1
REMARK VINA RESULT:    -5.301      0.000      0.000
REMARK INTER + INTRA:          -6.125
REMARK INTER:                  -6.075
REMARK INTRA:                  -0.050
REMARK UNBOUND:                -0.050
REMARK SMILES O=C([O-])c1cc(O)c(O)c(O)c1
REMARK SMILES IDX 4 1 5 2 12 3 6 4 10 5 8 6 2 7 1 8 3 9 7 10 11 12 9 14
REMARK H PARENT 7 11 11 13 9 15
REMARK Flexibility Score: inf
ROOT
ATOM      1  C   UNL     1      10.635 -27.263 -10.740  1.00  0.00     0.005 A 
ATOM      2  C   UNL     1       9.909 -26.771 -11.836  1.00  0.00     0.060 A 
ATOM      3  C   UNL     1      11.323 -26.356  -9.914  1.00  0.00     0.060 A 
ATOM      4  C   UNL     1       9.867 -25.400 -12.109  1.00  0.00     0.162 A 
ATOM      5  C   UNL     1      11.286 -24.979 -10.181  1.00  0.00     0.162 A 
ATOM      6  C   UNL     1      10.556 -24.498 -11.281  1.00  0.00     0.200 A 
ENDROOT
BRANCH   1   7
ATOM      7  C   UNL     1      10.673 -28.716 -10.459  1.00  0.00     0.072 C 
ATOM      8  O   UNL     1      10.711 -29.138  -9.273  1.00  0.00    -0.545 OA
ATOM      9  O   UNL     1      10.668 -29.634 -11.503  1.00  0.00    -0.545 OA
ENDBRANCH   1   7
BRANCH   4  10
ATOM     10  O   UNL     1       9.135 -24.952 -13.208  1.00  0.00    -0.504 OA
ATOM     11  H   UNL     1       8.362 -25.480 -13.593  1.00  0.00     0.293 HD
ENDBRANCH   4  10
BRANCH   5  12
ATOM     12  O   UNL     1      11.973 -24.090  -9.356  1.00  0.00    -0.504 OA
ATOM     13  H   UNL     1      11.737 -23.104  -9.324  1.00  0.00     0.293 HD
ENDBRANCH   5  12
BRANCH   6  14
ATOM     14  O   UNL     1      10.510 -23.132 -11.560  1.00  0.00    -0.502 OA
ATOM     15  H   UNL     1      10.703 -22.761 -12.483  1.00  0.00     0.293 HD
ENDBRANCH   6  14
TORSDOF 4
ENDMDL
MODEL 2
REMARK VINA RESULT:    -5.293      0.053      2.429
REMARK INTER + INTRA:          -6.117
REMARK INTER:                  -6.067
REMARK INTRA:                  -0.050
REMARK UNBOUND:                -0.050
REMARK SMILES O=C([O-])c1cc(O)c(O)c(O)c1
REMARK SMILES IDX 4 1 5 2 12 3 6 4 10 5 8 6 2 7 1 8 3 9 7 10 11 12 9 14
REMARK H PARENT 7 11 11 13 9 15
REMARK Flexibility Score: inf
ROOT
ATOM      1  C   UNL     1      10.616 -27.236 -10.747  1.00  0.00     0.005 A 
ATOM      2  C   UNL     1      11.317 -26.335  -9.931  1.00  0.00     0.060 A 
ATOM      3  C   UNL     1       9.865 -26.738 -11.826  1.00  0.00     0.060 A 
ATOM      4  C   UNL     1      11.273 -24.960 -10.182  1.00  0.00     0.162 A 
ATOM      5  C   UNL     1       9.815 -25.360 -12.085  1.00  0.00     0.162 A 
ATOM      6  C   UNL     1      10.521 -24.467 -11.262  1.00  0.00     0.200 A 
ENDROOT
BRANCH   1   7
ATOM      7  C   UNL     1      10.669 -28.690 -10.473  1.00  0.00     0.072 C 
ATOM      8  O   UNL     1      10.722 -29.118  -9.290  1.00  0.00    -0.545 OA
ATOM      9  O   UNL     1      10.661 -29.604 -11.521  1.00  0.00    -0.545 OA
ENDBRANCH   1   7
BRANCH   4  10
ATOM     10  O   UNL     1      11.984 -24.097  -9.348  1.00  0.00    -0.504 OA
ATOM     11  H   UNL     1      12.734 -24.421  -8.748  1.00  0.00     0.293 HD
ENDBRANCH   4  10
BRANCH   5  12
ATOM     12  O   UNL     1       9.067 -24.878 -13.158  1.00  0.00    -0.504 OA
ATOM     13  H   UNL     1       8.201 -24.370 -13.016  1.00  0.00     0.293 HD
ENDBRANCH   5  12
BRANCH   6  14
ATOM     14  O   UNL     1      10.482 -23.094 -11.506  1.00  0.00    -0.502 OA
ATOM     15  H   UNL     1      10.296 -22.419 -10.773  1.00  0.00     0.293 HD
ENDBRANCH   6  14
TORSDOF 4
ENDMDL
MODEL 3
REMARK VINA RESULT:    -4.979      2.763      3.806
REMARK INTER + INTRA:          -5.757
REMARK INTER:                  -5.712
REMARK INTRA:                  -0.045
REMARK UNBOUND:                -0.050
REMARK SMILES O=C([O-])c1cc(O)c(O)c(O)c1
REMARK SMILES IDX 4 1 5 2 12 3 6 4 10 5 8 6 2 7 1 8 3 9 7 10 11 12 9 14
REMARK H PARENT 7 11 11 13 9 15
REMARK Flexibility Score: inf
ROOT
ATOM      1  C   UNL     1       9.394 -25.789 -10.434  1.00  0.00     0.005 A 
ATOM      2  C   UNL     1       8.462 -25.490  -9.429  1.00  0.00     0.060 A 
ATOM      3  C   UNL     1       9.123 -25.396 -11.756  1.00  0.00     0.060 A 
ATOM      4  C   UNL     1       7.278 -24.810  -9.732  1.00  0.00     0.162 A 
ATOM      5  C   UNL     1       7.938 -24.714 -12.069  1.00  0.00     0.162 A 
ATOM      6  C   UNL     1       7.012 -24.419 -11.055  1.00  0.00     0.200 A 
ENDROOT
BRANCH   1   7
ATOM      7  C   UNL     1      10.645 -26.510 -10.104  1.00  0.00     0.072 C 
ATOM      8  O   UNL     1      10.660 -27.766 -10.029  1.00  0.00    -0.545 OA
ATOM      9  O   UNL     1      11.822 -25.806  -9.871  1.00  0.00    -0.545 OA
ENDBRANCH   1   7
BRANCH   4  10
ATOM     10  O   UNL     1       6.377 -24.531  -8.704  1.00  0.00    -0.504 OA
ATOM     11  H   UNL     1       5.440 -24.192  -8.885  1.00  0.00     0.293 HD
ENDBRANCH   4  10
BRANCH   5  12
ATOM     12  O   UNL     1       7.680 -24.329 -13.384  1.00  0.00    -0.504 OA
ATOM     13  H   UNL     1       7.640 -23.352 -13.653  1.00  0.00     0.293 HD
ENDBRANCH   5  12
BRANCH   6  14
ATOM     14  O   UNL     1       5.828 -23.741 -11.349  1.00  0.00    -0.502 OA
ATOM     15  H   UNL     1       5.628 -23.376 -12.273  1.00  0.00     0.293 HD
ENDBRANCH   6  14
TORSDOF 4
ENDMDL
MODEL 4
REMARK VINA RESULT:    -4.972      2.808      3.319
REMARK INTER + INTRA:          -5.749
REMARK INTER:                  -5.703
REMARK INTRA:                  -0.045
REMARK UNBOUND:                -0.050
REMARK SMILES O=C([O-])c1cc(O)c(O)c(O)c1
REMARK SMILES IDX 4 1 5 2 12 3 6 4 10 5 8 6 2 7 1 8 3 9 7 10 11 12 9 14
REMARK H PARENT 7 11 11 13 9 15
REMARK Flexibility Score: inf
ROOT
ATOM      1  C   UNL     1       9.442 -25.760 -10.416  1.00  0.00     0.005 A 
ATOM      2  C   UNL     1       9.140 -25.290 -11.703  1.00  0.00     0.060 A 
ATOM      3  C   UNL     1       8.500 -25.584  -9.387  1.00  0.00     0.060 A 
ATOM      4  C   UNL     1       7.921 -24.656 -11.966  1.00  0.00     0.162 A 
ATOM      5  C   UNL     1       7.276 -24.950  -9.641  1.00  0.00     0.162 A 
ATOM      6  C   UNL     1       6.983 -24.484 -10.934  1.00  0.00     0.200 A 
ENDROOT
BRANCH   1   7
ATOM      7  C   UNL     1      10.735 -26.430 -10.148  1.00  0.00     0.072 C 
ATOM      8  O   UNL     1      11.809 -25.772 -10.147  1.00  0.00    -0.545 OA
ATOM      9  O   UNL     1      10.780 -27.796  -9.894  1.00  0.00    -0.545 OA
ENDBRANCH   1   7
BRANCH   4  10
ATOM     10  O   UNL     1       7.659 -24.204 -13.259  1.00  0.00    -0.504 OA
ATOM     11  H   UNL     1       6.971 -24.646 -13.856  1.00  0.00     0.293 HD
ENDBRANCH   4  10
BRANCH   5  12
ATOM     12  O   UNL     1       6.349 -24.782  -8.613  1.00  0.00    -0.504 OA
ATOM     13  H   UNL     1       6.470 -25.229  -7.711  1.00  0.00     0.293 HD
ENDBRANCH   5  12
BRANCH   6  14
ATOM     14  O   UNL     1       5.770 -23.850 -11.203  1.00  0.00    -0.502 OA
ATOM     15  H   UNL     1       4.884 -24.340 -11.169  1.00  0.00     0.293 HD
ENDBRANCH   6  14
TORSDOF 4
ENDMDL
MODEL 5
REMARK VINA RESULT:    -4.951     12.434     13.441
REMARK INTER + INTRA:          -5.724
REMARK INTER:                  -5.679
REMARK INTRA:                  -0.045
REMARK UNBOUND:                -0.050
REMARK SMILES O=C([O-])c1cc(O)c(O)c(O)c1
REMARK SMILES IDX 4 1 5 2 12 3 6 4 10 5 8 6 2 7 1 8 3 9 7 10 11 12 9 14
REMARK H PARENT 7 11 11 13 9 15
REMARK Flexibility Score: inf
ROOT
ATOM      1  C   UNL     1      16.361 -32.516 -20.318  1.00  0.00     0.005 A 
ATOM      2  C   UNL     1      17.134 -33.244 -21.235  1.00  0.00     0.060 A 
ATOM      3  C   UNL     1      16.760 -31.213 -19.972  1.00  0.00     0.060 A 
ATOM      4  C   UNL     1      18.286 -32.687 -21.801  1.00  0.00     0.162 A 
ATOM      5  C   UNL     1      17.913 -30.647 -20.535  1.00  0.00     0.162 A 
ATOM      6  C   UNL     1      18.680 -31.384 -21.452  1.00  0.00     0.200 A 
ENDROOT
BRANCH   1   7
ATOM      7  C   UNL     1      15.144 -33.114 -19.725  1.00  0.00     0.072 C 
ATOM      8  O   UNL     1      14.042 -33.060 -20.333  1.00  0.00    -0.545 OA
ATOM      9  O   UNL     1      15.200 -33.744 -18.487  1.00  0.00    -0.545 OA
ENDBRANCH   1   7
BRANCH   4  10
ATOM     10  O   UNL     1      19.027 -33.444 -22.708  1.00  0.00    -0.504 OA
ATOM     11  H   UNL     1      19.981 -33.728 -22.522  1.00  0.00     0.293 HD
ENDBRANCH   4  10
BRANCH   5  12
ATOM     12  O   UNL     1      18.298 -29.353 -20.184  1.00  0.00    -0.504 OA
ATOM     13  H   UNL     1      17.673 -28.563 -20.297  1.00  0.00     0.293 HD
ENDBRANCH   5  12
BRANCH   6  14
ATOM     14  O   UNL     1      19.830 -30.836 -22.020  1.00  0.00    -0.502 OA
ATOM     15  H   UNL     1      20.748 -31.242 -21.884  1.00  0.00     0.293 HD
ENDBRANCH   6  14
TORSDOF 4
ENDMDL
MODEL 6
REMARK VINA RESULT:    -4.949     12.470     13.578
REMARK INTER + INTRA:          -5.722
REMARK INTER:                  -5.677
REMARK INTRA:                  -0.045
REMARK UNBOUND:                -0.050
REMARK SMILES O=C([O-])c1cc(O)c(O)c(O)c1
REMARK SMILES IDX 4 1 5 2 12 3 6 4 10 5 8 6 2 7 1 8 3 9 7 10 11 12 9 14
REMARK H PARENT 7 11 11 13 9 15
REMARK Flexibility Score: inf
ROOT
ATOM      1  C   UNL     1      16.390 -32.478 -20.334  1.00  0.00     0.005 A 
ATOM      2  C   UNL     1      16.803 -31.168 -20.045  1.00  0.00     0.060 A 
ATOM      3  C   UNL     1      17.153 -33.255 -21.222  1.00  0.00     0.060 A 
ATOM      4  C   UNL     1      17.957 -30.637 -20.631  1.00  0.00     0.162 A 
ATOM      5  C   UNL     1      18.312 -32.731 -21.814  1.00  0.00     0.162 A 
ATOM      6  C   UNL     1      18.717 -31.418 -21.518  1.00  0.00     0.200 A 
ENDROOT
BRANCH   1   7
ATOM      7  C   UNL     1      15.167 -33.031 -19.709  1.00  0.00     0.072 C 
ATOM      8  O   UNL     1      14.036 -32.830 -20.226  1.00  0.00    -0.545 OA
ATOM      9  O   UNL     1      15.250 -33.779 -18.540  1.00  0.00    -0.545 OA
ENDBRANCH   1   7
BRANCH   4  10
ATOM     10  O   UNL     1      18.334 -29.331 -20.319  1.00  0.00    -0.504 OA
ATOM     11  H   UNL     1      17.922 -28.820 -19.547  1.00  0.00     0.293 HD
ENDBRANCH   4  10
BRANCH   5  12
ATOM     12  O   UNL     1      19.061 -33.511 -22.693  1.00  0.00    -0.504 OA
ATOM     13  H   UNL     1      20.028 -33.293 -22.906  1.00  0.00     0.293 HD
ENDBRANCH   5  12
BRANCH   6  14
ATOM     14  O   UNL     1      19.867 -30.882 -22.099  1.00  0.00    -0.502 OA
ATOM     15  H   UNL     1      20.472 -30.238 -21.605  1.00  0.00     0.293 HD
ENDBRANCH   6  14
TORSDOF 4
ENDMDL
MODEL 7
REMARK VINA RESULT:    -4.693      2.572      4.157
REMARK INTER + INTRA:          -5.428
REMARK INTER:                  -5.376
REMARK INTRA:                  -0.052
REMARK UNBOUND:                -0.050
REMARK SMILES O=C([O-])c1cc(O)c(O)c(O)c1
REMARK SMILES IDX 4 1 5 2 12 3 6 4 10 5 8 6 2 7 1 8 3 9 7 10 11 12 9 14
REMARK H PARENT 7 11 11 13 9 15
REMARK Flexibility Score: inf
ROOT
ATOM      1  C   UNL     1       8.531 -24.843 -10.445  1.00  0.00     0.005 A 
ATOM      2  C   UNL     1       9.673 -25.228  -9.725  1.00  0.00     0.060 A 
ATOM      3  C   UNL     1       8.666 -24.473 -11.794  1.00  0.00     0.060 A 
ATOM      4  C   UNL     1      10.931 -25.246 -10.337  1.00  0.00     0.162 A 
ATOM      5  C   UNL     1       9.923 -24.488 -12.415  1.00  0.00     0.162 A 
ATOM      6  C   UNL     1      11.061 -24.875 -11.686  1.00  0.00     0.200 A 
ENDROOT
BRANCH   1   7
ATOM      7  C   UNL     1       7.204 -24.828  -9.788  1.00  0.00     0.072 C 
ATOM      8  O   UNL     1       6.238 -24.210 -10.309  1.00  0.00    -0.545 OA
ATOM      9  O   UNL     1       7.006 -25.497  -8.586  1.00  0.00    -0.545 OA
ENDBRANCH   1   7
BRANCH   4  10
ATOM     10  O   UNL     1      12.041 -25.634  -9.588  1.00  0.00    -0.504 OA
ATOM     11  H   UNL     1      12.769 -24.981  -9.324  1.00  0.00     0.293 HD
ENDBRANCH   4  10
BRANCH   5  12
ATOM     12  O   UNL     1      10.045 -24.119 -13.754  1.00  0.00    -0.504 OA
ATOM     13  H   UNL     1       9.967 -24.799 -14.502  1.00  0.00     0.293 HD
ENDBRANCH   5  12
BRANCH   6  14
ATOM     14  O   UNL     1      12.319 -24.895 -12.289  1.00  0.00    -0.502 OA
ATOM     15  H   UNL     1      12.509 -25.431 -13.127  1.00  0.00     0.293 HD
ENDBRANCH   6  14
TORSDOF 4
ENDMDL
MODEL 8
REMARK VINA RESULT:    -4.506      8.931     11.003
REMARK INTER + INTRA:          -5.214
REMARK INTER:                  -5.161
REMARK INTRA:                  -0.053
REMARK UNBOUND:                -0.050
REMARK SMILES O=C([O-])c1cc(O)c(O)c(O)c1
REMARK SMILES IDX 4 1 5 2 12 3 6 4 10 5 8 6 2 7 1 8 3 9 7 10 11 12 9 14
REMARK H PARENT 7 11 11 13 9 15
REMARK Flexibility Score: inf
ROOT
ATOM      1  C   UNL     1       9.002 -33.065 -18.714  1.00  0.00     0.005 A 
ATOM      2  C   UNL     1       9.656 -34.187 -19.247  1.00  0.00     0.060 A 
ATOM      3  C   UNL     1       9.366 -32.604 -17.437  1.00  0.00     0.060 A 
ATOM      4  C   UNL     1      10.657 -34.842 -18.522  1.00  0.00     0.162 A 
ATOM      5  C   UNL     1      10.369 -33.255 -16.703  1.00  0.00     0.162 A 
ATOM      6  C   UNL     1      11.017 -34.378 -17.245  1.00  0.00     0.200 A 
ENDROOT
BRANCH   1   7
ATOM      7  C   UNL     1       7.944 -32.378 -19.490  1.00  0.00     0.072 C 
ATOM      8  O   UNL     1       7.662 -32.752 -20.659  1.00  0.00    -0.545 OA
ATOM      9  O   UNL     1       7.247 -31.310 -18.936  1.00  0.00    -0.545 OA
ENDBRANCH   1   7
BRANCH   4  10
ATOM     10  O   UNL     1      11.282 -35.954 -19.085  1.00  0.00    -0.504 OA
ATOM     11  H   UNL     1      12.281 -36.107 -19.011  1.00  0.00     0.293 HD
ENDBRANCH   4  10
BRANCH   5  12
ATOM     12  O   UNL     1      10.722 -32.789 -15.438  1.00  0.00    -0.504 OA
ATOM     13  H   UNL     1      10.097 -32.205 -14.893  1.00  0.00     0.293 HD
ENDBRANCH   5  12
BRANCH   6  14
ATOM     14  O   UNL     1      12.016 -35.036 -16.528  1.00  0.00    -0.502 OA
ATOM     15  H   UNL     1      12.696 -34.539 -15.965  1.00  0.00     0.293 HD
ENDBRANCH   6  14
TORSDOF 4
ENDMDL
MODEL 9
REMARK VINA RESULT:    -4.491     10.299     11.508
REMARK INTER + INTRA:          -5.197
REMARK INTER:                  -5.152
REMARK INTRA:                  -0.045
REMARK UNBOUND:                -0.050
REMARK SMILES O=C([O-])c1cc(O)c(O)c(O)c1
REMARK SMILES IDX 4 1 5 2 12 3 6 4 10 5 8 6 2 7 1 8 3 9 7 10 11 12 9 14
REMARK H PARENT 7 11 11 13 9 15
REMARK Flexibility Score: inf
ROOT
ATOM      1  C   UNL     1       9.444 -33.162 -19.326  1.00  0.00     0.005 A 
ATOM      2  C   UNL     1       9.576 -34.535 -19.065  1.00  0.00     0.060 A 
ATOM      3  C   UNL     1      10.558 -32.323 -19.146  1.00  0.00     0.060 A 
ATOM      4  C   UNL     1      10.795 -35.066 -18.631  1.00  0.00     0.162 A 
ATOM      5  C   UNL     1      11.784 -32.847 -18.712  1.00  0.00     0.162 A 
ATOM      6  C   UNL     1      11.905 -34.223 -18.452  1.00  0.00     0.200 A 
ENDROOT
BRANCH   1   7
ATOM      7  C   UNL     1       8.150 -32.610 -19.786  1.00  0.00     0.072 C 
ATOM      8  O   UNL     1       7.254 -32.301 -18.956  1.00  0.00    -0.545 OA
ATOM      9  O   UNL     1       7.906 -32.424 -21.142  1.00  0.00    -0.545 OA
ENDBRANCH   1   7
BRANCH   4  10
ATOM     10  O   UNL     1      10.885 -36.435 -18.381  1.00  0.00    -0.504 OA
ATOM     11  H   UNL     1      10.763 -37.126 -19.111  1.00  0.00     0.293 HD
ENDBRANCH   4  10
BRANCH   5  12
ATOM     12  O   UNL     1      12.880 -32.004 -18.537  1.00  0.00    -0.504 OA
ATOM     13  H   UNL     1      13.823 -32.305 -18.760  1.00  0.00     0.293 HD
ENDBRANCH   5  12
BRANCH   6  14
ATOM     14  O   UNL     1      13.118 -34.760 -18.019  1.00  0.00    -0.502 OA
ATOM     15  H   UNL     1      13.750 -35.243 -18.645  1.00  0.00     0.293 HD
ENDBRANCH   6  14
TORSDOF 4
ENDMDL
