MODEL 1
REMARK VINA RESULT:    -2.965      0.000      0.000
REMARK INTER + INTRA:          -7.064
REMARK INTER:                  -5.564
REMARK INTRA:                  -1.500
REMARK UNBOUND:                -1.500
REMARK SMILES O=C([O-])CCCCCCCCCCCCCCC(=O)[O-]
REMARK SMILES IDX 10 1 9 2 8 3 7 4 6 5 5 6 4 7 2 8 1 9 3 10 11 11 12 12 13 13
REMARK SMILES IDX 14 14 15 15 16 16 17 17 18 18 19 19 20 20
REMARK H PARENT
REMARK Flexibility Score: inf
ROOT
ATOM      1  C   UNL     1     -21.317  28.757 -21.003  1.00  0.00     0.000 C 
ENDROOT
BRANCH   1   2
ATOM      2  C   UNL     1     -22.107  27.658 -21.723  1.00  0.00     0.000 C 
BRANCH   2   3
ATOM      3  C   UNL     1     -23.522  28.134 -22.076  1.00  0.00     0.000 C 
BRANCH   3   4
ATOM      4  C   UNL     1     -23.636  29.660 -21.950  1.00  0.00     0.000 C 
BRANCH   4   5
ATOM      5  C   UNL     1     -24.805  30.095 -21.052  1.00  0.00     0.000 C 
BRANCH   5   6
ATOM      6  C   UNL     1     -24.964  29.199 -19.811  1.00  0.00     0.006 C 
BRANCH   6   7
ATOM      7  C   UNL     1     -24.257  29.784 -18.581  1.00  0.00     0.053 C 
BRANCH   7   8
ATOM      8  C   UNL     1     -23.223  28.848 -18.031  1.00  0.00     0.041 C 
ATOM      9  O   UNL     1     -22.179  29.304 -17.494  1.00  0.00    -0.550 OA
ATOM     10  O   UNL     1     -23.398  27.475 -18.142  1.00  0.00    -0.550 OA
ENDBRANCH   7   8
ENDBRANCH   6   7
ENDBRANCH   5   6
ENDBRANCH   4   5
ENDBRANCH   3   4
ENDBRANCH   2   3
ENDBRANCH   1   2
BRANCH   1  11
ATOM     11  C   UNL     1     -20.018  28.198 -20.404  1.00  0.00     0.000 C 
BRANCH  11  12
ATOM     12  C   UNL     1     -18.766  28.941 -20.898  1.00  0.00     0.000 C 
BRANCH  12  13
ATOM     13  C   UNL     1     -17.503  28.565 -20.103  1.00  0.00     0.000 C 
BRANCH  13  14
ATOM     14  C   UNL     1     -16.428  29.664 -20.152  1.00  0.00     0.000 C 
BRANCH  14  15
ATOM     15  C   UNL     1     -16.635  30.640 -21.325  1.00  0.00     0.000 C 
BRANCH  15  16
ATOM     16  C   UNL     1     -15.697  30.346 -22.507  1.00  0.00     0.006 C 
BRANCH  16  17
ATOM     17  C   UNL     1     -16.386  29.554 -23.627  1.00  0.00     0.053 C 
BRANCH  17  18
ATOM     18  C   UNL     1     -16.017  28.106 -23.540  1.00  0.00     0.041 C 
ATOM     19  O   UNL     1     -16.637  27.252 -24.228  1.00  0.00    -0.550 OA
ATOM     20  O   UNL     1     -14.955  27.705 -22.739  1.00  0.00    -0.550 OA
ENDBRANCH  17  18
ENDBRANCH  16  17
ENDBRANCH  15  16
ENDBRANCH  14  15
ENDBRANCH  13  14
ENDBRANCH  12  13
ENDBRANCH  11  12
ENDBRANCH   1  11
TORSDOF 15
ENDMDL
MODEL 2
REMARK VINA RESULT:    -2.964     14.335     16.387
REMARK INTER + INTRA:          -7.063
REMARK INTER:                  -5.039
REMARK INTRA:                  -2.024
REMARK UNBOUND:                -1.500
REMARK SMILES O=C([O-])CCCCCCCCCCCCCCC(=O)[O-]
REMARK SMILES IDX 10 1 9 2 8 3 7 4 6 5 5 6 4 7 2 8 1 9 3 10 11 11 12 12 13 13
REMARK SMILES IDX 14 14 15 15 16 16 17 17 18 18 19 19 20 20
REMARK H PARENT
REMARK Flexibility Score: inf
ROOT
ATOM      1  C   UNL     1     -20.960  12.948 -24.825  1.00  0.00     0.000 C 
ENDROOT
BRANCH   1   2
ATOM      2  C   UNL     1     -19.620  13.685 -24.712  1.00  0.00     0.000 C 
BRANCH   2   3
ATOM      3  C   UNL     1     -18.471  12.706 -24.435  1.00  0.00     0.000 C 
BRANCH   3   4
ATOM      4  C   UNL     1     -17.360  13.381 -23.619  1.00  0.00     0.000 C 
BRANCH   4   5
ATOM      5  C   UNL     1     -17.700  14.832 -23.242  1.00  0.00     0.000 C 
BRANCH   5   6
ATOM      6  C   UNL     1     -17.754  15.051 -21.719  1.00  0.00     0.006 C 
BRANCH   6   7
ATOM      7  C   UNL     1     -17.632  13.735 -20.940  1.00  0.00     0.053 C 
BRANCH   7   8
ATOM      8  C   UNL     1     -17.411  13.968 -19.477  1.00  0.00     0.041 C 
ATOM      9  O   UNL     1     -17.216  12.994 -18.702  1.00  0.00    -0.550 OA
ATOM     10  O   UNL     1     -17.453  15.259 -18.964  1.00  0.00    -0.550 OA
ENDBRANCH   7   8
ENDBRANCH   6   7
ENDBRANCH   5   6
ENDBRANCH   4   5
ENDBRANCH   3   4
ENDBRANCH   2   3
ENDBRANCH   1   2
BRANCH   1  11
ATOM     11  C   UNL     1     -21.967  13.477 -23.793  1.00  0.00     0.000 C 
BRANCH  11  12
ATOM     12  C   UNL     1     -21.308  13.854 -22.456  1.00  0.00     0.000 C 
BRANCH  12  13
ATOM     13  C   UNL     1     -21.683  15.272 -21.991  1.00  0.00     0.000 C 
BRANCH  13  14
ATOM     14  C   UNL     1     -21.172  15.580 -20.573  1.00  0.00     0.000 C 
BRANCH  14  15
ATOM     15  C   UNL     1     -21.050  14.316 -19.702  1.00  0.00     0.000 C 
BRANCH  15  16
ATOM     16  C   UNL     1     -20.939  14.641 -18.204  1.00  0.00     0.006 C 
BRANCH  16  17
ATOM     17  C   UNL     1     -21.930  13.840 -17.349  1.00  0.00     0.053 C 
BRANCH  17  18
ATOM     18  C   UNL     1     -21.284  12.591 -16.837  1.00  0.00     0.041 C 
ATOM     19  O   UNL     1     -20.070  12.359 -17.082  1.00  0.00    -0.550 OA
ATOM     20  O   UNL     1     -22.007  11.708 -16.045  1.00  0.00    -0.550 OA
ENDBRANCH  17  18
ENDBRANCH  16  17
ENDBRANCH  15  16
ENDBRANCH  14  15
ENDBRANCH  13  14
ENDBRANCH  12  13
ENDBRANCH  11  12
ENDBRANCH   1  11
TORSDOF 15
ENDMDL
MODEL 3
REMARK VINA RESULT:    -2.912     13.989     15.279
REMARK INTER + INTRA:          -6.965
REMARK INTER:                  -5.065
REMARK INTRA:                  -1.900
REMARK UNBOUND:                -1.500
REMARK SMILES O=C([O-])CCCCCCCCCCCCCCC(=O)[O-]
REMARK SMILES IDX 10 1 9 2 8 3 7 4 6 5 5 6 4 7 2 8 1 9 3 10 11 11 12 12 13 13
REMARK SMILES IDX 14 14 15 15 16 16 17 17 18 18 19 19 20 20
REMARK H PARENT
REMARK Flexibility Score: inf
ROOT
ATOM      1  C   UNL     1     -21.516  15.257 -21.737  1.00  0.00     0.000 C 
ENDROOT
BRANCH   1   2
ATOM      2  C   UNL     1     -21.009  14.061 -20.923  1.00  0.00     0.000 C 
BRANCH   2   3
ATOM      3  C   UNL     1     -19.760  14.430 -20.113  1.00  0.00     0.000 C 
BRANCH   3   4
ATOM      4  C   UNL     1     -19.942  14.075 -18.631  1.00  0.00     0.000 C 
BRANCH   4   5
ATOM      5  C   UNL     1     -21.306  13.430 -18.339  1.00  0.00     0.000 C 
BRANCH   5   6
ATOM      6  C   UNL     1     -22.168  14.273 -17.382  1.00  0.00     0.006 C 
BRANCH   6   7
ATOM      7  C   UNL     1     -22.559  13.495 -16.119  1.00  0.00     0.053 C 
BRANCH   7   8
ATOM      8  C   UNL     1     -21.365  12.907 -15.431  1.00  0.00     0.041 C 
ATOM      9  O   UNL     1     -20.542  13.656 -14.839  1.00  0.00    -0.550 OA
ATOM     10  O   UNL     1     -21.143  11.536 -15.470  1.00  0.00    -0.550 OA
ENDBRANCH   7   8
ENDBRANCH   6   7
ENDBRANCH   5   6
ENDBRANCH   4   5
ENDBRANCH   3   4
ENDBRANCH   2   3
ENDBRANCH   1   2
BRANCH   1  11
ATOM     11  C   UNL     1     -21.856  14.840 -23.175  1.00  0.00     0.000 C 
BRANCH  11  12
ATOM     12  C   UNL     1     -21.882  13.314 -23.362  1.00  0.00     0.000 C 
BRANCH  12  13
ATOM     13  C   UNL     1     -21.161  12.864 -24.645  1.00  0.00     0.000 C 
BRANCH  13  14
ATOM     14  C   UNL     1     -19.841  13.619 -24.875  1.00  0.00     0.000 C 
BRANCH  14  15
ATOM     15  C   UNL     1     -18.638  12.917 -24.218  1.00  0.00     0.000 C 
BRANCH  15  16
ATOM     16  C   UNL     1     -17.860  13.843 -23.270  1.00  0.00     0.006 C 
BRANCH  16  17
ATOM     17  C   UNL     1     -17.970  15.323 -23.665  1.00  0.00     0.053 C 
BRANCH  17  18
ATOM     18  C   UNL     1     -17.793  16.196 -22.463  1.00  0.00     0.041 C 
ATOM     19  O   UNL     1     -16.829  16.002 -21.675  1.00  0.00    -0.550 OA
ATOM     20  O   UNL     1     -18.662  17.257 -22.239  1.00  0.00    -0.550 OA
ENDBRANCH  17  18
ENDBRANCH  16  17
ENDBRANCH  15  16
ENDBRANCH  14  15
ENDBRANCH  13  14
ENDBRANCH  12  13
ENDBRANCH  11  12
ENDBRANCH   1  11
TORSDOF 15
ENDMDL
MODEL 4
REMARK VINA RESULT:    -2.905     13.995     16.349
REMARK INTER + INTRA:          -6.952
REMARK INTER:                  -4.895
REMARK INTRA:                  -2.057
REMARK UNBOUND:                -1.500
REMARK SMILES O=C([O-])CCCCCCCCCCCCCCC(=O)[O-]
REMARK SMILES IDX 10 1 9 2 8 3 7 4 6 5 5 6 4 7 2 8 1 9 3 10 11 11 12 12 13 13
REMARK SMILES IDX 14 14 15 15 16 16 17 17 18 18 19 19 20 20
REMARK H PARENT
REMARK Flexibility Score: inf
ROOT
ATOM      1  C   UNL     1     -21.037  15.326 -21.710  1.00  0.00     0.000 C 
ENDROOT
BRANCH   1   2
ATOM      2  C   UNL     1     -21.389  13.927 -22.229  1.00  0.00     0.000 C 
BRANCH   2   3
ATOM      3  C   UNL     1     -22.215  14.006 -23.519  1.00  0.00     0.000 C 
BRANCH   3   4
ATOM      4  C   UNL     1     -21.304  14.028 -24.754  1.00  0.00     0.000 C 
BRANCH   4   5
ATOM      5  C   UNL     1     -20.180  12.982 -24.680  1.00  0.00     0.000 C 
BRANCH   5   6
ATOM      6  C   UNL     1     -18.780  13.606 -24.821  1.00  0.00     0.006 C 
BRANCH   6   7
ATOM      7  C   UNL     1     -17.673  12.658 -24.340  1.00  0.00     0.053 C 
BRANCH   7   8
ATOM      8  C   UNL     1     -16.363  13.366 -24.175  1.00  0.00     0.041 C 
ATOM      9  O   UNL     1     -15.281  12.739 -24.328  1.00  0.00    -0.550 OA
ATOM     10  O   UNL     1     -16.337  14.709 -23.821  1.00  0.00    -0.550 OA
ENDBRANCH   7   8
ENDBRANCH   6   7
ENDBRANCH   5   6
ENDBRANCH   4   5
ENDBRANCH   3   4
ENDBRANCH   2   3
ENDBRANCH   1   2
BRANCH   1  11
ATOM     11  C   UNL     1     -19.516  15.537 -21.687  1.00  0.00     0.000 C 
BRANCH  11  12
ATOM     12  C   UNL     1     -18.748  14.295 -21.207  1.00  0.00     0.000 C 
BRANCH  12  13
ATOM     13  C   UNL     1     -18.214  14.446 -19.772  1.00  0.00     0.000 C 
BRANCH  13  14
ATOM     14  C   UNL     1     -18.477  13.198 -18.911  1.00  0.00     0.000 C 
BRANCH  14  15
ATOM     15  C   UNL     1     -19.834  13.256 -18.186  1.00  0.00     0.000 C 
BRANCH  15  16
ATOM     16  C   UNL     1     -20.239  14.690 -17.808  1.00  0.00     0.006 C 
BRANCH  16  17
ATOM     17  C   UNL     1     -21.728  14.970 -18.055  1.00  0.00     0.053 C 
BRANCH  17  18
ATOM     18  C   UNL     1     -22.550  14.444 -16.920  1.00  0.00     0.041 C 
ATOM     19  O   UNL     1     -22.730  15.146 -15.889  1.00  0.00    -0.550 OA
ATOM     20  O   UNL     1     -23.161  13.200 -17.021  1.00  0.00    -0.550 OA
ENDBRANCH  17  18
ENDBRANCH  16  17
ENDBRANCH  15  16
ENDBRANCH  14  15
ENDBRANCH  13  14
ENDBRANCH  12  13
ENDBRANCH  11  12
ENDBRANCH   1  11
TORSDOF 15
ENDMDL
MODEL 5
REMARK VINA RESULT:    -2.843     13.739     15.155
REMARK INTER + INTRA:          -6.837
REMARK INTER:                  -4.843
REMARK INTRA:                  -1.993
REMARK UNBOUND:                -1.500
REMARK SMILES O=C([O-])CCCCCCCCCCCCCCC(=O)[O-]
REMARK SMILES IDX 10 1 9 2 8 3 7 4 6 5 5 6 4 7 2 8 1 9 3 10 11 11 12 12 13 13
REMARK SMILES IDX 14 14 15 15 16 16 17 17 18 18 19 19 20 20
REMARK H PARENT
REMARK Flexibility Score: inf
ROOT
ATOM      1  C   UNL     1     -19.775  14.604 -20.451  1.00  0.00     0.000 C 
ENDROOT
BRANCH   1   2
ATOM      2  C   UNL     1     -20.028  16.057 -20.032  1.00  0.00     0.000 C 
BRANCH   2   3
ATOM      3  C   UNL     1     -19.323  16.383 -18.709  1.00  0.00     0.000 C 
BRANCH   3   4
ATOM      4  C   UNL     1     -20.287  16.238 -17.523  1.00  0.00     0.000 C 
BRANCH   4   5
ATOM      5  C   UNL     1     -21.760  16.190 -17.960  1.00  0.00     0.000 C 
BRANCH   5   6
ATOM      6  C   UNL     1     -22.513  14.984 -17.371  1.00  0.00     0.006 C 
BRANCH   6   7
ATOM      7  C   UNL     1     -21.712  13.681 -17.501  1.00  0.00     0.053 C 
BRANCH   7   8
ATOM      8  C   UNL     1     -21.607  12.956 -16.194  1.00  0.00     0.041 C 
ATOM      9  O   UNL     1     -21.907  11.735 -16.122  1.00  0.00    -0.550 OA
ATOM     10  O   UNL     1     -21.206  13.636 -15.051  1.00  0.00    -0.550 OA
ENDBRANCH   7   8
ENDBRANCH   6   7
ENDBRANCH   5   6
ENDBRANCH   4   5
ENDBRANCH   3   4
ENDBRANCH   2   3
ENDBRANCH   1   2
BRANCH   1  11
ATOM     11  C   UNL     1     -20.953  14.055 -21.268  1.00  0.00     0.000 C 
BRANCH  11  12
ATOM     12  C   UNL     1     -21.681  15.144 -22.072  1.00  0.00     0.000 C 
BRANCH  12  13
ATOM     13  C   UNL     1     -22.240  14.621 -23.407  1.00  0.00     0.000 C 
BRANCH  13  14
ATOM     14  C   UNL     1     -21.973  13.120 -23.610  1.00  0.00     0.000 C 
BRANCH  14  15
ATOM     15  C   UNL     1     -21.163  12.833 -24.888  1.00  0.00     0.000 C 
BRANCH  15  16
ATOM     16  C   UNL     1     -19.885  13.683 -24.979  1.00  0.00     0.006 C 
BRANCH  16  17
ATOM     17  C   UNL     1     -18.747  13.138 -24.105  1.00  0.00     0.053 C 
BRANCH  17  18
ATOM     18  C   UNL     1     -17.840  14.250 -23.680  1.00  0.00     0.041 C 
ATOM     19  O   UNL     1     -18.302  15.406 -23.490  1.00  0.00    -0.550 OA
ATOM     20  O   UNL     1     -16.494  13.998 -23.444  1.00  0.00    -0.550 OA
ENDBRANCH  17  18
ENDBRANCH  16  17
ENDBRANCH  15  16
ENDBRANCH  14  15
ENDBRANCH  13  14
ENDBRANCH  12  13
ENDBRANCH  11  12
ENDBRANCH   1  11
TORSDOF 15
ENDMDL
MODEL 6
REMARK VINA RESULT:    -2.812     14.741     16.136
REMARK INTER + INTRA:          -6.777
REMARK INTER:                  -5.299
REMARK INTRA:                  -1.479
REMARK UNBOUND:                -1.500
REMARK SMILES O=C([O-])CCCCCCCCCCCCCCC(=O)[O-]
REMARK SMILES IDX 10 1 9 2 8 3 7 4 6 5 5 6 4 7 2 8 1 9 3 10 11 11 12 12 13 13
REMARK SMILES IDX 14 14 15 15 16 16 17 17 18 18 19 19 20 20
REMARK H PARENT
REMARK Flexibility Score: inf
ROOT
ATOM      1  C   UNL     1     -20.145  14.992 -20.834  1.00  0.00     0.000 C 
ENDROOT
BRANCH   1   2
ATOM      2  C   UNL     1     -18.766  14.531 -21.320  1.00  0.00     0.000 C 
BRANCH   2   3
ATOM      3  C   UNL     1     -18.065  13.670 -20.262  1.00  0.00     0.000 C 
BRANCH   3   4
ATOM      4  C   UNL     1     -18.555  14.025 -18.851  1.00  0.00     0.000 C 
BRANCH   4   5
ATOM      5  C   UNL     1     -18.982  12.789 -18.044  1.00  0.00     0.000 C 
BRANCH   5   6
ATOM      6  C   UNL     1     -20.493  12.766 -17.750  1.00  0.00     0.006 C 
BRANCH   6   7
ATOM      7  C   UNL     1     -20.883  11.617 -16.811  1.00  0.00     0.053 C 
BRANCH   7   8
ATOM      8  C   UNL     1     -21.835  12.064 -15.744  1.00  0.00     0.041 C 
ATOM      9  O   UNL     1     -22.911  12.639 -16.057  1.00  0.00    -0.550 OA
ATOM     10  O   UNL     1     -21.520  11.873 -14.405  1.00  0.00    -0.550 OA
ENDBRANCH   7   8
ENDBRANCH   6   7
ENDBRANCH   5   6
ENDBRANCH   4   5
ENDBRANCH   3   4
ENDBRANCH   2   3
ENDBRANCH   1   2
BRANCH   1  11
ATOM     11  C   UNL     1     -21.266  14.255 -21.582  1.00  0.00     0.000 C 
BRANCH  11  12
ATOM     12  C   UNL     1     -21.736  15.004 -22.839  1.00  0.00     0.000 C 
BRANCH  12  13
ATOM     13  C   UNL     1     -22.140  14.052 -23.979  1.00  0.00     0.000 C 
BRANCH  13  14
ATOM     14  C   UNL     1     -21.033  13.897 -25.036  1.00  0.00     0.000 C 
BRANCH  14  15
ATOM     15  C   UNL     1     -19.955  12.880 -24.617  1.00  0.00     0.000 C 
BRANCH  15  16
ATOM     16  C   UNL     1     -18.534  13.458 -24.704  1.00  0.00     0.006 C 
BRANCH  16  17
ATOM     17  C   UNL     1     -17.452  12.428 -24.352  1.00  0.00     0.053 C 
BRANCH  17  18
ATOM     18  C   UNL     1     -16.254  13.111 -23.771  1.00  0.00     0.041 C 
ATOM     19  O   UNL     1     -15.282  12.432 -23.345  1.00  0.00    -0.550 OA
ATOM     20  O   UNL     1     -16.187  14.498 -23.747  1.00  0.00    -0.550 OA
ENDBRANCH  17  18
ENDBRANCH  16  17
ENDBRANCH  15  16
ENDBRANCH  14  15
ENDBRANCH  13  14
ENDBRANCH  12  13
ENDBRANCH  11  12
ENDBRANCH   1  11
TORSDOF 15
ENDMDL
MODEL 7
REMARK VINA RESULT:    -2.789      1.878      7.647
REMARK INTER + INTRA:          -6.736
REMARK INTER:                  -4.963
REMARK INTRA:                  -1.772
REMARK UNBOUND:                -1.500
REMARK SMILES O=C([O-])CCCCCCCCCCCCCCC(=O)[O-]
REMARK SMILES IDX 10 1 9 2 8 3 7 4 6 5 5 6 4 7 2 8 1 9 3 10 11 11 12 12 13 13
REMARK SMILES IDX 14 14 15 15 16 16 17 17 18 18 19 19 20 20
REMARK H PARENT
REMARK Flexibility Score: inf
ROOT
ATOM      1  C   UNL     1     -20.975  27.838 -19.572  1.00  0.00     0.000 C 
ENDROOT
BRANCH   1   2
ATOM      2  C   UNL     1     -21.063  28.874 -18.446  1.00  0.00     0.000 C 
BRANCH   2   3
ATOM      3  C   UNL     1     -19.877  28.746 -17.481  1.00  0.00     0.000 C 
BRANCH   3   4
ATOM      4  C   UNL     1     -18.992  29.999 -17.531  1.00  0.00     0.000 C 
BRANCH   4   5
ATOM      5  C   UNL     1     -17.684  29.770 -18.304  1.00  0.00     0.000 C 
BRANCH   5   6
ATOM      6  C   UNL     1     -17.767  30.249 -19.764  1.00  0.00     0.006 C 
BRANCH   6   7
ATOM      7  C   UNL     1     -16.720  29.569 -20.657  1.00  0.00     0.053 C 
BRANCH   7   8
ATOM      8  C   UNL     1     -17.335  28.969 -21.885  1.00  0.00     0.041 C 
ATOM      9  O   UNL     1     -17.922  27.857 -21.820  1.00  0.00    -0.550 OA
ATOM     10  O   UNL     1     -17.232  29.624 -23.106  1.00  0.00    -0.550 OA
ENDBRANCH   7   8
ENDBRANCH   6   7
ENDBRANCH   5   6
ENDBRANCH   4   5
ENDBRANCH   3   4
ENDBRANCH   2   3
ENDBRANCH   1   2
BRANCH   1  11
ATOM     11  C   UNL     1     -21.286  28.478 -20.933  1.00  0.00     0.000 C 
BRANCH  11  12
ATOM     12  C   UNL     1     -22.422  27.763 -21.683  1.00  0.00     0.000 C 
BRANCH  12  13
ATOM     13  C   UNL     1     -23.450  28.745 -22.275  1.00  0.00     0.000 C 
BRANCH  13  14
ATOM     14  C   UNL     1     -24.725  28.849 -21.420  1.00  0.00     0.000 C 
BRANCH  14  15
ATOM     15  C   UNL     1     -24.795  30.167 -20.626  1.00  0.00     0.000 C 
BRANCH  15  16
ATOM     16  C   UNL     1     -24.375  29.992 -19.157  1.00  0.00     0.006 C 
BRANCH  16  17
ATOM     17  C   UNL     1     -24.865  28.668 -18.554  1.00  0.00     0.053 C 
BRANCH  17  18
ATOM     18  C   UNL     1     -24.541  28.612 -17.094  1.00  0.00     0.041 C 
ATOM     19  O   UNL     1     -24.921  29.534 -16.325  1.00  0.00    -0.550 OA
ATOM     20  O   UNL     1     -23.865  27.515 -16.573  1.00  0.00    -0.550 OA
ENDBRANCH  17  18
ENDBRANCH  16  17
ENDBRANCH  15  16
ENDBRANCH  14  15
ENDBRANCH  13  14
ENDBRANCH  12  13
ENDBRANCH  11  12
ENDBRANCH   1  11
TORSDOF 15
ENDMDL
MODEL 8
REMARK VINA RESULT:    -2.767      2.524      4.306
REMARK INTER + INTRA:          -6.694
REMARK INTER:                  -4.437
REMARK INTRA:                  -2.257
REMARK UNBOUND:                -1.500
REMARK SMILES O=C([O-])CCCCCCCCCCCCCCC(=O)[O-]
REMARK SMILES IDX 10 1 9 2 8 3 7 4 6 5 5 6 4 7 2 8 1 9 3 10 11 11 12 12 13 13
REMARK SMILES IDX 14 14 15 15 16 16 17 17 18 18 19 19 20 20
REMARK H PARENT
REMARK Flexibility Score: inf
ROOT
ATOM      1  C   UNL     1     -22.570  26.281 -16.495  1.00  0.00     0.000 C 
ENDROOT
BRANCH   1   2
ATOM      2  C   UNL     1     -23.972  26.685 -16.967  1.00  0.00     0.000 C 
BRANCH   2   3
ATOM      3  C   UNL     1     -24.244  28.169 -16.690  1.00  0.00     0.000 C 
BRANCH   3   4
ATOM      4  C   UNL     1     -25.120  28.781 -17.792  1.00  0.00     0.000 C 
BRANCH   4   5
ATOM      5  C   UNL     1     -24.429  29.946 -18.518  1.00  0.00     0.000 C 
BRANCH   5   6
ATOM      6  C   UNL     1     -24.729  29.964 -20.028  1.00  0.00     0.006 C 
BRANCH   6   7
ATOM      7  C   UNL     1     -24.515  28.591 -20.677  1.00  0.00     0.053 C 
BRANCH   7   8
ATOM      8  C   UNL     1     -23.527  28.651 -21.803  1.00  0.00     0.041 C 
ATOM      9  O   UNL     1     -23.621  27.851 -22.771  1.00  0.00    -0.550 OA
ATOM     10  O   UNL     1     -22.486  29.569 -21.766  1.00  0.00    -0.550 OA
ENDBRANCH   7   8
ENDBRANCH   6   7
ENDBRANCH   5   6
ENDBRANCH   4   5
ENDBRANCH   3   4
ENDBRANCH   2   3
ENDBRANCH   1   2
BRANCH   1  11
ATOM     11  C   UNL     1     -21.751  25.688 -17.651  1.00  0.00     0.000 C 
BRANCH  11  12
ATOM     12  C   UNL     1     -22.055  26.355 -19.002  1.00  0.00     0.000 C 
BRANCH  12  13
ATOM     13  C   UNL     1     -20.977  27.372 -19.417  1.00  0.00     0.000 C 
BRANCH  13  14
ATOM     14  C   UNL     1     -21.090  28.699 -18.646  1.00  0.00     0.000 C 
BRANCH  14  15
ATOM     15  C   UNL     1     -19.748  29.144 -18.038  1.00  0.00     0.000 C 
BRANCH  15  16
ATOM     16  C   UNL     1     -18.575  28.257 -18.486  1.00  0.00     0.006 C 
BRANCH  16  17
ATOM     17  C   UNL     1     -17.532  29.026 -19.309  1.00  0.00     0.053 C 
BRANCH  17  18
ATOM     18  C   UNL     1     -17.762  28.810 -20.772  1.00  0.00     0.041 C 
ATOM     19  O   UNL     1     -17.073  27.966 -21.404  1.00  0.00    -0.550 OA
ATOM     20  O   UNL     1     -18.774  29.502 -21.426  1.00  0.00    -0.550 OA
ENDBRANCH  17  18
ENDBRANCH  16  17
ENDBRANCH  15  16
ENDBRANCH  14  15
ENDBRANCH  13  14
ENDBRANCH  12  13
ENDBRANCH  11  12
ENDBRANCH   1  11
TORSDOF 15
ENDMDL
MODEL 9
REMARK VINA RESULT:    -2.755      2.909      4.699
REMARK INTER + INTRA:          -6.671
REMARK INTER:                  -4.551
REMARK INTRA:                  -2.120
REMARK UNBOUND:                -1.500
REMARK SMILES O=C([O-])CCCCCCCCCCCCCCC(=O)[O-]
REMARK SMILES IDX 10 1 9 2 8 3 7 4 6 5 5 6 4 7 2 8 1 9 3 10 11 11 12 12 13 13
REMARK SMILES IDX 14 14 15 15 16 16 17 17 18 18 19 19 20 20
REMARK H PARENT
REMARK Flexibility Score: inf
ROOT
ATOM      1  C   UNL     1     -25.005  29.998 -21.041  1.00  0.00     0.000 C 
ENDROOT
BRANCH   1   2
ATOM      2  C   UNL     1     -25.045  29.178 -19.746  1.00  0.00     0.000 C 
BRANCH   2   3
ATOM      3  C   UNL     1     -24.393  29.940 -18.586  1.00  0.00     0.000 C 
BRANCH   3   4
ATOM      4  C   UNL     1     -23.161  29.190 -18.060  1.00  0.00     0.000 C 
BRANCH   4   5
ATOM      5  C   UNL     1     -23.502  27.786 -17.536  1.00  0.00     0.000 C 
BRANCH   5   6
ATOM      6  C   UNL     1     -22.639  26.687 -18.181  1.00  0.00     0.006 C 
BRANCH   6   7
ATOM      7  C   UNL     1     -22.051  25.726 -17.139  1.00  0.00     0.053 C 
BRANCH   7   8
ATOM      8  C   UNL     1     -23.118  25.077 -16.311  1.00  0.00     0.041 C 
ATOM      9  O   UNL     1     -23.179  25.296 -15.072  1.00  0.00    -0.550 OA
ATOM     10  O   UNL     1     -24.024  24.205 -16.903  1.00  0.00    -0.550 OA
ENDBRANCH   7   8
ENDBRANCH   6   7
ENDBRANCH   5   6
ENDBRANCH   4   5
ENDBRANCH   3   4
ENDBRANCH   2   3
ENDBRANCH   1   2
BRANCH   1  11
ATOM     11  C   UNL     1     -23.735  29.689 -21.847  1.00  0.00     0.000 C 
BRANCH  11  12
ATOM     12  C   UNL     1     -23.538  28.185 -22.096  1.00  0.00     0.000 C 
BRANCH  12  13
ATOM     13  C   UNL     1     -22.157  27.684 -21.634  1.00  0.00     0.000 C 
BRANCH  13  14
ATOM     14  C   UNL     1     -21.255  28.825 -21.133  1.00  0.00     0.000 C 
BRANCH  14  15
ATOM     15  C   UNL     1     -19.922  28.313 -20.556  1.00  0.00     0.000 C 
BRANCH  15  16
ATOM     16  C   UNL     1     -19.712  28.736 -19.094  1.00  0.00     0.006 C 
BRANCH  16  17
ATOM     17  C   UNL     1     -18.434  28.144 -18.484  1.00  0.00     0.053 C 
BRANCH  17  18
ATOM     18  C   UNL     1     -17.361  29.185 -18.415  1.00  0.00     0.041 C 
ATOM     19  O   UNL     1     -16.520  29.292 -19.347  1.00  0.00    -0.550 OA
ATOM     20  O   UNL     1     -17.320  30.071 -17.346  1.00  0.00    -0.550 OA
ENDBRANCH  17  18
ENDBRANCH  16  17
ENDBRANCH  15  16
ENDBRANCH  14  15
ENDBRANCH  13  14
ENDBRANCH  12  13
ENDBRANCH  11  12
ENDBRANCH   1  11
TORSDOF 15
ENDMDL
