MODEL 1
REMARK VINA RESULT:    -5.681      0.000      0.000
REMARK INTER + INTRA:          -9.240
REMARK INTER:                  -7.840
REMARK INTRA:                  -1.400
REMARK UNBOUND:                -1.400
REMARK SMILES CCCCc1cccc(O)c1CCCC
REMARK SMILES IDX 5 1 11 2 9 3 8 4 7 5 6 6 4 7 3 8 2 9 1 10 12 11 13 12 14 13
REMARK SMILES IDX 15 14 10 15
REMARK H PARENT 10 16
REMARK Flexibility Score: inf
ROOT
ATOM      1  C   UNL     1     -37.393  -9.928  24.359  1.00  0.00    -0.041 A 
ATOM      2  C   UNL     1     -38.198 -10.274  25.483  1.00  0.00    -0.003 A 
ATOM      3  C   UNL     1     -37.801  -9.850  26.772  1.00  0.00     0.119 A 
ATOM      4  C   UNL     1     -36.611  -9.133  26.944  1.00  0.00     0.046 A 
ATOM      5  C   UNL     1     -35.817  -8.813  25.846  1.00  0.00     0.004 A 
ATOM      6  C   UNL     1     -36.207  -9.201  24.567  1.00  0.00     0.004 A 
ENDROOT
BRANCH   1   7
ATOM      7  C   UNL     1     -37.747 -10.295  22.929  1.00  0.00     0.036 C 
BRANCH   7   8
ATOM      8  C   UNL     1     -36.682 -11.194  22.274  1.00  0.00     0.004 C 
BRANCH   8   9
ATOM      9  C   UNL     1     -37.189 -12.603  21.927  1.00  0.00    -0.003 C 
ATOM     10  C   UNL     1     -36.801 -13.638  22.982  1.00  0.00     0.004 C 
ENDBRANCH   8   9
ENDBRANCH   7   8
ENDBRANCH   1   7
BRANCH   2  11
ATOM     11  C   UNL     1     -39.510 -11.022  25.337  1.00  0.00     0.040 C 
BRANCH  11  12
ATOM     12  C   UNL     1     -39.290 -12.536  25.472  1.00  0.00     0.005 C 
BRANCH  12  13
ATOM     13  C   UNL     1     -40.167 -13.347  24.506  1.00  0.00    -0.003 C 
ATOM     14  C   UNL     1     -40.681 -12.513  23.332  1.00  0.00     0.004 C 
ENDBRANCH  12  13
ENDBRANCH  11  12
ENDBRANCH   2  11
BRANCH   3  15
ATOM     15  O   UNL     1     -38.592 -10.138  27.884  1.00  0.00    -0.508 OA
ATOM     16  H   UNL     1     -38.553  -9.576  28.726  1.00  0.00     0.293 HD
ENDBRANCH   3  15
TORSDOF 7
ENDMDL
MODEL 2
REMARK VINA RESULT:    -5.410      2.390      4.094
REMARK INTER + INTRA:          -8.866
REMARK INTER:                  -8.108
REMARK INTRA:                  -0.758
REMARK UNBOUND:                -1.400
REMARK SMILES CCCCc1cccc(O)c1CCCC
REMARK SMILES IDX 5 1 11 2 9 3 8 4 7 5 6 6 4 7 3 8 2 9 1 10 12 11 13 12 14 13
REMARK SMILES IDX 15 14 10 15
REMARK H PARENT 10 16
REMARK Flexibility Score: inf
ROOT
ATOM      1  C   UNL     1     -36.703  -8.758  26.036  1.00  0.00    -0.041 A 
ATOM      2  C   UNL     1     -38.084  -8.414  25.951  1.00  0.00    -0.003 A 
ATOM      3  C   UNL     1     -38.462  -7.246  25.249  1.00  0.00     0.119 A 
ATOM      4  C   UNL     1     -37.487  -6.419  24.679  1.00  0.00     0.046 A 
ATOM      5  C   UNL     1     -36.138  -6.747  24.780  1.00  0.00     0.004 A 
ATOM      6  C   UNL     1     -35.750  -7.906  25.447  1.00  0.00     0.004 A 
ENDROOT
BRANCH   1   7
ATOM      7  C   UNL     1     -36.190 -10.008  26.728  1.00  0.00     0.036 C 
BRANCH   7   8
ATOM      8  C   UNL     1     -36.261  -9.899  28.263  1.00  0.00     0.004 C 
BRANCH   8   9
ATOM      9  C   UNL     1     -35.003 -10.417  28.980  1.00  0.00    -0.003 C 
ATOM     10  C   UNL     1     -33.768  -9.571  28.672  1.00  0.00     0.004 C 
ENDBRANCH   8   9
ENDBRANCH   7   8
ENDBRANCH   1   7
BRANCH   2  11
ATOM     11  C   UNL     1     -39.172  -9.300  26.527  1.00  0.00     0.040 C 
BRANCH  11  12
ATOM     12  C   UNL     1     -39.573 -10.391  25.523  1.00  0.00     0.005 C 
BRANCH  12  13
ATOM     13  C   UNL     1     -39.210 -11.802  26.010  1.00  0.00    -0.003 C 
ATOM     14  C   UNL     1     -38.851 -12.748  24.865  1.00  0.00     0.004 C 
ENDBRANCH  12  13
ENDBRANCH  11  12
ENDBRANCH   2  11
BRANCH   3  15
ATOM     15  O   UNL     1     -39.808  -6.910  25.114  1.00  0.00    -0.508 OA
ATOM     16  H   UNL     1     -40.420  -6.826  25.917  1.00  0.00     0.293 HD
ENDBRANCH   3  15
TORSDOF 7
ENDMDL
MODEL 3
REMARK VINA RESULT:    -5.229      1.709      4.340
REMARK INTER + INTRA:          -8.617
REMARK INTER:                  -7.374
REMARK INTRA:                  -1.243
REMARK UNBOUND:                -1.400
REMARK SMILES CCCCc1cccc(O)c1CCCC
REMARK SMILES IDX 5 1 11 2 9 3 8 4 7 5 6 6 4 7 3 8 2 9 1 10 12 11 13 12 14 13
REMARK SMILES IDX 15 14 10 15
REMARK H PARENT 10 16
REMARK Flexibility Score: inf
ROOT
ATOM      1  C   UNL     1     -37.445 -10.685  23.642  1.00  0.00    -0.041 A 
ATOM      2  C   UNL     1     -38.259 -11.415  24.555  1.00  0.00    -0.003 A 
ATOM      3  C   UNL     1     -38.340 -12.822  24.434  1.00  0.00     0.119 A 
ATOM      4  C   UNL     1     -37.659 -13.482  23.404  1.00  0.00     0.046 A 
ATOM      5  C   UNL     1     -36.880 -12.763  22.502  1.00  0.00     0.004 A 
ATOM      6  C   UNL     1     -36.769 -11.381  22.622  1.00  0.00     0.004 A 
ENDROOT
BRANCH   1   7
ATOM      7  C   UNL     1     -37.254  -9.180  23.706  1.00  0.00     0.036 C 
BRANCH   7   8
ATOM      8  C   UNL     1     -35.983  -8.784  24.481  1.00  0.00     0.004 C 
BRANCH   8   9
ATOM      9  C   UNL     1     -36.110  -7.452  25.239  1.00  0.00    -0.003 C 
ATOM     10  C   UNL     1     -36.967  -6.434  24.487  1.00  0.00     0.004 C 
ENDBRANCH   8   9
ENDBRANCH   7   8
ENDBRANCH   1   7
BRANCH   2  11
ATOM     11  C   UNL     1     -38.987 -10.743  25.703  1.00  0.00     0.040 C 
BRANCH  11  12
ATOM     12  C   UNL     1     -38.045 -10.537  26.898  1.00  0.00     0.005 C 
BRANCH  12  13
ATOM     13  C   UNL     1     -38.322  -9.225  27.648  1.00  0.00    -0.003 C 
ATOM     14  C   UNL     1     -39.250  -8.288  26.876  1.00  0.00     0.004 C 
ENDBRANCH  12  13
ENDBRANCH  11  12
ENDBRANCH   2  11
BRANCH   3  15
ATOM     15  O   UNL     1     -39.095 -13.566  25.340  1.00  0.00    -0.508 OA
ATOM     16  H   UNL     1     -39.177 -13.295  26.314  1.00  0.00     0.293 HD
ENDBRANCH   3  15
TORSDOF 7
ENDMDL
MODEL 4
REMARK VINA RESULT:    -5.214      1.402      3.370
REMARK INTER + INTRA:          -8.596
REMARK INTER:                  -7.332
REMARK INTRA:                  -1.264
REMARK UNBOUND:                -1.400
REMARK SMILES CCCCc1cccc(O)c1CCCC
REMARK SMILES IDX 5 1 11 2 9 3 8 4 7 5 6 6 4 7 3 8 2 9 1 10 12 11 13 12 14 13
REMARK SMILES IDX 15 14 10 15
REMARK H PARENT 10 16
REMARK Flexibility Score: inf
ROOT
ATOM      1  C   UNL     1     -38.264 -10.355  25.447  1.00  0.00    -0.041 A 
ATOM      2  C   UNL     1     -37.272  -9.708  24.654  1.00  0.00    -0.003 A 
ATOM      3  C   UNL     1     -36.195  -9.054  25.297  1.00  0.00     0.119 A 
ATOM      4  C   UNL     1     -36.128  -9.011  26.694  1.00  0.00     0.046 A 
ATOM      5  C   UNL     1     -37.109  -9.628  27.465  1.00  0.00     0.004 A 
ATOM      6  C   UNL     1     -38.163 -10.297  26.849  1.00  0.00     0.004 A 
ENDROOT
BRANCH   1   7
ATOM      7  C   UNL     1     -39.438 -11.120  24.862  1.00  0.00     0.036 C 
BRANCH   7   8
ATOM      8  C   UNL     1     -39.392 -12.619  25.211  1.00  0.00     0.004 C 
BRANCH   8   9
ATOM      9  C   UNL     1     -40.191 -13.506  24.241  1.00  0.00    -0.003 C 
ATOM     10  C   UNL     1     -40.794 -12.708  23.086  1.00  0.00     0.004 C 
ENDBRANCH   8   9
ENDBRANCH   7   8
ENDBRANCH   1   7
BRANCH   2  11
ATOM     11  C   UNL     1     -37.291  -9.759  23.139  1.00  0.00     0.040 C 
BRANCH  11  12
ATOM     12  C   UNL     1     -36.420 -10.913  22.622  1.00  0.00     0.005 C 
BRANCH  12  13
ATOM     13  C   UNL     1     -37.254 -12.080  22.072  1.00  0.00    -0.003 C 
ATOM     14  C   UNL     1     -36.814 -13.434  22.627  1.00  0.00     0.004 C 
ENDBRANCH  12  13
ENDBRANCH  11  12
ENDBRANCH   2  11
BRANCH   3  15
ATOM     15  O   UNL     1     -35.188  -8.450  24.545  1.00  0.00    -0.508 OA
ATOM     16  H   UNL     1     -35.075  -7.443  24.515  1.00  0.00     0.293 HD
ENDBRANCH   3  15
TORSDOF 7
ENDMDL
MODEL 5
REMARK VINA RESULT:    -5.124      2.346      5.309
REMARK INTER + INTRA:          -8.472
REMARK INTER:                  -7.880
REMARK INTRA:                  -0.592
REMARK UNBOUND:                -1.400
REMARK SMILES CCCCc1cccc(O)c1CCCC
REMARK SMILES IDX 5 1 11 2 9 3 8 4 7 5 6 6 4 7 3 8 2 9 1 10 12 11 13 12 14 13
REMARK SMILES IDX 15 14 10 15
REMARK H PARENT 10 16
REMARK Flexibility Score: inf
ROOT
ATOM      1  C   UNL     1     -38.057 -10.307  25.532  1.00  0.00    -0.041 A 
ATOM      2  C   UNL     1     -37.620  -9.711  24.313  1.00  0.00    -0.003 A 
ATOM      3  C   UNL     1     -37.358 -10.540  23.197  1.00  0.00     0.119 A 
ATOM      4  C   UNL     1     -37.488 -11.929  23.303  1.00  0.00     0.046 A 
ATOM      5  C   UNL     1     -37.896 -12.509  24.501  1.00  0.00     0.004 A 
ATOM      6  C   UNL     1     -38.183 -11.707  25.602  1.00  0.00     0.004 A 
ENDROOT
BRANCH   1   7
ATOM      7  C   UNL     1     -38.406  -9.511  26.777  1.00  0.00     0.036 C 
BRANCH   7   8
ATOM      8  C   UNL     1     -37.382  -9.715  27.909  1.00  0.00     0.004 C 
BRANCH   8   9
ATOM      9  C   UNL     1     -35.920  -9.707  27.431  1.00  0.00    -0.003 C 
ATOM     10  C   UNL     1     -34.940 -10.064  28.548  1.00  0.00     0.004 C 
ENDBRANCH   8   9
ENDBRANCH   7   8
ENDBRANCH   1   7
BRANCH   2  11
ATOM     11  C   UNL     1     -37.497  -8.209  24.147  1.00  0.00     0.040 C 
BRANCH  11  12
ATOM     12  C   UNL     1     -36.228  -7.688  24.837  1.00  0.00     0.005 C 
BRANCH  12  13
ATOM     13  C   UNL     1     -36.171  -6.154  24.887  1.00  0.00    -0.003 C 
ATOM     14  C   UNL     1     -37.047  -5.495  23.821  1.00  0.00     0.004 C 
ENDBRANCH  12  13
ENDBRANCH  11  12
ENDBRANCH   2  11
BRANCH   3  15
ATOM     15  O   UNL     1     -36.971  -9.980  21.980  1.00  0.00    -0.508 OA
ATOM     16  H   UNL     1     -36.678 -10.554  21.197  1.00  0.00     0.293 HD
ENDBRANCH   3  15
TORSDOF 7
ENDMDL
MODEL 6
REMARK VINA RESULT:    -5.103     12.146     14.379
REMARK INTER + INTRA:          -8.443
REMARK INTER:                  -7.480
REMARK INTRA:                  -0.962
REMARK UNBOUND:                -1.400
REMARK SMILES CCCCc1cccc(O)c1CCCC
REMARK SMILES IDX 5 1 11 2 9 3 8 4 7 5 6 6 4 7 3 8 2 9 1 10 12 11 13 12 14 13
REMARK SMILES IDX 15 14 10 15
REMARK H PARENT 10 16
REMARK Flexibility Score: inf
ROOT
ATOM      1  C   UNL     1     -25.161 -11.482  27.000  1.00  0.00    -0.041 A 
ATOM      2  C   UNL     1     -24.132 -11.938  27.875  1.00  0.00    -0.003 A 
ATOM      3  C   UNL     1     -23.469 -13.154  27.584  1.00  0.00     0.119 A 
ATOM      4  C   UNL     1     -23.848 -13.916  26.473  1.00  0.00     0.046 A 
ATOM      5  C   UNL     1     -24.866 -13.477  25.632  1.00  0.00     0.004 A 
ATOM      6  C   UNL     1     -25.512 -12.270  25.889  1.00  0.00     0.004 A 
ENDROOT
BRANCH   1   7
ATOM      7  C   UNL     1     -25.907 -10.174  27.193  1.00  0.00     0.036 C 
BRANCH   7   8
ATOM      8  C   UNL     1     -27.434 -10.371  27.229  1.00  0.00     0.004 C 
BRANCH   8   9
ATOM      9  C   UNL     1     -28.128  -9.626  28.382  1.00  0.00    -0.003 C 
ATOM     10  C   UNL     1     -27.131  -8.943  29.317  1.00  0.00     0.004 C 
ENDBRANCH   8   9
ENDBRANCH   7   8
ENDBRANCH   1   7
BRANCH   2  11
ATOM     11  C   UNL     1     -23.670 -11.127  29.070  1.00  0.00     0.040 C 
BRANCH  11  12
ATOM     12  C   UNL     1     -24.504 -11.469  30.313  1.00  0.00     0.005 C 
BRANCH  12  13
ATOM     13  C   UNL     1     -23.679 -12.176  31.400  1.00  0.00    -0.003 C 
ATOM     14  C   UNL     1     -22.187 -11.859  31.308  1.00  0.00     0.004 C 
ENDBRANCH  12  13
ENDBRANCH  11  12
ENDBRANCH   2  11
BRANCH   3  15
ATOM     15  O   UNL     1     -22.430 -13.602  28.399  1.00  0.00    -0.508 OA
ATOM     16  H   UNL     1     -22.527 -13.655  29.407  1.00  0.00     0.293 HD
ENDBRANCH   3  15
TORSDOF 7
ENDMDL
MODEL 7
REMARK VINA RESULT:    -5.095     11.460     13.630
REMARK INTER + INTRA:          -8.432
REMARK INTER:                  -7.399
REMARK INTRA:                  -1.033
REMARK UNBOUND:                -1.400
REMARK SMILES CCCCc1cccc(O)c1CCCC
REMARK SMILES IDX 5 1 11 2 9 3 8 4 7 5 6 6 4 7 3 8 2 9 1 10 12 11 13 12 14 13
REMARK SMILES IDX 15 14 10 15
REMARK H PARENT 10 16
REMARK Flexibility Score: inf
ROOT
ATOM      1  C   UNL     1     -25.176 -11.414  28.956  1.00  0.00    -0.041 A 
ATOM      2  C   UNL     1     -24.607 -11.990  27.782  1.00  0.00    -0.003 A 
ATOM      3  C   UNL     1     -23.340 -12.613  27.865  1.00  0.00     0.119 A 
ATOM      4  C   UNL     1     -22.638 -12.627  29.076  1.00  0.00     0.046 A 
ATOM      5  C   UNL     1     -23.188 -12.047  30.215  1.00  0.00     0.004 A 
ATOM      6  C   UNL     1     -24.446 -11.452  30.158  1.00  0.00     0.004 A 
ENDROOT
BRANCH   1   7
ATOM      7  C   UNL     1     -26.545 -10.758  28.990  1.00  0.00     0.036 C 
BRANCH   7   8
ATOM      8  C   UNL     1     -26.463  -9.246  29.267  1.00  0.00     0.004 C 
BRANCH   8   9
ATOM      9  C   UNL     1     -27.834  -8.552  29.327  1.00  0.00    -0.003 C 
ATOM     10  C   UNL     1     -28.965  -9.454  28.835  1.00  0.00     0.004 C 
ENDBRANCH   8   9
ENDBRANCH   7   8
ENDBRANCH   1   7
BRANCH   2  11
ATOM     11  C   UNL     1     -25.348 -12.024  26.460  1.00  0.00     0.040 C 
BRANCH  11  12
ATOM     12  C   UNL     1     -25.230 -10.675  25.736  1.00  0.00     0.005 C 
BRANCH  12  13
ATOM     13  C   UNL     1     -26.598 -10.030  25.464  1.00  0.00    -0.003 C 
ATOM     14  C   UNL     1     -27.764 -10.975  25.751  1.00  0.00     0.004 C 
ENDBRANCH  12  13
ENDBRANCH  11  12
ENDBRANCH   2  11
BRANCH   3  15
ATOM     15  O   UNL     1     -22.780 -13.222  26.743  1.00  0.00    -0.508 OA
ATOM     16  H   UNL     1     -22.049 -13.920  26.823  1.00  0.00     0.293 HD
ENDBRANCH   3  15
TORSDOF 7
ENDMDL
MODEL 8
REMARK VINA RESULT:    -5.062      1.990      4.976
REMARK INTER + INTRA:          -8.385
REMARK INTER:                  -7.440
REMARK INTRA:                  -0.945
REMARK UNBOUND:                -1.400
REMARK SMILES CCCCc1cccc(O)c1CCCC
REMARK SMILES IDX 5 1 11 2 9 3 8 4 7 5 6 6 4 7 3 8 2 9 1 10 12 11 13 12 14 13
REMARK SMILES IDX 15 14 10 15
REMARK H PARENT 10 16
REMARK Flexibility Score: inf
ROOT
ATOM      1  C   UNL     1     -38.254 -12.059  24.564  1.00  0.00    -0.041 A 
ATOM      2  C   UNL     1     -37.587 -11.048  23.813  1.00  0.00    -0.003 A 
ATOM      3  C   UNL     1     -36.866 -11.415  22.652  1.00  0.00     0.119 A 
ATOM      4  C   UNL     1     -36.778 -12.758  22.271  1.00  0.00     0.046 A 
ATOM      5  C   UNL     1     -37.415 -13.745  23.017  1.00  0.00     0.004 A 
ATOM      6  C   UNL     1     -38.150 -13.399  24.149  1.00  0.00     0.004 A 
ENDROOT
BRANCH   1   7
ATOM      7  C   UNL     1     -39.089 -11.773  25.799  1.00  0.00     0.036 C 
BRANCH   7   8
ATOM      8  C   UNL     1     -40.281 -12.738  25.937  1.00  0.00     0.004 C 
BRANCH   8   9
ATOM      9  C   UNL     1     -41.601 -12.175  25.385  1.00  0.00    -0.003 C 
ATOM     10  C   UNL     1     -41.830 -12.554  23.923  1.00  0.00     0.004 C 
ENDBRANCH   8   9
ENDBRANCH   7   8
ENDBRANCH   1   7
BRANCH   2  11
ATOM     11  C   UNL     1     -37.684  -9.579  24.174  1.00  0.00     0.040 C 
BRANCH  11  12
ATOM     12  C   UNL     1     -36.460  -9.137  24.989  1.00  0.00     0.005 C 
BRANCH  12  13
ATOM     13  C   UNL     1     -36.746  -9.079  26.497  1.00  0.00    -0.003 C 
ATOM     14  C   UNL     1     -35.677  -9.787  27.329  1.00  0.00     0.004 C 
ENDBRANCH  12  13
ENDBRANCH  11  12
ENDBRANCH   2  11
BRANCH   3  15
ATOM     15  O   UNL     1     -36.240 -10.440  21.875  1.00  0.00    -0.508 OA
ATOM     16  H   UNL     1     -36.742  -9.924  21.162  1.00  0.00     0.293 HD
ENDBRANCH   3  15
TORSDOF 7
ENDMDL
MODEL 9
REMARK VINA RESULT:    -5.030     12.179     14.272
REMARK INTER + INTRA:          -8.342
REMARK INTER:                  -7.558
REMARK INTRA:                  -0.784
REMARK UNBOUND:                -1.400
REMARK SMILES CCCCc1cccc(O)c1CCCC
REMARK SMILES IDX 5 1 11 2 9 3 8 4 7 5 6 6 4 7 3 8 2 9 1 10 12 11 13 12 14 13
REMARK SMILES IDX 15 14 10 15
REMARK H PARENT 10 16
REMARK Flexibility Score: inf
ROOT
ATOM      1  C   UNL     1     -23.734 -12.009  28.272  1.00  0.00    -0.041 A 
ATOM      2  C   UNL     1     -24.689 -11.265  27.519  1.00  0.00    -0.003 A 
ATOM      3  C   UNL     1     -25.255 -11.843  26.359  1.00  0.00     0.119 A 
ATOM      4  C   UNL     1     -24.852 -13.115  25.936  1.00  0.00     0.046 A 
ATOM      5  C   UNL     1     -23.905 -13.831  26.662  1.00  0.00     0.004 A 
ATOM      6  C   UNL     1     -23.357 -13.288  27.821  1.00  0.00     0.004 A 
ENDROOT
BRANCH   1   7
ATOM      7  C   UNL     1     -23.097 -11.503  29.553  1.00  0.00     0.036 C 
BRANCH   7   8
ATOM      8  C   UNL     1     -23.852 -11.974  30.809  1.00  0.00     0.004 C 
BRANCH   8   9
ATOM      9  C   UNL     1     -23.378 -13.336  31.343  1.00  0.00    -0.003 C 
ATOM     10  C   UNL     1     -21.875 -13.362  31.617  1.00  0.00     0.004 C 
ENDBRANCH   8   9
ENDBRANCH   7   8
ENDBRANCH   1   7
BRANCH   2  11
ATOM     11  C   UNL     1     -25.176  -9.898  27.961  1.00  0.00     0.040 C 
BRANCH  11  12
ATOM     12  C   UNL     1     -26.392 -10.028  28.889  1.00  0.00     0.005 C 
BRANCH  12  13
ATOM     13  C   UNL     1     -27.707  -9.641  28.196  1.00  0.00    -0.003 C 
ATOM     14  C   UNL     1     -28.767 -10.738  28.285  1.00  0.00     0.004 C 
ENDBRANCH  12  13
ENDBRANCH  11  12
ENDBRANCH   2  11
BRANCH   3  15
ATOM     15  O   UNL     1     -26.222 -11.154  25.628  1.00  0.00    -0.508 OA
ATOM     16  H   UNL     1     -27.009 -10.701  26.079  1.00  0.00     0.293 HD
ENDBRANCH   3  15
TORSDOF 7
ENDMDL
