MODEL 1
REMARK VINA RESULT:    -5.110      0.000      0.000
REMARK INTER + INTRA:          -8.794
REMARK INTER:                  -7.799
REMARK INTRA:                  -0.995
REMARK UNBOUND:                -0.995
REMARK SMILES CC(=O)CCC=C(C)CCC=C(C)CCC=C(C)C
REMARK SMILES IDX 10 1 11 2 12 3 13 4 14 5 15 6 16 7 18 8 17 9 19 10 9 11 7 12
REMARK SMILES IDX 6 13 8 14 5 15 4 16 2 17 3 18 1 19
REMARK H PARENT
REMARK Flexibility Score: inf
ROOT
ATOM      1  C   UNL     1      75.951  35.003  52.309  1.00  0.00     0.032 C 
ENDROOT
BRANCH   1   2
ATOM      2  C   UNL     1      75.047  35.735  53.272  1.00  0.00    -0.028 C 
ATOM      3  C   UNL     1      73.908  35.245  53.812  1.00  0.00    -0.077 C 
ATOM      4  C   UNL     1      73.140  36.124  54.768  1.00  0.00     0.039 C 
BRANCH   3   5
ATOM      5  C   UNL     1      73.337  33.878  53.460  1.00  0.00     0.034 C 
BRANCH   5   6
ATOM      6  C   UNL     1      72.085  33.540  54.288  1.00  0.00     0.032 C 
BRANCH   6   7
ATOM      7  C   UNL     1      72.438  33.045  55.670  1.00  0.00    -0.028 C 
ATOM      8  C   UNL     1      72.157  32.744  58.111  1.00  0.00     0.039 C 
ATOM      9  C   UNL     1      71.728  33.323  56.787  1.00  0.00    -0.080 C 
ATOM     10  C   UNL     1      70.503  34.203  56.763  1.00  0.00     0.039 C 
ENDBRANCH   6   7
ENDBRANCH   5   6
ENDBRANCH   3   5
ENDBRANCH   1   2
BRANCH   1  11
ATOM     11  C   UNL     1      76.494  35.929  51.210  1.00  0.00     0.034 C 
BRANCH  11  12
ATOM     12  C   UNL     1      78.006  35.859  51.113  1.00  0.00    -0.077 C 
ATOM     13  C   UNL     1      78.727  35.704  52.251  1.00  0.00    -0.028 C 
ATOM     14  C   UNL     1      78.666  36.069  49.765  1.00  0.00     0.039 C 
BRANCH  13  15
ATOM     15  C   UNL     1      80.236  35.612  52.311  1.00  0.00     0.035 C 
BRANCH  15  16
ATOM     16  C   UNL     1      80.716  34.222  52.757  1.00  0.00     0.079 C 
BRANCH  16  17
ATOM     17  C   UNL     1      80.284  33.145  51.795  1.00  0.00     0.130 C 
ATOM     18  O   UNL     1      80.591  33.225  50.615  1.00  0.00    -0.300 OA
ATOM     19  C   UNL     1      79.503  31.957  52.276  1.00  0.00     0.087 C 
ENDBRANCH  16  17
ENDBRANCH  15  16
ENDBRANCH  13  15
ENDBRANCH  11  12
ENDBRANCH   1  11
TORSDOF 9
ENDMDL
MODEL 2
REMARK VINA RESULT:    -4.710      2.971      7.985
REMARK INTER + INTRA:          -8.183
REMARK INTER:                  -6.898
REMARK INTRA:                  -1.285
REMARK UNBOUND:                -0.995
REMARK SMILES CC(=O)CCC=C(C)CCC=C(C)CCC=C(C)C
REMARK SMILES IDX 10 1 11 2 12 3 13 4 14 5 15 6 16 7 18 8 17 9 19 10 9 11 7 12
REMARK SMILES IDX 6 13 8 14 5 15 4 16 2 17 3 18 1 19
REMARK H PARENT
REMARK Flexibility Score: inf
ROOT
ATOM      1  C   UNL     1      76.207  35.289  52.498  1.00  0.00     0.032 C 
ENDROOT
BRANCH   1   2
ATOM      2  C   UNL     1      76.985  35.457  51.215  1.00  0.00    -0.028 C 
ATOM      3  C   UNL     1      78.291  35.796  51.123  1.00  0.00    -0.077 C 
ATOM      4  C   UNL     1      78.902  35.904  49.748  1.00  0.00     0.039 C 
BRANCH   3   5
ATOM      5  C   UNL     1      79.156  36.125  52.333  1.00  0.00     0.034 C 
BRANCH   5   6
ATOM      6  C   UNL     1      80.359  35.175  52.464  1.00  0.00     0.032 C 
BRANCH   6   7
ATOM      7  C   UNL     1      79.932  33.765  52.795  1.00  0.00    -0.028 C 
ATOM      8  C   UNL     1      79.629  31.339  52.410  1.00  0.00     0.039 C 
ATOM      9  C   UNL     1      80.060  32.710  51.957  1.00  0.00    -0.080 C 
ATOM     10  C   UNL     1      80.624  32.852  50.565  1.00  0.00     0.039 C 
ENDBRANCH   6   7
ENDBRANCH   5   6
ENDBRANCH   3   5
ENDBRANCH   1   2
BRANCH   1  11
ATOM     11  C   UNL     1      75.358  34.008  52.494  1.00  0.00     0.034 C 
BRANCH  11  12
ATOM     12  C   UNL     1      73.958  34.262  53.019  1.00  0.00    -0.077 C 
ATOM     13  C   UNL     1      73.462  33.444  53.979  1.00  0.00    -0.028 C 
ATOM     14  C   UNL     1      73.120  35.352  52.380  1.00  0.00     0.039 C 
BRANCH  13  15
ATOM     15  C   UNL     1      72.089  33.576  54.601  1.00  0.00     0.035 C 
BRANCH  15  16
ATOM     16  C   UNL     1      72.117  34.388  55.906  1.00  0.00     0.079 C 
BRANCH  16  17
ATOM     17  C   UNL     1      71.319  33.723  56.997  1.00  0.00     0.130 C 
ATOM     18  O   UNL     1      70.125  33.959  57.107  1.00  0.00    -0.300 OA
ATOM     19  C   UNL     1      71.968  32.748  57.936  1.00  0.00     0.087 C 
ENDBRANCH  16  17
ENDBRANCH  15  16
ENDBRANCH  13  15
ENDBRANCH  11  12
ENDBRANCH   1  11
TORSDOF 9
ENDMDL
MODEL 3
REMARK VINA RESULT:    -3.871      1.169      1.755
REMARK INTER + INTRA:          -6.902
REMARK INTER:                  -6.319
REMARK INTRA:                  -0.583
REMARK UNBOUND:                -0.995
REMARK SMILES CC(=O)CCC=C(C)CCC=C(C)CCC=C(C)C
REMARK SMILES IDX 10 1 11 2 12 3 13 4 14 5 15 6 16 7 18 8 17 9 19 10 9 11 7 12
REMARK SMILES IDX 6 13 8 14 5 15 4 16 2 17 3 18 1 19
REMARK H PARENT
REMARK Flexibility Score: inf
ROOT
ATOM      1  C   UNL     1      75.279  35.017  51.627  1.00  0.00     0.032 C 
ENDROOT
BRANCH   1   2
ATOM      2  C   UNL     1      74.718  35.759  52.815  1.00  0.00    -0.028 C 
ATOM      3  C   UNL     1      73.941  35.224  53.785  1.00  0.00    -0.077 C 
ATOM      4  C   UNL     1      73.483  36.125  54.905  1.00  0.00     0.039 C 
BRANCH   3   5
ATOM      5  C   UNL     1      73.465  33.778  53.771  1.00  0.00     0.034 C 
BRANCH   5   6
ATOM      6  C   UNL     1      72.152  33.590  54.551  1.00  0.00     0.032 C 
BRANCH   6   7
ATOM      7  C   UNL     1      72.395  33.079  55.951  1.00  0.00    -0.028 C 
ATOM      8  C   UNL     1      71.933  32.771  58.363  1.00  0.00     0.039 C 
ATOM      9  C   UNL     1      71.612  33.366  57.016  1.00  0.00    -0.080 C 
ATOM     10  C   UNL     1      70.410  34.273  56.911  1.00  0.00     0.039 C 
ENDBRANCH   6   7
ENDBRANCH   5   6
ENDBRANCH   3   5
ENDBRANCH   1   2
BRANCH   1  11
ATOM     11  C   UNL     1      76.328  33.973  52.042  1.00  0.00     0.034 C 
BRANCH  11  12
ATOM     12  C   UNL     1      77.739  34.511  51.904  1.00  0.00    -0.077 C 
ATOM     13  C   UNL     1      78.778  33.642  51.963  1.00  0.00    -0.028 C 
ATOM     14  C   UNL     1      77.949  36.010  51.811  1.00  0.00     0.039 C 
BRANCH  13  15
ATOM     15  C   UNL     1      80.236  34.029  51.836  1.00  0.00     0.035 C 
BRANCH  15  16
ATOM     16  C   UNL     1      80.935  33.290  50.685  1.00  0.00     0.079 C 
BRANCH  16  17
ATOM     17  C   UNL     1      80.533  33.839  49.341  1.00  0.00     0.130 C 
ATOM     18  O   UNL     1      80.505  33.103  48.366  1.00  0.00    -0.300 OA
ATOM     19  C   UNL     1      80.138  35.280  49.189  1.00  0.00     0.087 C 
ENDBRANCH  16  17
ENDBRANCH  15  16
ENDBRANCH  13  15
ENDBRANCH  11  12
ENDBRANCH   1  11
TORSDOF 9
ENDMDL
MODEL 4
REMARK VINA RESULT:    -3.789      3.173      8.280
REMARK INTER + INTRA:          -6.777
REMARK INTER:                  -5.983
REMARK INTRA:                  -0.794
REMARK UNBOUND:                -0.995
REMARK SMILES CC(=O)CCC=C(C)CCC=C(C)CCC=C(C)C
REMARK SMILES IDX 10 1 11 2 12 3 13 4 14 5 15 6 16 7 18 8 17 9 19 10 9 11 7 12
REMARK SMILES IDX 6 13 8 14 5 15 4 16 2 17 3 18 1 19
REMARK H PARENT
REMARK Flexibility Score: inf
ROOT
ATOM      1  C   UNL     1      74.815  36.125  51.996  1.00  0.00     0.032 C 
ENDROOT
BRANCH   1   2
ATOM      2  C   UNL     1      75.539  34.800  51.999  1.00  0.00    -0.028 C 
ATOM      3  C   UNL     1      76.882  34.635  52.023  1.00  0.00    -0.077 C 
ATOM      4  C   UNL     1      77.424  33.228  52.035  1.00  0.00     0.039 C 
BRANCH   3   5
ATOM      5  C   UNL     1      77.867  35.796  51.983  1.00  0.00     0.034 C 
BRANCH   5   6
ATOM      6  C   UNL     1      79.326  35.317  51.899  1.00  0.00     0.032 C 
BRANCH   6   7
ATOM      7  C   UNL     1      79.719  34.948  50.488  1.00  0.00    -0.028 C 
ATOM      8  C   UNL     1      80.721  33.552  48.706  1.00  0.00     0.039 C 
ATOM      9  C   UNL     1      80.414  33.836  50.154  1.00  0.00    -0.080 C 
ATOM     10  C   UNL     1      80.903  32.852  51.188  1.00  0.00     0.039 C 
ENDBRANCH   6   7
ENDBRANCH   5   6
ENDBRANCH   3   5
ENDBRANCH   1   2
BRANCH   1  11
ATOM     11  C   UNL     1      73.353  35.984  52.448  1.00  0.00     0.034 C 
BRANCH  11  12
ATOM     12  C   UNL     1      73.244  35.256  53.774  1.00  0.00    -0.077 C 
ATOM     13  C   UNL     1      72.804  33.974  53.782  1.00  0.00    -0.028 C 
ATOM     14  C   UNL     1      73.529  36.016  55.055  1.00  0.00     0.039 C 
BRANCH  13  15
ATOM     15  C   UNL     1      72.649  33.121  55.022  1.00  0.00     0.035 C 
BRANCH  15  16
ATOM     16  C   UNL     1      71.229  33.197  55.605  1.00  0.00     0.079 C 
BRANCH  16  17
ATOM     17  C   UNL     1      71.246  33.356  57.103  1.00  0.00     0.130 C 
ATOM     18  O   UNL     1      70.215  33.632  57.698  1.00  0.00    -0.300 OA
ATOM     19  C   UNL     1      72.514  33.150  57.881  1.00  0.00     0.087 C 
ENDBRANCH  16  17
ENDBRANCH  15  16
ENDBRANCH  13  15
ENDBRANCH  11  12
ENDBRANCH   1  11
TORSDOF 9
ENDMDL
MODEL 5
REMARK VINA RESULT:    -2.759      2.731      8.178
REMARK INTER + INTRA:          -5.206
REMARK INTER:                  -5.128
REMARK INTRA:                  -0.079
REMARK UNBOUND:                -0.995
REMARK SMILES CC(=O)CCC=C(C)CCC=C(C)CCC=C(C)C
REMARK SMILES IDX 10 1 11 2 12 3 13 4 14 5 15 6 16 7 18 8 17 9 19 10 9 11 7 12
REMARK SMILES IDX 6 13 8 14 5 15 4 16 2 17 3 18 1 19
REMARK H PARENT
REMARK Flexibility Score: inf
ROOT
ATOM      1  C   UNL     1      75.685  32.409  52.426  1.00  0.00     0.032 C 
ENDROOT
BRANCH   1   2
ATOM      2  C   UNL     1      77.098  31.877  52.411  1.00  0.00    -0.028 C 
ATOM      3  C   UNL     1      78.222  32.624  52.322  1.00  0.00    -0.077 C 
ATOM      4  C   UNL     1      79.551  31.912  52.334  1.00  0.00     0.039 C 
BRANCH   3   5
ATOM      5  C   UNL     1      78.207  34.138  52.156  1.00  0.00     0.034 C 
BRANCH   5   6
ATOM      6  C   UNL     1      79.618  34.713  51.941  1.00  0.00     0.032 C 
BRANCH   6   7
ATOM      7  C   UNL     1      79.690  35.591  50.714  1.00  0.00    -0.028 C 
ATOM      8  C   UNL     1      80.075  36.124  48.328  1.00  0.00     0.039 C 
ATOM      9  C   UNL     1      80.075  35.164  49.490  1.00  0.00    -0.080 C 
ATOM     10  C   UNL     1      80.512  33.743  49.234  1.00  0.00     0.039 C 
ENDBRANCH   6   7
ENDBRANCH   5   6
ENDBRANCH   3   5
ENDBRANCH   1   2
BRANCH   1  11
ATOM     11  C   UNL     1      75.631  33.909  52.095  1.00  0.00     0.034 C 
BRANCH  11  12
ATOM     12  C   UNL     1      74.598  34.632  52.938  1.00  0.00    -0.077 C 
ATOM     13  C   UNL     1      73.809  33.908  53.768  1.00  0.00    -0.028 C 
ATOM     14  C   UNL     1      74.409  36.125  52.747  1.00  0.00     0.039 C 
BRANCH  13  15
ATOM     15  C   UNL     1      72.743  34.489  54.671  1.00  0.00     0.035 C 
BRANCH  15  16
ATOM     16  C   UNL     1      71.752  33.422  55.161  1.00  0.00     0.079 C 
BRANCH  16  17
ATOM     17  C   UNL     1      71.944  33.107  56.621  1.00  0.00     0.130 C 
ATOM     18  O   UNL     1      72.996  32.617  57.004  1.00  0.00    -0.300 OA
ATOM     19  C   UNL     1      70.866  33.414  57.620  1.00  0.00     0.087 C 
ENDBRANCH  16  17
ENDBRANCH  15  16
ENDBRANCH  13  15
ENDBRANCH  11  12
ENDBRANCH   1  11
TORSDOF 9
ENDMDL
MODEL 6
REMARK VINA RESULT:    -2.198      1.213      2.327
REMARK INTER + INTRA:          -4.350
REMARK INTER:                  -4.244
REMARK INTRA:                  -0.106
REMARK UNBOUND:                -0.995
REMARK SMILES CC(=O)CCC=C(C)CCC=C(C)CCC=C(C)C
REMARK SMILES IDX 10 1 11 2 12 3 13 4 14 5 15 6 16 7 18 8 17 9 19 10 9 11 7 12
REMARK SMILES IDX 6 13 8 14 5 15 4 16 2 17 3 18 1 19
REMARK H PARENT
REMARK Flexibility Score: inf
ROOT
ATOM      1  C   UNL     1      74.327  35.805  53.109  1.00  0.00     0.032 C 
ENDROOT
BRANCH   1   2
ATOM      2  C   UNL     1      73.750  34.412  53.166  1.00  0.00    -0.028 C 
ATOM      3  C   UNL     1      72.939  33.933  54.137  1.00  0.00    -0.077 C 
ATOM      4  C   UNL     1      72.450  32.511  54.017  1.00  0.00     0.039 C 
BRANCH   3   5
ATOM      5  C   UNL     1      72.542  34.738  55.367  1.00  0.00     0.034 C 
BRANCH   5   6
ATOM      6  C   UNL     1      71.174  34.311  55.925  1.00  0.00     0.032 C 
BRANCH   6   7
ATOM      7  C   UNL     1      71.242  33.980  57.397  1.00  0.00    -0.028 C 
ATOM      8  C   UNL     1      72.104  32.865  59.432  1.00  0.00     0.039 C 
ATOM      9  C   UNL     1      72.103  33.090  57.941  1.00  0.00    -0.080 C 
ATOM     10  C   UNL     1      73.080  32.300  57.105  1.00  0.00     0.039 C 
ENDBRANCH   6   7
ENDBRANCH   5   6
ENDBRANCH   3   5
ENDBRANCH   1   2
BRANCH   1  11
ATOM     11  C   UNL     1      75.039  36.081  51.776  1.00  0.00     0.034 C 
BRANCH  11  12
ATOM     12  C   UNL     1      76.543  35.927  51.901  1.00  0.00    -0.077 C 
ATOM     13  C   UNL     1      77.251  35.525  50.817  1.00  0.00    -0.028 C 
ATOM     14  C   UNL     1      77.191  36.124  53.257  1.00  0.00     0.039 C 
BRANCH  13  15
ATOM     15  C   UNL     1      78.752  35.333  50.789  1.00  0.00     0.035 C 
BRANCH  15  16
ATOM     16  C   UNL     1      79.170  33.948  51.306  1.00  0.00     0.079 C 
BRANCH  16  17
ATOM     17  C   UNL     1      80.326  34.035  52.268  1.00  0.00     0.130 C 
ATOM     18  O   UNL     1      81.058  33.070  52.428  1.00  0.00    -0.300 OA
ATOM     19  C   UNL     1      80.607  35.306  53.015  1.00  0.00     0.087 C 
ENDBRANCH  16  17
ENDBRANCH  15  16
ENDBRANCH  13  15
ENDBRANCH  11  12
ENDBRANCH   1  11
TORSDOF 9
ENDMDL
