MODEL 1
REMARK VINA RESULT:    -6.363      0.000      0.000
REMARK INTER + INTRA:         -12.060
REMARK INTER:                 -11.198
REMARK INTRA:                  -0.862
REMARK UNBOUND:                -0.862
REMARK SMILES CCCCCCCCCCCCCCC(=O)[O-]
REMARK SMILES IDX 9 1 10 2 11 3 12 4 13 5 14 6 15 7 16 8 17 9 8 10 7 11 6 12
REMARK SMILES IDX 5 13 4 14 3 15 2 16 1 17
REMARK H PARENT
REMARK Flexibility Score: inf
ROOT
ATOM      1  C   UNL     1      93.781  -8.245  -3.117  1.00  0.00     0.000 C 
ENDROOT
BRANCH   1   2
ATOM      2  C   UNL     1      94.855  -7.474  -3.905  1.00  0.00     0.000 C 
BRANCH   2   3
ATOM      3  C   UNL     1      94.554  -7.392  -5.411  1.00  0.00     0.000 C 
BRANCH   3   4
ATOM      4  C   UNL     1      95.805  -7.092  -6.259  1.00  0.00     0.000 C 
BRANCH   4   5
ATOM      5  C   UNL     1      96.075  -5.598  -6.527  1.00  0.00     0.006 C 
BRANCH   5   6
ATOM      6  C   UNL     1      96.890  -4.887  -5.436  1.00  0.00     0.053 C 
BRANCH   6   7
ATOM      7  C   UNL     1      96.905  -3.401  -5.627  1.00  0.00     0.041 C 
ATOM      8  O   UNL     1      97.795  -2.700  -5.079  1.00  0.00    -0.550 OA
ATOM      9  O   UNL     1      95.914  -2.788  -6.385  1.00  0.00    -0.550 OA
ENDBRANCH   6   7
ENDBRANCH   5   6
ENDBRANCH   4   5
ENDBRANCH   3   4
ENDBRANCH   2   3
ENDBRANCH   1   2
BRANCH   1  10
ATOM     10  C   UNL     1      92.618  -8.808  -3.955  1.00  0.00     0.000 C 
BRANCH  10  11
ATOM     11  C   UNL     1      91.267  -8.758  -3.220  1.00  0.00    -0.000 C 
BRANCH  11  12
ATOM     12  C   UNL     1      90.064  -8.684  -4.179  1.00  0.00    -0.000 C 
BRANCH  12  13
ATOM     13  C   UNL     1      90.390  -8.211  -5.607  1.00  0.00    -0.000 C 
BRANCH  13  14
ATOM     14  C   UNL     1      89.675  -6.906  -5.987  1.00  0.00    -0.000 C 
BRANCH  14  15
ATOM     15  C   UNL     1      88.707  -6.467  -4.883  1.00  0.00    -0.000 C 
BRANCH  15  16
ATOM     16  C   UNL     1      88.236  -5.025  -5.106  1.00  0.00    -0.003 C 
ATOM     17  C   UNL     1      88.620  -4.528  -6.497  1.00  0.00     0.004 C 
ENDBRANCH  15  16
ENDBRANCH  14  15
ENDBRANCH  13  14
ENDBRANCH  12  13
ENDBRANCH  11  12
ENDBRANCH  10  11
ENDBRANCH   1  10
TORSDOF 13
ENDMDL
MODEL 2
REMARK VINA RESULT:    -6.041     10.664     13.696
REMARK INTER + INTRA:         -11.493
REMARK INTER:                 -10.135
REMARK INTRA:                  -1.358
REMARK UNBOUND:                -0.862
REMARK SMILES CCCCCCCCCCCCCCC(=O)[O-]
REMARK SMILES IDX 9 1 10 2 11 3 12 4 13 5 14 6 15 7 16 8 17 9 8 10 7 11 6 12
REMARK SMILES IDX 5 13 4 14 3 15 2 16 1 17
REMARK H PARENT
REMARK Flexibility Score: inf
ROOT
ATOM      1  C   UNL     1      86.346  -2.731   2.596  1.00  0.00     0.000 C 
ENDROOT
BRANCH   1   2
ATOM      2  C   UNL     1      84.901  -2.284   2.312  1.00  0.00     0.000 C 
BRANCH   2   3
ATOM      3  C   UNL     1      83.874  -2.936   3.254  1.00  0.00     0.000 C 
BRANCH   3   4
ATOM      4  C   UNL     1      82.844  -3.808   2.509  1.00  0.00     0.000 C 
BRANCH   4   5
ATOM      5  C   UNL     1      81.368  -3.425   2.739  1.00  0.00     0.006 C 
BRANCH   5   6
ATOM      6  C   UNL     1      80.573  -3.138   1.456  1.00  0.00     0.053 C 
BRANCH   6   7
ATOM      7  C   UNL     1      81.392  -2.395   0.445  1.00  0.00     0.041 C 
ATOM      8  O   UNL     1      81.714  -1.195   0.649  1.00  0.00    -0.550 OA
ATOM      9  O   UNL     1      81.770  -3.018  -0.737  1.00  0.00    -0.550 OA
ENDBRANCH   6   7
ENDBRANCH   5   6
ENDBRANCH   4   5
ENDBRANCH   3   4
ENDBRANCH   2   3
ENDBRANCH   1   2
BRANCH   1  10
ATOM     10  C   UNL     1      87.444  -1.923   1.879  1.00  0.00     0.000 C 
BRANCH  10  11
ATOM     11  C   UNL     1      88.840  -2.557   2.011  1.00  0.00    -0.000 C 
BRANCH  11  12
ATOM     12  C   UNL     1      89.509  -2.260   3.367  1.00  0.00    -0.000 C 
BRANCH  12  13
ATOM     13  C   UNL     1      89.345  -3.356   4.435  1.00  0.00    -0.000 C 
BRANCH  13  14
ATOM     14  C   UNL     1      88.871  -2.811   5.790  1.00  0.00    -0.000 C 
BRANCH  14  15
ATOM     15  C   UNL     1      88.089  -1.505   5.614  1.00  0.00    -0.000 C 
BRANCH  15  16
ATOM     16  C   UNL     1      86.728  -1.579   6.318  1.00  0.00    -0.003 C 
ATOM     17  C   UNL     1      86.210  -3.013   6.366  1.00  0.00     0.004 C 
ENDBRANCH  15  16
ENDBRANCH  14  15
ENDBRANCH  13  14
ENDBRANCH  12  13
ENDBRANCH  11  12
ENDBRANCH  10  11
ENDBRANCH   1  10
TORSDOF 13
ENDMDL
MODEL 3
REMARK VINA RESULT:    -6.022     12.672     14.800
REMARK INTER + INTRA:         -11.460
REMARK INTER:                  -9.989
REMARK INTRA:                  -1.472
REMARK UNBOUND:                -0.862
REMARK SMILES CCCCCCCCCCCCCCC(=O)[O-]
REMARK SMILES IDX 9 1 10 2 11 3 12 4 13 5 14 6 15 7 16 8 17 9 8 10 7 11 6 12
REMARK SMILES IDX 5 13 4 14 3 15 2 16 1 17
REMARK H PARENT
REMARK Flexibility Score: inf
ROOT
ATOM      1  C   UNL     1      93.403  -4.048   7.916  1.00  0.00     0.000 C 
ENDROOT
BRANCH   1   2
ATOM      2  C   UNL     1      93.904  -2.610   7.688  1.00  0.00     0.000 C 
BRANCH   2   3
ATOM      3  C   UNL     1      92.984  -1.791   6.768  1.00  0.00     0.000 C 
BRANCH   3   4
ATOM      4  C   UNL     1      91.500  -2.183   6.898  1.00  0.00     0.000 C 
BRANCH   4   5
ATOM      5  C   UNL     1      90.815  -2.619   5.587  1.00  0.00     0.006 C 
BRANCH   5   6
ATOM      6  C   UNL     1      89.747  -3.710   5.753  1.00  0.00     0.053 C 
BRANCH   6   7
ATOM      7  C   UNL     1      90.356  -5.055   6.006  1.00  0.00     0.041 C 
ATOM      8  O   UNL     1      90.176  -5.636   7.108  1.00  0.00    -0.550 OA
ATOM      9  O   UNL     1      91.150  -5.652   5.034  1.00  0.00    -0.550 OA
ENDBRANCH   6   7
ENDBRANCH   5   6
ENDBRANCH   4   5
ENDBRANCH   3   4
ENDBRANCH   2   3
ENDBRANCH   1   2
BRANCH   1  10
ATOM     10  C   UNL     1      93.259  -4.476   9.388  1.00  0.00     0.000 C 
BRANCH  10  11
ATOM     11  C   UNL     1      94.193  -3.701  10.334  1.00  0.00    -0.000 C 
BRANCH  11  12
ATOM     12  C   UNL     1      95.426  -4.520  10.763  1.00  0.00    -0.000 C 
BRANCH  12  13
ATOM     13  C   UNL     1      96.728  -3.714  10.920  1.00  0.00    -0.000 C 
BRANCH  13  14
ATOM     14  C   UNL     1      97.063  -2.865   9.685  1.00  0.00    -0.000 C 
BRANCH  14  15
ATOM     15  C   UNL     1      97.330  -3.752   8.463  1.00  0.00    -0.000 C 
BRANCH  15  16
ATOM     16  C   UNL     1      97.634  -2.903   7.223  1.00  0.00    -0.003 C 
ATOM     17  C   UNL     1      98.754  -3.522   6.392  1.00  0.00     0.004 C 
ENDBRANCH  15  16
ENDBRANCH  14  15
ENDBRANCH  13  14
ENDBRANCH  12  13
ENDBRANCH  11  12
ENDBRANCH  10  11
ENDBRANCH   1  10
TORSDOF 13
ENDMDL
MODEL 4
REMARK VINA RESULT:    -5.982     12.313     13.990
REMARK INTER + INTRA:         -11.390
REMARK INTER:                 -10.086
REMARK INTRA:                  -1.304
REMARK UNBOUND:                -0.862
REMARK SMILES CCCCCCCCCCCCCCC(=O)[O-]
REMARK SMILES IDX 9 1 10 2 11 3 12 4 13 5 14 6 15 7 16 8 17 9 8 10 7 11 6 12
REMARK SMILES IDX 5 13 4 14 3 15 2 16 1 17
REMARK H PARENT
REMARK Flexibility Score: inf
ROOT
ATOM      1  C   UNL     1      97.266  -2.957   7.518  1.00  0.00     0.000 C 
ENDROOT
BRANCH   1   2
ATOM      2  C   UNL     1      98.680  -2.631   7.003  1.00  0.00     0.000 C 
BRANCH   2   3
ATOM      3  C   UNL     1      99.552  -3.882   6.806  1.00  0.00     0.000 C 
BRANCH   3   4
ATOM      4  C   UNL     1      99.167  -4.692   5.553  1.00  0.00     0.000 C 
BRANCH   4   5
ATOM      5  C   UNL     1      98.837  -6.178   5.804  1.00  0.00     0.006 C 
BRANCH   5   6
ATOM      6  C   UNL     1      97.353  -6.540   5.645  1.00  0.00     0.053 C 
BRANCH   6   7
ATOM      7  C   UNL     1      97.162  -7.744   4.775  1.00  0.00     0.041 C 
ATOM      8  O   UNL     1      96.992  -7.610   3.534  1.00  0.00    -0.550 OA
ATOM      9  O   UNL     1      97.138  -9.014   5.339  1.00  0.00    -0.550 OA
ENDBRANCH   6   7
ENDBRANCH   5   6
ENDBRANCH   4   5
ENDBRANCH   3   4
ENDBRANCH   2   3
ENDBRANCH   1   2
BRANCH   1  10
ATOM     10  C   UNL     1      97.206  -3.807   8.800  1.00  0.00     0.000 C 
BRANCH  10  11
ATOM     11  C   UNL     1      97.057  -2.961  10.076  1.00  0.00    -0.000 C 
BRANCH  11  12
ATOM     12  C   UNL     1      95.873  -3.404  10.957  1.00  0.00    -0.000 C 
BRANCH  12  13
ATOM     13  C   UNL     1      95.380  -4.842  10.719  1.00  0.00    -0.000 C 
BRANCH  13  14
ATOM     14  C   UNL     1      93.991  -4.903  10.066  1.00  0.00    -0.000 C 
BRANCH  14  15
ATOM     15  C   UNL     1      93.566  -3.523   9.550  1.00  0.00    -0.000 C 
BRANCH  15  16
ATOM     16  C   UNL     1      93.596  -3.476   8.017  1.00  0.00    -0.003 C 
ATOM     17  C   UNL     1      92.476  -2.595   7.471  1.00  0.00     0.004 C 
ENDBRANCH  15  16
ENDBRANCH  14  15
ENDBRANCH  13  14
ENDBRANCH  12  13
ENDBRANCH  11  12
ENDBRANCH  10  11
ENDBRANCH   1  10
TORSDOF 13
ENDMDL
MODEL 5
REMARK VINA RESULT:    -5.922     12.135     13.446
REMARK INTER + INTRA:         -11.284
REMARK INTER:                  -9.726
REMARK INTRA:                  -1.558
REMARK UNBOUND:                -0.862
REMARK SMILES CCCCCCCCCCCCCCC(=O)[O-]
REMARK SMILES IDX 9 1 10 2 11 3 12 4 13 5 14 6 15 7 16 8 17 9 8 10 7 11 6 12
REMARK SMILES IDX 5 13 4 14 3 15 2 16 1 17
REMARK H PARENT
REMARK Flexibility Score: inf
ROOT
ATOM      1  C   UNL     1      92.583  -2.464   7.563  1.00  0.00     0.000 C 
ENDROOT
BRANCH   1   2
ATOM      2  C   UNL     1      93.642  -3.511   7.952  1.00  0.00     0.000 C 
BRANCH   2   3
ATOM      3  C   UNL     1      93.374  -4.157   9.322  1.00  0.00     0.000 C 
BRANCH   3   4
ATOM      4  C   UNL     1      94.596  -4.110  10.258  1.00  0.00     0.000 C 
BRANCH   4   5
ATOM      5  C   UNL     1      95.616  -2.994   9.955  1.00  0.00     0.006 C 
BRANCH   5   6
ATOM      6  C   UNL     1      97.052  -3.485   9.717  1.00  0.00     0.053 C 
BRANCH   6   7
ATOM      7  C   UNL     1      97.424  -3.446   8.266  1.00  0.00     0.041 C 
ATOM      8  O   UNL     1      97.048  -4.365   7.490  1.00  0.00    -0.550 OA
ATOM      9  O   UNL     1      98.212  -2.412   7.778  1.00  0.00    -0.550 OA
ENDBRANCH   6   7
ENDBRANCH   5   6
ENDBRANCH   4   5
ENDBRANCH   3   4
ENDBRANCH   2   3
ENDBRANCH   1   2
BRANCH   1  10
ATOM     10  C   UNL     1      92.993  -1.490   6.442  1.00  0.00     0.000 C 
BRANCH  10  11
ATOM     11  C   UNL     1      91.866  -0.518   6.049  1.00  0.00    -0.000 C 
BRANCH  11  12
ATOM     12  C   UNL     1      90.954  -1.073   4.940  1.00  0.00    -0.000 C 
BRANCH  12  13
ATOM     13  C   UNL     1      89.528  -1.444   5.386  1.00  0.00    -0.000 C 
BRANCH  13  14
ATOM     14  C   UNL     1      89.399  -2.906   5.837  1.00  0.00    -0.000 C 
BRANCH  14  15
ATOM     15  C   UNL     1      90.017  -3.857   4.806  1.00  0.00    -0.000 C 
BRANCH  15  16
ATOM     16  C   UNL     1      90.739  -5.021   5.494  1.00  0.00    -0.003 C 
ATOM     17  C   UNL     1      90.153  -5.294   6.876  1.00  0.00     0.004 C 
ENDBRANCH  15  16
ENDBRANCH  14  15
ENDBRANCH  13  14
ENDBRANCH  12  13
ENDBRANCH  11  12
ENDBRANCH  10  11
ENDBRANCH   1  10
TORSDOF 13
ENDMDL
MODEL 6
REMARK VINA RESULT:    -5.919     13.286     15.698
REMARK INTER + INTRA:         -11.279
REMARK INTER:                 -10.067
REMARK INTRA:                  -1.212
REMARK UNBOUND:                -0.862
REMARK SMILES CCCCCCCCCCCCCCC(=O)[O-]
REMARK SMILES IDX 9 1 10 2 11 3 12 4 13 5 14 6 15 7 16 8 17 9 8 10 7 11 6 12
REMARK SMILES IDX 5 13 4 14 3 15 2 16 1 17
REMARK H PARENT
REMARK Flexibility Score: inf
ROOT
ATOM      1  C   UNL     1      82.719   1.501  -0.151  1.00  0.00     0.000 C 
ENDROOT
BRANCH   1   2
ATOM      2  C   UNL     1      81.375   2.240  -0.279  1.00  0.00     0.000 C 
BRANCH   2   3
ATOM      3  C   UNL     1      80.644   2.397   1.065  1.00  0.00     0.000 C 
BRANCH   3   4
ATOM      4  C   UNL     1      81.556   2.935   2.185  1.00  0.00     0.000 C 
BRANCH   4   5
ATOM      5  C   UNL     1      80.925   2.961   3.592  1.00  0.00     0.006 C 
BRANCH   5   6
ATOM      6  C   UNL     1      81.887   2.594   4.733  1.00  0.00     0.053 C 
BRANCH   6   7
ATOM      7  C   UNL     1      82.626   3.791   5.248  1.00  0.00     0.041 C 
ATOM      8  O   UNL     1      82.061   4.916   5.290  1.00  0.00    -0.550 OA
ATOM      9  O   UNL     1      83.950   3.669   5.652  1.00  0.00    -0.550 OA
ENDBRANCH   6   7
ENDBRANCH   5   6
ENDBRANCH   4   5
ENDBRANCH   3   4
ENDBRANCH   2   3
ENDBRANCH   1   2
BRANCH   1  10
ATOM     10  C   UNL     1      82.622  -0.015   0.101  1.00  0.00     0.000 C 
BRANCH  10  11
ATOM     11  C   UNL     1      83.106  -0.423   1.504  1.00  0.00    -0.000 C 
BRANCH  11  12
ATOM     12  C   UNL     1      84.036  -1.652   1.484  1.00  0.00    -0.000 C 
BRANCH  12  13
ATOM     13  C   UNL     1      83.809  -2.666   2.620  1.00  0.00    -0.000 C 
BRANCH  13  14
ATOM     14  C   UNL     1      82.791  -3.758   2.259  1.00  0.00    -0.000 C 
BRANCH  14  15
ATOM     15  C   UNL     1      81.367  -3.327   2.630  1.00  0.00    -0.000 C 
BRANCH  15  16
ATOM     16  C   UNL     1      80.529  -3.057   1.375  1.00  0.00    -0.003 C 
ATOM     17  C   UNL     1      81.247  -3.539   0.118  1.00  0.00     0.004 C 
ENDBRANCH  15  16
ENDBRANCH  14  15
ENDBRANCH  13  14
ENDBRANCH  12  13
ENDBRANCH  11  12
ENDBRANCH  10  11
ENDBRANCH   1  10
TORSDOF 13
ENDMDL
MODEL 7
REMARK VINA RESULT:    -5.898     11.395     13.721
REMARK INTER + INTRA:         -11.242
REMARK INTER:                  -9.754
REMARK INTRA:                  -1.487
REMARK UNBOUND:                -0.862
REMARK SMILES CCCCCCCCCCCCCCC(=O)[O-]
REMARK SMILES IDX 9 1 10 2 11 3 12 4 13 5 14 6 15 7 16 8 17 9 8 10 7 11 6 12
REMARK SMILES IDX 5 13 4 14 3 15 2 16 1 17
REMARK H PARENT
REMARK Flexibility Score: inf
ROOT
ATOM      1  C   UNL     1      82.196  -3.392   3.391  1.00  0.00     0.000 C 
ENDROOT
BRANCH   1   2
ATOM      2  C   UNL     1      81.124  -3.414   2.286  1.00  0.00     0.000 C 
BRANCH   2   3
ATOM      3  C   UNL     1      81.704  -3.706   0.892  1.00  0.00     0.000 C 
BRANCH   3   4
ATOM      4  C   UNL     1      81.740  -2.462  -0.017  1.00  0.00     0.000 C 
BRANCH   4   5
ATOM      5  C   UNL     1      81.540  -1.113   0.704  1.00  0.00     0.006 C 
BRANCH   5   6
ATOM      6  C   UNL     1      82.802  -0.241   0.793  1.00  0.00     0.053 C 
BRANCH   6   7
ATOM      7  C   UNL     1      82.856   0.777  -0.305  1.00  0.00     0.041 C 
ATOM      8  O   UNL     1      81.866   1.523  -0.528  1.00  0.00    -0.550 OA
ATOM      9  O   UNL     1      83.989   0.879  -1.103  1.00  0.00    -0.550 OA
ENDBRANCH   6   7
ENDBRANCH   5   6
ENDBRANCH   4   5
ENDBRANCH   3   4
ENDBRANCH   2   3
ENDBRANCH   1   2
BRANCH   1  10
ATOM     10  C   UNL     1      83.631  -3.711   2.933  1.00  0.00     0.000 C 
BRANCH  10  11
ATOM     11  C   UNL     1      84.604  -2.537   3.141  1.00  0.00    -0.000 C 
BRANCH  11  12
ATOM     12  C   UNL     1      85.577  -2.348   1.962  1.00  0.00    -0.000 C 
BRANCH  12  13
ATOM     13  C   UNL     1      87.041  -2.079   2.355  1.00  0.00    -0.000 C 
BRANCH  13  14
ATOM     14  C   UNL     1      87.508  -2.920   3.552  1.00  0.00    -0.000 C 
BRANCH  14  15
ATOM     15  C   UNL     1      87.802  -2.032   4.767  1.00  0.00    -0.000 C 
BRANCH  15  16
ATOM     16  C   UNL     1      87.699  -2.832   6.071  1.00  0.00    -0.003 C 
ATOM     17  C   UNL     1      86.242  -3.058   6.466  1.00  0.00     0.004 C 
ENDBRANCH  15  16
ENDBRANCH  14  15
ENDBRANCH  13  14
ENDBRANCH  12  13
ENDBRANCH  11  12
ENDBRANCH  10  11
ENDBRANCH   1  10
TORSDOF 13
ENDMDL
MODEL 8
REMARK VINA RESULT:    -5.881     11.182     12.631
REMARK INTER + INTRA:         -11.212
REMARK INTER:                 -10.014
REMARK INTRA:                  -1.198
REMARK UNBOUND:                -0.862
REMARK SMILES CCCCCCCCCCCCCCC(=O)[O-]
REMARK SMILES IDX 9 1 10 2 11 3 12 4 13 5 14 6 15 7 16 8 17 9 8 10 7 11 6 12
REMARK SMILES IDX 5 13 4 14 3 15 2 16 1 17
REMARK H PARENT
REMARK Flexibility Score: inf
ROOT
ATOM      1  C   UNL     1      86.331  -2.676   2.714  1.00  0.00     0.000 C 
ENDROOT
BRANCH   1   2
ATOM      2  C   UNL     1      87.467  -1.984   1.939  1.00  0.00     0.000 C 
BRANCH   2   3
ATOM      3  C   UNL     1      88.774  -1.888   2.744  1.00  0.00     0.000 C 
BRANCH   3   4
ATOM      4  C   UNL     1      88.920  -3.011   3.789  1.00  0.00     0.000 C 
BRANCH   4   5
ATOM      5  C   UNL     1      88.900  -2.549   5.260  1.00  0.00     0.006 C 
BRANCH   5   6
ATOM      6  C   UNL     1      87.984  -3.372   6.178  1.00  0.00     0.053 C 
BRANCH   6   7
ATOM      7  C   UNL     1      86.665  -2.697   6.403  1.00  0.00     0.041 C 
ATOM      8  O   UNL     1      85.639  -3.380   6.663  1.00  0.00    -0.550 OA
ATOM      9  O   UNL     1      86.564  -1.316   6.293  1.00  0.00    -0.550 OA
ENDBRANCH   6   7
ENDBRANCH   5   6
ENDBRANCH   4   5
ENDBRANCH   3   4
ENDBRANCH   2   3
ENDBRANCH   1   2
BRANCH   1  10
ATOM     10  C   UNL     1      84.908  -2.405   2.192  1.00  0.00     0.000 C 
BRANCH  10  11
ATOM     11  C   UNL     1      83.812  -2.867   3.168  1.00  0.00    -0.000 C 
BRANCH  11  12
ATOM     12  C   UNL     1      82.789  -3.817   2.516  1.00  0.00    -0.000 C 
BRANCH  12  13
ATOM     13  C   UNL     1      81.380  -3.231   2.318  1.00  0.00    -0.000 C 
BRANCH  13  14
ATOM     14  C   UNL     1      80.950  -3.178   0.845  1.00  0.00    -0.000 C 
BRANCH  14  15
ATOM     15  C   UNL     1      81.831  -2.209   0.049  1.00  0.00    -0.000 C 
BRANCH  15  16
ATOM     16  C   UNL     1      81.833  -0.815   0.689  1.00  0.00    -0.003 C 
ATOM     17  C   UNL     1      83.025   0.009   0.213  1.00  0.00     0.004 C 
ENDBRANCH  15  16
ENDBRANCH  14  15
ENDBRANCH  13  14
ENDBRANCH  12  13
ENDBRANCH  11  12
ENDBRANCH  10  11
ENDBRANCH   1  10
TORSDOF 13
ENDMDL
MODEL 9
REMARK VINA RESULT:    -5.875     12.739     14.801
REMARK INTER + INTRA:         -11.202
REMARK INTER:                  -9.660
REMARK INTRA:                  -1.542
REMARK UNBOUND:                -0.862
REMARK SMILES CCCCCCCCCCCCCCC(=O)[O-]
REMARK SMILES IDX 9 1 10 2 11 3 12 4 13 5 14 6 15 7 16 8 17 9 8 10 7 11 6 12
REMARK SMILES IDX 5 13 4 14 3 15 2 16 1 17
REMARK H PARENT
REMARK Flexibility Score: inf
ROOT
ATOM      1  C   UNL     1      94.211  -3.821  10.197  1.00  0.00     0.000 C 
ENDROOT
BRANCH   1   2
ATOM      2  C   UNL     1      93.189  -4.627   9.375  1.00  0.00     0.000 C 
BRANCH   2   3
ATOM      3  C   UNL     1      92.953  -4.045   7.970  1.00  0.00     0.000 C 
BRANCH   3   4
ATOM      4  C   UNL     1      93.348  -2.560   7.861  1.00  0.00     0.000 C 
BRANCH   4   5
ATOM      5  C   UNL     1      92.594  -1.755   6.783  1.00  0.00     0.006 C 
BRANCH   5   6
ATOM      6  C   UNL     1      91.212  -2.315   6.415  1.00  0.00     0.053 C 
BRANCH   6   7
ATOM      7  C   UNL     1      90.471  -1.406   5.481  1.00  0.00     0.041 C 
ATOM      8  O   UNL     1      90.470  -0.162   5.675  1.00  0.00    -0.550 OA
ATOM      9  O   UNL     1      89.756  -1.939   4.416  1.00  0.00    -0.550 OA
ENDBRANCH   6   7
ENDBRANCH   5   6
ENDBRANCH   4   5
ENDBRANCH   3   4
ENDBRANCH   2   3
ENDBRANCH   1   2
BRANCH   1  10
ATOM     10  C   UNL     1      95.322  -4.648  10.870  1.00  0.00     0.000 C 
BRANCH  10  11
ATOM     11  C   UNL     1      96.691  -3.946  10.848  1.00  0.00    -0.000 C 
BRANCH  11  12
ATOM     12  C   UNL     1      96.695  -2.663   9.995  1.00  0.00    -0.000 C 
BRANCH  12  13
ATOM     13  C   UNL     1      97.585  -2.711   8.740  1.00  0.00    -0.000 C 
BRANCH  13  14
ATOM     14  C   UNL     1      96.809  -3.076   7.465  1.00  0.00    -0.000 C 
BRANCH  14  15
ATOM     15  C   UNL     1      96.989  -4.558   7.117  1.00  0.00    -0.000 C 
BRANCH  15  16
ATOM     16  C   UNL     1      98.475  -4.927   7.034  1.00  0.00    -0.003 C 
ATOM     17  C   UNL     1      99.091  -4.443   5.724  1.00  0.00     0.004 C 
ENDBRANCH  15  16
ENDBRANCH  14  15
ENDBRANCH  13  14
ENDBRANCH  12  13
ENDBRANCH  11  12
ENDBRANCH  10  11
ENDBRANCH   1  10
TORSDOF 13
ENDMDL
