MODEL 1
REMARK VINA RESULT:    -4.311      0.000      0.000
REMARK INTER + INTRA:          -5.930
REMARK INTER:                  -5.823
REMARK INTRA:                  -0.107
REMARK UNBOUND:                -0.107
REMARK SMILES C=C1C(=O)O[C@@H]2[C@@H]1CCC(C)=CCC[C@]1(C)O[C@@H]21
REMARK SMILES IDX 6 1 7 2 2 3 1 4 3 5 4 6 5 7 8 8 9 9 10 10 11 11 12 12 18 14
REMARK SMILES IDX 15 15 17 16 16 17 14 18 13 19
REMARK H PARENT
REMARK Flexibility Score: 70.00
ROOT
ATOM      1  C   UNL     1      49.005  77.957  26.584  1.00  0.00     0.216 C 
ATOM      2  C   UNL     1      50.438  77.364  26.474  1.00  0.00     0.070 C 
ATOM      3  C   UNL     1      50.523  77.022  25.015  1.00  0.00     0.037 C 
ATOM      4  C   UNL     1      51.604  76.625  24.344  1.00  0.00     0.021 C 
ATOM      5  C   UNL     1      49.158  76.958  24.531  1.00  0.00     0.334 C 
ATOM      6  O   UNL     1      48.799  76.539  23.399  1.00  0.00    -0.247 OA
ATOM      7  O   UNL     1      48.276  77.380  25.507  1.00  0.00    -0.455 OA
ENDROOT
BRANCH   2   8
ATOM      8  C   UNL     1      51.537  78.310  27.021  1.00  0.00     0.017 C 
BRANCH   8   9
ATOM      9  C   UNL     1      51.000  79.483  27.894  1.00  0.00     0.031 C 
BRANCH   9  10
ATOM     10  C   UNL     1      51.335  79.355  29.371  1.00  0.00    -0.077 C 
ATOM     11  C   UNL     1      52.783  79.075  29.706  1.00  0.00     0.039 C 
ATOM     12  C   UNL     1      50.479  79.464  30.433  1.00  0.00    -0.028 CG0
ATOM     13  G   UNL     1      48.994  79.809  30.601  1.00  0.00     0.000 G0
ENDBRANCH   9  10
ENDBRANCH   8   9
ENDBRANCH   2   8
BRANCH   1  14
ATOM     14  C   UNL     1      48.432  77.598  27.953  1.00  0.00     0.192 C 
ATOM     15  C   UNL     1      47.662  78.718  28.585  1.00  0.00     0.096 C 
ATOM     16  O   UNL     1      47.041  77.524  28.146  1.00  0.00    -0.362 OA
ATOM     17  C   UNL     1      47.014  79.892  27.826  1.00  0.00     0.045 C 
BRANCH  15  18
ATOM     18  C   UNL     1      47.836  78.908  30.105  1.00  0.00     0.042 C 
BRANCH  18  19
ATOM     19  C   UNL     1      48.987  79.806  30.598  1.00  0.00     0.030 CG0
ATOM     20  G   UNL     1      50.470  79.455  30.431  1.00  0.00     0.000 G0
ENDBRANCH  18  19
ENDBRANCH  15  18
ENDBRANCH   1  14
TORSDOF 0
ENDMDL
MODEL 2
REMARK VINA RESULT:    -4.151      1.898      3.487
REMARK INTER + INTRA:          -5.713
REMARK INTER:                  -5.496
REMARK INTRA:                  -0.217
REMARK UNBOUND:                -0.107
REMARK SMILES C=C1C(=O)O[C@@H]2[C@@H]1CCC(C)=CCC[C@]1(C)O[C@@H]21
REMARK SMILES IDX 6 1 7 2 2 3 1 4 3 5 4 6 5 7 8 8 9 9 10 10 11 11 12 12 18 14
REMARK SMILES IDX 15 15 17 16 16 17 14 18 13 19
REMARK H PARENT
REMARK Flexibility Score: 70.00
ROOT
ATOM      1  C   UNL     1      50.709  77.533  26.845  1.00  0.00     0.216 C 
ATOM      2  C   UNL     1      49.388  77.695  26.040  1.00  0.00     0.070 C 
ATOM      3  C   UNL     1      49.697  76.941  24.780  1.00  0.00     0.037 C 
ATOM      4  C   UNL     1      48.847  76.627  23.802  1.00  0.00     0.021 C 
ATOM      5  C   UNL     1      51.141  76.842  24.707  1.00  0.00     0.334 C 
ATOM      6  O   UNL     1      51.800  76.424  23.719  1.00  0.00    -0.247 OA
ATOM      7  O   UNL     1      51.720  77.316  25.869  1.00  0.00    -0.455 OA
ENDROOT
BRANCH   2   8
ATOM      8  C   UNL     1      48.132  77.235  26.824  1.00  0.00     0.017 C 
BRANCH   8   9
ATOM      9  C   UNL     1      47.135  78.380  27.170  1.00  0.00     0.031 C 
BRANCH   9  10
ATOM     10  C   UNL     1      46.842  78.514  28.655  1.00  0.00    -0.077 C 
ATOM     11  C   UNL     1      45.666  77.720  29.179  1.00  0.00     0.039 C 
ATOM     12  C   UNL     1      47.519  79.269  29.574  1.00  0.00    -0.028 CG0
ATOM     13  G   UNL     1      48.777  80.146  29.546  1.00  0.00     0.000 G0
ENDBRANCH   9  10
ENDBRANCH   8   9
ENDBRANCH   2   8
BRANCH   1  14
ATOM     14  C   UNL     1      50.936  78.797  27.670  1.00  0.00     0.192 C 
ATOM     15  C   UNL     1      50.867  78.560  29.149  1.00  0.00     0.096 C 
ATOM     16  O   UNL     1      52.070  78.917  28.493  1.00  0.00    -0.362 OA
ATOM     17  C   UNL     1      51.095  77.204  29.845  1.00  0.00     0.045 C 
BRANCH  15  18
ATOM     18  C   UNL     1      50.173  79.647  29.993  1.00  0.00     0.042 C 
BRANCH  18  19
ATOM     19  C   UNL     1      48.783  80.139  29.544  1.00  0.00     0.030 CG0
ATOM     20  G   UNL     1      47.522  79.268  29.577  1.00  0.00     0.000 G0
ENDBRANCH  18  19
ENDBRANCH  15  18
ENDBRANCH   1  14
TORSDOF 0
ENDMDL
MODEL 3
REMARK VINA RESULT:    -3.211      2.850      4.976
REMARK INTER + INTRA:          -4.445
REMARK INTER:                  -4.321
REMARK INTRA:                  -0.124
REMARK UNBOUND:                -0.107
REMARK SMILES C=C1C(=O)O[C@@H]2[C@@H]1CCC(C)=CCC[C@]1(C)O[C@@H]21
REMARK SMILES IDX 6 1 7 2 2 3 1 4 3 5 4 6 5 7 8 8 9 9 10 10 11 11 12 12 18 14
REMARK SMILES IDX 15 15 17 16 16 17 14 18 13 19
REMARK H PARENT
REMARK Flexibility Score: 70.00
ROOT
ATOM      1  C   UNL     1      48.894  77.095  30.556  1.00  0.00     0.216 C 
ATOM      2  C   UNL     1      48.060  77.349  29.268  1.00  0.00     0.070 C 
ATOM      3  C   UNL     1      46.779  76.633  29.581  1.00  0.00     0.037 C 
ATOM      4  C   UNL     1      45.647  76.665  28.877  1.00  0.00     0.021 C 
ATOM      5  C   UNL     1      47.082  75.701  30.650  1.00  0.00     0.334 C 
ATOM      6  O   UNL     1      46.313  74.803  31.082  1.00  0.00    -0.247 OA
ATOM      7  O   UNL     1      48.369  75.897  31.114  1.00  0.00    -0.455 OA
ENDROOT
BRANCH   2   8
ATOM      8  C   UNL     1      47.935  78.850  28.905  1.00  0.00     0.017 C 
BRANCH   8   9
ATOM      9  C   UNL     1      48.230  79.178  27.411  1.00  0.00     0.031 C 
BRANCH   9  10
ATOM     10  C   UNL     1      49.198  78.212  26.747  1.00  0.00    -0.077 C 
ATOM     11  C   UNL     1      48.594  77.222  25.776  1.00  0.00     0.039 C 
ATOM     12  C   UNL     1      50.553  78.135  26.926  1.00  0.00    -0.028 CG0
ATOM     13  G   UNL     1      51.594  78.942  27.712  1.00  0.00     0.000 G0
ENDBRANCH   9  10
ENDBRANCH   8   9
ENDBRANCH   2   8
BRANCH   1  14
ATOM     14  C   UNL     1      50.366  76.977  30.168  1.00  0.00     0.192 C 
ATOM     15  C   UNL     1      51.102  78.282  30.228  1.00  0.00     0.096 C 
ATOM     16  O   UNL     1      51.375  77.216  31.119  1.00  0.00    -0.362 OA
ATOM     17  C   UNL     1      50.682  79.502  31.070  1.00  0.00     0.045 C 
BRANCH  15  18
ATOM     18  C   UNL     1      52.128  78.551  29.110  1.00  0.00     0.042 C 
BRANCH  18  19
ATOM     19  C   UNL     1      51.600  78.945  27.718  1.00  0.00     0.030 CG0
ATOM     20  G   UNL     1      50.555  78.131  26.943  1.00  0.00     0.000 G0
ENDBRANCH  18  19
ENDBRANCH  15  18
ENDBRANCH   1  14
TORSDOF 0
ENDMDL
MODEL 4
REMARK VINA RESULT:    -3.090      2.798      5.106
REMARK INTER + INTRA:          -4.281
REMARK INTER:                  -4.450
REMARK INTRA:                   0.169
REMARK UNBOUND:                -0.107
REMARK SMILES C=C1C(=O)O[C@@H]2[C@@H]1CCC(C)=CCC[C@]1(C)O[C@@H]21
REMARK SMILES IDX 6 1 7 2 2 3 1 4 3 5 4 6 5 7 8 8 9 9 10 10 11 11 12 12 18 14
REMARK SMILES IDX 15 15 17 16 16 17 14 18 13 19
REMARK H PARENT
REMARK Flexibility Score: 70.00
ROOT
ATOM      1  C   UNL     1      47.645  78.899  29.302  1.00  0.00     0.216 C 
ATOM      2  C   UNL     1      47.171  77.473  28.904  1.00  0.00     0.070 C 
ATOM      3  C   UNL     1      45.742  77.482  29.358  1.00  0.00     0.037 C 
ATOM      4  C   UNL     1      44.815  76.554  29.116  1.00  0.00     0.021 C 
ATOM      5  C   UNL     1      45.626  78.559  30.322  1.00  0.00     0.334 C 
ATOM      6  O   UNL     1      44.626  78.787  31.052  1.00  0.00    -0.247 OA
ATOM      7  O   UNL     1      46.795  79.293  30.372  1.00  0.00    -0.455 OA
ENDROOT
BRANCH   2   8
ATOM      8  C   UNL     1      47.413  77.141  27.410  1.00  0.00     0.017 C 
BRANCH   8   9
ATOM      9  C   UNL     1      48.336  78.152  26.667  1.00  0.00     0.031 C 
BRANCH   9  10
ATOM     10  C   UNL     1      49.534  77.510  25.986  1.00  0.00    -0.077 C 
ATOM     11  C   UNL     1      49.226  76.421  24.982  1.00  0.00     0.039 C 
ATOM     12  C   UNL     1      50.857  77.802  26.176  1.00  0.00    -0.028 CG0
ATOM     13  G   UNL     1      51.635  78.840  26.994  1.00  0.00     0.000 G0
ENDBRANCH   9  10
ENDBRANCH   8   9
ENDBRANCH   2   8
BRANCH   1  14
ATOM     14  C   UNL     1      49.117  78.830  29.703  1.00  0.00     0.192 C 
ATOM     15  C   UNL     1      49.997  79.725  28.883  1.00  0.00     0.096 C 
ATOM     16  O   UNL     1      49.758  79.952  30.260  1.00  0.00    -0.362 OA
ATOM     17  C   UNL     1      49.526  80.973  28.112  1.00  0.00     0.045 C 
BRANCH  15  18
ATOM     18  C   UNL     1      51.379  79.166  28.489  1.00  0.00     0.042 C 
BRANCH  18  19
ATOM     19  C   UNL     1      51.641  78.858  27.002  1.00  0.00     0.030 CG0
ATOM     20  G   UNL     1      50.874  77.795  26.206  1.00  0.00     0.000 G0
ENDBRANCH  18  19
ENDBRANCH  15  18
ENDBRANCH   1  14
TORSDOF 0
ENDMDL
MODEL 5
REMARK VINA RESULT:    -3.024      3.040      4.998
REMARK INTER + INTRA:          -4.192
REMARK INTER:                  -4.050
REMARK INTRA:                  -0.142
REMARK UNBOUND:                -0.107
REMARK SMILES C=C1C(=O)O[C@@H]2[C@@H]1CCC(C)=CCC[C@]1(C)O[C@@H]21
REMARK SMILES IDX 6 1 7 2 2 3 1 4 3 5 4 6 5 7 8 8 9 9 10 10 11 11 12 12 18 14
REMARK SMILES IDX 15 15 17 16 16 17 14 18 13 19
REMARK H PARENT
REMARK Flexibility Score: 70.00
ROOT
ATOM      1  C   UNL     1      49.160  78.903  28.222  1.00  0.00     0.216 C 
ATOM      2  C   UNL     1      50.498  78.955  27.431  1.00  0.00     0.070 C 
ATOM      3  C   UNL     1      51.514  78.887  28.533  1.00  0.00     0.037 C 
ATOM      4  C   UNL     1      52.832  78.738  28.404  1.00  0.00     0.021 C 
ATOM      5  C   UNL     1      50.823  79.271  29.749  1.00  0.00     0.334 C 
ATOM      6  O   UNL     1      51.366  79.496  30.863  1.00  0.00    -0.247 OA
ATOM      7  O   UNL     1      49.468  79.406  29.516  1.00  0.00    -0.455 OA
ENDROOT
BRANCH   2   8
ATOM      8  C   UNL     1      50.604  77.865  26.334  1.00  0.00     0.017 C 
BRANCH   8   9
ATOM      9  C   UNL     1      49.264  77.139  26.016  1.00  0.00     0.031 C 
BRANCH   9  10
ATOM     10  C   UNL     1      48.776  77.341  24.591  1.00  0.00    -0.077 C 
ATOM     11  C   UNL     1      49.764  77.012  23.494  1.00  0.00     0.039 C 
ATOM     12  C   UNL     1      47.547  77.785  24.185  1.00  0.00    -0.028 CG0
ATOM     13  G   UNL     1      46.236  78.153  24.891  1.00  0.00     0.000 G0
ENDBRANCH   9  10
ENDBRANCH   8   9
ENDBRANCH   2   8
BRANCH   1  14
ATOM     14  C   UNL     1      48.124  79.748  27.484  1.00  0.00     0.192 C 
ATOM     15  C   UNL     1      46.809  79.050  27.304  1.00  0.00     0.096 C 
ATOM     16  O   UNL     1      46.959  80.182  28.141  1.00  0.00    -0.362 OA
ATOM     17  C   UNL     1      46.293  77.887  28.173  1.00  0.00     0.045 C 
BRANCH  15  18
ATOM     18  C   UNL     1      46.094  79.258  25.955  1.00  0.00     0.042 C 
BRANCH  18  19
ATOM     19  C   UNL     1      46.221  78.154  24.887  1.00  0.00     0.030 CG0
ATOM     20  G   UNL     1      47.539  77.793  24.192  1.00  0.00     0.000 G0
ENDBRANCH  18  19
ENDBRANCH  15  18
ENDBRANCH   1  14
TORSDOF 0
ENDMDL
MODEL 6
REMARK VINA RESULT:    -2.885      1.734      2.239
REMARK INTER + INTRA:          -4.004
REMARK INTER:                  -4.212
REMARK INTRA:                   0.209
REMARK UNBOUND:                -0.107
REMARK SMILES C=C1C(=O)O[C@@H]2[C@@H]1CCC(C)=CCC[C@]1(C)O[C@@H]21
REMARK SMILES IDX 6 1 7 2 2 3 1 4 3 5 4 6 5 7 8 8 9 9 10 10 11 11 12 12 18 14
REMARK SMILES IDX 15 15 17 16 16 17 14 18 13 19
REMARK H PARENT
REMARK Flexibility Score: 70.00
ROOT
ATOM      1  C   UNL     1      47.617  78.286  26.883  1.00  0.00     0.216 C 
ATOM      2  C   UNL     1      48.349  77.336  25.893  1.00  0.00     0.070 C 
ATOM      3  C   UNL     1      47.763  77.750  24.575  1.00  0.00     0.037 C 
ATOM      4  C   UNL     1      48.158  77.362  23.362  1.00  0.00     0.021 C 
ATOM      5  C   UNL     1      46.529  78.448  24.877  1.00  0.00     0.334 C 
ATOM      6  O   UNL     1      45.664  78.808  24.037  1.00  0.00    -0.247 OA
ATOM      7  O   UNL     1      46.397  78.633  26.240  1.00  0.00    -0.455 OA
ENDROOT
BRANCH   2   8
ATOM      8  C   UNL     1      49.893  77.402  26.007  1.00  0.00     0.017 C 
BRANCH   8   9
ATOM      9  C   UNL     1      50.452  77.003  27.405  1.00  0.00     0.031 C 
BRANCH   9  10
ATOM     10  C   UNL     1      50.974  78.177  28.218  1.00  0.00    -0.077 C 
ATOM     11  C   UNL     1      51.839  79.171  27.477  1.00  0.00     0.039 C 
ATOM     12  C   UNL     1      50.752  78.437  29.543  1.00  0.00    -0.028 CG0
ATOM     13  G   UNL     1      49.910  77.795  30.652  1.00  0.00     0.000 G0
ENDBRANCH   9  10
ENDBRANCH   8   9
ENDBRANCH   2   8
BRANCH   1  14
ATOM     14  C   UNL     1      47.408  77.548  28.203  1.00  0.00     0.192 C 
ATOM     15  C   UNL     1      47.624  78.413  29.408  1.00  0.00     0.096 C 
ATOM     16  O   UNL     1      46.350  77.903  29.059  1.00  0.00    -0.362 OA
ATOM     17  C   UNL     1      47.526  79.951  29.428  1.00  0.00     0.045 C 
BRANCH  15  18
ATOM     18  C   UNL     1      48.342  77.764  30.608  1.00  0.00     0.042 C 
BRANCH  18  19
ATOM     19  C   UNL     1      49.881  77.811  30.646  1.00  0.00     0.030 CG0
ATOM     20  G   UNL     1      50.740  78.445  29.544  1.00  0.00     0.000 G0
ENDBRANCH  18  19
ENDBRANCH  15  18
ENDBRANCH   1  14
TORSDOF 0
ENDMDL
MODEL 7
REMARK VINA RESULT:    -2.616      2.227      4.054
REMARK INTER + INTRA:          -3.641
REMARK INTER:                  -3.792
REMARK INTRA:                   0.151
REMARK UNBOUND:                -0.107
REMARK SMILES C=C1C(=O)O[C@@H]2[C@@H]1CCC(C)=CCC[C@]1(C)O[C@@H]21
REMARK SMILES IDX 6 1 7 2 2 3 1 4 3 5 4 6 5 7 8 8 9 9 10 10 11 11 12 12 18 14
REMARK SMILES IDX 15 15 17 16 16 17 14 18 13 19
REMARK H PARENT
REMARK Flexibility Score: 70.00
ROOT
ATOM      1  C   UNL     1      48.773  78.241  27.824  1.00  0.00     0.216 C 
ATOM      2  C   UNL     1      47.701  77.980  28.919  1.00  0.00     0.070 C 
ATOM      3  C   UNL     1      46.464  77.763  28.098  1.00  0.00     0.037 C 
ATOM      4  C   UNL     1      45.275  77.343  28.531  1.00  0.00     0.021 C 
ATOM      5  C   UNL     1      46.732  78.340  26.795  1.00  0.00     0.334 C 
ATOM      6  O   UNL     1      45.886  78.506  25.878  1.00  0.00    -0.247 OA
ATOM      7  O   UNL     1      48.052  78.736  26.702  1.00  0.00    -0.455 OA
ENDROOT
BRANCH   2   8
ATOM      8  C   UNL     1      48.085  76.838  29.893  1.00  0.00     0.017 C 
BRANCH   8   9
ATOM      9  C   UNL     1      49.078  77.258  31.018  1.00  0.00     0.031 C 
BRANCH   9  10
ATOM     10  C   UNL     1      50.438  76.586  30.922  1.00  0.00    -0.077 C 
ATOM     11  C   UNL     1      50.459  75.087  31.116  1.00  0.00     0.039 C 
ATOM     12  C   UNL     1      51.646  77.182  30.680  1.00  0.00    -0.028 CG0
ATOM     13  G   UNL     1      52.110  78.606  30.350  1.00  0.00     0.000 G0
ENDBRANCH   9  10
ENDBRANCH   8   9
ENDBRANCH   2   8
BRANCH   1  14
ATOM     14  C   UNL     1      49.792  79.240  28.367  1.00  0.00     0.192 C 
ATOM     15  C   UNL     1      51.192  78.972  27.901  1.00  0.00     0.096 C 
ATOM     16  O   UNL     1      50.465  80.117  27.496  1.00  0.00    -0.362 OA
ATOM     17  C   UNL     1      51.572  78.183  26.633  1.00  0.00     0.045 C 
BRANCH  15  18
ATOM     18  C   UNL     1      52.317  79.177  28.935  1.00  0.00     0.042 C 
BRANCH  18  19
ATOM     19  C   UNL     1      52.106  78.626  30.358  1.00  0.00     0.030 CG0
ATOM     20  G   UNL     1      51.647  77.193  30.655  1.00  0.00     0.000 G0
ENDBRANCH  18  19
ENDBRANCH  15  18
ENDBRANCH   1  14
TORSDOF 0
ENDMDL
MODEL 8
REMARK VINA RESULT:    -2.606      1.816      3.547
REMARK INTER + INTRA:          -3.627
REMARK INTER:                  -3.369
REMARK INTRA:                  -0.258
REMARK UNBOUND:                -0.107
REMARK SMILES C=C1C(=O)O[C@@H]2[C@@H]1CCC(C)=CCC[C@]1(C)O[C@@H]21
REMARK SMILES IDX 6 1 7 2 2 3 1 4 3 5 4 6 5 7 8 8 9 9 10 10 11 11 12 12 18 14
REMARK SMILES IDX 15 15 17 16 16 17 14 18 13 19
REMARK H PARENT
REMARK Flexibility Score: 70.00
ROOT
ATOM      1  C   UNL     1      49.020  77.387  27.108  1.00  0.00     0.216 C 
ATOM      2  C   UNL     1      47.883  78.324  26.609  1.00  0.00     0.070 C 
ATOM      3  C   UNL     1      47.617  77.786  25.234  1.00  0.00     0.037 C 
ATOM      4  C   UNL     1      46.620  78.125  24.416  1.00  0.00     0.021 C 
ATOM      5  C   UNL     1      48.790  77.019  24.861  1.00  0.00     0.334 C 
ATOM      6  O   UNL     1      49.025  76.544  23.720  1.00  0.00    -0.247 OA
ATOM      7  O   UNL     1      49.659  76.912  25.930  1.00  0.00    -0.455 OA
ENDROOT
BRANCH   2   8
ATOM      8  C   UNL     1      46.668  78.380  27.570  1.00  0.00     0.017 C 
BRANCH   8   9
ATOM      9  C   UNL     1      46.283  79.814  28.038  1.00  0.00     0.031 C 
BRANCH   9  10
ATOM     10  C   UNL     1      46.278  79.989  29.549  1.00  0.00    -0.077 C 
ATOM     11  C   UNL     1      44.930  79.897  30.227  1.00  0.00     0.039 C 
ATOM     12  C   UNL     1      47.352  80.219  30.365  1.00  0.00    -0.028 CG0
ATOM     13  G   UNL     1      48.870  80.308  30.166  1.00  0.00     0.000 G0
ENDBRANCH   9  10
ENDBRANCH   8   9
ENDBRANCH   2   8
BRANCH   1  14
ATOM     14  C   UNL     1      49.952  78.190  28.011  1.00  0.00     0.192 C 
ATOM     15  C   UNL     1      49.749  77.912  29.470  1.00  0.00     0.096 C 
ATOM     16  O   UNL     1      50.930  77.539  28.785  1.00  0.00    -0.362 OA
ATOM     17  C   UNL     1      49.119  76.632  30.053  1.00  0.00     0.045 C 
BRANCH  15  18
ATOM     18  C   UNL     1      49.836  79.120  30.425  1.00  0.00     0.042 C 
BRANCH  18  19
ATOM     19  C   UNL     1      48.877  80.302  30.189  1.00  0.00     0.030 CG0
ATOM     20  G   UNL     1      47.356  80.210  30.361  1.00  0.00     0.000 G0
ENDBRANCH  18  19
ENDBRANCH  15  18
ENDBRANCH   1  14
TORSDOF 0
ENDMDL
MODEL 9
REMARK VINA RESULT:    -2.581      1.674      2.214
REMARK INTER + INTRA:          -3.593
REMARK INTER:                  -3.452
REMARK INTRA:                  -0.141
REMARK UNBOUND:                -0.107
REMARK SMILES C=C1C(=O)O[C@@H]2[C@@H]1CCC(C)=CCC[C@]1(C)O[C@@H]21
REMARK SMILES IDX 6 1 7 2 2 3 1 4 3 5 4 6 5 7 8 8 9 9 10 10 11 11 12 12 18 14
REMARK SMILES IDX 15 15 17 16 16 17 14 18 13 19
REMARK H PARENT
REMARK Flexibility Score: 70.00
ROOT
ATOM      1  C   UNL     1      48.402  77.977  24.817  1.00  0.00     0.216 C 
ATOM      2  C   UNL     1      49.604  77.260  25.495  1.00  0.00     0.070 C 
ATOM      3  C   UNL     1      50.474  76.932  24.318  1.00  0.00     0.037 C 
ATOM      4  C   UNL     1      51.717  76.450  24.346  1.00  0.00     0.021 C 
ATOM      5  C   UNL     1      49.620  76.996  23.148  1.00  0.00     0.334 C 
ATOM      6  O   UNL     1      49.936  76.626  21.987  1.00  0.00    -0.247 OA
ATOM      7  O   UNL     1      48.371  77.482  23.484  1.00  0.00    -0.455 OA
ENDROOT
BRANCH   2   8
ATOM      8  C   UNL     1      50.262  78.098  26.621  1.00  0.00     0.017 C 
BRANCH   8   9
ATOM      9  C   UNL     1      50.496  77.320  27.949  1.00  0.00     0.031 C 
BRANCH   9  10
ATOM     10  C   UNL     1      49.844  77.961  29.163  1.00  0.00    -0.077 C 
ATOM     11  C   UNL     1      50.756  78.762  30.066  1.00  0.00     0.039 C 
ATOM     12  C   UNL     1      48.528  77.899  29.533  1.00  0.00    -0.028 CG0
ATOM     13  G   UNL     1      47.254  77.302  28.924  1.00  0.00     0.000 G0
ENDBRANCH   9  10
ENDBRANCH   8   9
ENDBRANCH   2   8
BRANCH   1  14
ATOM     14  C   UNL     1      47.134  77.652  25.604  1.00  0.00     0.192 C 
ATOM     15  C   UNL     1      46.835  78.648  26.684  1.00  0.00     0.096 C 
ATOM     16  O   UNL     1      46.016  78.504  25.538  1.00  0.00    -0.362 OA
ATOM     17  C   UNL     1      47.343  80.103  26.719  1.00  0.00     0.045 C 
BRANCH  15  18
ATOM     18  C   UNL     1      46.295  78.087  28.014  1.00  0.00     0.042 C 
BRANCH  18  19
ATOM     19  C   UNL     1      47.261  77.288  28.911  1.00  0.00     0.030 CG0
ATOM     20  G   UNL     1      48.528  77.884  29.536  1.00  0.00     0.000 G0
ENDBRANCH  18  19
ENDBRANCH  15  18
ENDBRANCH   1  14
TORSDOF 0
ENDMDL
