MODEL 1
REMARK VINA RESULT:    -7.034      0.000      0.000
REMARK INTER + INTRA:          -8.793
REMARK INTER:                  -8.473
REMARK INTRA:                  -0.321
REMARK UNBOUND:                -0.321
REMARK SMILES O=c1c(O)c(-c2ccc(O)c(O)c2)oc2cc(O)cc(O)c12
REMARK SMILES IDX 5 1 3 2 2 3 1 4 22 5 20 6 19 7 17 8 16 9 15 10 14 11 6 12
REMARK SMILES IDX 7 13 8 14 9 15 13 16 11 17 10 18 12 20 4 22 21 24 18 26
REMARK H PARENT 10 19 12 21 4 23 21 25 18 27
REMARK Flexibility Score: inf
ROOT
ATOM      1  C   UNL     1       9.571  11.291 -15.996  1.00  0.00     0.180 A 
ATOM      2  C   UNL     1      10.259  10.117 -16.346  1.00  0.00     0.208 A 
ATOM      3  C   UNL     1       9.939   8.918 -15.689  1.00  0.00     0.238 A 
ATOM      4  O   UNL     1      10.597   7.881 -15.968  1.00  0.00    -0.285 OA
ATOM      5  C   UNL     1       8.925   8.904 -14.703  1.00  0.00     0.111 A 
ATOM      6  C   UNL     1       8.491   7.739 -14.001  1.00  0.00     0.134 A 
ATOM      7  C   UNL     1       7.570   7.866 -12.954  1.00  0.00     0.093 A 
ATOM      8  C   UNL     1       7.020   9.104 -12.624  1.00  0.00     0.123 A 
ATOM      9  C   UNL     1       7.393  10.241 -13.342  1.00  0.00     0.094 A 
ATOM     10  C   UNL     1       8.335  10.152 -14.369  1.00  0.00     0.146 A 
ATOM     11  O   UNL     1       8.670  11.259 -15.021  1.00  0.00    -0.452 OA
ENDROOT
BRANCH   1  12
ATOM     12  C   UNL     1       9.835  12.587 -16.661  1.00  0.00     0.025 A 
ATOM     13  C   UNL     1      10.776  13.495 -16.148  1.00  0.00     0.016 A 
ATOM     14  C   UNL     1      11.025  14.700 -16.807  1.00  0.00     0.051 A 
ATOM     15  C   UNL     1      10.354  15.019 -17.992  1.00  0.00     0.157 A 
ATOM     16  C   UNL     1       9.177  12.894 -17.862  1.00  0.00     0.062 A 
ATOM     17  C   UNL     1       9.421  14.102 -18.529  1.00  0.00     0.158 A 
BRANCH  15  18
ATOM     18  O   UNL     1      10.646  16.243 -18.599  1.00  0.00    -0.504 OA
ATOM     19  H   UNL     1      10.142  17.097 -18.415  1.00  0.00     0.293 HD
ENDBRANCH  15  18
BRANCH  17  20
ATOM     20  O   UNL     1       8.720  14.345 -19.713  1.00  0.00    -0.504 OA
ATOM     21  H   UNL     1       8.408  15.260 -20.007  1.00  0.00     0.293 HD
ENDBRANCH  17  20
ENDBRANCH   1  12
BRANCH   2  22
ATOM     22  O   UNL     1      11.273  10.157 -17.308  1.00  0.00    -0.502 OA
ATOM     23  H   UNL     1      12.249  10.274 -17.065  1.00  0.00     0.293 HD
ENDBRANCH   2  22
BRANCH   6  24
ATOM     24  O   UNL     1       8.909   6.442 -14.311  1.00  0.00    -0.507 OA
ATOM     25  H   UNL     1       9.871   6.147 -14.370  1.00  0.00     0.293 HD
ENDBRANCH   6  24
BRANCH   8  26
ATOM     26  O   UNL     1       6.096   9.191 -11.586  1.00  0.00    -0.508 OA
ATOM     27  H   UNL     1       5.099   9.131 -11.758  1.00  0.00     0.293 HD
ENDBRANCH   8  26
TORSDOF 6
ENDMDL
MODEL 2
REMARK VINA RESULT:    -6.698      1.905      7.451
REMARK INTER + INTRA:          -8.389
REMARK INTER:                  -8.058
REMARK INTRA:                  -0.331
REMARK UNBOUND:                -0.321
REMARK SMILES O=c1c(O)c(-c2ccc(O)c(O)c2)oc2cc(O)cc(O)c12
REMARK SMILES IDX 5 1 3 2 2 3 1 4 22 5 20 6 19 7 17 8 16 9 15 10 14 11 6 12
REMARK SMILES IDX 7 13 8 14 9 15 13 16 11 17 10 18 12 20 4 22 21 24 18 26
REMARK H PARENT 10 19 12 21 4 23 21 25 18 27
REMARK Flexibility Score: inf
ROOT
ATOM      1  C   UNL     1       9.816  12.516 -17.230  1.00  0.00     0.180 A 
ATOM      2  C   UNL     1      10.547  13.599 -16.711  1.00  0.00     0.208 A 
ATOM      3  C   UNL     1      10.568  14.810 -17.421  1.00  0.00     0.238 A 
ATOM      4  O   UNL     1      11.269  15.758 -16.980  1.00  0.00    -0.285 OA
ATOM      5  C   UNL     1       9.845  14.930 -18.632  1.00  0.00     0.111 A 
ATOM      6  C   UNL     1       9.763  16.121 -19.413  1.00  0.00     0.134 A 
ATOM      7  C   UNL     1       9.126  16.087 -20.660  1.00  0.00     0.093 A 
ATOM      8  C   UNL     1       8.513  14.924 -21.124  1.00  0.00     0.123 A 
ATOM      9  C   UNL     1       8.535  13.769 -20.341  1.00  0.00     0.094 A 
ATOM     10  C   UNL     1       9.194  13.762 -19.110  1.00  0.00     0.146 A 
ATOM     11  O   UNL     1       9.201  12.640 -18.401  1.00  0.00    -0.452 OA
ENDROOT
BRANCH   1  12
ATOM     12  C   UNL     1       9.726  11.216 -16.527  1.00  0.00     0.025 A 
ATOM     13  C   UNL     1       8.717  10.963 -15.584  1.00  0.00     0.016 A 
ATOM     14  C   UNL     1       8.638   9.721 -14.952  1.00  0.00     0.051 A 
ATOM     15  C   UNL     1       9.552   8.706 -15.254  1.00  0.00     0.157 A 
ATOM     16  C   UNL     1      10.630  10.193 -16.849  1.00  0.00     0.062 A 
ATOM     17  C   UNL     1      10.559   8.943 -16.218  1.00  0.00     0.158 A 
BRANCH  15  18
ATOM     18  O   UNL     1       9.421   7.489 -14.582  1.00  0.00    -0.504 OA
ATOM     19  H   UNL     1       9.459   7.392 -13.578  1.00  0.00     0.293 HD
ENDBRANCH  15  18
BRANCH  17  20
ATOM     20  O   UNL     1      11.500   7.977 -16.580  1.00  0.00    -0.504 OA
ATOM     21  H   UNL     1      12.370   7.825 -16.091  1.00  0.00     0.293 HD
ENDBRANCH  17  20
ENDBRANCH   1  12
BRANCH   2  22
ATOM     22  O   UNL     1      11.272  13.452 -15.525  1.00  0.00    -0.502 OA
ATOM     23  H   UNL     1      10.877  13.024 -14.695  1.00  0.00     0.293 HD
ENDBRANCH   2  22
BRANCH   6  24
ATOM     24  O   UNL     1      10.262  17.360 -19.001  1.00  0.00    -0.507 OA
ATOM     25  H   UNL     1       9.989  17.837 -18.155  1.00  0.00     0.293 HD
ENDBRANCH   6  24
BRANCH   8  26
ATOM     26  O   UNL     1       7.875  14.931 -22.362  1.00  0.00    -0.508 OA
ATOM     27  H   UNL     1       6.939  15.305 -22.474  1.00  0.00     0.293 HD
ENDBRANCH   8  26
TORSDOF 6
ENDMDL
MODEL 3
REMARK VINA RESULT:    -6.614      1.676      7.341
REMARK INTER + INTRA:          -8.288
REMARK INTER:                  -7.969
REMARK INTRA:                  -0.319
REMARK UNBOUND:                -0.321
REMARK SMILES O=c1c(O)c(-c2ccc(O)c(O)c2)oc2cc(O)cc(O)c12
REMARK SMILES IDX 5 1 3 2 2 3 1 4 22 5 20 6 19 7 17 8 16 9 15 10 14 11 6 12
REMARK SMILES IDX 7 13 8 14 9 15 13 16 11 17 10 18 12 20 4 22 21 24 18 26
REMARK H PARENT 10 19 12 21 4 23 21 25 18 27
REMARK Flexibility Score: inf
ROOT
ATOM      1  C   UNL     1       9.784  12.285 -17.069  1.00  0.00     0.180 A 
ATOM      2  C   UNL     1      10.579  13.345 -16.597  1.00  0.00     0.208 A 
ATOM      3  C   UNL     1      10.622  14.542 -17.329  1.00  0.00     0.238 A 
ATOM      4  O   UNL     1      11.379  15.466 -16.932  1.00  0.00    -0.285 OA
ATOM      5  C   UNL     1       9.858  14.672 -18.513  1.00  0.00     0.111 A 
ATOM      6  C   UNL     1       9.796  15.852 -19.313  1.00  0.00     0.134 A 
ATOM      7  C   UNL     1       9.111  15.825 -20.534  1.00  0.00     0.093 A 
ATOM      8  C   UNL     1       8.433  14.681 -20.953  1.00  0.00     0.123 A 
ATOM      9  C   UNL     1       8.438  13.539 -20.152  1.00  0.00     0.094 A 
ATOM     10  C   UNL     1       9.142  13.525 -18.945  1.00  0.00     0.146 A 
ATOM     11  O   UNL     1       9.130  12.415 -18.217  1.00  0.00    -0.452 OA
ENDROOT
BRANCH   1  12
ATOM     12  C   UNL     1       9.667  11.002 -16.339  1.00  0.00     0.025 A 
ATOM     13  C   UNL     1      10.513   9.918 -16.626  1.00  0.00     0.016 A 
ATOM     14  C   UNL     1      10.400   8.727 -15.907  1.00  0.00     0.051 A 
ATOM     15  C   UNL     1       9.455   8.596 -14.884  1.00  0.00     0.157 A 
ATOM     16  C   UNL     1       8.734  10.881 -15.298  1.00  0.00     0.062 A 
ATOM     17  C   UNL     1       8.613   9.689 -14.572  1.00  0.00     0.158 A 
BRANCH  15  18
ATOM     18  O   UNL     1       9.391   7.375 -14.207  1.00  0.00    -0.504 OA
ATOM     19  H   UNL     1       8.928   7.247 -13.320  1.00  0.00     0.293 HD
ENDBRANCH  15  18
BRANCH  17  20
ATOM     20  O   UNL     1       7.654   9.637 -13.559  1.00  0.00    -0.504 OA
ATOM     21  H   UNL     1       6.713   9.993 -13.653  1.00  0.00     0.293 HD
ENDBRANCH  17  20
ENDBRANCH   1  12
BRANCH   2  22
ATOM     22  O   UNL     1      11.342  13.188 -15.436  1.00  0.00    -0.502 OA
ATOM     23  H   UNL     1      10.998  13.448 -14.520  1.00  0.00     0.293 HD
ENDBRANCH   2  22
BRANCH   6  24
ATOM     24  O   UNL     1      10.361  17.076 -18.942  1.00  0.00    -0.507 OA
ATOM     25  H   UNL     1      10.295  17.485 -18.022  1.00  0.00     0.293 HD
ENDBRANCH   6  24
BRANCH   8  26
ATOM     26  O   UNL     1       7.749  14.694 -22.167  1.00  0.00    -0.508 OA
ATOM     27  H   UNL     1       8.074  15.246 -22.952  1.00  0.00     0.293 HD
ENDBRANCH   8  26
TORSDOF 6
ENDMDL
MODEL 4
REMARK VINA RESULT:    -6.586      2.048      7.335
REMARK INTER + INTRA:          -8.254
REMARK INTER:                  -7.931
REMARK INTRA:                  -0.323
REMARK UNBOUND:                -0.321
REMARK SMILES O=c1c(O)c(-c2ccc(O)c(O)c2)oc2cc(O)cc(O)c12
REMARK SMILES IDX 5 1 3 2 2 3 1 4 22 5 20 6 19 7 17 8 16 9 15 10 14 11 6 12
REMARK SMILES IDX 7 13 8 14 9 15 13 16 11 17 10 18 12 20 4 22 21 24 18 26
REMARK H PARENT 10 19 12 21 4 23 21 25 18 27
REMARK Flexibility Score: inf
ROOT
ATOM      1  C   UNL     1       8.860  11.877 -17.891  1.00  0.00     0.180 A 
ATOM      2  C   UNL     1       8.008  11.645 -18.985  1.00  0.00     0.208 A 
ATOM      3  C   UNL     1       7.825  12.663 -19.934  1.00  0.00     0.238 A 
ATOM      4  O   UNL     1       7.018  12.470 -20.881  1.00  0.00    -0.285 OA
ATOM      5  C   UNL     1       8.510  13.893 -19.789  1.00  0.00     0.111 A 
ATOM      6  C   UNL     1       8.431  14.980 -20.711  1.00  0.00     0.134 A 
ATOM      7  C   UNL     1       9.048  16.197 -20.399  1.00  0.00     0.093 A 
ATOM      8  C   UNL     1       9.794  16.348 -19.231  1.00  0.00     0.123 A 
ATOM      9  C   UNL     1       9.927  15.274 -18.350  1.00  0.00     0.094 A 
ATOM     10  C   UNL     1       9.293  14.058 -18.616  1.00  0.00     0.146 A 
ATOM     11  O   UNL     1       9.437  13.064 -17.748  1.00  0.00    -0.452 OA
ENDROOT
BRANCH   1  12
ATOM     12  C   UNL     1       9.122  10.844 -16.863  1.00  0.00     0.025 A 
ATOM     13  C   UNL     1       8.322  10.736 -15.714  1.00  0.00     0.016 A 
ATOM     14  C   UNL     1       8.573   9.739 -14.771  1.00  0.00     0.051 A 
ATOM     15  C   UNL     1       9.614   8.823 -14.959  1.00  0.00     0.157 A 
ATOM     16  C   UNL     1      10.152   9.913 -17.065  1.00  0.00     0.062 A 
ATOM     17  C   UNL     1      10.412   8.909 -16.123  1.00  0.00     0.158 A 
BRANCH  15  18
ATOM     18  O   UNL     1       9.815   7.852 -13.975  1.00  0.00    -0.504 OA
ATOM     19  H   UNL     1       9.308   7.821 -13.103  1.00  0.00     0.293 HD
ENDBRANCH  15  18
BRANCH  17  20
ATOM     20  O   UNL     1      11.462   8.026 -16.386  1.00  0.00    -0.504 OA
ATOM     21  H   UNL     1      11.801   7.812 -17.312  1.00  0.00     0.293 HD
ENDBRANCH  17  20
ENDBRANCH   1  12
BRANCH   2  22
ATOM     22  O   UNL     1       7.325  10.431 -19.098  1.00  0.00    -0.502 OA
ATOM     23  H   UNL     1       6.522  10.313 -19.706  1.00  0.00     0.293 HD
ENDBRANCH   2  22
BRANCH   6  24
ATOM     24  O   UNL     1       7.788  14.905 -21.950  1.00  0.00    -0.507 OA
ATOM     25  H   UNL     1       8.187  15.209 -22.824  1.00  0.00     0.293 HD
ENDBRANCH   6  24
BRANCH   8  26
ATOM     26  O   UNL     1      10.407  17.569 -18.960  1.00  0.00    -0.508 OA
ATOM     27  H   UNL     1      10.820  17.765 -18.056  1.00  0.00     0.293 HD
ENDBRANCH   8  26
TORSDOF 6
ENDMDL
MODEL 5
REMARK VINA RESULT:    -6.453      1.682      7.146
REMARK INTER + INTRA:          -8.094
REMARK INTER:                  -8.125
REMARK INTRA:                   0.032
REMARK UNBOUND:                -0.321
REMARK SMILES O=c1c(O)c(-c2ccc(O)c(O)c2)oc2cc(O)cc(O)c12
REMARK SMILES IDX 5 1 3 2 2 3 1 4 22 5 20 6 19 7 17 8 16 9 15 10 14 11 6 12
REMARK SMILES IDX 7 13 8 14 9 15 13 16 11 17 10 18 12 20 4 22 21 24 18 26
REMARK H PARENT 10 19 12 21 4 23 21 25 18 27
REMARK Flexibility Score: inf
ROOT
ATOM      1  C   UNL     1       8.400  11.262 -15.039  1.00  0.00     0.180 A 
ATOM      2  C   UNL     1       8.792  12.541 -14.605  1.00  0.00     0.208 A 
ATOM      3  C   UNL     1       9.146  13.506 -15.562  1.00  0.00     0.238 A 
ATOM      4  O   UNL     1       9.549  14.631 -15.165  1.00  0.00    -0.285 OA
ATOM      5  C   UNL     1       9.089  13.186 -16.939  1.00  0.00     0.111 A 
ATOM      6  C   UNL     1       9.388  14.098 -17.996  1.00  0.00     0.134 A 
ATOM      7  C   UNL     1       9.425  13.636 -19.317  1.00  0.00     0.093 A 
ATOM      8  C   UNL     1       9.111  12.313 -19.626  1.00  0.00     0.123 A 
ATOM      9  C   UNL     1       8.761  11.427 -18.607  1.00  0.00     0.094 A 
ATOM     10  C   UNL     1       8.750  11.850 -17.275  1.00  0.00     0.146 A 
ATOM     11  O   UNL     1       8.420  10.974 -16.334  1.00  0.00    -0.452 OA
ENDROOT
BRANCH   1  12
ATOM     12  C   UNL     1       7.989  10.201 -14.092  1.00  0.00     0.025 A 
ATOM     13  C   UNL     1       7.098  10.466 -13.038  1.00  0.00     0.016 A 
ATOM     14  C   UNL     1       6.706   9.443 -12.173  1.00  0.00     0.051 A 
ATOM     15  C   UNL     1       7.180   8.138 -12.347  1.00  0.00     0.157 A 
ATOM     16  C   UNL     1       8.448   8.889 -14.282  1.00  0.00     0.062 A 
ATOM     17  C   UNL     1       8.060   7.857 -13.417  1.00  0.00     0.158 A 
BRANCH  15  18
ATOM     18  O   UNL     1       6.752   7.163 -11.443  1.00  0.00    -0.504 OA
ATOM     19  H   UNL     1       6.742   7.288 -10.441  1.00  0.00     0.293 HD
ENDBRANCH  15  18
BRANCH  17  20
ATOM     20  O   UNL     1       8.568   6.578 -13.660  1.00  0.00    -0.504 OA
ATOM     21  H   UNL     1       9.267   6.372 -14.359  1.00  0.00     0.293 HD
ENDBRANCH  17  20
ENDBRANCH   1  12
BRANCH   2  22
ATOM     22  O   UNL     1       8.862  12.829 -13.239  1.00  0.00    -0.502 OA
ATOM     23  H   UNL     1       9.022  13.766 -12.888  1.00  0.00     0.293 HD
ENDBRANCH   2  22
BRANCH   6  24
ATOM     24  O   UNL     1       9.626  15.462 -17.805  1.00  0.00    -0.507 OA
ATOM     25  H   UNL     1      10.011  15.866 -16.965  1.00  0.00     0.293 HD
ENDBRANCH   6  24
BRANCH   8  26
ATOM     26  O   UNL     1       9.144  11.891 -20.954  1.00  0.00    -0.508 OA
ATOM     27  H   UNL     1       8.471  11.224 -21.314  1.00  0.00     0.293 HD
ENDBRANCH   8  26
TORSDOF 6
ENDMDL
MODEL 6
REMARK VINA RESULT:    -6.315      2.865      7.479
REMARK INTER + INTRA:          -7.927
REMARK INTER:                  -7.861
REMARK INTRA:                  -0.067
REMARK UNBOUND:                -0.321
REMARK SMILES O=c1c(O)c(-c2ccc(O)c(O)c2)oc2cc(O)cc(O)c12
REMARK SMILES IDX 5 1 3 2 2 3 1 4 22 5 20 6 19 7 17 8 16 9 15 10 14 11 6 12
REMARK SMILES IDX 7 13 8 14 9 15 13 16 11 17 10 18 12 20 4 22 21 24 18 26
REMARK H PARENT 10 19 12 21 4 23 21 25 18 27
REMARK Flexibility Score: inf
ROOT
ATOM      1  C   UNL     1       7.248   7.888 -14.921  1.00  0.00     0.180 A 
ATOM      2  C   UNL     1       6.928   8.200 -13.588  1.00  0.00     0.208 A 
ATOM      3  C   UNL     1       7.241   9.477 -13.094  1.00  0.00     0.238 A 
ATOM      4  O   UNL     1       7.003   9.731 -11.884  1.00  0.00    -0.285 OA
ATOM      5  C   UNL     1       7.854  10.430 -13.941  1.00  0.00     0.111 A 
ATOM      6  C   UNL     1       8.180  11.765 -13.558  1.00  0.00     0.134 A 
ATOM      7  C   UNL     1       8.903  12.580 -14.437  1.00  0.00     0.093 A 
ATOM      8  C   UNL     1       9.256  12.131 -15.709  1.00  0.00     0.123 A 
ATOM      9  C   UNL     1       8.891  10.847 -16.117  1.00  0.00     0.094 A 
ATOM     10  C   UNL     1       8.201   9.999 -15.249  1.00  0.00     0.146 A 
ATOM     11  O   UNL     1       7.881   8.782 -15.672  1.00  0.00    -0.452 OA
ENDROOT
BRANCH   1  12
ATOM     12  C   UNL     1       6.926   6.573 -15.522  1.00  0.00     0.025 A 
ATOM     13  C   UNL     1       6.146   6.471 -16.685  1.00  0.00     0.016 A 
ATOM     14  C   UNL     1       5.876   5.222 -17.246  1.00  0.00     0.051 A 
ATOM     15  C   UNL     1       6.388   4.054 -16.669  1.00  0.00     0.157 A 
ATOM     16  C   UNL     1       7.459   5.406 -14.954  1.00  0.00     0.062 A 
ATOM     17  C   UNL     1       7.193   4.147 -15.510  1.00  0.00     0.158 A 
BRANCH  15  18
ATOM     18  O   UNL     1       6.077   2.836 -17.277  1.00  0.00    -0.504 OA
ATOM     19  H   UNL     1       6.529   1.962 -17.053  1.00  0.00     0.293 HD
ENDBRANCH  15  18
BRANCH  17  20
ATOM     20  O   UNL     1       7.746   3.028 -14.883  1.00  0.00    -0.504 OA
ATOM     21  H   UNL     1       8.502   3.072 -14.214  1.00  0.00     0.293 HD
ENDBRANCH  17  20
ENDBRANCH   1  12
BRANCH   2  22
ATOM     22  O   UNL     1       6.342   7.237 -12.762  1.00  0.00    -0.502 OA
ATOM     23  H   UNL     1       6.835   6.816 -11.983  1.00  0.00     0.293 HD
ENDBRANCH   2  22
BRANCH   6  24
ATOM     24  O   UNL     1       7.795  12.344 -12.345  1.00  0.00    -0.507 OA
ATOM     25  H   UNL     1       8.432  12.712 -11.656  1.00  0.00     0.293 HD
ENDBRANCH   6  24
BRANCH   8  26
ATOM     26  O   UNL     1       9.962  12.974 -16.564  1.00  0.00    -0.508 OA
ATOM     27  H   UNL     1       9.979  13.978 -16.423  1.00  0.00     0.293 HD
ENDBRANCH   8  26
TORSDOF 6
ENDMDL
MODEL 7
REMARK VINA RESULT:    -6.315      1.457      2.226
REMARK INTER + INTRA:          -7.927
REMARK INTER:                  -7.598
REMARK INTRA:                  -0.329
REMARK UNBOUND:                -0.321
REMARK SMILES O=c1c(O)c(-c2ccc(O)c(O)c2)oc2cc(O)cc(O)c12
REMARK SMILES IDX 5 1 3 2 2 3 1 4 22 5 20 6 19 7 17 8 16 9 15 10 14 11 6 12
REMARK SMILES IDX 7 13 8 14 9 15 13 16 11 17 10 18 12 20 4 22 21 24 18 26
REMARK H PARENT 10 19 12 21 4 23 21 25 18 27
REMARK Flexibility Score: inf
ROOT
ATOM      1  C   UNL     1       8.564  10.864 -17.451  1.00  0.00     0.180 A 
ATOM      2  C   UNL     1       9.476   9.798 -17.551  1.00  0.00     0.208 A 
ATOM      3  C   UNL     1       9.502   8.827 -16.536  1.00  0.00     0.238 A 
ATOM      4  O   UNL     1      10.358   7.906 -16.602  1.00  0.00    -0.285 OA
ATOM      5  C   UNL     1       8.607   8.925 -15.444  1.00  0.00     0.111 A 
ATOM      6  C   UNL     1       8.519   7.978 -14.380  1.00  0.00     0.134 A 
ATOM      7  C   UNL     1       7.687   8.243 -13.286  1.00  0.00     0.093 A 
ATOM      8  C   UNL     1       6.893   9.388 -13.246  1.00  0.00     0.123 A 
ATOM      9  C   UNL     1       6.927  10.292 -14.308  1.00  0.00     0.094 A 
ATOM     10  C   UNL     1       7.773  10.073 -15.397  1.00  0.00     0.146 A 
ATOM     11  O   UNL     1       7.783  10.962 -16.382  1.00  0.00    -0.452 OA
ENDROOT
BRANCH   1  12
ATOM     12  C   UNL     1       8.460  11.911 -18.493  1.00  0.00     0.025 A 
ATOM     13  C   UNL     1       7.556  11.793 -19.561  1.00  0.00     0.016 A 
ATOM     14  C   UNL     1       7.459  12.804 -20.518  1.00  0.00     0.051 A 
ATOM     15  C   UNL     1       8.248  13.956 -20.423  1.00  0.00     0.157 A 
ATOM     16  C   UNL     1       9.237  13.074 -18.383  1.00  0.00     0.062 A 
ATOM     17  C   UNL     1       9.146  14.095 -19.340  1.00  0.00     0.158 A 
BRANCH  15  18
ATOM     18  O   UNL     1       8.106  14.928 -21.416  1.00  0.00    -0.504 OA
ATOM     19  H   UNL     1       8.803  15.122 -22.119  1.00  0.00     0.293 HD
ENDBRANCH  15  18
BRANCH  17  20
ATOM     20  O   UNL     1       9.959  15.218 -19.172  1.00  0.00    -0.504 OA
ATOM     21  H   UNL     1       9.881  16.059 -19.725  1.00  0.00     0.293 HD
ENDBRANCH  17  20
ENDBRANCH   1  12
BRANCH   2  22
ATOM     22  O   UNL     1      10.366   9.732 -18.626  1.00  0.00    -0.502 OA
ATOM     23  H   UNL     1      10.066   9.509 -19.568  1.00  0.00     0.293 HD
ENDBRANCH   2  22
BRANCH   6  24
ATOM     24  O   UNL     1       9.201   6.757 -14.365  1.00  0.00    -0.507 OA
ATOM     25  H   UNL     1       9.338   6.165 -15.170  1.00  0.00     0.293 HD
ENDBRANCH   6  24
BRANCH   8  26
ATOM     26  O   UNL     1       6.066   9.613 -12.148  1.00  0.00    -0.508 OA
ATOM     27  H   UNL     1       6.446   9.826 -11.233  1.00  0.00     0.293 HD
ENDBRANCH   8  26
TORSDOF 6
ENDMDL
MODEL 8
REMARK VINA RESULT:    -6.220      1.314      3.000
REMARK INTER + INTRA:          -7.814
REMARK INTER:                  -7.495
REMARK INTRA:                  -0.319
REMARK UNBOUND:                -0.321
REMARK SMILES O=c1c(O)c(-c2ccc(O)c(O)c2)oc2cc(O)cc(O)c12
REMARK SMILES IDX 5 1 3 2 2 3 1 4 22 5 20 6 19 7 17 8 16 9 15 10 14 11 6 12
REMARK SMILES IDX 7 13 8 14 9 15 13 16 11 17 10 18 12 20 4 22 21 24 18 26
REMARK H PARENT 10 19 12 21 4 23 21 25 18 27
REMARK Flexibility Score: inf
ROOT
ATOM      1  C   UNL     1       8.583  12.339 -15.580  1.00  0.00     0.180 A 
ATOM      2  C   UNL     1       7.475  12.673 -14.781  1.00  0.00     0.208 A 
ATOM      3  C   UNL     1       6.917  11.691 -13.946  1.00  0.00     0.238 A 
ATOM      4  O   UNL     1       5.892  11.981 -13.275  1.00  0.00    -0.285 OA
ATOM      5  C   UNL     1       7.483  10.395 -13.907  1.00  0.00     0.111 A 
ATOM      6  C   UNL     1       7.024   9.335 -13.069  1.00  0.00     0.134 A 
ATOM      7  C   UNL     1       7.576   8.055 -13.209  1.00  0.00     0.093 A 
ATOM      8  C   UNL     1       8.612   7.813 -14.109  1.00  0.00     0.123 A 
ATOM      9  C   UNL     1       9.109   8.855 -14.892  1.00  0.00     0.094 A 
ATOM     10  C   UNL     1       8.555  10.134 -14.801  1.00  0.00     0.146 A 
ATOM     11  O   UNL     1       9.050  11.096 -15.570  1.00  0.00    -0.452 OA
ENDROOT
BRANCH   1  12
ATOM     12  C   UNL     1       9.241  13.326 -16.467  1.00  0.00     0.025 A 
ATOM     13  C   UNL     1      10.374  14.043 -16.050  1.00  0.00     0.016 A 
ATOM     14  C   UNL     1      10.991  14.950 -16.912  1.00  0.00     0.051 A 
ATOM     15  C   UNL     1      10.502  15.152 -18.207  1.00  0.00     0.157 A 
ATOM     16  C   UNL     1       8.761  13.510 -17.772  1.00  0.00     0.062 A 
ATOM     17  C   UNL     1       9.374  14.419 -18.645  1.00  0.00     0.158 A 
BRANCH  15  18
ATOM     18  O   UNL     1      11.163  16.078 -19.018  1.00  0.00    -0.504 OA
ATOM     19  H   UNL     1      10.927  17.058 -19.061  1.00  0.00     0.293 HD
ENDBRANCH  15  18
BRANCH  17  20
ATOM     20  O   UNL     1       8.834  14.558 -19.925  1.00  0.00    -0.504 OA
ATOM     21  H   UNL     1       7.920  14.944 -20.114  1.00  0.00     0.293 HD
ENDBRANCH  17  20
ENDBRANCH   1  12
BRANCH   2  22
ATOM     22  O   UNL     1       6.919  13.954 -14.851  1.00  0.00    -0.502 OA
ATOM     23  H   UNL     1       5.924  14.120 -14.755  1.00  0.00     0.293 HD
ENDBRANCH   2  22
BRANCH   6  24
ATOM     24  O   UNL     1       6.057   9.492 -12.073  1.00  0.00    -0.507 OA
ATOM     25  H   UNL     1       5.096   9.750 -12.240  1.00  0.00     0.293 HD
ENDBRANCH   6  24
BRANCH   8  26
ATOM     26  O   UNL     1       9.148   6.531 -14.211  1.00  0.00    -0.508 OA
ATOM     27  H   UNL     1      10.056   6.303 -13.822  1.00  0.00     0.293 HD
ENDBRANCH   8  26
TORSDOF 6
ENDMDL
MODEL 9
REMARK VINA RESULT:    -6.170      2.212      4.184
REMARK INTER + INTRA:          -7.753
REMARK INTER:                  -7.447
REMARK INTRA:                  -0.306
REMARK UNBOUND:                -0.321
REMARK SMILES O=c1c(O)c(-c2ccc(O)c(O)c2)oc2cc(O)cc(O)c12
REMARK SMILES IDX 5 1 3 2 2 3 1 4 22 5 20 6 19 7 17 8 16 9 15 10 14 11 6 12
REMARK SMILES IDX 7 13 8 14 9 15 13 16 11 17 10 18 12 20 4 22 21 24 18 26
REMARK H PARENT 10 19 12 21 4 23 21 25 18 27
REMARK Flexibility Score: inf
ROOT
ATOM      1  C   UNL     1       8.852  12.691 -18.146  1.00  0.00     0.180 A 
ATOM      2  C   UNL     1       7.907  12.654 -17.106  1.00  0.00     0.208 A 
ATOM      3  C   UNL     1       7.977  11.619 -16.159  1.00  0.00     0.238 A 
ATOM      4  O   UNL     1       7.095  11.560 -15.262  1.00  0.00    -0.285 OA
ATOM      5  C   UNL     1       8.999  10.646 -16.253  1.00  0.00     0.111 A 
ATOM      6  C   UNL     1       9.189   9.577 -15.326  1.00  0.00     0.134 A 
ATOM      7  C   UNL     1      10.153   8.596 -15.590  1.00  0.00     0.093 A 
ATOM      8  C   UNL     1      10.977   8.680 -16.712  1.00  0.00     0.123 A 
ATOM      9  C   UNL     1      10.840   9.753 -17.594  1.00  0.00     0.094 A 
ATOM     10  C   UNL     1       9.863  10.727 -17.376  1.00  0.00     0.146 A 
ATOM     11  O   UNL     1       9.759  11.726 -18.244  1.00  0.00    -0.452 OA
ENDROOT
BRANCH   1  12
ATOM     12  C   UNL     1       8.859  13.763 -19.167  1.00  0.00     0.025 A 
ATOM     13  C   UNL     1       8.232  13.592 -20.412  1.00  0.00     0.016 A 
ATOM     14  C   UNL     1       8.230  14.626 -21.349  1.00  0.00     0.051 A 
ATOM     15  C   UNL     1       8.839  15.852 -21.061  1.00  0.00     0.157 A 
ATOM     16  C   UNL     1       9.451  14.999 -18.867  1.00  0.00     0.062 A 
ATOM     17  C   UNL     1       9.454  16.043 -19.802  1.00  0.00     0.158 A 
BRANCH  15  18
ATOM     18  O   UNL     1       8.806  16.844 -22.044  1.00  0.00    -0.504 OA
ATOM     19  H   UNL     1       8.403  17.759 -21.908  1.00  0.00     0.293 HD
ENDBRANCH  15  18
BRANCH  17  20
ATOM     20  O   UNL     1      10.074  17.241 -19.439  1.00  0.00    -0.504 OA
ATOM     21  H   UNL     1      10.487  17.411 -18.533  1.00  0.00     0.293 HD
ENDBRANCH  17  20
ENDBRANCH   1  12
BRANCH   2  22
ATOM     22  O   UNL     1       6.893  13.614 -17.044  1.00  0.00    -0.502 OA
ATOM     23  H   UNL     1       6.703  14.151 -16.206  1.00  0.00     0.293 HD
ENDBRANCH   2  22
BRANCH   6  24
ATOM     24  O   UNL     1       8.481   9.450 -14.127  1.00  0.00    -0.507 OA
ATOM     25  H   UNL     1       7.678   8.855 -13.995  1.00  0.00     0.293 HD
ENDBRANCH   6  24
BRANCH   8  26
ATOM     26  O   UNL     1      11.936   7.694 -16.935  1.00  0.00    -0.508 OA
ATOM     27  H   UNL     1      12.868   7.764 -16.543  1.00  0.00     0.293 HD
ENDBRANCH   8  26
TORSDOF 6
ENDMDL
