MODEL 1
REMARK VINA RESULT:    -5.827      0.000      0.000
REMARK INTER + INTRA:         -10.359
REMARK INTER:                  -8.893
REMARK INTRA:                  -1.466
REMARK UNBOUND:                -1.466
REMARK SMILES OC[C@@H]1O[C@@H](O[C@]2(CO)O[C@H](CO)[C@H](O)[C@H]2O)[C@@H](O)[C@@H](O)[C@@H]1O
REMARK SMILES IDX 6 1 5 2 3 3 22 4 4 5 20 6 18 7 2 8 1 9 23 11 21 13 19 15
REMARK SMILES IDX 7 17 16 18 10 19 14 20 11 21 8 22 9 23 17 25 15 27 12 29
REMARK SMILES IDX 13 30
REMARK H PARENT 1 10 23 12 21 14 19 16 9 24 17 26 15 28 13 31
REMARK Flexibility Score: inf
ROOT
ATOM      1  O   UNL     1      41.603  41.034  25.566  1.00  0.00    -0.313 OA
ENDROOT
BRANCH   1   2
ATOM      2  C   UNL     1      40.520  41.166  24.651  1.00  0.00     0.285 C 
ATOM      3  C   UNL     1      40.398  38.810  24.526  1.00  0.00     0.178 C 
ATOM      4  C   UNL     1      41.500  38.898  23.416  1.00  0.00     0.177 C 
ATOM      5  O   UNL     1      39.675  40.028  24.691  1.00  0.00    -0.341 OA
ATOM      6  C   UNL     1      41.178  40.042  22.445  1.00  0.00     0.179 C 
ATOM      7  C   UNL     1      41.046  41.384  23.211  1.00  0.00     0.202 C 
BRANCH   3   8
ATOM      8  C   UNL     1      39.378  37.688  24.261  1.00  0.00     0.191 C 
BRANCH   8   9
ATOM      9  O   UNL     1      39.927  36.440  24.592  1.00  0.00    -0.394 OA
ATOM     10  H   UNL     1      40.284  36.518  25.515  1.00  0.00     0.210 HD
ENDBRANCH   8   9
ENDBRANCH   3   8
BRANCH   4  11
ATOM     11  O   UNL     1      41.626  37.684  22.714  1.00  0.00    -0.387 OA
ATOM     12  H   UNL     1      41.980  37.014  23.354  1.00  0.00     0.211 HD
ENDBRANCH   4  11
BRANCH   6  13
ATOM     13  O   UNL     1      42.173  40.125  21.457  1.00  0.00    -0.387 OA
ATOM     14  H   UNL     1      42.407  41.086  21.370  1.00  0.00     0.211 HD
ENDBRANCH   6  13
BRANCH   7  15
ATOM     15  O   UNL     1      42.278  42.061  23.259  1.00  0.00    -0.385 OA
ATOM     16  H   UNL     1      42.962  41.456  22.866  1.00  0.00     0.211 HD
ENDBRANCH   7  15
ENDBRANCH   1   2
BRANCH   1  17
ATOM     17  C   UNL     1      41.678  42.076  26.535  1.00  0.00     0.224 C 
ATOM     18  C   UNL     1      43.103  42.145  27.114  1.00  0.00     0.208 C 
ATOM     19  O   UNL     1      41.364  43.345  25.982  1.00  0.00    -0.337 OA
ATOM     20  C   UNL     1      43.271  43.607  27.435  1.00  0.00     0.180 C 
ATOM     21  C   UNL     1      42.290  44.298  26.472  1.00  0.00     0.179 C 
BRANCH  17  22
ATOM     22  C   UNL     1      40.608  41.755  27.603  1.00  0.00     0.225 C 
BRANCH  22  23
ATOM     23  O   UNL     1      39.566  42.691  27.578  1.00  0.00    -0.391 OA
ATOM     24  H   UNL     1      38.869  42.315  26.978  1.00  0.00     0.210 HD
ENDBRANCH  22  23
ENDBRANCH  17  22
BRANCH  18  25
ATOM     25  O   UNL     1      43.261  41.339  28.255  1.00  0.00    -0.385 OA
ATOM     26  H   UNL     1      43.535  41.943  28.991  1.00  0.00     0.211 HD
ENDBRANCH  18  25
BRANCH  20  27
ATOM     27  O   UNL     1      44.606  44.004  27.258  1.00  0.00    -0.387 OA
ATOM     28  H   UNL     1      45.147  43.462  27.890  1.00  0.00     0.211 HD
ENDBRANCH  20  27
BRANCH  21  29
ATOM     29  C   UNL     1      42.975  45.001  25.286  1.00  0.00     0.191 C 
BRANCH  29  30
ATOM     30  O   UNL     1      43.674  44.070  24.503  1.00  0.00    -0.394 OA
ATOM     31  H   UNL     1      44.286  44.590  23.918  1.00  0.00     0.210 HD
ENDBRANCH  29  30
ENDBRANCH  21  29
ENDBRANCH   1  17
TORSDOF 13
ENDMDL
MODEL 2
REMARK VINA RESULT:    -5.558      1.361      6.065
REMARK INTER + INTRA:          -9.948
REMARK INTER:                  -8.617
REMARK INTRA:                  -1.331
REMARK UNBOUND:                -1.466
REMARK SMILES OC[C@@H]1O[C@@H](O[C@]2(CO)O[C@H](CO)[C@H](O)[C@H]2O)[C@@H](O)[C@@H](O)[C@@H]1O
REMARK SMILES IDX 6 1 5 2 3 3 22 4 4 5 20 6 18 7 2 8 1 9 23 11 21 13 19 15
REMARK SMILES IDX 7 17 16 18 10 19 14 20 11 21 8 22 9 23 17 25 15 27 12 29
REMARK SMILES IDX 13 30
REMARK H PARENT 1 10 23 12 21 14 19 16 9 24 17 26 15 28 13 31
REMARK Flexibility Score: inf
ROOT
ATOM      1  O   UNL     1      41.590  41.419  25.611  1.00  0.00    -0.313 OA
ENDROOT
BRANCH   1   2
ATOM      2  C   UNL     1      41.048  42.679  25.991  1.00  0.00     0.285 C 
ATOM      3  C   UNL     1      43.139  43.672  25.511  1.00  0.00     0.178 C 
ATOM      4  C   UNL     1      43.561  43.281  26.968  1.00  0.00     0.177 C 
ATOM      5  O   UNL     1      41.725  43.744  25.341  1.00  0.00    -0.341 OA
ATOM      6  C   UNL     1      42.423  43.598  27.948  1.00  0.00     0.179 C 
ATOM      7  C   UNL     1      41.124  42.864  27.527  1.00  0.00     0.202 C 
BRANCH   3   8
ATOM      8  C   UNL     1      43.737  45.016  25.060  1.00  0.00     0.191 C 
BRANCH   8   9
ATOM      9  O   UNL     1      45.034  44.830  24.558  1.00  0.00    -0.394 OA
ATOM     10  H   UNL     1      44.937  44.458  23.642  1.00  0.00     0.210 HD
ENDBRANCH   8   9
ENDBRANCH   3   8
BRANCH   4  11
ATOM     11  O   UNL     1      44.740  43.944  27.360  1.00  0.00    -0.387 OA
ATOM     12  H   UNL     1      44.897  44.669  26.703  1.00  0.00     0.211 HD
ENDBRANCH   4  11
BRANCH   6  13
ATOM     13  O   UNL     1      42.801  43.238  29.253  1.00  0.00    -0.387 OA
ATOM     14  H   UNL     1      43.613  42.675  29.167  1.00  0.00     0.211 HD
ENDBRANCH   6  13
BRANCH   7  15
ATOM     15  O   UNL     1      41.025  41.610  28.156  1.00  0.00    -0.385 OA
ATOM     16  H   UNL     1      40.999  40.922  27.440  1.00  0.00     0.211 HD
ENDBRANCH   7  15
ENDBRANCH   1   2
BRANCH   1  17
ATOM     17  C   UNL     1      40.848  40.747  24.596  1.00  0.00     0.224 C 
ATOM     18  C   UNL     1      41.323  41.216  23.208  1.00  0.00     0.208 C 
ATOM     19  O   UNL     1      41.003  39.339  24.664  1.00  0.00    -0.337 OA
ATOM     20  C   UNL     1      41.113  39.998  22.347  1.00  0.00     0.180 C 
ATOM     21  C   UNL     1      41.180  38.835  23.351  1.00  0.00     0.179 C 
BRANCH  17  22
ATOM     22  C   UNL     1      39.360  41.066  24.863  1.00  0.00     0.225 C 
BRANCH  22  23
ATOM     23  O   UNL     1      38.754  40.064  25.633  1.00  0.00    -0.391 OA
ATOM     24  H   UNL     1      37.868  40.423  25.907  1.00  0.00     0.210 HD
ENDBRANCH  22  23
ENDBRANCH  17  22
BRANCH  18  25
ATOM     25  O   UNL     1      40.596  42.322  22.735  1.00  0.00    -0.385 OA
ATOM     26  H   UNL     1      41.138  42.727  22.011  1.00  0.00     0.211 HD
ENDBRANCH  18  25
BRANCH  20  27
ATOM     27  O   UNL     1      42.090  39.928  21.341  1.00  0.00    -0.387 OA
ATOM     28  H   UNL     1      42.146  40.835  20.939  1.00  0.00     0.211 HD
ENDBRANCH  20  27
BRANCH  21  29
ATOM     29  C   UNL     1      42.491  38.030  23.286  1.00  0.00     0.191 C 
BRANCH  29  30
ATOM     30  O   UNL     1      42.474  37.157  22.189  1.00  0.00    -0.394 OA
ATOM     31  H   UNL     1      41.644  37.352  21.679  1.00  0.00     0.210 HD
ENDBRANCH  29  30
ENDBRANCH  21  29
ENDBRANCH   1  17
TORSDOF 13
ENDMDL
MODEL 3
REMARK VINA RESULT:    -5.465      1.236      6.143
REMARK INTER + INTRA:          -9.807
REMARK INTER:                  -8.485
REMARK INTRA:                  -1.321
REMARK UNBOUND:                -1.466
REMARK SMILES OC[C@@H]1O[C@@H](O[C@]2(CO)O[C@H](CO)[C@H](O)[C@H]2O)[C@@H](O)[C@@H](O)[C@@H]1O
REMARK SMILES IDX 6 1 5 2 3 3 22 4 4 5 20 6 18 7 2 8 1 9 23 11 21 13 19 15
REMARK SMILES IDX 7 17 16 18 10 19 14 20 11 21 8 22 9 23 17 25 15 27 12 29
REMARK SMILES IDX 13 30
REMARK H PARENT 1 10 23 12 21 14 19 16 9 24 17 26 15 28 13 31
REMARK Flexibility Score: inf
ROOT
ATOM      1  O   UNL     1      41.559  41.372  24.382  1.00  0.00    -0.313 OA
ENDROOT
BRANCH   1   2
ATOM      2  C   UNL     1      40.879  41.576  25.616  1.00  0.00     0.285 C 
ATOM      3  C   UNL     1      41.844  43.729  25.739  1.00  0.00     0.178 C 
ATOM      4  C   UNL     1      43.086  43.041  26.401  1.00  0.00     0.177 C 
ATOM      5  O   UNL     1      40.652  42.956  25.853  1.00  0.00    -0.341 OA
ATOM      6  C   UNL     1      42.623  42.011  27.441  1.00  0.00     0.179 C 
ATOM      7  C   UNL     1      41.684  40.964  26.788  1.00  0.00     0.202 C 
BRANCH   3   8
ATOM      8  C   UNL     1      41.559  45.125  26.323  1.00  0.00     0.191 C 
BRANCH   8   9
ATOM      9  O   UNL     1      41.090  45.016  27.640  1.00  0.00    -0.394 OA
ATOM     10  H   UNL     1      41.815  44.594  28.170  1.00  0.00     0.210 HD
ENDBRANCH   8   9
ENDBRANCH   3   8
BRANCH   4  11
ATOM     11  O   UNL     1      43.945  43.984  26.997  1.00  0.00    -0.387 OA
ATOM     12  H   UNL     1      43.424  44.442  27.706  1.00  0.00     0.211 HD
ENDBRANCH   4  11
BRANCH   6  13
ATOM     13  O   UNL     1      43.738  41.388  28.026  1.00  0.00    -0.387 OA
ATOM     14  H   UNL     1      44.434  42.088  28.129  1.00  0.00     0.211 HD
ENDBRANCH   6  13
BRANCH   7  15
ATOM     15  O   UNL     1      42.411  39.850  26.329  1.00  0.00    -0.385 OA
ATOM     16  H   UNL     1      41.986  39.040  26.717  1.00  0.00     0.211 HD
ENDBRANCH   7  15
ENDBRANCH   1   2
BRANCH   1  17
ATOM     17  C   UNL     1      40.887  40.491  23.485  1.00  0.00     0.224 C 
ATOM     18  C   UNL     1      41.910  39.832  22.541  1.00  0.00     0.208 C 
ATOM     19  O   UNL     1      40.189  39.462  24.168  1.00  0.00    -0.337 OA
ATOM     20  C   UNL     1      41.298  38.484  22.262  1.00  0.00     0.180 C 
ATOM     21  C   UNL     1      40.409  38.236  23.493  1.00  0.00     0.179 C 
BRANCH  17  22
ATOM     22  C   UNL     1      39.840  41.347  22.737  1.00  0.00     0.225 C 
BRANCH  22  23
ATOM     23  O   UNL     1      40.249  42.684  22.641  1.00  0.00    -0.391 OA
ATOM     24  H   UNL     1      41.029  42.780  23.250  1.00  0.00     0.210 HD
ENDBRANCH  22  23
ENDBRANCH  17  22
BRANCH  18  25
ATOM     25  O   UNL     1      42.106  40.570  21.360  1.00  0.00    -0.385 OA
ATOM     26  H   UNL     1      41.278  40.470  20.825  1.00  0.00     0.211 HD
ENDBRANCH  18  25
BRANCH  20  27
ATOM     27  O   UNL     1      42.297  37.513  22.086  1.00  0.00    -0.387 OA
ATOM     28  H   UNL     1      43.118  38.000  21.812  1.00  0.00     0.211 HD
ENDBRANCH  20  27
BRANCH  21  29
ATOM     29  C   UNL     1      40.986  37.206  24.481  1.00  0.00     0.191 C 
BRANCH  29  30
ATOM     30  O   UNL     1      40.110  36.120  24.623  1.00  0.00    -0.394 OA
ATOM     31  H   UNL     1      39.657  35.999  23.747  1.00  0.00     0.210 HD
ENDBRANCH  29  30
ENDBRANCH  21  29
ENDBRANCH   1  17
TORSDOF 13
ENDMDL
MODEL 4
REMARK VINA RESULT:    -5.368      1.416      6.182
REMARK INTER + INTRA:          -9.659
REMARK INTER:                  -8.111
REMARK INTRA:                  -1.549
REMARK UNBOUND:                -1.466
REMARK SMILES OC[C@@H]1O[C@@H](O[C@]2(CO)O[C@H](CO)[C@H](O)[C@H]2O)[C@@H](O)[C@@H](O)[C@@H]1O
REMARK SMILES IDX 6 1 5 2 3 3 22 4 4 5 20 6 18 7 2 8 1 9 23 11 21 13 19 15
REMARK SMILES IDX 7 17 16 18 10 19 14 20 11 21 8 22 9 23 17 25 15 27 12 29
REMARK SMILES IDX 13 30
REMARK H PARENT 1 10 23 12 21 14 19 16 9 24 17 26 15 28 13 31
REMARK Flexibility Score: inf
ROOT
ATOM      1  O   UNL     1      41.335  41.428  24.911  1.00  0.00    -0.313 OA
ENDROOT
BRANCH   1   2
ATOM      2  C   UNL     1      40.830  42.738  25.143  1.00  0.00     0.285 C 
ATOM      3  C   UNL     1      43.011  43.424  25.739  1.00  0.00     0.178 C 
ATOM      4  C   UNL     1      42.684  42.915  27.184  1.00  0.00     0.177 C 
ATOM      5  O   UNL     1      41.844  43.715  24.972  1.00  0.00    -0.341 OA
ATOM      6  C   UNL     1      41.271  43.358  27.589  1.00  0.00     0.179 C 
ATOM      7  C   UNL     1      40.226  42.845  26.565  1.00  0.00     0.202 C 
BRANCH   3   8
ATOM      8  C   UNL     1      43.900  44.681  25.740  1.00  0.00     0.191 C 
BRANCH   8   9
ATOM      9  O   UNL     1      44.749  44.680  24.624  1.00  0.00    -0.394 OA
ATOM     10  H   UNL     1      44.719  43.765  24.240  1.00  0.00     0.210 HD
ENDBRANCH   8   9
ENDBRANCH   3   8
BRANCH   4  11
ATOM     11  O   UNL     1      43.627  43.376  28.121  1.00  0.00    -0.387 OA
ATOM     12  H   UNL     1      44.487  43.483  27.639  1.00  0.00     0.211 HD
ENDBRANCH   4  11
BRANCH   6  13
ATOM     13  O   UNL     1      40.976  42.891  28.881  1.00  0.00    -0.387 OA
ATOM     14  H   UNL     1      41.302  43.583  29.514  1.00  0.00     0.211 HD
ENDBRANCH   6  13
BRANCH   7  15
ATOM     15  O   UNL     1      39.710  41.595  26.952  1.00  0.00    -0.385 OA
ATOM     16  H   UNL     1      40.267  41.268  27.707  1.00  0.00     0.211 HD
ENDBRANCH   7  15
ENDBRANCH   1   2
BRANCH   1  17
ATOM     17  C   UNL     1      40.684  40.730  23.852  1.00  0.00     0.224 C 
ATOM     18  C   UNL     1      40.996  39.225  23.952  1.00  0.00     0.208 C 
ATOM     19  O   UNL     1      39.275  40.893  23.891  1.00  0.00    -0.337 OA
ATOM     20  C   UNL     1      39.753  38.582  23.396  1.00  0.00     0.180 C 
ATOM     21  C   UNL     1      38.663  39.640  23.640  1.00  0.00     0.179 C 
BRANCH  17  22
ATOM     22  C   UNL     1      41.191  41.365  22.537  1.00  0.00     0.225 C 
BRANCH  22  23
ATOM     23  O   UNL     1      42.565  41.630  22.596  1.00  0.00    -0.391 OA
ATOM     24  H   UNL     1      42.664  42.465  23.126  1.00  0.00     0.210 HD
ENDBRANCH  22  23
ENDBRANCH  17  22
BRANCH  18  25
ATOM     25  O   UNL     1      42.142  38.864  23.224  1.00  0.00    -0.385 OA
ATOM     26  H   UNL     1      41.971  39.122  22.283  1.00  0.00     0.211 HD
ENDBRANCH  18  25
BRANCH  20  27
ATOM     27  O   UNL     1      39.500  37.357  24.034  1.00  0.00    -0.387 OA
ATOM     28  H   UNL     1      38.737  37.513  24.650  1.00  0.00     0.211 HD
ENDBRANCH  20  27
BRANCH  21  29
ATOM     29  C   UNL     1      37.710  39.296  24.799  1.00  0.00     0.191 C 
BRANCH  29  30
ATOM     30  O   UNL     1      38.363  39.449  26.031  1.00  0.00    -0.394 OA
ATOM     31  H   UNL     1      39.236  38.982  25.953  1.00  0.00     0.210 HD
ENDBRANCH  29  30
ENDBRANCH  21  29
ENDBRANCH   1  17
TORSDOF 13
ENDMDL
MODEL 5
REMARK VINA RESULT:    -5.302     14.827     18.114
REMARK INTER + INTRA:          -9.558
REMARK INTER:                  -8.473
REMARK INTRA:                  -1.085
REMARK UNBOUND:                -1.466
REMARK SMILES OC[C@@H]1O[C@@H](O[C@]2(CO)O[C@H](CO)[C@H](O)[C@H]2O)[C@@H](O)[C@@H](O)[C@@H]1O
REMARK SMILES IDX 6 1 5 2 3 3 22 4 4 5 20 6 18 7 2 8 1 9 23 11 21 13 19 15
REMARK SMILES IDX 7 17 16 18 10 19 14 20 11 21 8 22 9 23 17 25 15 27 12 29
REMARK SMILES IDX 13 30
REMARK H PARENT 1 10 23 12 21 14 19 16 9 24 17 26 15 28 13 31
REMARK Flexibility Score: inf
ROOT
ATOM      1  O   UNL     1      50.281  27.599  17.860  1.00  0.00    -0.313 OA
ENDROOT
BRANCH   1   2
ATOM      2  C   UNL     1      50.351  26.178  17.865  1.00  0.00     0.285 C 
ATOM      3  C   UNL     1      49.056  26.166  19.842  1.00  0.00     0.178 C 
ATOM      4  C   UNL     1      50.402  26.353  20.622  1.00  0.00     0.177 C 
ATOM      5  O   UNL     1      49.238  25.613  18.540  1.00  0.00    -0.341 OA
ATOM      6  C   UNL     1      51.479  25.428  20.040  1.00  0.00     0.179 C 
ATOM      7  C   UNL     1      51.668  25.700  18.525  1.00  0.00     0.202 C 
BRANCH   3   8
ATOM      8  C   UNL     1      48.052  25.276  20.596  1.00  0.00     0.191 C 
BRANCH   8   9
ATOM      9  O   UNL     1      47.320  26.039  21.518  1.00  0.00    -0.394 OA
ATOM     10  H   UNL     1      46.482  26.314  21.064  1.00  0.00     0.210 HD
ENDBRANCH   8   9
ENDBRANCH   3   8
BRANCH   4  11
ATOM     11  O   UNL     1      50.241  26.108  21.999  1.00  0.00    -0.387 OA
ATOM     12  H   UNL     1      51.135  26.201  22.417  1.00  0.00     0.211 HD
ENDBRANCH   4  11
BRANCH   6  13
ATOM     13  O   UNL     1      52.687  25.604  20.735  1.00  0.00    -0.387 OA
ATOM     14  H   UNL     1      53.276  26.146  20.147  1.00  0.00     0.211 HD
ENDBRANCH   6  13
BRANCH   7  15
ATOM     15  O   UNL     1      52.677  26.654  18.305  1.00  0.00    -0.385 OA
ATOM     16  H   UNL     1      53.241  26.680  19.123  1.00  0.00     0.211 HD
ENDBRANCH   7  15
ENDBRANCH   1   2
BRANCH   1  17
ATOM     17  C   UNL     1      49.875  28.159  16.614  1.00  0.00     0.224 C 
ATOM     18  C   UNL     1      48.370  27.911  16.398  1.00  0.00     0.208 C 
ATOM     19  O   UNL     1      50.105  29.557  16.554  1.00  0.00    -0.337 OA
ATOM     20  C   UNL     1      47.939  29.109  15.594  1.00  0.00     0.180 C 
ATOM     21  C   UNL     1      48.977  30.181  15.967  1.00  0.00     0.179 C 
BRANCH  17  22
ATOM     22  C   UNL     1      50.756  27.494  15.532  1.00  0.00     0.225 C 
BRANCH  22  23
ATOM     23  O   UNL     1      51.857  28.298  15.207  1.00  0.00    -0.391 OA
ATOM     24  H   UNL     1      52.382  27.790  14.533  1.00  0.00     0.210 HD
ENDBRANCH  22  23
ENDBRANCH  17  22
BRANCH  18  25
ATOM     25  O   UNL     1      48.114  26.707  15.720  1.00  0.00    -0.385 OA
ATOM     26  H   UNL     1      48.565  26.778  14.840  1.00  0.00     0.211 HD
ENDBRANCH  18  25
BRANCH  20  27
ATOM     27  O   UNL     1      46.619  29.470  15.911  1.00  0.00    -0.387 OA
ATOM     28  H   UNL     1      46.143  28.628  16.134  1.00  0.00     0.211 HD
ENDBRANCH  20  27
BRANCH  21  29
ATOM     29  C   UNL     1      48.438  31.263  16.921  1.00  0.00     0.191 C 
BRANCH  29  30
ATOM     30  O   UNL     1      47.479  32.054  16.273  1.00  0.00    -0.394 OA
ATOM     31  H   UNL     1      46.795  31.433  15.906  1.00  0.00     0.210 HD
ENDBRANCH  29  30
ENDBRANCH  21  29
ENDBRANCH   1  17
TORSDOF 13
ENDMDL
MODEL 6
REMARK VINA RESULT:    -5.264     14.765     18.119
REMARK INTER + INTRA:          -9.500
REMARK INTER:                  -7.650
REMARK INTRA:                  -1.850
REMARK UNBOUND:                -1.466
REMARK SMILES OC[C@@H]1O[C@@H](O[C@]2(CO)O[C@H](CO)[C@H](O)[C@H]2O)[C@@H](O)[C@@H](O)[C@@H]1O
REMARK SMILES IDX 6 1 5 2 3 3 22 4 4 5 20 6 18 7 2 8 1 9 23 11 21 13 19 15
REMARK SMILES IDX 7 17 16 18 10 19 14 20 11 21 8 22 9 23 17 25 15 27 12 29
REMARK SMILES IDX 13 30
REMARK H PARENT 1 10 23 12 21 14 19 16 9 24 17 26 15 28 13 31
REMARK Flexibility Score: inf
ROOT
ATOM      1  O   UNL     1      49.334  27.623  17.920  1.00  0.00    -0.313 OA
ENDROOT
BRANCH   1   2
ATOM      2  C   UNL     1      49.794  28.201  16.703  1.00  0.00     0.285 C 
ATOM      3  C   UNL     1      49.399  30.341  17.624  1.00  0.00     0.178 C 
ATOM      4  C   UNL     1      47.921  30.187  17.128  1.00  0.00     0.177 C 
ATOM      5  O   UNL     1      50.313  29.503  16.920  1.00  0.00    -0.341 OA
ATOM      6  C   UNL     1      47.900  29.610  15.706  1.00  0.00     0.179 C 
ATOM      7  C   UNL     1      48.651  28.254  15.659  1.00  0.00     0.202 C 
BRANCH   3   8
ATOM      8  C   UNL     1      49.911  31.789  17.520  1.00  0.00     0.191 C 
BRANCH   8   9
ATOM      9  O   UNL     1      49.279  32.600  18.474  1.00  0.00    -0.394 OA
ATOM     10  H   UNL     1      49.809  33.437  18.537  1.00  0.00     0.210 HD
ENDBRANCH   8   9
ENDBRANCH   3   8
BRANCH   4  11
ATOM     11  O   UNL     1      47.231  31.413  17.167  1.00  0.00    -0.387 OA
ATOM     12  H   UNL     1      47.913  32.126  17.262  1.00  0.00     0.211 HD
ENDBRANCH   4  11
BRANCH   6  13
ATOM     13  O   UNL     1      46.574  29.463  15.268  1.00  0.00    -0.387 OA
ATOM     14  H   UNL     1      46.566  28.696  14.638  1.00  0.00     0.211 HD
ENDBRANCH   6  13
BRANCH   7  15
ATOM     15  O   UNL     1      47.768  27.180  15.874  1.00  0.00    -0.385 OA
ATOM     16  H   UNL     1      48.322  26.369  16.024  1.00  0.00     0.211 HD
ENDBRANCH   7  15
ENDBRANCH   1   2
BRANCH   1  17
ATOM     17  C   UNL     1      50.064  26.469  18.331  1.00  0.00     0.224 C 
ATOM     18  C   UNL     1      50.782  25.850  17.118  1.00  0.00     0.208 C 
ATOM     19  O   UNL     1      51.040  26.776  19.314  1.00  0.00    -0.337 OA
ATOM     20  C   UNL     1      52.022  25.249  17.726  1.00  0.00     0.180 C 
ATOM     21  C   UNL     1      52.237  26.087  18.998  1.00  0.00     0.179 C 
BRANCH  17  22
ATOM     22  C   UNL     1      49.036  25.512  18.977  1.00  0.00     0.225 C 
BRANCH  22  23
ATOM     23  O   UNL     1      47.778  25.629  18.369  1.00  0.00    -0.391 OA
ATOM     24  H   UNL     1      47.866  25.217  17.469  1.00  0.00     0.210 HD
ENDBRANCH  22  23
ENDBRANCH  17  22
BRANCH  18  25
ATOM     25  O   UNL     1      49.999  24.882  16.465  1.00  0.00    -0.385 OA
ATOM     26  H   UNL     1      50.506  24.032  16.510  1.00  0.00     0.211 HD
ENDBRANCH  18  25
BRANCH  20  27
ATOM     27  O   UNL     1      53.096  25.310  16.824  1.00  0.00    -0.387 OA
ATOM     28  H   UNL     1      52.745  25.004  15.947  1.00  0.00     0.211 HD
ENDBRANCH  20  27
BRANCH  21  29
ATOM     29  C   UNL     1      53.394  27.097  18.889  1.00  0.00     0.191 C 
BRANCH  29  30
ATOM     30  O   UNL     1      52.981  28.240  18.189  1.00  0.00    -0.394 OA
ATOM     31  H   UNL     1      52.928  28.979  18.851  1.00  0.00     0.210 HD
ENDBRANCH  29  30
ENDBRANCH  21  29
ENDBRANCH   1  17
TORSDOF 13
ENDMDL
MODEL 7
REMARK VINA RESULT:    -5.246      1.445      3.188
REMARK INTER + INTRA:          -9.473
REMARK INTER:                  -7.975
REMARK INTRA:                  -1.498
REMARK UNBOUND:                -1.466
REMARK SMILES OC[C@@H]1O[C@@H](O[C@]2(CO)O[C@H](CO)[C@H](O)[C@H]2O)[C@@H](O)[C@@H](O)[C@@H]1O
REMARK SMILES IDX 6 1 5 2 3 3 22 4 4 5 20 6 18 7 2 8 1 9 23 11 21 13 19 15
REMARK SMILES IDX 7 17 16 18 10 19 14 20 11 21 8 22 9 23 17 25 15 27 12 29
REMARK SMILES IDX 13 30
REMARK H PARENT 1 10 23 12 21 14 19 16 9 24 17 26 15 28 13 31
REMARK Flexibility Score: inf
ROOT
ATOM      1  O   UNL     1      41.400  40.911  25.124  1.00  0.00    -0.313 OA
ENDROOT
BRANCH   1   2
ATOM      2  C   UNL     1      40.338  40.862  24.178  1.00  0.00     0.285 C 
ATOM      3  C   UNL     1      40.381  38.504  24.321  1.00  0.00     0.178 C 
ATOM      4  C   UNL     1      41.506  38.544  23.232  1.00  0.00     0.177 C 
ATOM      5  O   UNL     1      39.572  39.678  24.331  1.00  0.00    -0.341 OA
ATOM      6  C   UNL     1      41.134  39.545  22.130  1.00  0.00     0.179 C 
ATOM      7  C   UNL     1      40.890  40.952  22.734  1.00  0.00     0.202 C 
BRANCH   3   8
ATOM      8  C   UNL     1      39.447  37.290  24.166  1.00  0.00     0.191 C 
BRANCH   8   9
ATOM      9  O   UNL     1      40.084  36.123  24.616  1.00  0.00    -0.394 OA
ATOM     10  H   UNL     1      39.480  35.365  24.403  1.00  0.00     0.210 HD
ENDBRANCH   8   9
ENDBRANCH   3   8
BRANCH   4  11
ATOM     11  O   UNL     1      41.735  37.271  22.677  1.00  0.00    -0.387 OA
ATOM     12  H   UNL     1      42.229  37.409  21.828  1.00  0.00     0.211 HD
ENDBRANCH   4  11
BRANCH   6  13
ATOM     13  O   UNL     1      42.149  39.587  21.159  1.00  0.00    -0.387 OA
ATOM     14  H   UNL     1      42.983  39.846  21.632  1.00  0.00     0.211 HD
ENDBRANCH   6  13
BRANCH   7  15
ATOM     15  O   UNL     1      42.071  41.717  22.729  1.00  0.00    -0.385 OA
ATOM     16  H   UNL     1      41.803  42.673  22.746  1.00  0.00     0.211 HD
ENDBRANCH   7  15
ENDBRANCH   1   2
BRANCH   1  17
ATOM     17  C   UNL     1      41.129  41.722  26.265  1.00  0.00     0.224 C 
ATOM     18  C   UNL     1      40.232  42.906  25.858  1.00  0.00     0.208 C 
ATOM     19  O   UNL     1      40.469  40.999  27.291  1.00  0.00    -0.337 OA
ATOM     20  C   UNL     1      39.424  43.165  27.103  1.00  0.00     0.180 C 
ATOM     21  C   UNL     1      39.430  41.804  27.821  1.00  0.00     0.179 C 
BRANCH  17  22
ATOM     22  C   UNL     1      42.502  42.168  26.817  1.00  0.00     0.225 C 
BRANCH  22  23
ATOM     23  O   UNL     1      43.221  41.081  27.333  1.00  0.00    -0.391 OA
ATOM     24  H   UNL     1      42.589  40.580  27.912  1.00  0.00     0.210 HD
ENDBRANCH  22  23
ENDBRANCH  17  22
BRANCH  18  25
ATOM     25  O   UNL     1      40.974  44.036  25.473  1.00  0.00    -0.385 OA
ATOM     26  H   UNL     1      40.633  44.794  26.014  1.00  0.00     0.211 HD
ENDBRANCH  18  25
BRANCH  20  27
ATOM     27  O   UNL     1      38.137  43.621  26.773  1.00  0.00    -0.387 OA
ATOM     28  H   UNL     1      38.154  44.608  26.878  1.00  0.00     0.211 HD
ENDBRANCH  20  27
BRANCH  21  29
ATOM     29  C   UNL     1      38.095  41.043  27.723  1.00  0.00     0.191 C 
BRANCH  29  30
ATOM     30  O   UNL     1      38.200  39.986  26.807  1.00  0.00    -0.394 OA
ATOM     31  H   UNL     1      38.979  40.188  26.224  1.00  0.00     0.210 HD
ENDBRANCH  29  30
ENDBRANCH  21  29
ENDBRANCH   1  17
TORSDOF 13
ENDMDL
MODEL 8
REMARK VINA RESULT:    -5.206      1.267      2.672
REMARK INTER + INTRA:          -9.412
REMARK INTER:                  -8.356
REMARK INTRA:                  -1.056
REMARK UNBOUND:                -1.466
REMARK SMILES OC[C@@H]1O[C@@H](O[C@]2(CO)O[C@H](CO)[C@H](O)[C@H]2O)[C@@H](O)[C@@H](O)[C@@H]1O
REMARK SMILES IDX 6 1 5 2 3 3 22 4 4 5 20 6 18 7 2 8 1 9 23 11 21 13 19 15
REMARK SMILES IDX 7 17 16 18 10 19 14 20 11 21 8 22 9 23 17 25 15 27 12 29
REMARK SMILES IDX 13 30
REMARK H PARENT 1 10 23 12 21 14 19 16 9 24 17 26 15 28 13 31
REMARK Flexibility Score: inf
ROOT
ATOM      1  O   UNL     1      41.433  41.063  24.998  1.00  0.00    -0.313 OA
ENDROOT
BRANCH   1   2
ATOM      2  C   UNL     1      40.383  41.027  24.039  1.00  0.00     0.285 C 
ATOM      3  C   UNL     1      40.293  38.679  24.294  1.00  0.00     0.178 C 
ATOM      4  C   UNL     1      41.434  38.605  23.222  1.00  0.00     0.177 C 
ATOM      5  O   UNL     1      39.551  39.895  24.235  1.00  0.00    -0.341 OA
ATOM      6  C   UNL     1      41.133  39.571  22.068  1.00  0.00     0.179 C 
ATOM      7  C   UNL     1      40.958  41.017  22.601  1.00  0.00     0.202 C 
BRANCH   3   8
ATOM      8  C   UNL     1      39.297  37.511  24.181  1.00  0.00     0.191 C 
BRANCH   8   9
ATOM      9  O   UNL     1      39.900  36.313  24.592  1.00  0.00    -0.394 OA
ATOM     10  H   UNL     1      40.107  36.411  25.558  1.00  0.00     0.210 HD
ENDBRANCH   8   9
ENDBRANCH   3   8
BRANCH   4  11
ATOM     11  O   UNL     1      41.600  37.296  22.732  1.00  0.00    -0.387 OA
ATOM     12  H   UNL     1      41.452  37.333  21.752  1.00  0.00     0.211 HD
ENDBRANCH   4  11
BRANCH   6  13
ATOM     13  O   UNL     1      42.162  39.511  21.113  1.00  0.00    -0.387 OA
ATOM     14  H   UNL     1      42.245  38.559  20.846  1.00  0.00     0.211 HD
ENDBRANCH   6  13
BRANCH   7  15
ATOM     15  O   UNL     1      42.179  41.715  22.579  1.00  0.00    -0.385 OA
ATOM     16  H   UNL     1      42.893  41.067  22.819  1.00  0.00     0.211 HD
ENDBRANCH   7  15
ENDBRANCH   1   2
BRANCH   1  17
ATOM     17  C   UNL     1      41.257  42.043  26.019  1.00  0.00     0.224 C 
ATOM     18  C   UNL     1      40.130  41.605  26.971  1.00  0.00     0.208 C 
ATOM     19  O   UNL     1      42.435  42.235  26.786  1.00  0.00    -0.337 OA
ATOM     20  C   UNL     1      40.553  42.191  28.293  1.00  0.00     0.180 C 
ATOM     21  C   UNL     1      42.080  42.316  28.155  1.00  0.00     0.179 C 
BRANCH  17  22
ATOM     22  C   UNL     1      40.951  43.374  25.294  1.00  0.00     0.225 C 
BRANCH  22  23
ATOM     23  O   UNL     1      42.108  43.921  24.723  1.00  0.00    -0.391 OA
ATOM     24  H   UNL     1      42.750  44.055  25.470  1.00  0.00     0.210 HD
ENDBRANCH  22  23
ENDBRANCH  17  22
BRANCH  18  25
ATOM     25  O   UNL     1      38.870  42.080  26.569  1.00  0.00    -0.385 OA
ATOM     26  H   UNL     1      38.410  42.390  27.390  1.00  0.00     0.211 HD
ENDBRANCH  18  25
BRANCH  20  27
ATOM     27  O   UNL     1      40.150  41.364  29.354  1.00  0.00    -0.387 OA
ATOM     28  H   UNL     1      39.159  41.411  29.386  1.00  0.00     0.211 HD
ENDBRANCH  20  27
BRANCH  21  29
ATOM     29  C   UNL     1      42.865  41.256  28.949  1.00  0.00     0.191 C 
BRANCH  29  30
ATOM     30  O   UNL     1      43.642  40.472  28.084  1.00  0.00    -0.394 OA
ATOM     31  H   UNL     1      43.037  40.153  27.364  1.00  0.00     0.210 HD
ENDBRANCH  29  30
ENDBRANCH  21  29
ENDBRANCH   1  17
TORSDOF 13
ENDMDL
MODEL 9
REMARK VINA RESULT:    -4.964      1.608      2.965
REMARK INTER + INTRA:          -9.042
REMARK INTER:                  -7.297
REMARK INTRA:                  -1.745
REMARK UNBOUND:                -1.466
REMARK SMILES OC[C@@H]1O[C@@H](O[C@]2(CO)O[C@H](CO)[C@H](O)[C@H]2O)[C@@H](O)[C@@H](O)[C@@H]1O
REMARK SMILES IDX 6 1 5 2 3 3 22 4 4 5 20 6 18 7 2 8 1 9 23 11 21 13 19 15
REMARK SMILES IDX 7 17 16 18 10 19 14 20 11 21 8 22 9 23 17 25 15 27 12 29
REMARK SMILES IDX 13 30
REMARK H PARENT 1 10 23 12 21 14 19 16 9 24 17 26 15 28 13 31
REMARK Flexibility Score: inf
ROOT
ATOM      1  O   UNL     1      39.588  41.906  25.603  1.00  0.00    -0.313 OA
ENDROOT
BRANCH   1   2
ATOM      2  C   UNL     1      40.330  40.691  25.574  1.00  0.00     0.285 C 
ATOM      3  C   UNL     1      40.688  41.019  23.262  1.00  0.00     0.178 C 
ATOM      4  C   UNL     1      39.305  40.317  23.036  1.00  0.00     0.177 C 
ATOM      5  O   UNL     1      41.278  40.696  24.519  1.00  0.00    -0.341 OA
ATOM      6  C   UNL     1      39.189  39.082  23.939  1.00  0.00     0.179 C 
ATOM      7  C   UNL     1      39.380  39.477  25.427  1.00  0.00     0.202 C 
BRANCH   3   8
ATOM      8  C   UNL     1      41.710  40.682  22.161  1.00  0.00     0.191 C 
BRANCH   8   9
ATOM      9  O   UNL     1      42.801  41.563  22.222  1.00  0.00    -0.394 OA
ATOM     10  H   UNL     1      43.534  41.081  22.686  1.00  0.00     0.210 HD
ENDBRANCH   8   9
ENDBRANCH   3   8
BRANCH   4  11
ATOM     11  O   UNL     1      39.123  39.954  21.688  1.00  0.00    -0.387 OA
ATOM     12  H   UNL     1      38.280  40.380  21.385  1.00  0.00     0.211 HD
ENDBRANCH   4  11
BRANCH   6  13
ATOM     13  O   UNL     1      37.945  38.461  23.743  1.00  0.00    -0.387 OA
ATOM     14  H   UNL     1      37.400  39.083  23.194  1.00  0.00     0.211 HD
ENDBRANCH   6  13
BRANCH   7  15
ATOM     15  O   UNL     1      38.146  39.769  26.035  1.00  0.00    -0.385 OA
ATOM     16  H   UNL     1      37.565  38.970  25.921  1.00  0.00     0.211 HD
ENDBRANCH   7  15
ENDBRANCH   1   2
BRANCH   1  17
ATOM     17  C   UNL     1      40.095  42.877  26.516  1.00  0.00     0.224 C 
ATOM     18  C   UNL     1      41.058  42.202  27.510  1.00  0.00     0.208 C 
ATOM     19  O   UNL     1      40.799  43.917  25.855  1.00  0.00    -0.337 OA
ATOM     20  C   UNL     1      42.045  43.296  27.824  1.00  0.00     0.180 C 
ATOM     21  C   UNL     1      41.981  44.202  26.582  1.00  0.00     0.179 C 
BRANCH  17  22
ATOM     22  C   UNL     1      38.864  43.510  27.204  1.00  0.00     0.225 C 
BRANCH  22  23
ATOM     23  O   UNL     1      37.839  42.571  27.379  1.00  0.00    -0.391 OA
ATOM     24  H   UNL     1      37.774  42.069  26.524  1.00  0.00     0.210 HD
ENDBRANCH  22  23
ENDBRANCH  17  22
BRANCH  18  25
ATOM     25  O   UNL     1      40.404  41.742  28.666  1.00  0.00    -0.385 OA
ATOM     26  H   UNL     1      40.806  42.229  29.430  1.00  0.00     0.211 HD
ENDBRANCH  18  25
BRANCH  20  27
ATOM     27  O   UNL     1      43.321  42.759  28.063  1.00  0.00    -0.387 OA
ATOM     28  H   UNL     1      43.961  43.515  27.990  1.00  0.00     0.211 HD
ENDBRANCH  20  27
BRANCH  21  29
ATOM     29  C   UNL     1      43.198  44.066  25.649  1.00  0.00     0.191 C 
BRANCH  29  30
ATOM     30  O   UNL     1      42.841  43.388  24.475  1.00  0.00    -0.394 OA
ATOM     31  H   UNL     1      42.356  42.567  24.753  1.00  0.00     0.210 HD
ENDBRANCH  29  30
ENDBRANCH  21  29
ENDBRANCH   1  17
TORSDOF 13
ENDMDL
