MODEL 1
REMARK VINA RESULT:    -4.078      0.000      0.000
REMARK INTER + INTRA:          -5.549
REMARK INTER:                  -5.747
REMARK INTRA:                   0.198
REMARK UNBOUND:                 0.198
REMARK SMILES CC1=CCC(=C(C)C)C(=O)CC(C)=CCC1
REMARK SMILES IDX 12 1 14 2 13 3 15 4 16 5 2 6 1 7 3 8 11 10 9 11 10 12 5 13
REMARK SMILES IDX 6 14 7 15 8 16 4 17
REMARK H PARENT
REMARK Flexibility Score: 60.00
ROOT
ATOM      1  C   UNL     1     -16.709  12.469 -30.396  1.00  0.00    -0.070 C 
ATOM      2  C   UNL     1     -16.818  11.786 -29.235  1.00  0.00    -0.027 C 
ATOM      3  C   UNL     1     -17.968  12.726 -31.184  1.00  0.00     0.039 C 
ENDROOT
BRANCH   2   4
ATOM      4  C   UNL     1     -15.666  11.349 -28.356  1.00  0.00     0.032 C 
BRANCH   4   5
ATOM      5  C   UNL     1     -15.070  12.460 -27.468  1.00  0.00     0.034 C 
BRANCH   5   6
ATOM      6  C   UNL     1     -13.556  12.539 -27.544  1.00  0.00    -0.077 C 
ATOM      7  C   UNL     1     -12.764  11.391 -26.972  1.00  0.00     0.039 C 
ATOM      8  C   UNL     1     -12.870  13.604 -28.029  1.00  0.00    -0.023 CG0
ATOM      9  G   UNL     1     -13.448  14.852 -28.666  1.00  0.00     0.000 G0
ENDBRANCH   5   6
ENDBRANCH   4   5
ENDBRANCH   2   4
BRANCH   1  10
ATOM     10  C   UNL     1     -15.382  12.904 -30.983  1.00  0.00     0.111 C 
BRANCH  10  11
ATOM     11  C   UNL     1     -15.037  14.317 -30.594  1.00  0.00     0.163 C 
ATOM     12  O   UNL     1     -15.936  15.196 -30.694  1.00  0.00    -0.294 OA
BRANCH  11  13
ATOM     13  C   UNL     1     -13.667  14.717 -30.159  1.00  0.00    -0.002 C 
ATOM     14  C   UNL     1     -12.659  14.866 -31.071  1.00  0.00    -0.069 C 
ATOM     15  C   UNL     1     -12.928  14.783 -32.557  1.00  0.00     0.039 C 
ATOM     16  C   UNL     1     -11.227  15.115 -30.649  1.00  0.00     0.039 C 
BRANCH  13  17
ATOM     17  C   UNL     1     -13.425  14.858 -28.664  1.00  0.00     0.066 CG0
ATOM     18  G   UNL     1     -12.867  13.590 -28.049  1.00  0.00     0.000 G0
ENDBRANCH  13  17
ENDBRANCH  11  13
ENDBRANCH  10  11
ENDBRANCH   1  10
TORSDOF 0
ENDMDL
MODEL 2
REMARK VINA RESULT:    -3.883      1.917      4.704
REMARK INTER + INTRA:          -5.274
REMARK INTER:                  -5.497
REMARK INTRA:                   0.223
REMARK UNBOUND:                 0.198
REMARK SMILES CC1=CCC(=C(C)C)C(=O)CC(C)=CCC1
REMARK SMILES IDX 12 1 14 2 13 3 15 4 16 5 2 6 1 7 3 8 11 10 9 11 10 12 5 13
REMARK SMILES IDX 6 14 7 15 8 16 4 17
REMARK H PARENT
REMARK Flexibility Score: 60.00
ROOT
ATOM      1  C   UNL     1     -13.282  14.871 -30.857  1.00  0.00    -0.070 C 
ATOM      2  C   UNL     1     -14.320  14.743 -31.713  1.00  0.00    -0.027 C 
ATOM      3  C   UNL     1     -11.910  15.099 -31.440  1.00  0.00     0.039 C 
ENDROOT
BRANCH   2   4
ATOM      4  C   UNL     1     -15.747  14.417 -31.329  1.00  0.00     0.032 C 
BRANCH   4   5
ATOM      5  C   UNL     1     -16.088  12.913 -31.320  1.00  0.00     0.034 C 
BRANCH   5   6
ATOM      6  C   UNL     1     -16.765  12.461 -30.038  1.00  0.00    -0.077 C 
ATOM      7  C   UNL     1     -18.226  12.790 -29.864  1.00  0.00     0.039 C 
ATOM      8  C   UNL     1     -16.127  11.844 -29.013  1.00  0.00    -0.023 CG0
ATOM      9  G   UNL     1     -14.678  11.401 -28.972  1.00  0.00     0.000 G0
ENDBRANCH   5   6
ENDBRANCH   4   5
ENDBRANCH   2   4
BRANCH   1  10
ATOM     10  C   UNL     1     -13.417  14.705 -29.357  1.00  0.00     0.111 C 
BRANCH  10  11
ATOM     11  C   UNL     1     -12.956  13.346 -28.904  1.00  0.00     0.163 C 
ATOM     12  O   UNL     1     -11.796  12.973 -29.228  1.00  0.00    -0.294 OA
BRANCH  11  13
ATOM     13  C   UNL     1     -13.840  12.411 -28.147  1.00  0.00    -0.002 C 
ATOM     14  C   UNL     1     -13.830  12.391 -26.780  1.00  0.00    -0.069 C 
ATOM     15  C   UNL     1     -13.047  13.413 -25.987  1.00  0.00     0.039 C 
ATOM     16  C   UNL     1     -14.593  11.351 -25.989  1.00  0.00     0.039 C 
BRANCH  13  17
ATOM     17  C   UNL     1     -14.670  11.428 -28.959  1.00  0.00     0.066 CG0
ATOM     18  G   UNL     1     -16.135  11.816 -29.008  1.00  0.00     0.000 G0
ENDBRANCH  13  17
ENDBRANCH  11  13
ENDBRANCH  10  11
ENDBRANCH   1  10
TORSDOF 0
ENDMDL
MODEL 3
REMARK VINA RESULT:    -3.674      1.991      3.411
REMARK INTER + INTRA:          -4.980
REMARK INTER:                  -5.268
REMARK INTRA:                   0.288
REMARK UNBOUND:                 0.198
REMARK SMILES CC1=CCC(=C(C)C)C(=O)CC(C)=CCC1
REMARK SMILES IDX 12 1 14 2 13 3 15 4 16 5 2 6 1 7 3 8 11 10 9 11 10 12 5 13
REMARK SMILES IDX 6 14 7 15 8 16 4 17
REMARK H PARENT
REMARK Flexibility Score: 60.00
ROOT
ATOM      1  C   UNL     1     -15.864  13.984 -30.552  1.00  0.00    -0.070 C 
ATOM      2  C   UNL     1     -17.098  13.500 -30.291  1.00  0.00    -0.027 C 
ATOM      3  C   UNL     1     -15.572  15.415 -30.177  1.00  0.00     0.039 C 
ENDROOT
BRANCH   2   4
ATOM      4  C   UNL     1     -17.610  12.129 -30.677  1.00  0.00     0.032 C 
BRANCH   4   5
ATOM      5  C   UNL     1     -16.948  10.955 -29.927  1.00  0.00     0.034 C 
BRANCH   5   6
ATOM      6  C   UNL     1     -16.755  11.225 -28.445  1.00  0.00    -0.077 C 
ATOM      7  C   UNL     1     -17.989  11.327 -27.584  1.00  0.00     0.039 C 
ATOM      8  C   UNL     1     -15.553  11.450 -27.860  1.00  0.00    -0.023 CG0
ATOM      9  G   UNL     1     -14.188  11.382 -28.518  1.00  0.00     0.000 G0
ENDBRANCH   5   6
ENDBRANCH   4   5
ENDBRANCH   2   4
BRANCH   1  10
ATOM     10  C   UNL     1     -14.798  13.192 -31.282  1.00  0.00     0.111 C 
BRANCH  10  11
ATOM     11  C   UNL     1     -13.578  12.981 -30.426  1.00  0.00     0.163 C 
ATOM     12  O   UNL     1     -12.452  12.957 -30.993  1.00  0.00    -0.294 OA
BRANCH  11  13
ATOM     13  C   UNL     1     -13.663  12.738 -28.955  1.00  0.00    -0.002 C 
ATOM     14  C   UNL     1     -13.210  13.672 -28.065  1.00  0.00    -0.069 C 
ATOM     15  C   UNL     1     -12.754  15.038 -28.526  1.00  0.00     0.039 C 
ATOM     16  C   UNL     1     -13.136  13.392 -26.580  1.00  0.00     0.039 C 
BRANCH  13  17
ATOM     17  C   UNL     1     -14.183  11.382 -28.503  1.00  0.00     0.066 CG0
ATOM     18  G   UNL     1     -15.557  11.474 -27.870  1.00  0.00     0.000 G0
ENDBRANCH  13  17
ENDBRANCH  11  13
ENDBRANCH  10  11
ENDBRANCH   1  10
TORSDOF 0
ENDMDL
MODEL 4
REMARK VINA RESULT:    -3.549      1.516      3.498
REMARK INTER + INTRA:          -4.803
REMARK INTER:                  -5.233
REMARK INTRA:                   0.429
REMARK UNBOUND:                 0.198
REMARK SMILES CC1=CCC(=C(C)C)C(=O)CC(C)=CCC1
REMARK SMILES IDX 12 1 14 2 13 3 15 4 16 5 2 6 1 7 3 8 11 10 9 11 10 12 5 13
REMARK SMILES IDX 6 14 7 15 8 16 4 17
REMARK H PARENT
REMARK Flexibility Score: 60.00
ROOT
ATOM      1  C   UNL     1     -15.731  12.410 -27.199  1.00  0.00    -0.070 C 
ATOM      2  C   UNL     1     -14.457  12.640 -26.811  1.00  0.00    -0.027 C 
ATOM      3  C   UNL     1     -16.754  12.123 -26.129  1.00  0.00     0.039 C 
ENDROOT
BRANCH   2   4
ATOM      4  C   UNL     1     -13.277  12.850 -27.734  1.00  0.00     0.032 C 
BRANCH   4   5
ATOM      5  C   UNL     1     -13.140  14.279 -28.296  1.00  0.00     0.034 C 
BRANCH   5   6
ATOM      6  C   UNL     1     -12.763  14.310 -29.767  1.00  0.00    -0.077 C 
ATOM      7  C   UNL     1     -11.378  13.846 -30.145  1.00  0.00     0.039 C 
ATOM      8  C   UNL     1     -13.561  14.791 -30.751  1.00  0.00    -0.023 CG0
ATOM      9  G   UNL     1     -14.986  15.289 -30.610  1.00  0.00     0.000 G0
ENDBRANCH   5   6
ENDBRANCH   4   5
ENDBRANCH   2   4
BRANCH   1  10
ATOM     10  C   UNL     1     -16.157  12.336 -28.651  1.00  0.00     0.111 C 
BRANCH  10  11
ATOM     11  C   UNL     1     -16.469  13.699 -29.209  1.00  0.00     0.163 C 
ATOM     12  O   UNL     1     -17.196  14.469 -28.523  1.00  0.00    -0.294 OA
BRANCH  11  13
ATOM     13  C   UNL     1     -16.004  14.139 -30.557  1.00  0.00    -0.002 C 
ATOM     14  C   UNL     1     -16.403  13.477 -31.685  1.00  0.00    -0.069 C 
ATOM     15  C   UNL     1     -17.444  12.382 -31.625  1.00  0.00     0.039 C 
ATOM     16  C   UNL     1     -15.827  13.799 -33.047  1.00  0.00     0.039 C 
BRANCH  13  17
ATOM     17  C   UNL     1     -15.004  15.284 -30.608  1.00  0.00     0.066 CG0
ATOM     18  G   UNL     1     -13.575  14.795 -30.732  1.00  0.00     0.000 G0
ENDBRANCH  13  17
ENDBRANCH  11  13
ENDBRANCH  10  11
ENDBRANCH   1  10
TORSDOF 0
ENDMDL
MODEL 5
REMARK VINA RESULT:    -3.414      1.634      3.902
REMARK INTER + INTRA:          -4.613
REMARK INTER:                  -5.236
REMARK INTRA:                   0.622
REMARK UNBOUND:                 0.198
REMARK SMILES CC1=CCC(=C(C)C)C(=O)CC(C)=CCC1
REMARK SMILES IDX 12 1 14 2 13 3 15 4 16 5 2 6 1 7 3 8 11 10 9 11 10 12 5 13
REMARK SMILES IDX 6 14 7 15 8 16 4 17
REMARK H PARENT
REMARK Flexibility Score: 60.00
ROOT
ATOM      1  C   UNL     1     -16.305  13.052 -29.102  1.00  0.00    -0.070 C 
ATOM      2  C   UNL     1     -16.321  14.063 -29.998  1.00  0.00    -0.027 C 
ATOM      3  C   UNL     1     -17.176  13.179 -27.878  1.00  0.00     0.039 C 
ENDROOT
BRANCH   2   4
ATOM      4  C   UNL     1     -15.450  14.164 -31.232  1.00  0.00     0.032 C 
BRANCH   4   5
ATOM      5  C   UNL     1     -14.533  15.403 -31.278  1.00  0.00     0.034 C 
BRANCH   5   6
ATOM      6  C   UNL     1     -13.064  15.066 -31.090  1.00  0.00    -0.077 C 
ATOM      7  C   UNL     1     -12.181  15.077 -32.313  1.00  0.00     0.039 C 
ATOM      8  C   UNL     1     -12.511  14.690 -29.911  1.00  0.00    -0.023 CG0
ATOM      9  G   UNL     1     -13.194  14.626 -28.560  1.00  0.00     0.000 G0
ENDBRANCH   5   6
ENDBRANCH   4   5
ENDBRANCH   2   4
BRANCH   1  10
ATOM     10  C   UNL     1     -15.391  11.849 -29.222  1.00  0.00     0.111 C 
BRANCH  10  11
ATOM     11  C   UNL     1     -13.942  12.237 -29.094  1.00  0.00     0.163 C 
ATOM     12  O   UNL     1     -13.106  11.668 -29.848  1.00  0.00    -0.294 OA
BRANCH  11  13
ATOM     13  C   UNL     1     -13.460  13.214 -28.074  1.00  0.00    -0.002 C 
ATOM     14  C   UNL     1     -13.347  12.854 -26.760  1.00  0.00    -0.069 C 
ATOM     15  C   UNL     1     -13.554  11.423 -26.317  1.00  0.00     0.039 C 
ATOM     16  C   UNL     1     -13.015  13.862 -25.680  1.00  0.00     0.039 C 
BRANCH  13  17
ATOM     17  C   UNL     1     -13.195  14.636 -28.544  1.00  0.00     0.066 CG0
ATOM     18  G   UNL     1     -12.510  14.678 -29.896  1.00  0.00     0.000 G0
ENDBRANCH  13  17
ENDBRANCH  11  13
ENDBRANCH  10  11
ENDBRANCH   1  10
TORSDOF 0
ENDMDL
MODEL 6
REMARK VINA RESULT:    -3.359     12.046     14.954
REMARK INTER + INTRA:          -4.535
REMARK INTER:                  -5.087
REMARK INTRA:                   0.552
REMARK UNBOUND:                 0.198
REMARK SMILES CC1=CCC(=C(C)C)C(=O)CC(C)=CCC1
REMARK SMILES IDX 12 1 14 2 13 3 15 4 16 5 2 6 1 7 3 8 11 10 9 11 10 12 5 13
REMARK SMILES IDX 6 14 7 15 8 16 4 17
REMARK H PARENT
REMARK Flexibility Score: 60.00
ROOT
ATOM      1  C   UNL     1     -25.823  16.631 -30.836  1.00  0.00    -0.070 C 
ATOM      2  C   UNL     1     -25.816  15.324 -30.490  1.00  0.00    -0.027 C 
ATOM      3  C   UNL     1     -24.515  17.260 -31.246  1.00  0.00     0.039 C 
ENDROOT
BRANCH   2   4
ATOM      4  C   UNL     1     -27.000  14.544 -29.962  1.00  0.00     0.032 C 
BRANCH   4   5
ATOM      5  C   UNL     1     -27.897  13.914 -31.048  1.00  0.00     0.034 C 
BRANCH   5   6
ATOM      6  C   UNL     1     -29.306  14.482 -31.062  1.00  0.00    -0.077 C 
ATOM      7  C   UNL     1     -30.293  13.933 -30.063  1.00  0.00     0.039 C 
ATOM      8  C   UNL     1     -29.752  15.396 -31.959  1.00  0.00    -0.023 CG0
ATOM      9  G   UNL     1     -28.942  16.095 -33.033  1.00  0.00     0.000 G0
ENDBRANCH   5   6
ENDBRANCH   4   5
ENDBRANCH   2   4
BRANCH   1  10
ATOM     10  C   UNL     1     -27.055  17.508 -30.743  1.00  0.00     0.111 C 
BRANCH  10  11
ATOM     11  C   UNL     1     -27.478  18.016 -32.096  1.00  0.00     0.163 C 
ATOM     12  O   UNL     1     -26.744  18.867 -32.668  1.00  0.00    -0.294 OA
BRANCH  11  13
ATOM     13  C   UNL     1     -28.755  17.597 -32.746  1.00  0.00    -0.002 C 
ATOM     14  C   UNL     1     -29.747  18.507 -32.990  1.00  0.00    -0.069 C 
ATOM     15  C   UNL     1     -29.530  19.985 -32.757  1.00  0.00     0.039 C 
ATOM     16  C   UNL     1     -31.109  18.088 -33.500  1.00  0.00     0.039 C 
BRANCH  13  17
ATOM     17  C   UNL     1     -28.936  16.114 -33.032  1.00  0.00     0.066 CG0
ATOM     18  G   UNL     1     -29.744  15.415 -31.957  1.00  0.00     0.000 G0
ENDBRANCH  13  17
ENDBRANCH  11  13
ENDBRANCH  10  11
ENDBRANCH   1  10
TORSDOF 0
ENDMDL
MODEL 7
REMARK VINA RESULT:    -3.240     11.573     14.601
REMARK INTER + INTRA:          -4.368
REMARK INTER:                  -5.013
REMARK INTRA:                   0.644
REMARK UNBOUND:                 0.198
REMARK SMILES CC1=CCC(=C(C)C)C(=O)CC(C)=CCC1
REMARK SMILES IDX 12 1 14 2 13 3 15 4 16 5 2 6 1 7 3 8 11 10 9 11 10 12 5 13
REMARK SMILES IDX 6 14 7 15 8 16 4 17
REMARK H PARENT
REMARK Flexibility Score: 60.00
ROOT
ATOM      1  C   UNL     1     -28.767  15.417 -31.591  1.00  0.00    -0.070 C 
ATOM      2  C   UNL     1     -30.110  15.329 -31.715  1.00  0.00    -0.027 C 
ATOM      3  C   UNL     1     -28.123  16.762 -31.819  1.00  0.00     0.039 C 
ENDROOT
BRANCH   2   4
ATOM      4  C   UNL     1     -30.924  14.057 -31.620  1.00  0.00     0.032 C 
BRANCH   4   5
ATOM      5  C   UNL     1     -30.995  13.437 -30.210  1.00  0.00     0.034 C 
BRANCH   5   6
ATOM      6  C   UNL     1     -30.364  12.058 -30.130  1.00  0.00    -0.077 C 
ATOM      7  C   UNL     1     -30.975  10.958 -30.960  1.00  0.00     0.039 C 
ATOM      8  C   UNL     1     -29.333  11.736 -29.310  1.00  0.00    -0.023 CG0
ATOM      9  G   UNL     1     -28.555  12.674 -28.407  1.00  0.00     0.000 G0
ENDBRANCH   5   6
ENDBRANCH   4   5
ENDBRANCH   2   4
BRANCH   1  10
ATOM     10  C   UNL     1     -27.876  14.220 -31.326  1.00  0.00     0.111 C 
BRANCH  10  11
ATOM     11  C   UNL     1     -27.260  14.279 -29.953  1.00  0.00     0.163 C 
ATOM     12  O   UNL     1     -26.711  15.357 -29.595  1.00  0.00    -0.294 OA
BRANCH  11  13
ATOM     13  C   UNL     1     -27.221  13.099 -29.040  1.00  0.00    -0.002 C 
ATOM     14  C   UNL     1     -26.063  12.396 -28.855  1.00  0.00    -0.069 C 
ATOM     15  C   UNL     1     -24.753  12.874 -29.439  1.00  0.00     0.039 C 
ATOM     16  C   UNL     1     -26.028  11.106 -28.063  1.00  0.00     0.039 C 
BRANCH  13  17
ATOM     17  C   UNL     1     -28.535  12.666 -28.409  1.00  0.00     0.066 CG0
ATOM     18  G   UNL     1     -29.324  11.731 -29.305  1.00  0.00     0.000 G0
ENDBRANCH  13  17
ENDBRANCH  11  13
ENDBRANCH  10  11
ENDBRANCH   1  10
TORSDOF 0
ENDMDL
MODEL 8
REMARK VINA RESULT:    -3.204      2.027      3.945
REMARK INTER + INTRA:          -4.317
REMARK INTER:                  -5.012
REMARK INTRA:                   0.695
REMARK UNBOUND:                 0.198
REMARK SMILES CC1=CCC(=C(C)C)C(=O)CC(C)=CCC1
REMARK SMILES IDX 12 1 14 2 13 3 15 4 16 5 2 6 1 7 3 8 11 10 9 11 10 12 5 13
REMARK SMILES IDX 6 14 7 15 8 16 4 17
REMARK H PARENT
REMARK Flexibility Score: 60.00
ROOT
ATOM      1  C   UNL     1     -14.298  14.548 -30.013  1.00  0.00    -0.070 C 
ATOM      2  C   UNL     1     -13.543  14.856 -28.935  1.00  0.00    -0.027 C 
ATOM      3  C   UNL     1     -15.144  15.641 -30.618  1.00  0.00     0.039 C 
ENDROOT
BRANCH   2   4
ATOM      4  C   UNL     1     -12.707  13.881 -28.135  1.00  0.00     0.032 C 
BRANCH   4   5
ATOM      5  C   UNL     1     -13.126  13.730 -26.658  1.00  0.00     0.034 C 
BRANCH   5   6
ATOM      6  C   UNL     1     -13.742  12.378 -26.346  1.00  0.00    -0.077 C 
ATOM      7  C   UNL     1     -12.868  11.347 -25.678  1.00  0.00     0.039 C 
ATOM      8  C   UNL     1     -15.001  12.014 -26.692  1.00  0.00    -0.023 CG0
ATOM      9  G   UNL     1     -16.056  12.883 -27.349  1.00  0.00     0.000 G0
ENDBRANCH   5   6
ENDBRANCH   4   5
ENDBRANCH   2   4
BRANCH   1  10
ATOM     10  C   UNL     1     -14.406  13.147 -30.580  1.00  0.00     0.111 C 
BRANCH  10  11
ATOM     11  C   UNL     1     -15.058  12.202 -29.606  1.00  0.00     0.163 C 
ATOM     12  O   UNL     1     -14.584  11.038 -29.501  1.00  0.00    -0.294 OA
BRANCH  11  13
ATOM     13  C   UNL     1     -16.270  12.573 -28.818  1.00  0.00    -0.002 C 
ATOM     14  C   UNL     1     -17.486  12.708 -29.427  1.00  0.00    -0.069 C 
ATOM     15  C   UNL     1     -17.681  12.338 -30.880  1.00  0.00     0.039 C 
ATOM     16  C   UNL     1     -18.698  13.235 -28.688  1.00  0.00     0.039 C 
BRANCH  13  17
ATOM     17  C   UNL     1     -16.072  12.882 -27.342  1.00  0.00     0.066 CG0
ATOM     18  G   UNL     1     -15.011  12.004 -26.707  1.00  0.00     0.000 G0
ENDBRANCH  13  17
ENDBRANCH  11  13
ENDBRANCH  10  11
ENDBRANCH   1  10
TORSDOF 0
ENDMDL
MODEL 9
REMARK VINA RESULT:    -2.912     11.099     13.933
REMARK INTER + INTRA:          -3.905
REMARK INTER:                  -5.168
REMARK INTRA:                   1.263
REMARK UNBOUND:                 0.198
REMARK SMILES CC1=CCC(=C(C)C)C(=O)CC(C)=CCC1
REMARK SMILES IDX 12 1 14 2 13 3 15 4 16 5 2 6 1 7 3 8 11 10 9 11 10 12 5 13
REMARK SMILES IDX 6 14 7 15 8 16 4 17
REMARK H PARENT
REMARK Flexibility Score: 60.00
ROOT
ATOM      1  C   UNL     1     -25.314  14.633 -30.009  1.00  0.00    -0.070 C 
ATOM      2  C   UNL     1     -25.242  13.325 -29.677  1.00  0.00    -0.027 C 
ATOM      3  C   UNL     1     -24.133  15.248 -30.716  1.00  0.00     0.039 C 
ENDROOT
BRANCH   2   4
ATOM      4  C   UNL     1     -26.277  12.556 -28.885  1.00  0.00     0.032 C 
BRANCH   4   5
ATOM      5  C   UNL     1     -27.470  12.034 -29.712  1.00  0.00     0.034 C 
BRANCH   5   6
ATOM      6  C   UNL     1     -28.723  12.876 -29.550  1.00  0.00    -0.077 C 
ATOM      7  C   UNL     1     -29.626  12.573 -28.381  1.00  0.00     0.039 C 
ATOM      8  C   UNL     1     -29.119  13.833 -30.425  1.00  0.00    -0.023 CG0
ATOM      9  G   UNL     1     -28.370  14.318 -31.651  1.00  0.00     0.000 G0
ENDBRANCH   5   6
ENDBRANCH   4   5
ENDBRANCH   2   4
BRANCH   1  10
ATOM     10  C   UNL     1     -26.478  15.525 -29.626  1.00  0.00     0.111 C 
BRANCH  10  11
ATOM     11  C   UNL     1     -26.994  16.303 -30.807  1.00  0.00     0.163 C 
ATOM     12  O   UNL     1     -26.491  17.436 -31.037  1.00  0.00    -0.294 OA
BRANCH  11  13
ATOM     13  C   UNL     1     -28.112  15.811 -31.665  1.00  0.00    -0.002 C 
ATOM     14  C   UNL     1     -28.905  16.687 -32.351  1.00  0.00    -0.069 C 
ATOM     15  C   UNL     1     -28.588  18.166 -32.392  1.00  0.00     0.039 C 
ATOM     16  C   UNL     1     -30.139  16.232 -33.101  1.00  0.00     0.039 C 
BRANCH  13  17
ATOM     17  C   UNL     1     -28.381  14.314 -31.665  1.00  0.00     0.066 CG0
ATOM     18  G   UNL     1     -29.115  13.861 -30.417  1.00  0.00     0.000 G0
ENDBRANCH  13  17
ENDBRANCH  11  13
ENDBRANCH  10  11
ENDBRANCH   1  10
TORSDOF 0
ENDMDL
