MODEL 1
REMARK VINA RESULT:    -1.935      0.000      0.000
REMARK INTER + INTRA:          -2.382
REMARK INTER:                  -2.387
REMARK INTRA:                   0.005
REMARK UNBOUND:                 0.005
REMARK SMILES O=c1c(O)c(-c2cc(O)c(O)c(O)c2)oc2cc(O)cc(O)c12
REMARK SMILES IDX 5 1 3 2 2 3 1 4 23 5 21 6 20 7 18 8 17 9 16 10 15 11 6 12
REMARK SMILES IDX 7 13 8 14 14 15 10 16 12 17 9 18 11 20 13 22 4 24 22 26
REMARK SMILES IDX 19 28
REMARK H PARENT 9 19 11 21 13 23 4 25 22 27 19 29
REMARK Flexibility Score: inf
ROOT
ATOM      1  C   UNL     1      16.127  36.727  11.966  1.00  0.00     0.180 A 
ATOM      2  C   UNL     1      16.040  35.828  10.889  1.00  0.00     0.208 A 
ATOM      3  C   UNL     1      16.195  34.454  11.135  1.00  0.00     0.238 A 
ATOM      4  O   UNL     1      16.041  33.649  10.180  1.00  0.00    -0.285 OA
ATOM      5  C   UNL     1      16.492  34.001  12.443  1.00  0.00     0.111 A 
ATOM      6  C   UNL     1      16.715  32.636  12.800  1.00  0.00     0.134 A 
ATOM      7  C   UNL     1      16.896  32.294  14.145  1.00  0.00     0.093 A 
ATOM      8  C   UNL     1      16.927  33.275  15.140  1.00  0.00     0.123 A 
ATOM      9  C   UNL     1      16.765  34.614  14.796  1.00  0.00     0.094 A 
ATOM     10  C   UNL     1      16.545  34.983  13.467  1.00  0.00     0.146 A 
ATOM     11  O   UNL     1      16.375  36.270  13.188  1.00  0.00    -0.452 OA
ENDROOT
BRANCH   1  12
ATOM     12  C   UNL     1      15.960  38.187  11.788  1.00  0.00     0.029 A 
ATOM     13  C   UNL     1      16.637  38.883  10.772  1.00  0.00     0.062 A 
ATOM     14  C   UNL     1      16.446  40.262  10.605  1.00  0.00     0.162 A 
ATOM     15  C   UNL     1      15.063  38.884  12.613  1.00  0.00     0.062 A 
ATOM     16  C   UNL     1      15.566  40.955  11.447  1.00  0.00     0.200 A 
ATOM     17  C   UNL     1      14.869  40.263  12.452  1.00  0.00     0.162 A 
BRANCH  14  18
ATOM     18  O   UNL     1      17.125  40.950   9.602  1.00  0.00    -0.504 OA
ATOM     19  H   UNL     1      18.090  41.237   9.715  1.00  0.00     0.293 HD
ENDBRANCH  14  18
BRANCH  16  20
ATOM     20  O   UNL     1      15.392  42.328  11.269  1.00  0.00    -0.502 OA
ATOM     21  H   UNL     1      15.992  43.009  11.718  1.00  0.00     0.293 HD
ENDBRANCH  16  20
BRANCH  17  22
ATOM     22  O   UNL     1      13.986  40.946  13.286  1.00  0.00    -0.504 OA
ATOM     23  H   UNL     1      13.536  41.805  12.994  1.00  0.00     0.293 HD
ENDBRANCH  17  22
ENDBRANCH   1  12
BRANCH   2  24
ATOM     24  O   UNL     1      15.822  36.301   9.593  1.00  0.00    -0.502 OA
ATOM     25  H   UNL     1      15.106  35.918   8.987  1.00  0.00     0.293 HD
ENDBRANCH   2  24
BRANCH   6  26
ATOM     26  O   UNL     1      16.793  31.588  11.877  1.00  0.00    -0.507 OA
ATOM     27  H   UNL     1      17.532  31.467  11.200  1.00  0.00     0.293 HD
ENDBRANCH   6  26
BRANCH   8  28
ATOM     28  O   UNL     1      17.125  32.927  16.475  1.00  0.00    -0.508 OA
ATOM     29  H   UNL     1      17.808  32.229  16.745  1.00  0.00     0.293 HD
ENDBRANCH   8  28
TORSDOF 7
ENDMDL
MODEL 2
REMARK VINA RESULT:    -0.381      4.877      6.670
REMARK INTER + INTRA:          -0.465
REMARK INTER:                  -0.143
REMARK INTRA:                  -0.322
REMARK UNBOUND:                 0.005
REMARK SMILES O=c1c(O)c(-c2cc(O)c(O)c(O)c2)oc2cc(O)cc(O)c12
REMARK SMILES IDX 5 1 3 2 2 3 1 4 23 5 21 6 20 7 18 8 17 9 16 10 15 11 6 12
REMARK SMILES IDX 7 13 8 14 14 15 10 16 12 17 9 18 11 20 13 22 4 24 22 26
REMARK SMILES IDX 19 28
REMARK H PARENT 9 19 11 21 13 23 4 25 22 27 19 29
REMARK Flexibility Score: inf
ROOT
ATOM      1  C   UNL     1      12.621  35.314  13.515  1.00  0.00     0.180 A 
ATOM      2  C   UNL     1      13.153  34.180  12.877  1.00  0.00     0.208 A 
ATOM      3  C   UNL     1      14.322  34.316  12.111  1.00  0.00     0.238 A 
ATOM      4  O   UNL     1      14.834  33.283  11.604  1.00  0.00    -0.285 OA
ATOM      5  C   UNL     1      14.913  35.591  11.947  1.00  0.00     0.111 A 
ATOM      6  C   UNL     1      16.073  35.854  11.156  1.00  0.00     0.134 A 
ATOM      7  C   UNL     1      16.631  37.138  11.152  1.00  0.00     0.093 A 
ATOM      8  C   UNL     1      16.035  38.184  11.859  1.00  0.00     0.123 A 
ATOM      9  C   UNL     1      14.873  37.951  12.589  1.00  0.00     0.094 A 
ATOM     10  C   UNL     1      14.314  36.672  12.643  1.00  0.00     0.146 A 
ATOM     11  O   UNL     1      13.216  36.492  13.369  1.00  0.00    -0.452 OA
ENDROOT
BRANCH   1  12
ATOM     12  C   UNL     1      11.401  35.248  14.351  1.00  0.00     0.029 A 
ATOM     13  C   UNL     1      10.121  35.196  13.774  1.00  0.00     0.062 A 
ATOM     14  C   UNL     1       8.979  35.109  14.583  1.00  0.00     0.162 A 
ATOM     15  C   UNL     1      11.525  35.176  15.747  1.00  0.00     0.062 A 
ATOM     16  C   UNL     1       9.109  35.061  15.977  1.00  0.00     0.200 A 
ATOM     17  C   UNL     1      10.386  35.091  16.561  1.00  0.00     0.162 A 
BRANCH  14  18
ATOM     18  O   UNL     1       7.711  35.066  14.007  1.00  0.00    -0.504 OA
ATOM     19  H   UNL     1       7.435  34.315  13.385  1.00  0.00     0.293 HD
ENDBRANCH  14  18
BRANCH  16  20
ATOM     20  O   UNL     1       7.961  34.979  16.766  1.00  0.00    -0.502 OA
ATOM     21  H   UNL     1       7.078  34.645  16.399  1.00  0.00     0.293 HD
ENDBRANCH  16  20
BRANCH  17  22
ATOM     22  O   UNL     1      10.521  35.035  17.948  1.00  0.00    -0.504 OA
ATOM     23  H   UNL     1       9.744  35.235  18.566  1.00  0.00     0.293 HD
ENDBRANCH  17  22
ENDBRANCH   1  12
BRANCH   2  24
ATOM     24  O   UNL     1      12.511  32.944  12.989  1.00  0.00    -0.502 OA
ATOM     25  H   UNL     1      12.763  32.263  13.696  1.00  0.00     0.293 HD
ENDBRANCH   2  24
BRANCH   6  26
ATOM     26  O   UNL     1      16.698  34.903  10.341  1.00  0.00    -0.507 OA
ATOM     27  H   UNL     1      17.618  35.002   9.939  1.00  0.00     0.293 HD
ENDBRANCH   6  26
BRANCH   8  28
ATOM     28  O   UNL     1      16.587  39.463  11.837  1.00  0.00    -0.508 OA
ATOM     29  H   UNL     1      16.346  40.157  12.535  1.00  0.00     0.293 HD
ENDBRANCH   8  28
TORSDOF 7
ENDMDL
MODEL 3
REMARK VINA RESULT:    -0.166     19.732     22.433
REMARK INTER + INTRA:          -0.200
REMARK INTER:                  -0.285
REMARK INTRA:                   0.084
REMARK UNBOUND:                 0.005
REMARK SMILES O=c1c(O)c(-c2cc(O)c(O)c(O)c2)oc2cc(O)cc(O)c12
REMARK SMILES IDX 5 1 3 2 2 3 1 4 23 5 21 6 20 7 18 8 17 9 16 10 15 11 6 12
REMARK SMILES IDX 7 13 8 14 14 15 10 16 12 17 9 18 11 20 13 22 4 24 22 26
REMARK SMILES IDX 19 28
REMARK H PARENT 9 19 11 21 13 23 4 25 22 27 19 29
REMARK Flexibility Score: inf
ROOT
ATOM      1  C   UNL     1      -1.612  41.038  23.384  1.00  0.00     0.180 A 
ATOM      2  C   UNL     1      -2.314  41.243  24.585  1.00  0.00     0.208 A 
ATOM      3  C   UNL     1      -2.432  42.547  25.090  1.00  0.00     0.238 A 
ATOM      4  O   UNL     1      -3.125  42.733  26.125  1.00  0.00    -0.285 OA
ATOM      5  C   UNL     1      -1.800  43.622  24.421  1.00  0.00     0.111 A 
ATOM      6  C   UNL     1      -1.815  44.979  24.867  1.00  0.00     0.134 A 
ATOM      7  C   UNL     1      -1.245  45.976  24.067  1.00  0.00     0.093 A 
ATOM      8  C   UNL     1      -0.604  45.658  22.867  1.00  0.00     0.123 A 
ATOM      9  C   UNL     1      -0.536  44.332  22.450  1.00  0.00     0.094 A 
ATOM     10  C   UNL     1      -1.128  43.319  23.208  1.00  0.00     0.146 A 
ATOM     11  O   UNL     1      -1.057  42.070  22.761  1.00  0.00    -0.452 OA
ENDROOT
BRANCH   1  12
ATOM     12  C   UNL     1      -1.458  39.695  22.782  1.00  0.00     0.029 A 
ATOM     13  C   UNL     1      -1.604  39.492  21.398  1.00  0.00     0.062 A 
ATOM     14  C   UNL     1      -1.430  38.216  20.844  1.00  0.00     0.162 A 
ATOM     15  C   UNL     1      -1.100  38.609  23.597  1.00  0.00     0.062 A 
ATOM     16  C   UNL     1      -1.095  37.133  21.668  1.00  0.00     0.200 A 
ATOM     17  C   UNL     1      -0.927  37.331  23.049  1.00  0.00     0.162 A 
BRANCH  14  18
ATOM     18  O   UNL     1      -1.583  38.017  19.474  1.00  0.00    -0.504 OA
ATOM     19  H   UNL     1      -0.795  38.062  18.839  1.00  0.00     0.293 HD
ENDBRANCH  14  18
BRANCH  16  20
ATOM     20  O   UNL     1      -0.931  35.870  21.099  1.00  0.00    -0.502 OA
ATOM     21  H   UNL     1      -0.949  35.724  20.097  1.00  0.00     0.293 HD
ENDBRANCH  16  20
BRANCH  17  22
ATOM     22  O   UNL     1      -0.586  36.258  23.871  1.00  0.00    -0.504 OA
ATOM     23  H   UNL     1      -1.108  35.391  23.857  1.00  0.00     0.293 HD
ENDBRANCH  17  22
ENDBRANCH   1  12
BRANCH   2  24
ATOM     24  O   UNL     1      -2.866  40.158  25.271  1.00  0.00    -0.502 OA
ATOM     25  H   UNL     1      -3.855  39.943  25.243  1.00  0.00     0.293 HD
ENDBRANCH   2  24
BRANCH   6  26
ATOM     26  O   UNL     1      -2.350  45.396  26.090  1.00  0.00    -0.507 OA
ATOM     27  H   UNL     1      -2.340  44.852  26.941  1.00  0.00     0.293 HD
ENDBRANCH   6  26
BRANCH   8  28
ATOM     28  O   UNL     1      -0.024  46.655  22.085  1.00  0.00    -0.508 OA
ATOM     29  H   UNL     1       0.312  46.465  21.147  1.00  0.00     0.293 HD
ENDBRANCH   8  28
TORSDOF 7
ENDMDL
MODEL 4
REMARK VINA RESULT:     0.899     17.574     18.733
REMARK INTER + INTRA:           1.114
REMARK INTER:                   1.479
REMARK INTRA:                  -0.365
REMARK UNBOUND:                 0.005
REMARK SMILES O=c1c(O)c(-c2cc(O)c(O)c(O)c2)oc2cc(O)cc(O)c12
REMARK SMILES IDX 5 1 3 2 2 3 1 4 23 5 21 6 20 7 18 8 17 9 16 10 15 11 6 12
REMARK SMILES IDX 7 13 8 14 14 15 10 16 12 17 9 18 11 20 13 22 4 24 22 26
REMARK SMILES IDX 19 28
REMARK H PARENT 9 19 11 21 13 23 4 25 22 27 19 29
REMARK Flexibility Score: inf
ROOT
ATOM      1  C   UNL     1      -0.839  34.860  18.164  1.00  0.00     0.180 A 
ATOM      2  C   UNL     1      -0.103  33.665  18.237  1.00  0.00     0.208 A 
ATOM      3  C   UNL     1      -0.108  32.793  17.136  1.00  0.00     0.238 A 
ATOM      4  O   UNL     1       0.614  31.762  17.180  1.00  0.00    -0.285 OA
ATOM      5  C   UNL     1      -0.893  33.098  15.999  1.00  0.00     0.111 A 
ATOM      6  C   UNL     1      -1.009  32.266  14.844  1.00  0.00     0.134 A 
ATOM      7  C   UNL     1      -1.731  32.720  13.734  1.00  0.00     0.093 A 
ATOM      8  C   UNL     1      -2.394  33.949  13.761  1.00  0.00     0.123 A 
ATOM      9  C   UNL     1      -2.333  34.744  14.902  1.00  0.00     0.094 A 
ATOM     10  C   UNL     1      -1.589  34.335  16.011  1.00  0.00     0.146 A 
ATOM     11  O   UNL     1      -1.541  35.135  17.070  1.00  0.00    -0.452 OA
ENDROOT
BRANCH   1  12
ATOM     12  C   UNL     1      -0.871  35.835  19.276  1.00  0.00     0.029 A 
ATOM     13  C   UNL     1       0.111  36.832  19.405  1.00  0.00     0.062 A 
ATOM     14  C   UNL     1       0.049  37.761  20.453  1.00  0.00     0.162 A 
ATOM     15  C   UNL     1      -1.936  35.803  20.191  1.00  0.00     0.062 A 
ATOM     16  C   UNL     1      -1.004  37.709  21.375  1.00  0.00     0.200 A 
ATOM     17  C   UNL     1      -2.002  36.729  21.242  1.00  0.00     0.162 A 
BRANCH  14  18
ATOM     18  O   UNL     1       1.029  38.743  20.581  1.00  0.00    -0.504 OA
ATOM     19  H   UNL     1       0.816  39.726  20.456  1.00  0.00     0.293 HD
ENDBRANCH  14  18
BRANCH  16  20
ATOM     20  O   UNL     1      -1.047  38.639  22.414  1.00  0.00    -0.502 OA
ATOM     21  H   UNL     1      -0.206  39.008  22.841  1.00  0.00     0.293 HD
ENDBRANCH  16  20
BRANCH  17  22
ATOM     22  O   UNL     1      -3.056  36.678  22.152  1.00  0.00    -0.504 OA
ATOM     23  H   UNL     1      -2.956  36.235  23.057  1.00  0.00     0.293 HD
ENDBRANCH  17  22
ENDBRANCH   1  12
BRANCH   2  24
ATOM     24  O   UNL     1       0.605  33.345  19.399  1.00  0.00    -0.502 OA
ATOM     25  H   UNL     1       0.240  32.716  20.103  1.00  0.00     0.293 HD
ENDBRANCH   2  24
BRANCH   6  26
ATOM     26  O   UNL     1      -0.460  30.983  14.745  1.00  0.00    -0.507 OA
ATOM     27  H   UNL     1      -0.567  30.369  13.951  1.00  0.00     0.293 HD
ENDBRANCH   6  26
BRANCH   8  28
ATOM     28  O   UNL     1      -3.125  34.387  12.657  1.00  0.00    -0.508 OA
ATOM     29  H   UNL     1      -4.117  34.196  12.569  1.00  0.00     0.293 HD
ENDBRANCH   8  28
TORSDOF 7
ENDMDL
