MODEL 1
REMARK VINA RESULT:    -4.217      0.000      0.000
REMARK INTER + INTRA:          -5.089
REMARK INTER:                  -4.957
REMARK INTRA:                  -0.132
REMARK UNBOUND:                -0.132
REMARK SMILES O=C([O-])C=Cc1ccc(O)c(O)c1
REMARK SMILES IDX 6 1 13 2 7 3 11 4 8 5 9 6 5 7 4 8 2 9 1 10 3 11 12 12 10 14
REMARK H PARENT 12 13 10 15
REMARK Flexibility Score: inf
ROOT
ATOM      1  C   UNL     1     147.184 160.524 161.253  1.00  0.00    -0.022 A 
ATOM      2  C   UNL     1     146.229 160.565 162.281  1.00  0.00     0.058 A 
ATOM      3  C   UNL     1     147.713 159.277 160.871  1.00  0.00     0.012 A 
ATOM      4  C   UNL     1     145.822 159.399 162.940  1.00  0.00     0.157 A 
ATOM      5  C   UNL     1     147.312 158.109 161.522  1.00  0.00     0.051 A 
ATOM      6  C   UNL     1     146.374 158.154 162.558  1.00  0.00     0.157 A 
ENDROOT
BRANCH   1   7
ATOM      7  C   UNL     1     147.566 161.793 160.585  1.00  0.00     0.010 C 
ATOM      8  C   UNL     1     148.833 162.202 160.432  1.00  0.00     0.025 C 
BRANCH   8   9
ATOM      9  C   UNL     1     149.165 163.475 159.774  1.00  0.00     0.064 C 
ATOM     10  O   UNL     1     150.175 164.124 160.152  1.00  0.00    -0.545 OA
ATOM     11  O   UNL     1     148.382 163.973 158.739  1.00  0.00    -0.545 OA
ENDBRANCH   8   9
ENDBRANCH   1   7
BRANCH   4  12
ATOM     12  O   UNL     1     144.876 159.522 163.960  1.00  0.00    -0.504 OA
ATOM     13  H   UNL     1     143.890 159.338 163.841  1.00  0.00     0.293 HD
ENDBRANCH   4  12
BRANCH   6  14
ATOM     14  O   UNL     1     146.020 156.950 163.171  1.00  0.00    -0.504 OA
ATOM     15  H   UNL     1     146.197 156.737 164.142  1.00  0.00     0.293 HD
ENDBRANCH   6  14
TORSDOF 4
ENDMDL
MODEL 2
REMARK VINA RESULT:    -3.665     18.544     20.076
REMARK INTER + INTRA:          -4.440
REMARK INTER:                  -4.314
REMARK INTRA:                  -0.126
REMARK UNBOUND:                -0.132
REMARK SMILES O=C([O-])C=Cc1ccc(O)c(O)c1
REMARK SMILES IDX 6 1 13 2 7 3 11 4 8 5 9 6 5 7 4 8 2 9 1 10 3 11 12 12 10 14
REMARK H PARENT 12 13 10 15
REMARK Flexibility Score: inf
ROOT
ATOM      1  C   UNL     1     159.791 147.948 170.904  1.00  0.00    -0.022 A 
ATOM      2  C   UNL     1     159.111 146.959 170.176  1.00  0.00     0.058 A 
ATOM      3  C   UNL     1     160.741 147.551 171.862  1.00  0.00     0.012 A 
ATOM      4  C   UNL     1     159.345 145.598 170.409  1.00  0.00     0.157 A 
ATOM      5  C   UNL     1     160.981 146.196 172.100  1.00  0.00     0.051 A 
ATOM      6  C   UNL     1     160.290 145.211 171.387  1.00  0.00     0.157 A 
ENDROOT
BRANCH   1   7
ATOM      7  C   UNL     1     159.507 149.373 170.603  1.00  0.00     0.010 C 
ATOM      8  C   UNL     1     159.811 149.964 169.439  1.00  0.00     0.025 C 
BRANCH   8   9
ATOM      9  C   UNL     1     159.522 151.385 169.189  1.00  0.00     0.064 C 
ATOM     10  O   UNL     1     158.571 151.700 168.427  1.00  0.00    -0.545 OA
ATOM     11  O   UNL     1     160.282 152.387 169.782  1.00  0.00    -0.545 OA
ENDBRANCH   8   9
ENDBRANCH   1   7
BRANCH   4  12
ATOM     12  O   UNL     1     158.622 144.673 169.652  1.00  0.00    -0.504 OA
ATOM     13  H   UNL     1     157.674 144.392 169.858  1.00  0.00     0.293 HD
ENDBRANCH   4  12
BRANCH   6  14
ATOM     14  O   UNL     1     160.574 143.875 171.677  1.00  0.00    -0.504 OA
ATOM     15  H   UNL     1     160.132 143.092 171.219  1.00  0.00     0.293 HD
ENDBRANCH   6  14
TORSDOF 4
ENDMDL
MODEL 3
REMARK VINA RESULT:    -3.615     18.725     20.223
REMARK INTER + INTRA:          -4.381
REMARK INTER:                  -4.255
REMARK INTRA:                  -0.126
REMARK UNBOUND:                -0.132
REMARK SMILES O=C([O-])C=Cc1ccc(O)c(O)c1
REMARK SMILES IDX 6 1 13 2 7 3 11 4 8 5 9 6 5 7 4 8 2 9 1 10 3 11 12 12 10 14
REMARK H PARENT 12 13 10 15
REMARK Flexibility Score: inf
ROOT
ATOM      1  C   UNL     1     159.737 147.929 170.743  1.00  0.00    -0.022 A 
ATOM      2  C   UNL     1     160.629 147.598 171.775  1.00  0.00     0.058 A 
ATOM      3  C   UNL     1     159.115 146.890 170.027  1.00  0.00     0.012 A 
ATOM      4  C   UNL     1     160.921 146.263 172.080  1.00  0.00     0.157 A 
ATOM      5  C   UNL     1     159.400 145.557 170.324  1.00  0.00     0.051 A 
ATOM      6  C   UNL     1     160.301 145.228 171.342  1.00  0.00     0.157 A 
ENDROOT
BRANCH   1   7
ATOM      7  C   UNL     1     159.460 149.363 170.475  1.00  0.00     0.010 C 
ATOM      8  C   UNL     1     159.773 149.980 169.327  1.00  0.00     0.025 C 
BRANCH   8   9
ATOM      9  C   UNL     1     159.490 151.407 169.110  1.00  0.00     0.064 C 
ATOM     10  O   UNL     1     158.529 151.744 168.369  1.00  0.00    -0.545 OA
ATOM     11  O   UNL     1     160.266 152.392 169.710  1.00  0.00    -0.545 OA
ENDBRANCH   8   9
ENDBRANCH   1   7
BRANCH   4  12
ATOM     12  O   UNL     1     161.825 146.013 173.115  1.00  0.00    -0.504 OA
ATOM     13  H   UNL     1     161.586 145.531 173.971  1.00  0.00     0.293 HD
ENDBRANCH   4  12
BRANCH   6  14
ATOM     14  O   UNL     1     160.545 143.875 171.586  1.00  0.00    -0.504 OA
ATOM     15  H   UNL     1     159.820 143.179 171.687  1.00  0.00     0.293 HD
ENDBRANCH   6  14
TORSDOF 4
ENDMDL
MODEL 4
REMARK VINA RESULT:    -3.377     13.245     14.453
REMARK INTER + INTRA:          -4.101
REMARK INTER:                  -3.968
REMARK INTRA:                  -0.133
REMARK UNBOUND:                -0.132
REMARK SMILES O=C([O-])C=Cc1ccc(O)c(O)c1
REMARK SMILES IDX 6 1 13 2 7 3 11 4 8 5 9 6 5 7 4 8 2 9 1 10 3 11 12 12 10 14
REMARK H PARENT 12 13 10 15
REMARK Flexibility Score: inf
ROOT
ATOM      1  C   UNL     1     161.093 163.446 164.737  1.00  0.00    -0.022 A 
ATOM      2  C   UNL     1     159.760 163.606 165.148  1.00  0.00     0.058 A 
ATOM      3  C   UNL     1     161.999 162.814 165.608  1.00  0.00     0.012 A 
ATOM      4  C   UNL     1     159.334 163.172 166.410  1.00  0.00     0.157 A 
ATOM      5  C   UNL     1     161.582 162.378 166.867  1.00  0.00     0.051 A 
ATOM      6  C   UNL     1     160.258 162.552 167.283  1.00  0.00     0.157 A 
ENDROOT
BRANCH   1   7
ATOM      7  C   UNL     1     161.481 163.916 163.384  1.00  0.00     0.010 C 
ATOM      8  C   UNL     1     162.106 163.150 162.480  1.00  0.00     0.025 C 
BRANCH   8   9
ATOM      9  C   UNL     1     162.483 163.662 161.153  1.00  0.00     0.064 C 
ATOM     10  O   UNL     1     163.698 163.709 160.828  1.00  0.00    -0.545 OA
ATOM     11  O   UNL     1     161.518 164.094 160.251  1.00  0.00    -0.545 OA
ENDBRANCH   8   9
ENDBRANCH   1   7
BRANCH   4  12
ATOM     12  O   UNL     1     157.995 163.374 166.751  1.00  0.00    -0.504 OA
ATOM     13  H   UNL     1     157.247 162.741 166.507  1.00  0.00     0.293 HD
ENDBRANCH   4  12
BRANCH   6  14
ATOM     14  O   UNL     1     159.908 162.098 168.556  1.00  0.00    -0.504 OA
ATOM     15  H   UNL     1     159.368 161.263 168.728  1.00  0.00     0.293 HD
ENDBRANCH   6  14
TORSDOF 4
ENDMDL
MODEL 5
REMARK VINA RESULT:    -3.066     21.321     23.375
REMARK INTER + INTRA:          -3.735
REMARK INTER:                  -3.596
REMARK INTRA:                  -0.139
REMARK UNBOUND:                -0.132
REMARK SMILES O=C([O-])C=Cc1ccc(O)c(O)c1
REMARK SMILES IDX 6 1 13 2 7 3 11 4 8 5 9 6 5 7 4 8 2 9 1 10 3 11 12 12 10 14
REMARK H PARENT 12 13 10 15
REMARK Flexibility Score: inf
ROOT
ATOM      1  C   UNL     1     160.610 145.403 172.038  1.00  0.00    -0.022 A 
ATOM      2  C   UNL     1     159.285 145.257 171.600  1.00  0.00     0.058 A 
ATOM      3  C   UNL     1     161.620 145.609 171.080  1.00  0.00     0.012 A 
ATOM      4  C   UNL     1     158.964 145.288 170.237  1.00  0.00     0.157 A 
ATOM      5  C   UNL     1     161.309 145.642 169.720  1.00  0.00     0.051 A 
ATOM      6  C   UNL     1     159.990 145.480 169.284  1.00  0.00     0.157 A 
ENDROOT
BRANCH   1   7
ATOM      7  C   UNL     1     160.885 145.372 173.496  1.00  0.00     0.010 C 
ATOM      8  C   UNL     1     162.118 145.355 174.021  1.00  0.00     0.025 C 
BRANCH   8   9
ATOM      9  C   UNL     1     162.344 145.312 175.474  1.00  0.00     0.064 C 
ATOM     10  O   UNL     1     163.137 146.133 176.004  1.00  0.00    -0.545 OA
ATOM     11  O   UNL     1     161.694 144.379 176.274  1.00  0.00    -0.545 OA
ENDBRANCH   8   9
ENDBRANCH   1   7
BRANCH   4  12
ATOM     12  O   UNL     1     157.623 145.126 169.879  1.00  0.00    -0.504 OA
ATOM     13  H   UNL     1     157.240 144.276 169.491  1.00  0.00     0.293 HD
ENDBRANCH   4  12
BRANCH   6  14
ATOM     14  O   UNL     1     159.748 145.519 167.909  1.00  0.00    -0.504 OA
ATOM     15  H   UNL     1     160.465 145.422 167.206  1.00  0.00     0.293 HD
ENDBRANCH   6  14
TORSDOF 4
ENDMDL
MODEL 6
REMARK VINA RESULT:    -2.723      1.420      5.794
REMARK INTER + INTRA:          -3.332
REMARK INTER:                  -3.193
REMARK INTRA:                  -0.139
REMARK UNBOUND:                -0.132
REMARK SMILES O=C([O-])C=Cc1ccc(O)c(O)c1
REMARK SMILES IDX 6 1 13 2 7 3 11 4 8 5 9 6 5 7 4 8 2 9 1 10 3 11 12 12 10 14
REMARK H PARENT 12 13 10 15
REMARK Flexibility Score: inf
ROOT
ATOM      1  C   UNL     1     147.547 160.466 160.947  1.00  0.00    -0.022 A 
ATOM      2  C   UNL     1     147.011 161.762 160.875  1.00  0.00     0.058 A 
ATOM      3  C   UNL     1     148.932 160.296 160.768  1.00  0.00     0.012 A 
ATOM      4  C   UNL     1     147.825 162.869 160.606  1.00  0.00     0.157 A 
ATOM      5  C   UNL     1     149.751 161.394 160.500  1.00  0.00     0.051 A 
ATOM      6  C   UNL     1     149.214 162.683 160.412  1.00  0.00     0.157 A 
ENDROOT
BRANCH   1   7
ATOM      7  C   UNL     1     146.634 159.335 161.246  1.00  0.00     0.010 C 
ATOM      8  C   UNL     1     146.980 158.277 161.992  1.00  0.00     0.025 C 
BRANCH   8   9
ATOM      9  C   UNL     1     146.045 157.171 162.254  1.00  0.00     0.064 C 
ATOM     10  O   UNL     1     145.255 156.798 161.348  1.00  0.00    -0.545 OA
ATOM     11  O   UNL     1     146.022 156.529 163.487  1.00  0.00    -0.545 OA
ENDBRANCH   8   9
ENDBRANCH   1   7
BRANCH   4  12
ATOM     12  O   UNL     1     147.218 164.125 160.541  1.00  0.00    -0.504 OA
ATOM     13  H   UNL     1     147.025 164.616 159.679  1.00  0.00     0.293 HD
ENDBRANCH   4  12
BRANCH   6  14
ATOM     14  O   UNL     1     150.087 163.737 160.137  1.00  0.00    -0.504 OA
ATOM     15  H   UNL     1     150.006 164.342 159.332  1.00  0.00     0.293 HD
ENDBRANCH   6  14
TORSDOF 4
ENDMDL
MODEL 7
REMARK VINA RESULT:    -2.376     21.584     23.669
REMARK INTER + INTRA:          -2.925
REMARK INTER:                  -2.795
REMARK INTRA:                  -0.130
REMARK UNBOUND:                -0.132
REMARK SMILES O=C([O-])C=Cc1ccc(O)c(O)c1
REMARK SMILES IDX 6 1 13 2 7 3 11 4 8 5 9 6 5 7 4 8 2 9 1 10 3 11 12 12 10 14
REMARK H PARENT 12 13 10 15
REMARK Flexibility Score: inf
ROOT
ATOM      1  C   UNL     1     160.733 145.712 172.031  1.00  0.00    -0.022 A 
ATOM      2  C   UNL     1     161.775 145.405 171.142  1.00  0.00     0.058 A 
ATOM      3  C   UNL     1     159.432 145.873 171.520  1.00  0.00     0.012 A 
ATOM      4  C   UNL     1     161.542 145.284 169.766  1.00  0.00     0.157 A 
ATOM      5  C   UNL     1     159.191 145.754 170.150  1.00  0.00     0.051 A 
ATOM      6  C   UNL     1     160.232 145.464 169.263  1.00  0.00     0.157 A 
ENDROOT
BRANCH   1   7
ATOM      7  C   UNL     1     161.042 145.817 173.479  1.00  0.00     0.010 C 
ATOM      8  C   UNL     1     161.979 145.083 174.095  1.00  0.00     0.025 C 
BRANCH   8   9
ATOM      9  C   UNL     1     162.243 145.211 175.537  1.00  0.00     0.064 C 
ATOM     10  O   UNL     1     162.965 146.154 175.954  1.00  0.00    -0.545 OA
ATOM     11  O   UNL     1     161.708 144.307 176.447  1.00  0.00    -0.545 OA
ENDBRANCH   8   9
ENDBRANCH   1   7
BRANCH   4  12
ATOM     12  O   UNL     1     162.630 144.986 168.943  1.00  0.00    -0.504 OA
ATOM     13  H   UNL     1     163.372 144.349 169.196  1.00  0.00     0.293 HD
ENDBRANCH   4  12
BRANCH   6  14
ATOM     14  O   UNL     1     159.923 145.363 167.905  1.00  0.00    -0.504 OA
ATOM     15  H   UNL     1     159.051 145.669 167.499  1.00  0.00     0.293 HD
ENDBRANCH   6  14
TORSDOF 4
ENDMDL
MODEL 8
REMARK VINA RESULT:    -2.162     20.183     21.682
REMARK INTER + INTRA:          -2.673
REMARK INTER:                  -2.545
REMARK INTRA:                  -0.128
REMARK UNBOUND:                -0.132
REMARK SMILES O=C([O-])C=Cc1ccc(O)c(O)c1
REMARK SMILES IDX 6 1 13 2 7 3 11 4 8 5 9 6 5 7 4 8 2 9 1 10 3 11 12 12 10 14
REMARK H PARENT 12 13 10 15
REMARK Flexibility Score: inf
ROOT
ATOM      1  C   UNL     1     159.931 145.693 170.194  1.00  0.00    -0.022 A 
ATOM      2  C   UNL     1     159.913 146.988 170.737  1.00  0.00     0.058 A 
ATOM      3  C   UNL     1     160.473 144.645 170.961  1.00  0.00     0.012 A 
ATOM      4  C   UNL     1     160.444 147.249 172.006  1.00  0.00     0.157 A 
ATOM      5  C   UNL     1     161.004 144.897 172.227  1.00  0.00     0.051 A 
ATOM      6  C   UNL     1     161.001 146.189 172.760  1.00  0.00     0.157 A 
ENDROOT
BRANCH   1   7
ATOM      7  C   UNL     1     159.343 145.478 168.849  1.00  0.00     0.010 C 
ATOM      8  C   UNL     1     160.071 145.277 167.741  1.00  0.00     0.025 C 
BRANCH   8   9
ATOM      9  C   UNL     1     159.445 145.080 166.424  1.00  0.00     0.064 C 
ATOM     10  O   UNL     1     158.441 145.768 166.105  1.00  0.00    -0.545 OA
ATOM     11  O   UNL     1     159.946 144.145 165.525  1.00  0.00    -0.545 OA
ENDBRANCH   8   9
ENDBRANCH   1   7
BRANCH   4  12
ATOM     12  O   UNL     1     160.398 148.564 172.475  1.00  0.00    -0.504 OA
ATOM     13  H   UNL     1     159.903 149.312 172.011  1.00  0.00     0.293 HD
ENDBRANCH   4  12
BRANCH   6  14
ATOM     14  O   UNL     1     161.551 146.373 174.030  1.00  0.00    -0.504 OA
ATOM     15  H   UNL     1     161.102 146.891 174.771  1.00  0.00     0.293 HD
ENDBRANCH   6  14
TORSDOF 4
ENDMDL
