MODEL 1
REMARK VINA RESULT:    -4.144      0.000      0.000
REMARK INTER + INTRA:          -4.920
REMARK INTER:                  -4.871
REMARK INTRA:                  -0.049
REMARK UNBOUND:                -0.049
REMARK SMILES CCCCC(=O)[O-]
REMARK SMILES IDX 4 1 5 2 6 3 7 4 3 5 2 6 1 7
REMARK H PARENT
REMARK Flexibility Score: inf
ROOT
ATOM      1  C   UNL     1      20.839  10.141  12.317  1.00  0.00     0.053 C 
ENDROOT
BRANCH   1   2
ATOM      2  C   UNL     1      21.340  10.617  10.988  1.00  0.00     0.041 C 
ATOM      3  O   UNL     1      21.453   9.810  10.028  1.00  0.00    -0.550 OA
ATOM      4  O   UNL     1      21.712  11.945  10.819  1.00  0.00    -0.550 OA
ENDBRANCH   1   2
BRANCH   1   5
ATOM      5  C   UNL     1      21.368   8.742  12.658  1.00  0.00     0.006 C 
BRANCH   5   6
ATOM      6  C   UNL     1      20.312   7.875  13.358  1.00  0.00    -0.003 C 
ATOM      7  C   UNL     1      19.282   8.740  14.078  1.00  0.00     0.004 C 
ENDBRANCH   5   6
ENDBRANCH   1   5
TORSDOF 3
ENDMDL
MODEL 2
REMARK VINA RESULT:    -4.047      1.319      1.703
REMARK INTER + INTRA:          -4.806
REMARK INTER:                  -4.719
REMARK INTRA:                  -0.086
REMARK UNBOUND:                -0.049
REMARK SMILES CCCCC(=O)[O-]
REMARK SMILES IDX 4 1 5 2 6 3 7 4 3 5 2 6 1 7
REMARK H PARENT
REMARK Flexibility Score: inf
ROOT
ATOM      1  C   UNL     1      21.968   9.384  13.299  1.00  0.00     0.053 C 
ENDROOT
BRANCH   1   2
ATOM      2  C   UNL     1      22.381  10.162  12.087  1.00  0.00     0.041 C 
ATOM      3  O   UNL     1      23.390  10.915  12.132  1.00  0.00    -0.550 OA
ATOM      4  O   UNL     1      21.633  10.081  10.919  1.00  0.00    -0.550 OA
ENDBRANCH   1   2
BRANCH   1   5
ATOM      5  C   UNL     1      21.046   8.212  12.936  1.00  0.00     0.006 C 
BRANCH   5   6
ATOM      6  C   UNL     1      19.720   8.255  13.709  1.00  0.00    -0.003 C 
ATOM      7  C   UNL     1      19.109   9.652  13.672  1.00  0.00     0.004 C 
ENDBRANCH   5   6
ENDBRANCH   1   5
TORSDOF 3
ENDMDL
MODEL 3
REMARK VINA RESULT:    -4.021      2.008      2.282
REMARK INTER + INTRA:          -4.776
REMARK INTER:                  -4.718
REMARK INTRA:                  -0.057
REMARK UNBOUND:                -0.049
REMARK SMILES CCCCC(=O)[O-]
REMARK SMILES IDX 4 1 5 2 6 3 7 4 3 5 2 6 1 7
REMARK H PARENT
REMARK Flexibility Score: inf
ROOT
ATOM      1  C   UNL     1      21.409   9.623  12.428  1.00  0.00     0.053 C 
ENDROOT
BRANCH   1   2
ATOM      2  C   UNL     1      22.860   9.930  12.642  1.00  0.00     0.041 C 
ATOM      3  O   UNL     1      23.365  10.974  12.153  1.00  0.00    -0.550 OA
ATOM      4  O   UNL     1      23.661   9.046  13.355  1.00  0.00    -0.550 OA
ENDBRANCH   1   2
BRANCH   1   5
ATOM      5  C   UNL     1      21.031   8.243  12.982  1.00  0.00     0.006 C 
BRANCH   5   6
ATOM      6  C   UNL     1      19.693   8.267  13.735  1.00  0.00    -0.003 C 
ATOM      7  C   UNL     1      19.090   9.668  13.740  1.00  0.00     0.004 C 
ENDBRANCH   5   6
ENDBRANCH   1   5
TORSDOF 3
ENDMDL
MODEL 4
REMARK VINA RESULT:    -3.991     12.872     13.130
REMARK INTER + INTRA:          -4.740
REMARK INTER:                  -4.697
REMARK INTRA:                  -0.043
REMARK UNBOUND:                -0.049
REMARK SMILES CCCCC(=O)[O-]
REMARK SMILES IDX 4 1 5 2 6 3 7 4 3 5 2 6 1 7
REMARK H PARENT
REMARK Flexibility Score: inf
ROOT
ATOM      1  C   UNL     1      10.407  11.585   4.760  1.00  0.00     0.053 C 
ENDROOT
BRANCH   1   2
ATOM      2  C   UNL     1      10.665  13.013   5.133  1.00  0.00     0.041 C 
ATOM      3  O   UNL     1      10.217  13.476   6.215  1.00  0.00    -0.550 OA
ATOM      4  O   UNL     1      11.373  13.841   4.270  1.00  0.00    -0.550 OA
ENDBRANCH   1   2
BRANCH   1   5
ATOM      5  C   UNL     1       9.002  11.131   5.181  1.00  0.00     0.006 C 
BRANCH   5   6
ATOM      6  C   UNL     1       8.967   9.650   5.584  1.00  0.00    -0.003 C 
ATOM      7  C   UNL     1      10.047   8.857   4.855  1.00  0.00     0.004 C 
ENDBRANCH   5   6
ENDBRANCH   1   5
TORSDOF 3
ENDMDL
MODEL 5
REMARK VINA RESULT:    -3.976     13.227     13.687
REMARK INTER + INTRA:          -4.723
REMARK INTER:                  -4.686
REMARK INTRA:                  -0.037
REMARK UNBOUND:                -0.049
REMARK SMILES CCCCC(=O)[O-]
REMARK SMILES IDX 4 1 5 2 6 3 7 4 3 5 2 6 1 7
REMARK H PARENT
REMARK Flexibility Score: inf
ROOT
ATOM      1  C   UNL     1      10.316  10.701   4.727  1.00  0.00     0.053 C 
ENDROOT
BRANCH   1   2
ATOM      2  C   UNL     1       9.453   9.542   5.123  1.00  0.00     0.041 C 
ATOM      3  O   UNL     1       8.501   9.708   5.931  1.00  0.00    -0.550 OA
ATOM      4  O   UNL     1       9.720   8.272   4.625  1.00  0.00    -0.550 OA
ENDBRANCH   1   2
BRANCH   1   5
ATOM      5  C   UNL     1       9.572  12.037   4.861  1.00  0.00     0.006 C 
BRANCH   5   6
ATOM      6  C   UNL     1      10.432  13.114   5.537  1.00  0.00    -0.003 C 
ATOM      7  C   UNL     1      11.007  14.083   4.508  1.00  0.00     0.004 C 
ENDBRANCH   5   6
ENDBRANCH   1   5
TORSDOF 3
ENDMDL
MODEL 6
REMARK VINA RESULT:    -3.957      2.711      3.841
REMARK INTER + INTRA:          -4.700
REMARK INTER:                  -4.608
REMARK INTRA:                  -0.093
REMARK UNBOUND:                -0.049
REMARK SMILES CCCCC(=O)[O-]
REMARK SMILES IDX 4 1 5 2 6 3 7 4 3 5 2 6 1 7
REMARK H PARENT
REMARK Flexibility Score: inf
ROOT
ATOM      1  C   UNL     1      20.786   8.354  13.074  1.00  0.00     0.053 C 
ENDROOT
BRANCH   1   2
ATOM      2  C   UNL     1      19.609   8.939  13.794  1.00  0.00     0.041 C 
ATOM      3  O   UNL     1      19.123  10.040  13.422  1.00  0.00    -0.550 OA
ATOM      4  O   UNL     1      19.071   8.285  14.895  1.00  0.00    -0.550 OA
ENDBRANCH   1   2
BRANCH   1   5
ATOM      5  C   UNL     1      21.793   9.434  12.657  1.00  0.00     0.006 C 
BRANCH   5   6
ATOM      6  C   UNL     1      21.755   9.713  11.148  1.00  0.00    -0.003 C 
ATOM      7  C   UNL     1      21.419  11.174  10.867  1.00  0.00     0.004 C 
ENDBRANCH   5   6
ENDBRANCH   1   5
TORSDOF 3
ENDMDL
MODEL 7
REMARK VINA RESULT:    -3.935      2.953      3.834
REMARK INTER + INTRA:          -4.674
REMARK INTER:                  -4.628
REMARK INTRA:                  -0.046
REMARK UNBOUND:                -0.049
REMARK SMILES CCCCC(=O)[O-]
REMARK SMILES IDX 4 1 5 2 6 3 7 4 3 5 2 6 1 7
REMARK H PARENT
REMARK Flexibility Score: inf
ROOT
ATOM      1  C   UNL     1      20.482   7.904  13.305  1.00  0.00     0.053 C 
ENDROOT
BRANCH   1   2
ATOM      2  C   UNL     1      19.469   8.720  14.048  1.00  0.00     0.041 C 
ATOM      3  O   UNL     1      18.933   8.265  15.093  1.00  0.00    -0.550 OA
ATOM      4  O   UNL     1      19.093   9.968  13.569  1.00  0.00    -0.550 OA
ENDBRANCH   1   2
BRANCH   1   5
ATOM      5  C   UNL     1      21.359   8.775  12.396  1.00  0.00     0.006 C 
BRANCH   5   6
ATOM      6  C   UNL     1      22.828   8.787  12.844  1.00  0.00    -0.003 C 
ATOM      7  C   UNL     1      23.362  10.213  12.936  1.00  0.00     0.004 C 
ENDBRANCH   5   6
ENDBRANCH   1   5
TORSDOF 3
ENDMDL
MODEL 8
REMARK VINA RESULT:    -3.697      2.677      3.397
REMARK INTER + INTRA:          -4.395
REMARK INTER:                  -4.312
REMARK INTRA:                  -0.083
REMARK UNBOUND:                -0.049
REMARK SMILES CCCCC(=O)[O-]
REMARK SMILES IDX 4 1 5 2 6 3 7 4 3 5 2 6 1 7
REMARK H PARENT
REMARK Flexibility Score: inf
ROOT
ATOM      1  C   UNL     1      22.857   9.069  12.592  1.00  0.00     0.053 C 
ENDROOT
BRANCH   1   2
ATOM      2  C   UNL     1      23.912   9.814  13.352  1.00  0.00     0.041 C 
ATOM      3  O   UNL     1      24.709   9.192  14.104  1.00  0.00    -0.550 OA
ATOM      4  O   UNL     1      23.995  11.198  13.255  1.00  0.00    -0.550 OA
ENDBRANCH   1   2
BRANCH   1   5
ATOM      5  C   UNL     1      21.465   9.268  13.207  1.00  0.00     0.006 C 
BRANCH   5   6
ATOM      6  C   UNL     1      20.583  10.195  12.358  1.00  0.00    -0.003 C 
ATOM      7  C   UNL     1      21.231  10.485  11.007  1.00  0.00     0.004 C 
ENDBRANCH   5   6
ENDBRANCH   1   5
TORSDOF 3
ENDMDL
MODEL 9
REMARK VINA RESULT:    -3.495      1.724      2.080
REMARK INTER + INTRA:          -4.157
REMARK INTER:                  -4.107
REMARK INTRA:                  -0.050
REMARK UNBOUND:                -0.049
REMARK SMILES CCCCC(=O)[O-]
REMARK SMILES IDX 4 1 5 2 6 3 7 4 3 5 2 6 1 7
REMARK H PARENT
REMARK Flexibility Score: inf
ROOT
ATOM      1  C   UNL     1      21.291  11.261  10.814  1.00  0.00     0.053 C 
ENDROOT
BRANCH   1   2
ATOM      2  C   UNL     1      22.445  12.053  10.279  1.00  0.00     0.041 C 
ATOM      3  O   UNL     1      22.464  12.405   9.070  1.00  0.00    -0.550 OA
ATOM      4  O   UNL     1      23.513  12.374  11.107  1.00  0.00    -0.550 OA
ENDBRANCH   1   2
BRANCH   1   5
ATOM      5  C   UNL     1      21.722   9.857  11.260  1.00  0.00     0.006 C 
BRANCH   5   6
ATOM      6  C   UNL     1      21.442   9.610  12.750  1.00  0.00    -0.003 C 
ATOM      7  C   UNL     1      19.964   9.809  13.071  1.00  0.00     0.004 C 
ENDBRANCH   5   6
ENDBRANCH   1   5
TORSDOF 3
ENDMDL
