MODEL 1
REMARK VINA RESULT:    -7.677      0.000      0.000
REMARK INTER + INTRA:          -8.526
REMARK INTER:                  -8.351
REMARK INTRA:                  -0.175
REMARK UNBOUND:                -0.175
REMARK SMILES C[C@H]1[C@@H](C)CC[C@@]2(C(=O)[O-])CC[C@@]3(C)C(=CC[C@H]4[C@]5(C)CC[C@H](O)C(C)(C)[C@@H]5CC[C@@]43C)[C@@H]12
REMARK SMILES IDX 7 1 6 2 11 3 33 4 5 5 12 6 15 7 2 8 3 9 13 10 16 11 1 12
REMARK SMILES IDX 4 13 14 14 31 15 17 16 18 17 30 18 32 19 19 20 29 21 28 22
REMARK SMILES IDX 21 23 20 24 25 25 22 26 23 27 26 28 27 29 8 30 9 31 10 32
REMARK SMILES IDX 24 33
REMARK H PARENT 24 34
REMARK Flexibility Score: inf
ROOT
ATOM      1  C   UNL     1       6.173  37.412  10.559  1.00  0.00     0.017 C 
ATOM      2  C   UNL     1       6.354  36.026   9.864  1.00  0.00     0.014 C 
ATOM      3  C   UNL     1       7.252  37.577  11.680  1.00  0.00     0.014 C 
ATOM      4  C   UNL     1       6.236  38.639   9.555  1.00  0.00     0.030 C 
ATOM      5  C   UNL     1       5.523  35.875   8.583  1.00  0.00     0.004 C 
ATOM      6  C   UNL     1       8.699  37.976  11.255  1.00  0.00     0.013 C 
ATOM      7  C   UNL     1       7.467  39.557   9.809  1.00  0.00    -0.063 C 
ATOM      8  C   UNL     1       5.781  38.375   8.071  1.00  0.00    -0.003 C 
ATOM      9  C   UNL     1       5.875  36.918   7.511  1.00  0.00    -0.011 C 
ATOM     10  C   UNL     1       8.875  38.941   9.999  1.00  0.00    -0.006 C 
ATOM     11  C   UNL     1       7.201  40.729  10.440  1.00  0.00    -0.027 C 
ATOM     12  C   UNL     1       6.217  39.473   7.086  1.00  0.00     0.008 C 
ATOM     13  C   UNL     1       7.132  36.526   6.703  1.00  0.00     0.008 C 
ATOM     14  C   UNL     1       9.222  38.022   8.807  1.00  0.00     0.017 C 
ATOM     15  C   UNL     1      10.087  40.077  10.141  1.00  0.00    -0.020 C 
ATOM     16  C   UNL     1       8.240  41.439  11.250  1.00  0.00     0.032 C 
ATOM     17  C   UNL     1       9.508  41.514  10.403  1.00  0.00     0.006 C 
ATOM     18  C   UNL     1      10.949  40.274   8.830  1.00  0.00     0.008 C 
ATOM     19  C   UNL     1      11.079  39.614  11.257  1.00  0.00     0.012 C 
ATOM     20  C   UNL     1      10.545  42.675  10.764  1.00  0.00    -0.025 C 
ATOM     21  C   UNL     1      11.633  41.661   8.625  1.00  0.00     0.005 C 
ATOM     22  C   UNL     1      11.892  42.494   9.916  1.00  0.00     0.003 C 
ATOM     23  C   UNL     1       9.836  44.034  10.420  1.00  0.00     0.010 C 
ATOM     24  C   UNL     1      10.860  42.665  12.294  1.00  0.00     0.012 C 
ATOM     25  C   UNL     1      12.752  43.818   9.661  1.00  0.00    -0.006 C 
ATOM     26  C   UNL     1      10.755  45.250  10.339  1.00  0.00     0.033 C 
ATOM     27  C   UNL     1      11.857  45.036   9.302  1.00  0.00     0.120 C 
ATOM     28  C   UNL     1      13.794  43.637   8.521  1.00  0.00     0.014 C 
ATOM     29  C   UNL     1      13.608  44.151  10.917  1.00  0.00     0.014 C 
ENDROOT
BRANCH   1  30
ATOM     30  C   UNL     1       4.812  37.412  11.281  1.00  0.00     0.048 C 
ATOM     31  O   UNL     1       4.276  38.500  11.626  1.00  0.00    -0.550 OA
ATOM     32  O   UNL     1       4.163  36.229  11.626  1.00  0.00    -0.550 OA
ENDBRANCH   1  30
BRANCH  27  33
ATOM     33  O   UNL     1      11.282  44.867   8.029  1.00  0.00    -0.393 OA
ATOM     34  H   UNL     1      11.384  45.728   7.546  1.00  0.00     0.210 HD
ENDBRANCH  27  33
TORSDOF 2
ENDMDL
MODEL 2
REMARK VINA RESULT:    -7.333     11.674     16.084
REMARK INTER + INTRA:          -8.152
REMARK INTER:                  -8.156
REMARK INTRA:                   0.004
REMARK UNBOUND:                -0.175
REMARK SMILES C[C@H]1[C@@H](C)CC[C@@]2(C(=O)[O-])CC[C@@]3(C)C(=CC[C@H]4[C@]5(C)CC[C@H](O)C(C)(C)[C@@H]5CC[C@@]43C)[C@@H]12
REMARK SMILES IDX 7 1 6 2 11 3 33 4 5 5 12 6 15 7 2 8 3 9 13 10 16 11 1 12
REMARK SMILES IDX 4 13 14 14 31 15 17 16 18 17 30 18 32 19 19 20 29 21 28 22
REMARK SMILES IDX 21 23 20 24 25 25 22 26 23 27 26 28 27 29 8 30 9 31 10 32
REMARK SMILES IDX 24 33
REMARK H PARENT 24 34
REMARK Flexibility Score: inf
ROOT
ATOM      1  C   UNL     1       8.442  54.254  -1.796  1.00  0.00     0.017 C 
ATOM      2  C   UNL     1       8.328  55.750  -1.364  1.00  0.00     0.014 C 
ATOM      3  C   UNL     1       9.943  53.899  -2.057  1.00  0.00     0.014 C 
ATOM      4  C   UNL     1       7.815  53.241  -0.749  1.00  0.00     0.030 C 
ATOM      5  C   UNL     1       6.939  56.125  -0.832  1.00  0.00     0.004 C 
ATOM      6  C   UNL     1      10.856  53.615  -0.823  1.00  0.00     0.013 C 
ATOM      7  C   UNL     1       8.884  52.315  -0.098  1.00  0.00    -0.063 C 
ATOM      8  C   UNL     1       6.631  53.773   0.143  1.00  0.00    -0.003 C 
ATOM      9  C   UNL     1       6.528  55.311   0.405  1.00  0.00    -0.011 C 
ATOM     10  C   UNL     1      10.204  52.909   0.448  1.00  0.00    -0.006 C 
ATOM     11  C   UNL     1       8.911  51.039  -0.563  1.00  0.00    -0.027 C 
ATOM     12  C   UNL     1       6.333  52.890   1.367  1.00  0.00     0.008 C 
ATOM     13  C   UNL     1       7.143  55.873   1.707  1.00  0.00     0.008 C 
ATOM     14  C   UNL     1       9.905  54.044   1.452  1.00  0.00     0.017 C 
ATOM     15  C   UNL     1      11.174  51.790   1.212  1.00  0.00    -0.020 C 
ATOM     16  C   UNL     1      10.153  50.208  -0.506  1.00  0.00     0.032 C 
ATOM     17  C   UNL     1      10.712  50.318   0.911  1.00  0.00     0.006 C 
ATOM     18  C   UNL     1      11.127  51.861   2.792  1.00  0.00     0.008 C 
ATOM     19  C   UNL     1      12.660  52.051   0.803  1.00  0.00     0.012 C 
ATOM     20  C   UNL     1      11.659  49.130   1.404  1.00  0.00    -0.025 C 
ATOM     21  C   UNL     1      11.444  50.551   3.577  1.00  0.00     0.005 C 
ATOM     22  C   UNL     1      12.306  49.493   2.824  1.00  0.00     0.003 C 
ATOM     23  C   UNL     1      10.757  47.848   1.503  1.00  0.00     0.010 C 
ATOM     24  C   UNL     1      12.779  48.855   0.350  1.00  0.00     0.012 C 
ATOM     25  C   UNL     1      12.746  48.258   3.739  1.00  0.00    -0.006 C 
ATOM     26  C   UNL     1      11.353  46.686   2.294  1.00  0.00     0.033 C 
ATOM     27  C   UNL     1      11.695  47.114   3.720  1.00  0.00     0.120 C 
ATOM     28  C   UNL     1      12.977  48.671   5.221  1.00  0.00     0.014 C 
ATOM     29  C   UNL     1      14.125  47.708   3.271  1.00  0.00     0.014 C 
ENDROOT
BRANCH   1  30
ATOM     30  C   UNL     1       7.729  54.092  -3.153  1.00  0.00     0.048 C 
ATOM     31  O   UNL     1       7.757  52.984  -3.756  1.00  0.00    -0.550 OA
ATOM     32  O   UNL     1       7.091  55.159  -3.780  1.00  0.00    -0.550 OA
ENDBRANCH   1  30
BRANCH  27  33
ATOM     33  O   UNL     1      10.522  47.510   4.389  1.00  0.00    -0.393 OA
ATOM     34  H   UNL     1      10.796  48.126   5.119  1.00  0.00     0.210 HD
ENDBRANCH  27  33
TORSDOF 2
ENDMDL
MODEL 3
REMARK VINA RESULT:    -6.997      1.232      1.545
REMARK INTER + INTRA:          -7.786
REMARK INTER:                  -7.700
REMARK INTRA:                  -0.087
REMARK UNBOUND:                -0.175
REMARK SMILES C[C@H]1[C@@H](C)CC[C@@]2(C(=O)[O-])CC[C@@]3(C)C(=CC[C@H]4[C@]5(C)CC[C@H](O)C(C)(C)[C@@H]5CC[C@@]43C)[C@@H]12
REMARK SMILES IDX 7 1 6 2 11 3 33 4 5 5 12 6 15 7 2 8 3 9 13 10 16 11 1 12
REMARK SMILES IDX 4 13 14 14 31 15 17 16 18 17 30 18 32 19 19 20 29 21 28 22
REMARK SMILES IDX 21 23 20 24 25 25 22 26 23 27 26 28 27 29 8 30 9 31 10 32
REMARK SMILES IDX 24 33
REMARK H PARENT 24 34
REMARK Flexibility Score: inf
ROOT
ATOM      1  C   UNL     1       6.710  37.945  10.686  1.00  0.00     0.017 C 
ATOM      2  C   UNL     1       7.271  36.518  10.390  1.00  0.00     0.014 C 
ATOM      3  C   UNL     1       7.575  38.624  11.800  1.00  0.00     0.014 C 
ATOM      4  C   UNL     1       6.637  38.878   9.406  1.00  0.00     0.030 C 
ATOM      5  C   UNL     1       6.663  35.875   9.137  1.00  0.00     0.004 C 
ATOM      6  C   UNL     1       8.946  39.246  11.388  1.00  0.00     0.013 C 
ATOM      7  C   UNL     1       7.600  40.097   9.498  1.00  0.00    -0.063 C 
ATOM      8  C   UNL     1       6.444  38.169   8.012  1.00  0.00    -0.003 C 
ATOM      9  C   UNL     1       6.919  36.688   7.857  1.00  0.00    -0.011 C 
ATOM     10  C   UNL     1       9.070  39.900   9.941  1.00  0.00    -0.006 C 
ATOM     11  C   UNL     1       7.010  41.287   9.783  1.00  0.00    -0.027 C 
ATOM     12  C   UNL     1       6.758  39.075   6.809  1.00  0.00     0.008 C 
ATOM     13  C   UNL     1       8.324  36.429   7.270  1.00  0.00     0.008 C 
ATOM     14  C   UNL     1       9.757  38.836   9.056  1.00  0.00     0.017 C 
ATOM     15  C   UNL     1       9.983  41.293   9.868  1.00  0.00    -0.020 C 
ATOM     16  C   UNL     1       7.760  42.395  10.452  1.00  0.00     0.032 C 
ATOM     17  C   UNL     1       9.081  42.570   9.706  1.00  0.00     0.006 C 
ATOM     18  C   UNL     1      10.944  41.375   8.614  1.00  0.00     0.008 C 
ATOM     19  C   UNL     1      10.899  41.359  11.133  1.00  0.00     0.012 C 
ATOM     20  C   UNL     1       9.790  43.996   9.826  1.00  0.00    -0.025 C 
ATOM     21  C   UNL     1      11.335  42.797   8.106  1.00  0.00     0.005 C 
ATOM     22  C   UNL     1      11.242  43.949   9.150  1.00  0.00     0.003 C 
ATOM     23  C   UNL     1       8.857  45.025   9.091  1.00  0.00     0.010 C 
ATOM     24  C   UNL     1       9.900  44.424  11.324  1.00  0.00     0.012 C 
ATOM     25  C   UNL     1      11.824  45.341   8.622  1.00  0.00    -0.006 C 
ATOM     26  C   UNL     1       9.496  46.372   8.763  1.00  0.00     0.033 C 
ATOM     27  C   UNL     1      10.743  46.188   7.898  1.00  0.00     0.120 C 
ATOM     28  C   UNL     1      13.018  45.151   7.644  1.00  0.00     0.014 C 
ATOM     29  C   UNL     1      12.421  46.157   9.806  1.00  0.00     0.014 C 
ENDROOT
BRANCH   1  30
ATOM     30  C   UNL     1       5.299  37.789  11.286  1.00  0.00     0.048 C 
ATOM     31  O   UNL     1       4.915  36.669  11.721  1.00  0.00    -0.550 OA
ATOM     32  O   UNL     1       4.392  38.845  11.318  1.00  0.00    -0.550 OA
ENDBRANCH   1  30
BRANCH  27  33
ATOM     33  O   UNL     1      10.386  45.591   6.675  1.00  0.00    -0.393 OA
ATOM     34  H   UNL     1      11.207  45.175   6.302  1.00  0.00     0.210 HD
ENDBRANCH  27  33
TORSDOF 2
ENDMDL
MODEL 4
REMARK VINA RESULT:    -6.451      1.591      8.130
REMARK INTER + INTRA:          -7.193
REMARK INTER:                  -6.957
REMARK INTRA:                  -0.236
REMARK UNBOUND:                -0.175
REMARK SMILES C[C@H]1[C@@H](C)CC[C@@]2(C(=O)[O-])CC[C@@]3(C)C(=CC[C@H]4[C@]5(C)CC[C@H](O)C(C)(C)[C@@H]5CC[C@@]43C)[C@@H]12
REMARK SMILES IDX 7 1 6 2 11 3 33 4 5 5 12 6 15 7 2 8 3 9 13 10 16 11 1 12
REMARK SMILES IDX 4 13 14 14 31 15 17 16 18 17 30 18 32 19 19 20 29 21 28 22
REMARK SMILES IDX 21 23 20 24 25 25 22 26 23 27 26 28 27 29 8 30 9 31 10 32
REMARK SMILES IDX 24 33
REMARK H PARENT 24 34
REMARK Flexibility Score: inf
ROOT
ATOM      1  C   UNL     1      11.241  45.004   9.306  1.00  0.00     0.017 C 
ATOM      2  C   UNL     1      12.742  45.226   9.675  1.00  0.00     0.014 C 
ATOM      3  C   UNL     1      11.138  43.934   8.168  1.00  0.00     0.014 C 
ATOM      4  C   UNL     1      10.339  44.580  10.539  1.00  0.00     0.030 C 
ATOM      5  C   UNL     1      12.937  46.053  10.952  1.00  0.00     0.004 C 
ATOM      6  C   UNL     1      11.266  42.429   8.561  1.00  0.00     0.013 C 
ATOM      7  C   UNL     1       9.770  43.138  10.397  1.00  0.00    -0.063 C 
ATOM      8  C   UNL     1      10.792  45.079  11.963  1.00  0.00    -0.003 C 
ATOM      9  C   UNL     1      12.303  45.404  12.193  1.00  0.00    -0.011 C 
ATOM     10  C   UNL     1      10.696  41.971   9.977  1.00  0.00    -0.006 C 
ATOM     11  C   UNL     1       8.460  43.060  10.050  1.00  0.00    -0.027 C 
ATOM     12  C   UNL     1      10.110  44.335  13.124  1.00  0.00     0.008 C 
ATOM     13  C   UNL     1      13.202  44.307  12.805  1.00  0.00     0.008 C 
ATOM     14  C   UNL     1      11.919  41.893  10.918  1.00  0.00     0.017 C 
ATOM     15  C   UNL     1       9.943  40.484   9.990  1.00  0.00    -0.020 C 
ATOM     16  C   UNL     1       7.906  41.868   9.335  1.00  0.00     0.032 C 
ATOM     17  C   UNL     1       8.380  40.625  10.083  1.00  0.00     0.006 C 
ATOM     18  C   UNL     1      10.295  39.589  11.247  1.00  0.00     0.008 C 
ATOM     19  C   UNL     1      10.402  39.678   8.732  1.00  0.00     0.012 C 
ATOM     20  C   UNL     1       7.506  39.300   9.901  1.00  0.00    -0.025 C 
ATOM     21  C   UNL     1       9.237  38.532  11.690  1.00  0.00     0.005 C 
ATOM     22  C   UNL     1       8.242  38.055  10.590  1.00  0.00     0.003 C 
ATOM     23  C   UNL     1       6.117  39.582  10.577  1.00  0.00     0.010 C 
ATOM     24  C   UNL     1       7.260  39.015   8.385  1.00  0.00     0.012 C 
ATOM     25  C   UNL     1       7.304  36.847  11.056  1.00  0.00    -0.006 C 
ATOM     26  C   UNL     1       5.256  38.350  10.846  1.00  0.00     0.033 C 
ATOM     27  C   UNL     1       5.997  37.348  11.730  1.00  0.00     0.120 C 
ATOM     28  C   UNL     1       8.020  35.891  12.053  1.00  0.00     0.014 C 
ATOM     29  C   UNL     1       6.951  35.942   9.840  1.00  0.00     0.014 C 
ENDROOT
BRANCH   1  30
ATOM     30  C   UNL     1      10.699  46.314   8.701  1.00  0.00     0.048 C 
ATOM     31  O   UNL     1       9.491  46.637   8.866  1.00  0.00    -0.550 OA
ATOM     32  O   UNL     1      11.493  47.146   7.917  1.00  0.00    -0.550 OA
ENDBRANCH   1  30
BRANCH  27  33
ATOM     33  O   UNL     1       6.280  37.936  12.977  1.00  0.00    -0.393 OA
ATOM     34  H   UNL     1       6.056  38.900  12.903  1.00  0.00     0.210 HD
ENDBRANCH  27  33
TORSDOF 2
ENDMDL
MODEL 5
REMARK VINA RESULT:    -6.362      3.397      6.364
REMARK INTER + INTRA:          -7.095
REMARK INTER:                  -7.178
REMARK INTRA:                   0.083
REMARK UNBOUND:                -0.175
REMARK SMILES C[C@H]1[C@@H](C)CC[C@@]2(C(=O)[O-])CC[C@@]3(C)C(=CC[C@H]4[C@]5(C)CC[C@H](O)C(C)(C)[C@@H]5CC[C@@]43C)[C@@H]12
REMARK SMILES IDX 7 1 6 2 11 3 33 4 5 5 12 6 15 7 2 8 3 9 13 10 16 11 1 12
REMARK SMILES IDX 4 13 14 14 31 15 17 16 18 17 30 18 32 19 19 20 29 21 28 22
REMARK SMILES IDX 21 23 20 24 25 25 22 26 23 27 26 28 27 29 8 30 9 31 10 32
REMARK SMILES IDX 24 33
REMARK H PARENT 24 34
REMARK Flexibility Score: inf
ROOT
ATOM      1  C   UNL     1      11.694  37.740   9.559  1.00  0.00     0.017 C 
ATOM      2  C   UNL     1      12.899  38.036  10.506  1.00  0.00     0.014 C 
ATOM      3  C   UNL     1      10.419  37.444  10.416  1.00  0.00     0.014 C 
ATOM      4  C   UNL     1      11.398  38.904   8.523  1.00  0.00     0.030 C 
ATOM      5  C   UNL     1      14.125  38.596   9.772  1.00  0.00     0.004 C 
ATOM      6  C   UNL     1       9.645  38.655  11.025  1.00  0.00     0.013 C 
ATOM      7  C   UNL     1      10.021  39.587   8.768  1.00  0.00    -0.063 C 
ATOM      8  C   UNL     1      12.618  39.797   8.080  1.00  0.00    -0.003 C 
ATOM      9  C   UNL     1      13.841  39.921   9.047  1.00  0.00    -0.011 C 
ATOM     10  C   UNL     1       9.603  40.014  10.195  1.00  0.00    -0.006 C 
ATOM     11  C   UNL     1       9.036  39.241   7.899  1.00  0.00    -0.027 C 
ATOM     12  C   UNL     1      12.206  41.109   7.392  1.00  0.00     0.008 C 
ATOM     13  C   UNL     1      13.898  41.134  10.001  1.00  0.00     0.008 C 
ATOM     14  C   UNL     1      10.685  40.922  10.820  1.00  0.00     0.017 C 
ATOM     15  C   UNL     1       8.152  40.833  10.250  1.00  0.00    -0.020 C 
ATOM     16  C   UNL     1       7.591  39.317   8.279  1.00  0.00     0.032 C 
ATOM     17  C   UNL     1       7.354  40.690   8.903  1.00  0.00     0.006 C 
ATOM     18  C   UNL     1       8.297  42.400  10.413  1.00  0.00     0.008 C 
ATOM     19  C   UNL     1       7.340  40.333  11.488  1.00  0.00     0.012 C 
ATOM     20  C   UNL     1       5.857  41.246   8.869  1.00  0.00    -0.025 C 
ATOM     21  C   UNL     1       7.140  43.286   9.858  1.00  0.00     0.005 C 
ATOM     22  C   UNL     1       5.750  42.596   9.726  1.00  0.00     0.003 C 
ATOM     23  C   UNL     1       5.509  41.506   7.359  1.00  0.00     0.010 C 
ATOM     24  C   UNL     1       4.865  40.172   9.418  1.00  0.00     0.012 C 
ATOM     25  C   UNL     1       4.572  43.599   9.324  1.00  0.00    -0.006 C 
ATOM     26  C   UNL     1       4.276  42.371   7.109  1.00  0.00     0.033 C 
ATOM     27  C   UNL     1       4.420  43.735   7.784  1.00  0.00     0.120 C 
ATOM     28  C   UNL     1       4.781  45.024   9.912  1.00  0.00     0.014 C 
ATOM     29  C   UNL     1       3.225  43.121   9.941  1.00  0.00     0.014 C 
ENDROOT
BRANCH   1  30
ATOM     30  C   UNL     1      11.997  36.438   8.792  1.00  0.00     0.048 C 
ATOM     31  O   UNL     1      13.119  35.875   8.916  1.00  0.00    -0.550 OA
ATOM     32  O   UNL     1      11.082  35.876   7.906  1.00  0.00    -0.550 OA
ENDBRANCH   1  30
BRANCH  27  33
ATOM     33  O   UNL     1       5.523  44.418   7.238  1.00  0.00    -0.393 OA
ATOM     34  H   UNL     1       6.263  44.351   7.897  1.00  0.00     0.210 HD
ENDBRANCH  27  33
TORSDOF 2
ENDMDL
MODEL 6
REMARK VINA RESULT:    -5.804      2.633      3.873
REMARK INTER + INTRA:          -6.488
REMARK INTER:                  -6.299
REMARK INTRA:                  -0.189
REMARK UNBOUND:                -0.175
REMARK SMILES C[C@H]1[C@@H](C)CC[C@@]2(C(=O)[O-])CC[C@@]3(C)C(=CC[C@H]4[C@]5(C)CC[C@H](O)C(C)(C)[C@@H]5CC[C@@]43C)[C@@H]12
REMARK SMILES IDX 7 1 6 2 11 3 33 4 5 5 12 6 15 7 2 8 3 9 13 10 16 11 1 12
REMARK SMILES IDX 4 13 14 14 31 15 17 16 18 17 30 18 32 19 19 20 29 21 28 22
REMARK SMILES IDX 21 23 20 24 25 25 22 26 23 27 26 28 27 29 8 30 9 31 10 32
REMARK SMILES IDX 24 33
REMARK H PARENT 24 34
REMARK Flexibility Score: inf
ROOT
ATOM      1  C   UNL     1       7.736  37.521  11.033  1.00  0.00     0.017 C 
ATOM      2  C   UNL     1       9.072  36.832  11.455  1.00  0.00     0.014 C 
ATOM      3  C   UNL     1       7.402  38.669  12.042  1.00  0.00     0.014 C 
ATOM      4  C   UNL     1       7.753  38.085   9.550  1.00  0.00     0.030 C 
ATOM      5  C   UNL     1       9.624  35.875  10.391  1.00  0.00     0.004 C 
ATOM      6  C   UNL     1       8.155  40.028  11.887  1.00  0.00     0.013 C 
ATOM      7  C   UNL     1       7.653  39.637   9.499  1.00  0.00    -0.063 C 
ATOM      8  C   UNL     1       8.686  37.351   8.515  1.00  0.00    -0.003 C 
ATOM      9  C   UNL     1       9.929  36.571   9.055  1.00  0.00    -0.011 C 
ATOM     10  C   UNL     1       8.543  40.509  10.418  1.00  0.00    -0.006 C 
ATOM     11  C   UNL     1       6.440  40.132   9.142  1.00  0.00    -0.027 C 
ATOM     12  C   UNL     1       8.941  38.159   7.231  1.00  0.00     0.008 C 
ATOM     13  C   UNL     1      11.295  37.293   9.068  1.00  0.00     0.008 C 
ATOM     14  C   UNL     1      10.030  40.136  10.233  1.00  0.00     0.017 C 
ATOM     15  C   UNL     1       8.386  42.145  10.144  1.00  0.00    -0.020 C 
ATOM     16  C   UNL     1       5.990  41.493   9.571  1.00  0.00     0.032 C 
ATOM     17  C   UNL     1       7.124  42.468   9.265  1.00  0.00     0.006 C 
ATOM     18  C   UNL     1       9.572  42.781   9.311  1.00  0.00     0.008 C 
ATOM     19  C   UNL     1       8.367  42.885  11.520  1.00  0.00     0.012 C 
ATOM     20  C   UNL     1       6.722  44.004   9.084  1.00  0.00    -0.025 C 
ATOM     21  C   UNL     1       9.255  44.061   8.479  1.00  0.00     0.005 C 
ATOM     22  C   UNL     1       8.039  44.908   8.960  1.00  0.00     0.003 C 
ATOM     23  C   UNL     1       5.851  44.089   7.779  1.00  0.00     0.010 C 
ATOM     24  C   UNL     1       5.845  44.481  10.285  1.00  0.00     0.012 C 
ATOM     25  C   UNL     1       7.876  46.294   8.181  1.00  0.00    -0.006 C 
ATOM     26  C   UNL     1       5.659  45.493   7.210  1.00  0.00     0.033 C 
ATOM     27  C   UNL     1       7.005  46.147   6.903  1.00  0.00     0.120 C 
ATOM     28  C   UNL     1       9.244  46.902   7.761  1.00  0.00     0.014 C 
ATOM     29  C   UNL     1       7.249  47.367   9.120  1.00  0.00     0.014 C 
ENDROOT
BRANCH   1  30
ATOM     30  C   UNL     1       6.600  36.491  11.176  1.00  0.00     0.048 C 
ATOM     31  O   UNL     1       6.212  36.129  12.321  1.00  0.00    -0.550 OA
ATOM     32  O   UNL     1       6.009  35.889  10.068  1.00  0.00    -0.550 OA
ENDBRANCH   1  30
BRANCH  27  33
ATOM     33  O   UNL     1       7.685  45.395   5.927  1.00  0.00    -0.393 OA
ATOM     34  H   UNL     1       8.373  45.989   5.528  1.00  0.00     0.210 HD
ENDBRANCH  27  33
TORSDOF 2
ENDMDL
MODEL 7
REMARK VINA RESULT:    -5.657     11.070     15.739
REMARK INTER + INTRA:          -6.328
REMARK INTER:                  -6.153
REMARK INTRA:                  -0.175
REMARK UNBOUND:                -0.175
REMARK SMILES C[C@H]1[C@@H](C)CC[C@@]2(C(=O)[O-])CC[C@@]3(C)C(=CC[C@H]4[C@]5(C)CC[C@H](O)C(C)(C)[C@@H]5CC[C@@]43C)[C@@H]12
REMARK SMILES IDX 7 1 6 2 11 3 33 4 5 5 12 6 15 7 2 8 3 9 13 10 16 11 1 12
REMARK SMILES IDX 4 13 14 14 31 15 17 16 18 17 30 18 32 19 19 20 29 21 28 22
REMARK SMILES IDX 21 23 20 24 25 25 22 26 23 27 26 28 27 29 8 30 9 31 10 32
REMARK SMILES IDX 24 33
REMARK H PARENT 24 34
REMARK Flexibility Score: inf
ROOT
ATOM      1  C   UNL     1       9.467  54.134  -1.374  1.00  0.00     0.017 C 
ATOM      2  C   UNL     1       9.404  55.636  -0.950  1.00  0.00     0.014 C 
ATOM      3  C   UNL     1      10.962  53.682  -1.467  1.00  0.00     0.014 C 
ATOM      4  C   UNL     1       8.662  53.167  -0.408  1.00  0.00     0.030 C 
ATOM      5  C   UNL     1       7.992  56.102  -0.574  1.00  0.00     0.004 C 
ATOM      6  C   UNL     1      11.711  53.342  -0.140  1.00  0.00     0.013 C 
ATOM      7  C   UNL     1       9.589  52.175   0.353  1.00  0.00    -0.063 C 
ATOM      8  C   UNL     1       7.423  53.778   0.349  1.00  0.00    -0.003 C 
ATOM      9  C   UNL     1       7.393  55.320   0.606  1.00  0.00    -0.011 C 
ATOM     10  C   UNL     1      10.876  52.683   1.046  1.00  0.00    -0.006 C 
ATOM     11  C   UNL     1       9.585  50.899  -0.112  1.00  0.00    -0.027 C 
ATOM     12  C   UNL     1       6.933  52.919   1.527  1.00  0.00     0.008 C 
ATOM     13  C   UNL     1       7.893  55.843   1.970  1.00  0.00     0.008 C 
ATOM     14  C   UNL     1      10.541  53.837   2.017  1.00  0.00     0.017 C 
ATOM     15  C   UNL     1      11.680  51.504   1.909  1.00  0.00    -0.020 C 
ATOM     16  C   UNL     1      10.757  49.989   0.080  1.00  0.00     0.032 C 
ATOM     17  C   UNL     1      11.160  50.065   1.551  1.00  0.00     0.006 C 
ATOM     18  C   UNL     1      11.461  51.582   3.474  1.00  0.00     0.008 C 
ATOM     19  C   UNL     1      13.216  51.667   1.669  1.00  0.00     0.012 C 
ATOM     20  C   UNL     1      11.966  48.819   2.140  1.00  0.00    -0.025 C 
ATOM     21  C   UNL     1      11.603  50.256   4.282  1.00  0.00     0.005 C 
ATOM     22  C   UNL     1      12.472  49.142   3.626  1.00  0.00     0.003 C 
ATOM     23  C   UNL     1      10.977  47.599   2.132  1.00  0.00     0.010 C 
ATOM     24  C   UNL     1      13.177  48.469   1.217  1.00  0.00     0.012 C 
ATOM     25  C   UNL     1      12.726  47.883   4.578  1.00  0.00    -0.006 C 
ATOM     26  C   UNL     1      11.404  46.402   2.978  1.00  0.00     0.033 C 
ATOM     27  C   UNL     1      11.612  46.810   4.436  1.00  0.00     0.120 C 
ATOM     28  C   UNL     1      12.817  48.284   6.078  1.00  0.00     0.014 C 
ATOM     29  C   UNL     1      14.110  47.244   4.264  1.00  0.00     0.014 C 
ENDROOT
BRANCH   1  30
ATOM     30  C   UNL     1       8.902  54.016  -2.803  1.00  0.00     0.048 C 
ATOM     31  O   UNL     1       9.610  54.345  -3.794  1.00  0.00    -0.550 OA
ATOM     32  O   UNL     1       7.594  53.605  -3.045  1.00  0.00    -0.550 OA
ENDBRANCH   1  30
BRANCH  27  33
ATOM     33  O   UNL     1      10.400  47.284   4.972  1.00  0.00    -0.393 OA
ATOM     34  H   UNL     1       9.699  47.138   4.283  1.00  0.00     0.210 HD
ENDBRANCH  27  33
TORSDOF 2
ENDMDL
MODEL 8
REMARK VINA RESULT:    -5.286      6.891     11.259
REMARK INTER + INTRA:          -5.925
REMARK INTER:                  -5.738
REMARK INTRA:                  -0.187
REMARK UNBOUND:                -0.175
REMARK SMILES C[C@H]1[C@@H](C)CC[C@@]2(C(=O)[O-])CC[C@@]3(C)C(=CC[C@H]4[C@]5(C)CC[C@H](O)C(C)(C)[C@@H]5CC[C@@]43C)[C@@H]12
REMARK SMILES IDX 7 1 6 2 11 3 33 4 5 5 12 6 15 7 2 8 3 9 13 10 16 11 1 12
REMARK SMILES IDX 4 13 14 14 31 15 17 16 18 17 30 18 32 19 19 20 29 21 28 22
REMARK SMILES IDX 21 23 20 24 25 25 22 26 23 27 26 28 27 29 8 30 9 31 10 32
REMARK SMILES IDX 24 33
REMARK H PARENT 24 34
REMARK Flexibility Score: inf
ROOT
ATOM      1  C   UNL     1      12.946  47.669   8.676  1.00  0.00     0.017 C 
ATOM      2  C   UNL     1      13.115  46.208   9.201  1.00  0.00     0.014 C 
ATOM      3  C   UNL     1      14.125  48.013   7.706  1.00  0.00     0.014 C 
ATOM      4  C   UNL     1      11.555  47.931   7.961  1.00  0.00     0.030 C 
ATOM      5  C   UNL     1      11.880  45.684   9.945  1.00  0.00     0.004 C 
ATOM      6  C   UNL     1      14.052  47.476   6.242  1.00  0.00     0.013 C 
ATOM      7  C   UNL     1      11.712  48.243   6.444  1.00  0.00    -0.063 C 
ATOM      8  C   UNL     1      10.331  47.058   8.432  1.00  0.00    -0.003 C 
ATOM      9  C   UNL     1      10.615  45.660   9.072  1.00  0.00    -0.011 C 
ATOM     10  C   UNL     1      12.620  47.361   5.554  1.00  0.00    -0.006 C 
ATOM     11  C   UNL     1      11.568  49.549   6.100  1.00  0.00    -0.027 C 
ATOM     12  C   UNL     1       9.138  47.092   7.462  1.00  0.00     0.008 C 
ATOM     13  C   UNL     1      10.556  44.414   8.160  1.00  0.00     0.008 C 
ATOM     14  C   UNL     1      12.211  45.876   5.679  1.00  0.00     0.017 C 
ATOM     15  C   UNL     1      12.574  47.771   3.939  1.00  0.00    -0.020 C 
ATOM     16  C   UNL     1      12.216  50.114   4.876  1.00  0.00     0.032 C 
ATOM     17  C   UNL     1      11.901  49.174   3.715  1.00  0.00     0.006 C 
ATOM     18  C   UNL     1      11.691  46.806   3.048  1.00  0.00     0.008 C 
ATOM     19  C   UNL     1      14.025  47.701   3.363  1.00  0.00     0.012 C 
ATOM     20  C   UNL     1      11.964  49.799   2.246  1.00  0.00    -0.025 C 
ATOM     21  C   UNL     1      11.071  47.402   1.748  1.00  0.00     0.005 C 
ATOM     22  C   UNL     1      11.797  48.644   1.148  1.00  0.00     0.003 C 
ATOM     23  C   UNL     1      10.795  50.843   2.151  1.00  0.00     0.010 C 
ATOM     24  C   UNL     1      13.312  50.558   2.037  1.00  0.00     0.012 C 
ATOM     25  C   UNL     1      11.224  49.096  -0.274  1.00  0.00    -0.006 C 
ATOM     26  C   UNL     1      10.434  51.297   0.739  1.00  0.00     0.033 C 
ATOM     27  C   UNL     1      10.052  50.105  -0.137  1.00  0.00     0.120 C 
ATOM     28  C   UNL     1      10.722  47.891  -1.121  1.00  0.00     0.014 C 
ATOM     29  C   UNL     1      12.359  49.726  -1.134  1.00  0.00     0.014 C 
ENDROOT
BRANCH   1  30
ATOM     30  C   UNL     1      13.094  48.627   9.874  1.00  0.00     0.048 C 
ATOM     31  O   UNL     1      12.642  49.803   9.806  1.00  0.00    -0.550 OA
ATOM     32  O   UNL     1      13.772  48.257  11.033  1.00  0.00    -0.550 OA
ENDBRANCH   1  30
BRANCH  27  33
ATOM     33  O   UNL     1       8.915  49.471   0.396  1.00  0.00    -0.393 OA
ATOM     34  H   UNL     1       8.516  48.926  -0.332  1.00  0.00     0.210 HD
ENDBRANCH  27  33
TORSDOF 2
ENDMDL
