MODEL 1
REMARK VINA RESULT:    -4.360      0.000      0.000
REMARK INTER + INTRA:          -5.882
REMARK INTER:                  -5.634
REMARK INTRA:                  -0.247
REMARK UNBOUND:                -0.247
REMARK SMILES C=CC(=O)CCCCC
REMARK SMILES IDX 6 1 7 2 8 3 9 4 5 5 3 6 4 7 2 8 1 9
REMARK H PARENT
REMARK Flexibility Score: inf
ROOT
ATOM      1  C   UNL     1     -12.887 -34.425  32.354  1.00  0.00     0.008 C 
ENDROOT
BRANCH   1   2
ATOM      2  C   UNL     1     -12.271 -35.750  31.873  1.00  0.00     0.000 C 
BRANCH   2   3
ATOM      3  C   UNL     1     -13.318 -36.863  31.713  1.00  0.00    -0.003 C 
ATOM      4  C   UNL     1     -12.706 -38.263  31.773  1.00  0.00     0.004 C 
ENDBRANCH   2   3
ENDBRANCH   1   2
BRANCH   1   5
ATOM      5  C   UNL     1     -13.698 -33.729  31.248  1.00  0.00     0.080 C 
BRANCH   5   6
ATOM      6  C   UNL     1     -14.810 -32.847  31.771  1.00  0.00     0.155 C 
ATOM      7  O   UNL     1     -15.286 -31.937  31.038  1.00  0.00    -0.295 OA
BRANCH   6   8
ATOM      8  C   UNL     1     -15.331 -32.972  33.147  1.00  0.00     0.039 C 
ATOM      9  C   UNL     1     -16.364 -33.745  33.480  1.00  0.00     0.012 C 
ENDBRANCH   6   8
ENDBRANCH   5   6
ENDBRANCH   1   5
TORSDOF 5
ENDMDL
MODEL 2
REMARK VINA RESULT:    -4.260      1.986      4.460
REMARK INTER + INTRA:          -5.753
REMARK INTER:                  -5.541
REMARK INTRA:                  -0.212
REMARK UNBOUND:                -0.247
REMARK SMILES C=CC(=O)CCCCC
REMARK SMILES IDX 6 1 7 2 8 3 9 4 5 5 3 6 4 7 2 8 1 9
REMARK H PARENT
REMARK Flexibility Score: inf
ROOT
ATOM      1  C   UNL     1     -13.651 -33.907  31.814  1.00  0.00     0.008 C 
ENDROOT
BRANCH   1   2
ATOM      2  C   UNL     1     -14.739 -32.829  31.660  1.00  0.00     0.000 C 
BRANCH   2   3
ATOM      3  C   UNL     1     -15.470 -32.536  32.978  1.00  0.00    -0.003 C 
ATOM      4  C   UNL     1     -16.247 -33.743  33.504  1.00  0.00     0.004 C 
ENDBRANCH   2   3
ENDBRANCH   1   2
BRANCH   1   5
ATOM      5  C   UNL     1     -13.161 -34.432  30.455  1.00  0.00     0.080 C 
BRANCH   5   6
ATOM      6  C   UNL     1     -12.971 -35.932  30.415  1.00  0.00     0.155 C 
ATOM      7  O   UNL     1     -12.636 -36.494  29.336  1.00  0.00    -0.295 OA
BRANCH   6   8
ATOM      8  C   UNL     1     -13.220 -36.788  31.593  1.00  0.00     0.039 C 
ATOM      9  C   UNL     1     -12.943 -38.091  31.632  1.00  0.00     0.012 C 
ENDBRANCH   6   8
ENDBRANCH   5   6
ENDBRANCH   1   5
TORSDOF 5
ENDMDL
MODEL 3
REMARK VINA RESULT:    -4.234      3.671      5.187
REMARK INTER + INTRA:          -5.719
REMARK INTER:                  -5.174
REMARK INTRA:                  -0.545
REMARK UNBOUND:                -0.247
REMARK SMILES C=CC(=O)CCCCC
REMARK SMILES IDX 6 1 7 2 8 3 9 4 5 5 3 6 4 7 2 8 1 9
REMARK H PARENT
REMARK Flexibility Score: inf
ROOT
ATOM      1  C   UNL     1     -12.203 -34.024  29.436  1.00  0.00     0.008 C 
ENDROOT
BRANCH   1   2
ATOM      2  C   UNL     1     -13.037 -33.454  28.276  1.00  0.00     0.000 C 
BRANCH   2   3
ATOM      3  C   UNL     1     -13.078 -34.394  27.062  1.00  0.00    -0.003 C 
ATOM      4  C   UNL     1     -11.695 -34.912  26.669  1.00  0.00     0.004 C 
ENDBRANCH   2   3
ENDBRANCH   1   2
BRANCH   1   5
ATOM      5  C   UNL     1     -12.959 -35.117  30.209  1.00  0.00     0.080 C 
BRANCH   5   6
ATOM      6  C   UNL     1     -12.302 -36.478  30.136  1.00  0.00     0.155 C 
ATOM      7  O   UNL     1     -11.087 -36.606  30.451  1.00  0.00    -0.295 OA
BRANCH   6   8
ATOM      8  C   UNL     1     -13.022 -37.673  29.650  1.00  0.00     0.039 C 
ATOM      9  C   UNL     1     -14.009 -37.629  28.756  1.00  0.00     0.012 C 
ENDBRANCH   6   8
ENDBRANCH   5   6
ENDBRANCH   1   5
TORSDOF 5
ENDMDL
MODEL 4
REMARK VINA RESULT:    -4.233      2.782      4.962
REMARK INTER + INTRA:          -5.718
REMARK INTER:                  -5.459
REMARK INTRA:                  -0.259
REMARK UNBOUND:                -0.247
REMARK SMILES C=CC(=O)CCCCC
REMARK SMILES IDX 6 1 7 2 8 3 9 4 5 5 3 6 4 7 2 8 1 9
REMARK H PARENT
REMARK Flexibility Score: inf
ROOT
ATOM      1  C   UNL     1     -12.868 -34.803  30.543  1.00  0.00     0.008 C 
ENDROOT
BRANCH   1   2
ATOM      2  C   UNL     1     -13.659 -33.556  30.975  1.00  0.00     0.000 C 
BRANCH   2   3
ATOM      3  C   UNL     1     -14.370 -33.747  32.323  1.00  0.00    -0.003 C 
ATOM      4  C   UNL     1     -15.391 -32.647  32.613  1.00  0.00     0.004 C 
ENDBRANCH   2   3
ENDBRANCH   1   2
BRANCH   1   5
ATOM      5  C   UNL     1     -13.067 -35.979  31.513  1.00  0.00     0.080 C 
BRANCH   5   6
ATOM      6  C   UNL     1     -13.140 -37.326  30.829  1.00  0.00     0.155 C 
ATOM      7  O   UNL     1     -13.078 -38.383  31.516  1.00  0.00    -0.295 OA
BRANCH   6   8
ATOM      8  C   UNL     1     -13.224 -37.459  29.360  1.00  0.00     0.039 C 
ATOM      9  C   UNL     1     -14.262 -38.002  28.725  1.00  0.00     0.012 C 
ENDBRANCH   6   8
ENDBRANCH   5   6
ENDBRANCH   1   5
TORSDOF 5
ENDMDL
MODEL 5
REMARK VINA RESULT:    -4.233      1.921      3.181
REMARK INTER + INTRA:          -5.718
REMARK INTER:                  -5.331
REMARK INTRA:                  -0.387
REMARK UNBOUND:                -0.247
REMARK SMILES C=CC(=O)CCCCC
REMARK SMILES IDX 6 1 7 2 8 3 9 4 5 5 3 6 4 7 2 8 1 9
REMARK H PARENT
REMARK Flexibility Score: inf
ROOT
ATOM      1  C   UNL     1     -12.474 -36.368  31.533  1.00  0.00     0.008 C 
ENDROOT
BRANCH   1   2
ATOM      2  C   UNL     1     -13.295 -37.510  30.909  1.00  0.00     0.000 C 
BRANCH   2   3
ATOM      3  C   UNL     1     -13.089 -37.623  29.391  1.00  0.00    -0.003 C 
ATOM      4  C   UNL     1     -14.365 -38.026  28.650  1.00  0.00     0.004 C 
ENDBRANCH   2   3
ENDBRANCH   1   2
BRANCH   1   5
ATOM      5  C   UNL     1     -13.366 -35.219  32.030  1.00  0.00     0.080 C 
BRANCH   5   6
ATOM      6  C   UNL     1     -13.444 -34.051  31.073  1.00  0.00     0.155 C 
ATOM      7  O   UNL     1     -14.321 -33.159  31.240  1.00  0.00    -0.295 OA
BRANCH   6   8
ATOM      8  C   UNL     1     -12.556 -33.937  29.898  1.00  0.00     0.039 C 
ATOM      9  C   UNL     1     -12.896 -33.308  28.773  1.00  0.00     0.012 C 
ENDBRANCH   6   8
ENDBRANCH   5   6
ENDBRANCH   1   5
TORSDOF 5
ENDMDL
MODEL 6
REMARK VINA RESULT:    -4.211      2.965      4.895
REMARK INTER + INTRA:          -5.689
REMARK INTER:                  -5.203
REMARK INTRA:                  -0.486
REMARK UNBOUND:                -0.247
REMARK SMILES C=CC(=O)CCCCC
REMARK SMILES IDX 6 1 7 2 8 3 9 4 5 5 3 6 4 7 2 8 1 9
REMARK H PARENT
REMARK Flexibility Score: inf
ROOT
ATOM      1  C   UNL     1     -13.485 -35.187  32.005  1.00  0.00     0.008 C 
ENDROOT
BRANCH   1   2
ATOM      2  C   UNL     1     -13.492 -33.902  31.159  1.00  0.00     0.000 C 
BRANCH   2   3
ATOM      3  C   UNL     1     -12.379 -33.886  30.101  1.00  0.00    -0.003 C 
ATOM      4  C   UNL     1     -12.855 -33.348  28.751  1.00  0.00     0.004 C 
ENDBRANCH   2   3
ENDBRANCH   1   2
BRANCH   1   5
ATOM      5  C   UNL     1     -12.330 -36.126  31.621  1.00  0.00     0.080 C 
BRANCH   5   6
ATOM      6  C   UNL     1     -12.761 -37.555  31.381  1.00  0.00     0.155 C 
ATOM      7  O   UNL     1     -12.397 -38.463  32.178  1.00  0.00    -0.295 OA
BRANCH   6   8
ATOM      8  C   UNL     1     -13.556 -37.949  30.200  1.00  0.00     0.039 C 
ATOM      9  C   UNL     1     -13.527 -37.298  29.038  1.00  0.00     0.012 C 
ENDBRANCH   6   8
ENDBRANCH   5   6
ENDBRANCH   1   5
TORSDOF 5
ENDMDL
MODEL 7
REMARK VINA RESULT:    -4.174      3.218      5.074
REMARK INTER + INTRA:          -5.642
REMARK INTER:                  -5.437
REMARK INTRA:                  -0.205
REMARK UNBOUND:                -0.247
REMARK SMILES C=CC(=O)CCCCC
REMARK SMILES IDX 6 1 7 2 8 3 9 4 5 5 3 6 4 7 2 8 1 9
REMARK H PARENT
REMARK Flexibility Score: inf
ROOT
ATOM      1  C   UNL     1     -12.337 -34.325  30.794  1.00  0.00     0.008 C 
ENDROOT
BRANCH   1   2
ATOM      2  C   UNL     1     -13.387 -34.162  31.906  1.00  0.00     0.000 C 
BRANCH   2   3
ATOM      3  C   UNL     1     -14.448 -33.106  31.565  1.00  0.00    -0.003 C 
ATOM      4  C   UNL     1     -15.309 -32.723  32.769  1.00  0.00     0.004 C 
ENDBRANCH   2   3
ENDBRANCH   1   2
BRANCH   1   5
ATOM      5  C   UNL     1     -12.820 -33.747  29.453  1.00  0.00     0.080 C 
BRANCH   5   6
ATOM      6  C   UNL     1     -12.988 -34.787  28.368  1.00  0.00     0.155 C 
ATOM      7  O   UNL     1     -13.323 -35.964  28.673  1.00  0.00    -0.295 OA
BRANCH   6   8
ATOM      8  C   UNL     1     -12.716 -34.491  26.946  1.00  0.00     0.039 C 
ATOM      9  C   UNL     1     -11.631 -34.914  26.297  1.00  0.00     0.012 C 
ENDBRANCH   6   8
ENDBRANCH   5   6
ENDBRANCH   1   5
TORSDOF 5
ENDMDL
MODEL 8
REMARK VINA RESULT:    -4.170      2.930      4.742
REMARK INTER + INTRA:          -5.637
REMARK INTER:                  -5.155
REMARK INTRA:                  -0.481
REMARK UNBOUND:                -0.247
REMARK SMILES C=CC(=O)CCCCC
REMARK SMILES IDX 6 1 7 2 8 3 9 4 5 5 3 6 4 7 2 8 1 9
REMARK H PARENT
REMARK Flexibility Score: inf
ROOT
ATOM      1  C   UNL     1     -12.151 -35.217  29.630  1.00  0.00     0.008 C 
ENDROOT
BRANCH   1   2
ATOM      2  C   UNL     1     -12.909 -33.897  29.855  1.00  0.00     0.000 C 
BRANCH   2   3
ATOM      3  C   UNL     1     -13.622 -33.851  31.214  1.00  0.00    -0.003 C 
ATOM      4  C   UNL     1     -12.707 -34.240  32.375  1.00  0.00     0.004 C 
ENDBRANCH   2   3
ENDBRANCH   1   2
BRANCH   1   5
ATOM      5  C   UNL     1     -12.915 -36.171  28.697  1.00  0.00     0.080 C 
BRANCH   5   6
ATOM      6  C   UNL     1     -13.374 -37.444  29.372  1.00  0.00     0.155 C 
ATOM      7  O   UNL     1     -13.717 -38.437  28.672  1.00  0.00    -0.295 OA
BRANCH   6   8
ATOM      8  C   UNL     1     -13.496 -37.557  30.839  1.00  0.00     0.039 C 
ATOM      9  C   UNL     1     -12.700 -38.317  31.591  1.00  0.00     0.012 C 
ENDBRANCH   6   8
ENDBRANCH   5   6
ENDBRANCH   1   5
TORSDOF 5
ENDMDL
MODEL 9
REMARK VINA RESULT:    -4.159      3.255      3.905
REMARK INTER + INTRA:          -5.622
REMARK INTER:                  -5.407
REMARK INTRA:                  -0.215
REMARK UNBOUND:                -0.247
REMARK SMILES C=CC(=O)CCCCC
REMARK SMILES IDX 6 1 7 2 8 3 9 4 5 5 3 6 4 7 2 8 1 9
REMARK H PARENT
REMARK Flexibility Score: inf
ROOT
ATOM      1  C   UNL     1     -13.210 -33.097  28.654  1.00  0.00     0.008 C 
ENDROOT
BRANCH   1   2
ATOM      2  C   UNL     1     -13.257 -34.074  27.467  1.00  0.00     0.000 C 
BRANCH   2   3
ATOM      3  C   UNL     1     -12.002 -34.955  27.379  1.00  0.00    -0.003 C 
ATOM      4  C   UNL     1     -11.398 -34.984  25.974  1.00  0.00     0.004 C 
ENDBRANCH   2   3
ENDBRANCH   1   2
BRANCH   1   5
ATOM      5  C   UNL     1     -12.485 -33.698  29.870  1.00  0.00     0.080 C 
BRANCH   5   6
ATOM      6  C   UNL     1     -13.413 -34.109  30.991  1.00  0.00     0.155 C 
ATOM      7  O   UNL     1     -13.430 -35.308  31.384  1.00  0.00    -0.295 OA
BRANCH   6   8
ATOM      8  C   UNL     1     -14.359 -33.162  31.617  1.00  0.00     0.039 C 
ATOM      9  C   UNL     1     -14.993 -33.400  32.764  1.00  0.00     0.012 C 
ENDBRANCH   6   8
ENDBRANCH   5   6
ENDBRANCH   1   5
TORSDOF 5
ENDMDL
