MODEL 1
REMARK VINA RESULT:    -3.411      0.000      0.000
REMARK INTER + INTRA:          -7.606
REMARK INTER:                  -6.203
REMARK INTRA:                  -1.403
REMARK UNBOUND:                -1.403
REMARK SMILES CCCCCCCCCCCCCCCC(=O)[O-]
REMARK SMILES IDX 9 1 10 2 11 3 12 4 13 5 14 6 15 7 16 8 17 9 18 10 8 11 7 12
REMARK SMILES IDX 6 13 5 14 4 15 3 16 2 17 1 18
REMARK H PARENT
REMARK Flexibility Score: inf
ROOT
ATOM      1  C   UNL     1      -9.093  15.577 -12.474  1.00  0.00     0.000 C 
ENDROOT
BRANCH   1   2
ATOM      2  C   UNL     1      -7.702  14.982 -12.759  1.00  0.00     0.000 C 
BRANCH   2   3
ATOM      3  C   UNL     1      -7.659  13.455 -12.603  1.00  0.00     0.000 C 
BRANCH   3   4
ATOM      4  C   UNL     1      -6.675  12.829 -13.602  1.00  0.00     0.000 C 
BRANCH   4   5
ATOM      5  C   UNL     1      -6.283  13.788 -14.741  1.00  0.00     0.000 C 
BRANCH   5   6
ATOM      6  C   UNL     1      -6.855  13.423 -16.122  1.00  0.00     0.006 C 
BRANCH   6   7
ATOM      7  C   UNL     1      -8.023  12.432 -16.043  1.00  0.00     0.053 C 
BRANCH   7   8
ATOM      8  C   UNL     1      -9.320  13.164 -15.891  1.00  0.00     0.041 C 
ATOM      9  O   UNL     1      -9.341  14.423 -15.904  1.00  0.00    -0.550 OA
ATOM     10  O   UNL     1     -10.510  12.455 -15.784  1.00  0.00    -0.550 OA
ENDBRANCH   7   8
ENDBRANCH   6   7
ENDBRANCH   5   6
ENDBRANCH   4   5
ENDBRANCH   3   4
ENDBRANCH   2   3
ENDBRANCH   1   2
BRANCH   1  11
ATOM     11  C   UNL     1      -9.345  16.969 -13.081  1.00  0.00     0.000 C 
BRANCH  11  12
ATOM     12  C   UNL     1      -8.120  17.526 -13.828  1.00  0.00    -0.000 C 
BRANCH  12  13
ATOM     13  C   UNL     1      -8.418  17.812 -15.309  1.00  0.00    -0.000 C 
BRANCH  13  14
ATOM     14  C   UNL     1      -7.358  18.722 -15.957  1.00  0.00    -0.000 C 
BRANCH  14  15
ATOM     15  C   UNL     1      -7.835  20.177 -16.116  1.00  0.00    -0.000 C 
BRANCH  15  16
ATOM     16  C   UNL     1      -7.436  21.123 -14.968  1.00  0.00    -0.000 C 
BRANCH  16  17
ATOM     17  C   UNL     1      -6.248  20.601 -14.147  1.00  0.00    -0.003 C 
ATOM     18  C   UNL     1      -6.317  21.096 -12.705  1.00  0.00     0.004 C 
ENDBRANCH  16  17
ENDBRANCH  15  16
ENDBRANCH  14  15
ENDBRANCH  13  14
ENDBRANCH  12  13
ENDBRANCH  11  12
ENDBRANCH   1  11
TORSDOF 14
ENDMDL
MODEL 2
REMARK VINA RESULT:    -3.356      2.760      6.427
REMARK INTER + INTRA:          -7.506
REMARK INTER:                  -6.413
REMARK INTRA:                  -1.093
REMARK UNBOUND:                -1.403
REMARK SMILES CCCCCCCCCCCCCCCC(=O)[O-]
REMARK SMILES IDX 9 1 10 2 11 3 12 4 13 5 14 6 15 7 16 8 17 9 18 10 8 11 7 12
REMARK SMILES IDX 6 13 5 14 4 15 3 16 2 17 1 18
REMARK H PARENT
REMARK Flexibility Score: inf
ROOT
ATOM      1  C   UNL     1      -8.483  15.862 -11.984  1.00  0.00     0.000 C 
ENDROOT
BRANCH   1   2
ATOM      2  C   UNL     1      -9.383  15.907 -13.233  1.00  0.00     0.000 C 
BRANCH   2   3
ATOM      3  C   UNL     1      -8.800  16.770 -14.361  1.00  0.00     0.000 C 
BRANCH   3   4
ATOM      4  C   UNL     1      -7.274  16.613 -14.439  1.00  0.00     0.000 C 
BRANCH   4   5
ATOM      5  C   UNL     1      -6.673  17.213 -15.724  1.00  0.00     0.000 C 
BRANCH   5   6
ATOM      6  C   UNL     1      -6.664  18.750 -15.780  1.00  0.00     0.006 C 
BRANCH   6   7
ATOM      7  C   UNL     1      -6.079  19.392 -14.516  1.00  0.00     0.053 C 
BRANCH   7   8
ATOM      8  C   UNL     1      -7.108  20.242 -13.837  1.00  0.00     0.041 C 
ATOM      9  O   UNL     1      -8.100  20.670 -14.482  1.00  0.00    -0.550 OA
ATOM     10  O   UNL     1      -6.996  20.518 -12.480  1.00  0.00    -0.550 OA
ENDBRANCH   7   8
ENDBRANCH   6   7
ENDBRANCH   5   6
ENDBRANCH   4   5
ENDBRANCH   3   4
ENDBRANCH   2   3
ENDBRANCH   1   2
BRANCH   1  11
ATOM     11  C   UNL     1      -7.791  14.511 -11.728  1.00  0.00     0.000 C 
BRANCH  11  12
ATOM     12  C   UNL     1      -7.781  13.599 -12.967  1.00  0.00    -0.000 C 
BRANCH  12  13
ATOM     13  C   UNL     1      -6.429  12.893 -13.164  1.00  0.00    -0.000 C 
BRANCH  13  14
ATOM     14  C   UNL     1      -6.180  12.501 -14.632  1.00  0.00    -0.000 C 
BRANCH  14  15
ATOM     15  C   UNL     1      -7.132  13.212 -15.611  1.00  0.00    -0.000 C 
BRANCH  15  16
ATOM     16  C   UNL     1      -8.301  12.350 -16.125  1.00  0.00    -0.000 C 
BRANCH  16  17
ATOM     17  C   UNL     1      -9.628  12.656 -15.416  1.00  0.00    -0.003 C 
ATOM     18  C   UNL     1     -10.770  11.837 -16.011  1.00  0.00     0.004 C 
ENDBRANCH  16  17
ENDBRANCH  15  16
ENDBRANCH  14  15
ENDBRANCH  13  14
ENDBRANCH  12  13
ENDBRANCH  11  12
ENDBRANCH   1  11
TORSDOF 14
ENDMDL
MODEL 3
REMARK VINA RESULT:    -2.371      2.938      6.492
REMARK INTER + INTRA:          -5.716
REMARK INTER:                  -3.871
REMARK INTRA:                  -1.845
REMARK UNBOUND:                -1.403
REMARK SMILES CCCCCCCCCCCCCCCC(=O)[O-]
REMARK SMILES IDX 9 1 10 2 11 3 12 4 13 5 14 6 15 7 16 8 17 9 18 10 8 11 7 12
REMARK SMILES IDX 6 13 5 14 4 15 3 16 2 17 1 18
REMARK H PARENT
REMARK Flexibility Score: inf
ROOT
ATOM      1  C   UNL     1      -7.870  14.028 -11.877  1.00  0.00     0.000 C 
ENDROOT
BRANCH   1   2
ATOM      2  C   UNL     1      -7.852  15.450 -12.469  1.00  0.00     0.000 C 
BRANCH   2   3
ATOM      3  C   UNL     1      -9.259  16.014 -12.717  1.00  0.00     0.000 C 
BRANCH   3   4
ATOM      4  C   UNL     1      -9.194  17.298 -13.556  1.00  0.00     0.000 C 
BRANCH   4   5
ATOM      5  C   UNL     1      -7.799  17.556 -14.155  1.00  0.00     0.000 C 
BRANCH   5   6
ATOM      6  C   UNL     1      -7.643  18.903 -14.882  1.00  0.00     0.006 C 
BRANCH   6   7
ATOM      7  C   UNL     1      -6.494  19.754 -14.326  1.00  0.00     0.053 C 
BRANCH   7   8
ATOM      8  C   UNL     1      -6.965  20.571 -13.164  1.00  0.00     0.041 C 
ATOM      9  O   UNL     1      -8.136  21.032 -13.147  1.00  0.00    -0.550 OA
ATOM     10  O   UNL     1      -6.126  20.781 -12.077  1.00  0.00    -0.550 OA
ENDBRANCH   7   8
ENDBRANCH   6   7
ENDBRANCH   5   6
ENDBRANCH   4   5
ENDBRANCH   3   4
ENDBRANCH   2   3
ENDBRANCH   1   2
BRANCH   1  11
ATOM     11  C   UNL     1      -7.268  12.937 -12.782  1.00  0.00     0.000 C 
BRANCH  11  12
ATOM     12  C   UNL     1      -6.009  13.408 -13.530  1.00  0.00    -0.000 C 
BRANCH  12  13
ATOM     13  C   UNL     1      -6.152  13.284 -15.056  1.00  0.00    -0.000 C 
BRANCH  13  14
ATOM     14  C   UNL     1      -6.808  14.526 -15.687  1.00  0.00    -0.000 C 
BRANCH  14  15
ATOM     15  C   UNL     1      -8.263  14.276 -16.125  1.00  0.00    -0.000 C 
BRANCH  15  16
ATOM     16  C   UNL     1      -8.716  12.805 -16.075  1.00  0.00    -0.000 C 
BRANCH  16  17
ATOM     17  C   UNL     1      -9.987  12.598 -15.238  1.00  0.00    -0.003 C 
ATOM     18  C   UNL     1     -11.139  12.098 -16.105  1.00  0.00     0.004 C 
ENDBRANCH  16  17
ENDBRANCH  15  16
ENDBRANCH  14  15
ENDBRANCH  13  14
ENDBRANCH  12  13
ENDBRANCH  11  12
ENDBRANCH   1  11
TORSDOF 14
ENDMDL
MODEL 4
REMARK VINA RESULT:    -2.224      1.991      3.123
REMARK INTER + INTRA:          -5.448
REMARK INTER:                  -4.994
REMARK INTRA:                  -0.455
REMARK UNBOUND:                -1.403
REMARK SMILES CCCCCCCCCCCCCCCC(=O)[O-]
REMARK SMILES IDX 9 1 10 2 11 3 12 4 13 5 14 6 15 7 16 8 17 9 18 10 8 11 7 12
REMARK SMILES IDX 6 13 5 14 4 15 3 16 2 17 1 18
REMARK H PARENT
REMARK Flexibility Score: inf
ROOT
ATOM      1  C   UNL     1      -8.937  16.287 -13.947  1.00  0.00     0.000 C 
ENDROOT
BRANCH   1   2
ATOM      2  C   UNL     1      -8.826  16.819 -15.388  1.00  0.00     0.000 C 
BRANCH   2   3
ATOM      3  C   UNL     1      -7.374  17.051 -15.830  1.00  0.00     0.000 C 
BRANCH   3   4
ATOM      4  C   UNL     1      -6.438  16.001 -15.214  1.00  0.00     0.000 C 
BRANCH   4   5
ATOM      5  C   UNL     1      -6.228  14.776 -16.123  1.00  0.00     0.000 C 
BRANCH   5   6
ATOM      6  C   UNL     1      -6.217  13.421 -15.394  1.00  0.00     0.006 C 
BRANCH   6   7
ATOM      7  C   UNL     1      -7.406  13.245 -14.441  1.00  0.00     0.053 C 
BRANCH   7   8
ATOM      8  C   UNL     1      -6.937  13.211 -13.020  1.00  0.00     0.041 C 
ATOM      9  O   UNL     1      -5.875  12.605 -12.719  1.00  0.00    -0.550 OA
ATOM     10  O   UNL     1      -7.645  13.889 -12.037  1.00  0.00    -0.550 OA
ENDBRANCH   7   8
ENDBRANCH   6   7
ENDBRANCH   5   6
ENDBRANCH   4   5
ENDBRANCH   3   4
ENDBRANCH   2   3
ENDBRANCH   1   2
BRANCH   1  11
ATOM     11  C   UNL     1      -9.334  17.337 -12.892  1.00  0.00     0.000 C 
BRANCH  11  12
ATOM     12  C   UNL     1      -8.213  18.353 -12.609  1.00  0.00    -0.000 C 
BRANCH  12  13
ATOM     13  C   UNL     1      -8.347  19.625 -13.461  1.00  0.00    -0.000 C 
BRANCH  13  14
ATOM     14  C   UNL     1      -7.486  20.784 -12.926  1.00  0.00    -0.000 C 
BRANCH  14  15
ATOM     15  C   UNL     1      -6.119  20.888 -13.629  1.00  0.00    -0.000 C 
BRANCH  15  16
ATOM     16  C   UNL     1      -6.045  20.214 -15.012  1.00  0.00    -0.000 C 
BRANCH  16  17
ATOM     17  C   UNL     1      -6.686  21.057 -16.124  1.00  0.00    -0.003 C 
ATOM     18  C   UNL     1      -8.209  20.995 -16.053  1.00  0.00     0.004 C 
ENDBRANCH  16  17
ENDBRANCH  15  16
ENDBRANCH  14  15
ENDBRANCH  13  14
ENDBRANCH  12  13
ENDBRANCH  11  12
ENDBRANCH   1  11
TORSDOF 14
ENDMDL
MODEL 5
REMARK VINA RESULT:    -2.215      2.891      5.805
REMARK INTER + INTRA:          -5.431
REMARK INTER:                  -4.194
REMARK INTRA:                  -1.237
REMARK UNBOUND:                -1.403
REMARK SMILES CCCCCCCCCCCCCCCC(=O)[O-]
REMARK SMILES IDX 9 1 10 2 11 3 12 4 13 5 14 6 15 7 16 8 17 9 18 10 8 11 7 12
REMARK SMILES IDX 6 13 5 14 4 15 3 16 2 17 1 18
REMARK H PARENT
REMARK Flexibility Score: inf
ROOT
ATOM      1  C   UNL     1      -9.299  13.151 -15.423  1.00  0.00     0.000 C 
ENDROOT
BRANCH   1   2
ATOM      2  C   UNL     1      -9.043  14.628 -15.775  1.00  0.00     0.000 C 
BRANCH   2   3
ATOM      3  C   UNL     1      -7.569  14.922 -16.092  1.00  0.00     0.000 C 
BRANCH   3   4
ATOM      4  C   UNL     1      -7.230  16.393 -15.809  1.00  0.00     0.000 C 
BRANCH   4   5
ATOM      5  C   UNL     1      -6.180  16.565 -14.696  1.00  0.00     0.000 C 
BRANCH   5   6
ATOM      6  C   UNL     1      -6.077  17.985 -14.114  1.00  0.00     0.006 C 
BRANCH   6   7
ATOM      7  C   UNL     1      -6.516  19.071 -15.104  1.00  0.00     0.053 C 
BRANCH   7   8
ATOM      8  C   UNL     1      -7.246  20.165 -14.390  1.00  0.00     0.041 C 
ATOM      9  O   UNL     1      -7.072  20.340 -13.155  1.00  0.00    -0.550 OA
ATOM     10  O   UNL     1      -8.078  21.023 -15.097  1.00  0.00    -0.550 OA
ENDBRANCH   7   8
ENDBRANCH   6   7
ENDBRANCH   5   6
ENDBRANCH   4   5
ENDBRANCH   3   4
ENDBRANCH   2   3
ENDBRANCH   1   2
BRANCH   1  11
ATOM     11  C   UNL     1      -8.180  12.178 -15.839  1.00  0.00     0.000 C 
BRANCH  11  12
ATOM     12  C   UNL     1      -6.819  12.529 -15.213  1.00  0.00    -0.000 C 
BRANCH  12  13
ATOM     13  C   UNL     1      -6.746  12.160 -13.723  1.00  0.00    -0.000 C 
BRANCH  13  14
ATOM     14  C   UNL     1      -6.648  13.399 -12.814  1.00  0.00    -0.000 C 
BRANCH  14  15
ATOM     15  C   UNL     1      -8.026  13.937 -12.386  1.00  0.00    -0.000 C 
BRANCH  15  16
ATOM     16  C   UNL     1      -8.079  15.452 -12.117  1.00  0.00    -0.000 C 
BRANCH  16  17
ATOM     17  C   UNL     1      -9.446  16.071 -12.443  1.00  0.00    -0.003 C 
ATOM     18  C   UNL     1      -9.317  17.561 -12.747  1.00  0.00     0.004 C 
ENDBRANCH  16  17
ENDBRANCH  15  16
ENDBRANCH  14  15
ENDBRANCH  13  14
ENDBRANCH  12  13
ENDBRANCH  11  12
ENDBRANCH   1  11
TORSDOF 14
ENDMDL
MODEL 6
REMARK VINA RESULT:    -2.098      2.003      3.423
REMARK INTER + INTRA:          -5.218
REMARK INTER:                  -5.500
REMARK INTRA:                   0.282
REMARK UNBOUND:                -1.403
REMARK SMILES CCCCCCCCCCCCCCCC(=O)[O-]
REMARK SMILES IDX 9 1 10 2 11 3 12 4 13 5 14 6 15 7 16 8 17 9 18 10 8 11 7 12
REMARK SMILES IDX 6 13 5 14 4 15 3 16 2 17 1 18
REMARK H PARENT
REMARK Flexibility Score: inf
ROOT
ATOM      1  C   UNL     1      -8.949  14.143 -15.126  1.00  0.00     0.000 C 
ENDROOT
BRANCH   1   2
ATOM      2  C   UNL     1      -8.485  12.676 -15.081  1.00  0.00     0.000 C 
BRANCH   2   3
ATOM      3  C   UNL     1      -7.023  12.522 -14.637  1.00  0.00     0.000 C 
BRANCH   3   4
ATOM      4  C   UNL     1      -6.719  13.425 -13.431  1.00  0.00     0.000 C 
BRANCH   4   5
ATOM      5  C   UNL     1      -7.751  13.281 -12.297  1.00  0.00     0.000 C 
BRANCH   5   6
ATOM      6  C   UNL     1      -8.166  14.601 -11.625  1.00  0.00     0.006 C 
BRANCH   6   7
ATOM      7  C   UNL     1      -7.898  15.829 -12.504  1.00  0.00     0.053 C 
BRANCH   7   8
ATOM      8  C   UNL     1      -9.078  16.751 -12.488  1.00  0.00     0.041 C 
ATOM      9  O   UNL     1      -8.920  17.976 -12.246  1.00  0.00    -0.550 OA
ATOM     10  O   UNL     1     -10.343  16.265 -12.790  1.00  0.00    -0.550 OA
ENDBRANCH   7   8
ENDBRANCH   6   7
ENDBRANCH   5   6
ENDBRANCH   4   5
ENDBRANCH   3   4
ENDBRANCH   2   3
ENDBRANCH   1   2
BRANCH   1  11
ATOM     11  C   UNL     1      -8.190  15.037 -16.125  1.00  0.00     0.000 C 
BRANCH  11  12
ATOM     12  C   UNL     1      -6.666  15.006 -15.918  1.00  0.00    -0.000 C 
BRANCH  12  13
ATOM     13  C   UNL     1      -6.018  16.385 -16.123  1.00  0.00    -0.000 C 
BRANCH  13  14
ATOM     14  C   UNL     1      -6.066  17.251 -14.851  1.00  0.00    -0.000 C 
BRANCH  14  15
ATOM     15  C   UNL     1      -6.065  18.761 -15.154  1.00  0.00    -0.000 C 
BRANCH  15  16
ATOM     16  C   UNL     1      -7.429  19.343 -15.568  1.00  0.00    -0.000 C 
BRANCH  16  17
ATOM     17  C   UNL     1      -7.943  20.415 -14.596  1.00  0.00    -0.003 C 
ATOM     18  C   UNL     1      -7.043  20.521 -13.369  1.00  0.00     0.004 C 
ENDBRANCH  16  17
ENDBRANCH  15  16
ENDBRANCH  14  15
ENDBRANCH  13  14
ENDBRANCH  12  13
ENDBRANCH  11  12
ENDBRANCH   1  11
TORSDOF 14
ENDMDL
MODEL 7
REMARK VINA RESULT:    -2.052      1.850      6.171
REMARK INTER + INTRA:          -5.134
REMARK INTER:                  -4.641
REMARK INTRA:                  -0.493
REMARK UNBOUND:                -1.403
REMARK SMILES CCCCCCCCCCCCCCCC(=O)[O-]
REMARK SMILES IDX 9 1 10 2 11 3 12 4 13 5 14 6 15 7 16 8 17 9 18 10 8 11 7 12
REMARK SMILES IDX 6 13 5 14 4 15 3 16 2 17 1 18
REMARK H PARENT
REMARK Flexibility Score: inf
ROOT
ATOM      1  C   UNL     1      -9.100  15.923 -12.273  1.00  0.00     0.000 C 
ENDROOT
BRANCH   1   2
ATOM      2  C   UNL     1      -9.559  16.964 -13.311  1.00  0.00     0.000 C 
BRANCH   2   3
ATOM      3  C   UNL     1      -9.282  18.410 -12.873  1.00  0.00     0.000 C 
BRANCH   3   4
ATOM      4  C   UNL     1      -7.773  18.695 -12.847  1.00  0.00     0.000 C 
BRANCH   4   5
ATOM      5  C   UNL     1      -7.407  20.049 -13.483  1.00  0.00     0.000 C 
BRANCH   5   6
ATOM      6  C   UNL     1      -8.449  20.608 -14.466  1.00  0.00     0.006 C 
BRANCH   6   7
ATOM      7  C   UNL     1      -8.125  20.284 -15.930  1.00  0.00     0.053 C 
BRANCH   7   8
ATOM      8  C   UNL     1      -7.764  18.839 -16.078  1.00  0.00     0.041 C 
ATOM      9  O   UNL     1      -6.555  18.490 -16.125  1.00  0.00    -0.550 OA
ATOM     10  O   UNL     1      -8.762  17.874 -16.114  1.00  0.00    -0.550 OA
ENDBRANCH   7   8
ENDBRANCH   6   7
ENDBRANCH   5   6
ENDBRANCH   4   5
ENDBRANCH   3   4
ENDBRANCH   2   3
ENDBRANCH   1   2
BRANCH   1  11
ATOM     11  C   UNL     1      -7.912  15.046 -12.710  1.00  0.00     0.000 C 
BRANCH  11  12
ATOM     12  C   UNL     1      -7.221  15.566 -13.983  1.00  0.00    -0.000 C 
BRANCH  12  13
ATOM     13  C   UNL     1      -5.933  14.792 -14.309  1.00  0.00    -0.000 C 
BRANCH  13  14
ATOM     14  C   UNL     1      -6.172  13.276 -14.425  1.00  0.00    -0.000 C 
BRANCH  14  15
ATOM     15  C   UNL     1      -6.444  12.822 -15.871  1.00  0.00    -0.000 C 
BRANCH  15  16
ATOM     16  C   UNL     1      -7.857  12.264 -16.124  1.00  0.00    -0.000 C 
BRANCH  16  17
ATOM     17  C   UNL     1      -8.955  13.070 -15.415  1.00  0.00    -0.003 C 
ATOM     18  C   UNL     1     -10.312  12.382 -15.543  1.00  0.00     0.004 C 
ENDBRANCH  16  17
ENDBRANCH  15  16
ENDBRANCH  14  15
ENDBRANCH  13  14
ENDBRANCH  12  13
ENDBRANCH  11  12
ENDBRANCH   1  11
TORSDOF 14
ENDMDL
MODEL 8
REMARK VINA RESULT:    -1.501      1.036      1.866
REMARK INTER + INTRA:          -4.133
REMARK INTER:                  -3.767
REMARK INTRA:                  -0.367
REMARK UNBOUND:                -1.403
REMARK SMILES CCCCCCCCCCCCCCCC(=O)[O-]
REMARK SMILES IDX 9 1 10 2 11 3 12 4 13 5 14 6 15 7 16 8 17 9 18 10 8 11 7 12
REMARK SMILES IDX 6 13 5 14 4 15 3 16 2 17 1 18
REMARK H PARENT
REMARK Flexibility Score: inf
ROOT
ATOM      1  C   UNL     1      -9.485  16.462 -12.576  1.00  0.00     0.000 C 
ENDROOT
BRANCH   1   2
ATOM      2  C   UNL     1      -8.756  15.138 -12.279  1.00  0.00     0.000 C 
BRANCH   2   3
ATOM      3  C   UNL     1      -7.955  14.613 -13.480  1.00  0.00     0.000 C 
BRANCH   3   4
ATOM      4  C   UNL     1      -6.896  13.596 -13.029  1.00  0.00     0.000 C 
BRANCH   4   5
ATOM      5  C   UNL     1      -6.474  12.630 -14.152  1.00  0.00     0.000 C 
BRANCH   5   6
ATOM      6  C   UNL     1      -6.856  13.079 -15.573  1.00  0.00     0.006 C 
BRANCH   6   7
ATOM      7  C   UNL     1      -8.088  12.349 -16.120  1.00  0.00     0.053 C 
BRANCH   7   8
ATOM      8  C   UNL     1      -9.327  13.150 -15.864  1.00  0.00     0.041 C 
ATOM      9  O   UNL     1      -9.349  14.381 -16.125  1.00  0.00    -0.550 OA
ATOM     10  O   UNL     1     -10.472  12.526 -15.385  1.00  0.00    -0.550 OA
ENDBRANCH   7   8
ENDBRANCH   6   7
ENDBRANCH   5   6
ENDBRANCH   4   5
ENDBRANCH   3   4
ENDBRANCH   2   3
ENDBRANCH   1   2
BRANCH   1  11
ATOM     11  C   UNL     1      -9.271  17.021 -13.995  1.00  0.00     0.000 C 
BRANCH  11  12
ATOM     12  C   UNL     1      -9.149  18.554 -14.022  1.00  0.00    -0.000 C 
BRANCH  12  13
ATOM     13  C   UNL     1      -8.373  19.102 -12.813  1.00  0.00    -0.000 C 
BRANCH  13  14
ATOM     14  C   UNL     1      -7.643  20.419 -13.131  1.00  0.00    -0.000 C 
BRANCH  14  15
ATOM     15  C   UNL     1      -7.412  20.627 -14.639  1.00  0.00    -0.000 C 
BRANCH  15  16
ATOM     16  C   UNL     1      -6.068  20.096 -15.172  1.00  0.00    -0.000 C 
BRANCH  16  17
ATOM     17  C   UNL     1      -5.875  18.594 -14.920  1.00  0.00    -0.003 C 
ATOM     18  C   UNL     1      -6.341  17.771 -16.119  1.00  0.00     0.004 C 
ENDBRANCH  16  17
ENDBRANCH  15  16
ENDBRANCH  14  15
ENDBRANCH  13  14
ENDBRANCH  12  13
ENDBRANCH  11  12
ENDBRANCH   1  11
TORSDOF 14
ENDMDL
