MODEL 1
REMARK VINA RESULT:    -2.905      0.000      0.000
REMARK INTER + INTRA:          -3.453
REMARK INTER:                  -3.415
REMARK INTRA:                  -0.038
REMARK UNBOUND:                -0.038
REMARK SMILES CCCCC(=O)[O-]
REMARK SMILES IDX 4 1 5 2 6 3 7 4 3 5 2 6 1 7
REMARK H PARENT
REMARK Flexibility Score: inf
ROOT
ATOM      1  C   UNL     1      24.791 -14.979  26.515  1.00  0.00     0.053 C 
ENDROOT
BRANCH   1   2
ATOM      2  C   UNL     1      23.322 -15.228  26.639  1.00  0.00     0.041 C 
ATOM      3  O   UNL     1      22.619 -14.509  27.398  1.00  0.00    -0.550 OA
ATOM      4  O   UNL     1      22.718 -16.222  25.879  1.00  0.00    -0.550 OA
ENDBRANCH   1   2
BRANCH   1   5
ATOM      5  C   UNL     1      25.548 -16.301  26.360  1.00  0.00     0.006 C 
BRANCH   5   6
ATOM      6  C   UNL     1      26.602 -16.205  25.251  1.00  0.00    -0.003 C 
ATOM      7  C   UNL     1      26.706 -17.516  24.476  1.00  0.00     0.004 C 
ENDBRANCH   5   6
ENDBRANCH   1   5
TORSDOF 3
ENDMDL
MODEL 2
REMARK VINA RESULT:    -2.873      1.071      1.134
REMARK INTER + INTRA:          -3.415
REMARK INTER:                  -3.362
REMARK INTRA:                  -0.053
REMARK UNBOUND:                -0.038
REMARK SMILES CCCCC(=O)[O-]
REMARK SMILES IDX 4 1 5 2 6 3 7 4 3 5 2 6 1 7
REMARK H PARENT
REMARK Flexibility Score: inf
ROOT
ATOM      1  C   UNL     1      24.301 -16.266  26.357  1.00  0.00     0.053 C 
ENDROOT
BRANCH   1   2
ATOM      2  C   UNL     1      23.758 -14.877  26.463  1.00  0.00     0.041 C 
ATOM      3  O   UNL     1      24.451 -13.963  26.983  1.00  0.00    -0.550 OA
ATOM      4  O   UNL     1      22.504 -14.579  25.943  1.00  0.00    -0.550 OA
ENDBRANCH   1   2
BRANCH   1   5
ATOM      5  C   UNL     1      25.815 -16.269  26.585  1.00  0.00     0.006 C 
BRANCH   5   6
ATOM      6  C   UNL     1      26.573 -16.232  25.252  1.00  0.00    -0.003 C 
ATOM      7  C   UNL     1      26.673 -17.625  24.637  1.00  0.00     0.004 C 
ENDBRANCH   5   6
ENDBRANCH   1   5
TORSDOF 3
ENDMDL
MODEL 3
REMARK VINA RESULT:    -2.831     14.620     15.959
REMARK INTER + INTRA:          -3.366
REMARK INTER:                  -3.347
REMARK INTRA:                  -0.019
REMARK UNBOUND:                -0.038
REMARK SMILES CCCCC(=O)[O-]
REMARK SMILES IDX 4 1 5 2 6 3 7 4 3 5 2 6 1 7
REMARK H PARENT
REMARK Flexibility Score: inf
ROOT
ATOM      1  C   UNL     1      16.960  -3.792  20.448  1.00  0.00     0.053 C 
ENDROOT
BRANCH   1   2
ATOM      2  C   UNL     1      17.028  -5.253  20.138  1.00  0.00     0.041 C 
ATOM      3  O   UNL     1      18.061  -5.741  19.609  1.00  0.00    -0.550 OA
ATOM      4  O   UNL     1      15.969  -6.087  20.478  1.00  0.00    -0.550 OA
ENDBRANCH   1   2
BRANCH   1   5
ATOM      5  C   UNL     1      15.522  -3.379  20.776  1.00  0.00     0.006 C 
BRANCH   5   6
ATOM      6  C   UNL     1      15.392  -1.854  20.854  1.00  0.00    -0.003 C 
ATOM      7  C   UNL     1      15.421  -1.372  22.302  1.00  0.00     0.004 C 
ENDBRANCH   5   6
ENDBRANCH   1   5
TORSDOF 3
ENDMDL
MODEL 4
REMARK VINA RESULT:    -2.824     14.402     15.220
REMARK INTER + INTRA:          -3.358
REMARK INTER:                  -3.338
REMARK INTRA:                  -0.020
REMARK UNBOUND:                -0.038
REMARK SMILES CCCCC(=O)[O-]
REMARK SMILES IDX 4 1 5 2 6 3 7 4 3 5 2 6 1 7
REMARK H PARENT
REMARK Flexibility Score: inf
ROOT
ATOM      1  C   UNL     1      15.786  -6.039  20.657  1.00  0.00     0.053 C 
ENDROOT
BRANCH   1   2
ATOM      2  C   UNL     1      16.890  -5.103  20.282  1.00  0.00     0.041 C 
ATOM      3  O   UNL     1      17.893  -5.527  19.650  1.00  0.00    -0.550 OA
ATOM      4  O   UNL     1      16.790  -3.751  20.587  1.00  0.00    -0.550 OA
ENDBRANCH   1   2
BRANCH   1   5
ATOM      5  C   UNL     1      14.666  -5.286  21.380  1.00  0.00     0.006 C 
BRANCH   5   6
ATOM      6  C   UNL     1      13.627  -6.259  21.950  1.00  0.00    -0.003 C 
ATOM      7  C   UNL     1      13.250  -5.886  23.381  1.00  0.00     0.004 C 
ENDBRANCH   5   6
ENDBRANCH   1   5
TORSDOF 3
ENDMDL
MODEL 5
REMARK VINA RESULT:    -2.820      2.765      3.226
REMARK INTER + INTRA:          -3.353
REMARK INTER:                  -3.251
REMARK INTRA:                  -0.102
REMARK UNBOUND:                -0.038
REMARK SMILES CCCCC(=O)[O-]
REMARK SMILES IDX 4 1 5 2 6 3 7 4 3 5 2 6 1 7
REMARK H PARENT
REMARK Flexibility Score: inf
ROOT
ATOM      1  C   UNL     1      22.889 -14.605  26.407  1.00  0.00     0.053 C 
ENDROOT
BRANCH   1   2
ATOM      2  C   UNL     1      24.284 -14.152  26.696  1.00  0.00     0.041 C 
ATOM      3  O   UNL     1      24.485 -13.107  27.368  1.00  0.00    -0.550 OA
ATOM      4  O   UNL     1      25.366 -14.912  26.264  1.00  0.00    -0.550 OA
ENDBRANCH   1   2
BRANCH   1   5
ATOM      5  C   UNL     1      22.372 -15.504  27.534  1.00  0.00     0.006 C 
BRANCH   5   6
ATOM      6  C   UNL     1      22.514 -16.985  27.166  1.00  0.00    -0.003 C 
ATOM      7  C   UNL     1      22.452 -17.186  25.654  1.00  0.00     0.004 C 
ENDBRANCH   5   6
ENDBRANCH   1   5
TORSDOF 3
ENDMDL
MODEL 6
REMARK VINA RESULT:    -2.808      7.139      7.830
REMARK INTER + INTRA:          -3.339
REMARK INTER:                  -3.240
REMARK INTRA:                  -0.100
REMARK UNBOUND:                -0.038
REMARK SMILES CCCCC(=O)[O-]
REMARK SMILES IDX 4 1 5 2 6 3 7 4 3 5 2 6 1 7
REMARK H PARENT
REMARK Flexibility Score: inf
ROOT
ATOM      1  C   UNL     1      28.887 -14.131  30.842  1.00  0.00     0.053 C 
ENDROOT
BRANCH   1   2
ATOM      2  C   UNL     1      28.435 -15.539  31.065  1.00  0.00     0.041 C 
ATOM      3  O   UNL     1      28.376 -16.345  30.100  1.00  0.00    -0.550 OA
ATOM      4  O   UNL     1      28.126 -15.976  32.347  1.00  0.00    -0.550 OA
ENDBRANCH   1   2
BRANCH   1   5
ATOM      5  C   UNL     1      30.328 -13.946  31.325  1.00  0.00     0.006 C 
BRANCH   5   6
ATOM      6  C   UNL     1      30.383 -13.035  32.557  1.00  0.00    -0.003 C 
ATOM      7  C   UNL     1      29.093 -12.234  32.708  1.00  0.00     0.004 C 
ENDBRANCH   5   6
ENDBRANCH   1   5
TORSDOF 3
ENDMDL
MODEL 7
REMARK VINA RESULT:    -2.798      4.571      5.908
REMARK INTER + INTRA:          -3.327
REMARK INTER:                  -3.228
REMARK INTRA:                  -0.099
REMARK UNBOUND:                -0.038
REMARK SMILES CCCCC(=O)[O-]
REMARK SMILES IDX 4 1 5 2 6 3 7 4 3 5 2 6 1 7
REMARK H PARENT
REMARK Flexibility Score: inf
ROOT
ATOM      1  C   UNL     1      28.565 -18.989  24.336  1.00  0.00     0.053 C 
ENDROOT
BRANCH   1   2
ATOM      2  C   UNL     1      29.697 -18.721  25.275  1.00  0.00     0.041 C 
ATOM      3  O   UNL     1      29.466 -18.387  26.467  1.00  0.00    -0.550 OA
ATOM      4  O   UNL     1      31.010 -18.888  24.849  1.00  0.00    -0.550 OA
ENDBRANCH   1   2
BRANCH   1   5
ATOM      5  C   UNL     1      27.226 -18.666  25.003  1.00  0.00     0.006 C 
BRANCH   5   6
ATOM      6  C   UNL     1      26.635 -17.364  24.449  1.00  0.00    -0.003 C 
ATOM      7  C   UNL     1      26.375 -16.357  25.566  1.00  0.00     0.004 C 
ENDBRANCH   5   6
ENDBRANCH   1   5
TORSDOF 3
ENDMDL
MODEL 8
REMARK VINA RESULT:    -2.759      2.265      3.182
REMARK INTER + INTRA:          -3.282
REMARK INTER:                  -3.221
REMARK INTRA:                  -0.060
REMARK UNBOUND:                -0.038
REMARK SMILES CCCCC(=O)[O-]
REMARK SMILES IDX 4 1 5 2 6 3 7 4 3 5 2 6 1 7
REMARK H PARENT
REMARK Flexibility Score: inf
ROOT
ATOM      1  C   UNL     1      22.419 -14.902  27.318  1.00  0.00     0.053 C 
ENDROOT
BRANCH   1   2
ATOM      2  C   UNL     1      21.765 -15.839  28.281  1.00  0.00     0.041 C 
ATOM      3  O   UNL     1      21.963 -17.079  28.192  1.00  0.00    -0.550 OA
ATOM      4  O   UNL     1      20.973 -15.340  29.309  1.00  0.00    -0.550 OA
ENDBRANCH   1   2
BRANCH   1   5
ATOM      5  C   UNL     1      23.384 -15.660  26.401  1.00  0.00     0.006 C 
BRANCH   5   6
ATOM      6  C   UNL     1      24.785 -15.038  26.441  1.00  0.00    -0.003 C 
ATOM      7  C   UNL     1      24.712 -13.531  26.667  1.00  0.00     0.004 C 
ENDBRANCH   5   6
ENDBRANCH   1   5
TORSDOF 3
ENDMDL
MODEL 9
REMARK VINA RESULT:    -2.734     19.755     20.417
REMARK INTER + INTRA:          -3.252
REMARK INTER:                  -3.170
REMARK INTRA:                  -0.081
REMARK UNBOUND:                -0.038
REMARK SMILES CCCCC(=O)[O-]
REMARK SMILES IDX 4 1 5 2 6 3 7 4 3 5 2 6 1 7
REMARK H PARENT
REMARK Flexibility Score: inf
ROOT
ATOM      1  C   UNL     1      16.179  -1.799  15.254  1.00  0.00     0.053 C 
ENDROOT
BRANCH   1   2
ATOM      2  C   UNL     1      14.808  -1.501  14.737  1.00  0.00     0.041 C 
ATOM      3  O   UNL     1      13.820  -2.171  15.138  1.00  0.00    -0.550 OA
ATOM      4  O   UNL     1      14.612  -0.451  13.848  1.00  0.00    -0.550 OA
ENDBRANCH   1   2
BRANCH   1   5
ATOM      5  C   UNL     1      17.079  -0.566  15.130  1.00  0.00     0.006 C 
BRANCH   5   6
ATOM      6  C   UNL     1      18.124  -0.756  14.024  1.00  0.00    -0.003 C 
ATOM      7  C   UNL     1      18.326  -2.235  13.706  1.00  0.00     0.004 C 
ENDBRANCH   5   6
ENDBRANCH   1   5
TORSDOF 3
ENDMDL
