MODEL 1
REMARK VINA RESULT:    -5.956      0.000      0.000
REMARK INTER + INTRA:          -5.956
REMARK INTER:                  -5.956
REMARK INTRA:                   0.000
REMARK UNBOUND:                 0.000
REMARK SMILES CC(C)=C1CC[C@@H](C)CC1=O
REMARK SMILES IDX 8 1 7 2 6 3 5 4 4 5 2 6 1 7 3 8 10 9 11 10 9 11
REMARK H PARENT
REMARK Flexibility Score: inf
ROOT
ATOM      1  C   UNL     1      -7.297  20.189  65.356  1.00  0.00     0.008 C 
ATOM      2  C   UNL     1      -7.031  20.240  66.865  1.00  0.00    -0.006 C 
ATOM      3  C   UNL     1      -7.597  18.990  67.557  1.00  0.00     0.008 C 
ATOM      4  C   UNL     1      -7.251  18.975  69.052  1.00  0.00     0.039 C 
ATOM      5  C   UNL     1      -7.649  20.266  69.756  1.00  0.00    -0.006 C 
ATOM      6  C   UNL     1      -8.037  20.268  71.066  1.00  0.00    -0.070 C 
ATOM      7  C   UNL     1      -8.488  21.533  71.759  1.00  0.00     0.039 C 
ATOM      8  C   UNL     1      -8.069  18.993  71.877  1.00  0.00     0.039 C 
ATOM      9  C   UNL     1      -7.479  21.523  68.969  1.00  0.00     0.159 C 
ATOM     10  O   UNL     1      -7.184  22.613  69.530  1.00  0.00    -0.295 OA
ATOM     11  C   UNL     1      -7.650  21.506  67.477  1.00  0.00     0.084 C 
ENDROOT
TORSDOF 0
ENDMDL
MODEL 2
REMARK VINA RESULT:    -5.914      1.872      4.700
REMARK INTER + INTRA:          -5.914
REMARK INTER:                  -5.914
REMARK INTRA:                   0.000
REMARK UNBOUND:                 0.000
REMARK SMILES CC(C)=C1CC[C@@H](C)CC1=O
REMARK SMILES IDX 8 1 7 2 6 3 5 4 4 5 2 6 1 7 3 8 10 9 11 10 9 11
REMARK H PARENT
REMARK Flexibility Score: inf
ROOT
ATOM      1  C   UNL     1      -7.872  20.238  71.986  1.00  0.00     0.008 C 
ATOM      2  C   UNL     1      -7.430  21.014  70.740  1.00  0.00    -0.006 C 
ATOM      3  C   UNL     1      -8.002  22.441  70.759  1.00  0.00     0.008 C 
ATOM      4  C   UNL     1      -7.488  23.264  69.572  1.00  0.00     0.039 C 
ATOM      5  C   UNL     1      -7.706  22.564  68.237  1.00  0.00    -0.006 C 
ATOM      6  C   UNL     1      -7.939  23.274  67.094  1.00  0.00    -0.070 C 
ATOM      7  C   UNL     1      -8.213  22.589  65.774  1.00  0.00     0.039 C 
ATOM      8  C   UNL     1      -7.970  24.785  67.101  1.00  0.00     0.039 C 
ATOM      9  C   UNL     1      -7.537  21.081  68.239  1.00  0.00     0.159 C 
ATOM     10  O   UNL     1      -7.100  20.470  67.226  1.00  0.00    -0.295 OA
ATOM     11  C   UNL     1      -7.880  20.285  69.465  1.00  0.00     0.084 C 
ENDROOT
TORSDOF 0
ENDMDL
MODEL 3
REMARK VINA RESULT:    -5.845      1.346      4.361
REMARK INTER + INTRA:          -5.845
REMARK INTER:                  -5.845
REMARK INTRA:                   0.000
REMARK UNBOUND:                 0.000
REMARK SMILES CC(C)=C1CC[C@@H](C)CC1=O
REMARK SMILES IDX 8 1 7 2 6 3 5 4 4 5 2 6 1 7 3 8 10 9 11 10 9 11
REMARK H PARENT
REMARK Flexibility Score: inf
ROOT
ATOM      1  C   UNL     1      -9.111  21.218  74.006  1.00  0.00     0.008 C 
ATOM      2  C   UNL     1      -9.066  20.870  72.514  1.00  0.00    -0.006 C 
ATOM      3  C   UNL     1      -8.008  19.789  72.241  1.00  0.00     0.008 C 
ATOM      4  C   UNL     1      -8.019  19.355  70.770  1.00  0.00     0.039 C 
ATOM      5  C   UNL     1      -7.911  20.534  69.812  1.00  0.00    -0.006 C 
ATOM      6  C   UNL     1      -7.286  20.411  68.604  1.00  0.00    -0.070 C 
ATOM      7  C   UNL     1      -7.123  21.589  67.670  1.00  0.00     0.039 C 
ATOM      8  C   UNL     1      -6.691  19.095  68.159  1.00  0.00     0.039 C 
ATOM      9  C   UNL     1      -8.624  21.780  70.222  1.00  0.00     0.159 C 
ATOM     10  O   UNL     1      -9.125  22.560  69.368  1.00  0.00    -0.295 OA
ATOM     11  C   UNL     1      -8.764  22.123  71.678  1.00  0.00     0.084 C 
ENDROOT
TORSDOF 0
ENDMDL
MODEL 4
REMARK VINA RESULT:    -5.699      2.016      3.211
REMARK INTER + INTRA:          -5.699
REMARK INTER:                  -5.699
REMARK INTRA:                   0.000
REMARK UNBOUND:                 0.000
REMARK SMILES CC(C)=C1CC[C@@H](C)CC1=O
REMARK SMILES IDX 8 1 7 2 6 3 5 4 4 5 2 6 1 7 3 8 10 9 11 10 9 11
REMARK H PARENT
REMARK Flexibility Score: inf
ROOT
ATOM      1  C   UNL     1      -7.249  24.137  68.013  1.00  0.00     0.008 C 
ATOM      2  C   UNL     1      -7.973  23.063  68.831  1.00  0.00    -0.006 C 
ATOM      3  C   UNL     1      -8.100  23.495  70.301  1.00  0.00     0.008 C 
ATOM      4  C   UNL     1      -8.911  22.478  71.114  1.00  0.00     0.039 C 
ATOM      5  C   UNL     1      -8.383  21.058  70.966  1.00  0.00    -0.006 C 
ATOM      6  C   UNL     1      -8.476  20.156  71.987  1.00  0.00    -0.070 C 
ATOM      7  C   UNL     1      -7.905  18.762  71.872  1.00  0.00     0.039 C 
ATOM      8  C   UNL     1      -9.124  20.525  73.302  1.00  0.00     0.039 C 
ATOM      9  C   UNL     1      -7.871  20.686  69.614  1.00  0.00     0.159 C 
ATOM     10  O   UNL     1      -7.973  19.508  69.175  1.00  0.00    -0.295 OA
ATOM     11  C   UNL     1      -7.226  21.723  68.741  1.00  0.00     0.084 C 
ENDROOT
TORSDOF 0
ENDMDL
MODEL 5
REMARK VINA RESULT:    -5.680      1.561      2.373
REMARK INTER + INTRA:          -5.680
REMARK INTER:                  -5.680
REMARK INTRA:                   0.000
REMARK UNBOUND:                 0.000
REMARK SMILES CC(C)=C1CC[C@@H](C)CC1=O
REMARK SMILES IDX 8 1 7 2 6 3 5 4 4 5 2 6 1 7 3 8 10 9 11 10 9 11
REMARK H PARENT
REMARK Flexibility Score: inf
ROOT
ATOM      1  C   UNL     1      -6.949  19.525  65.463  1.00  0.00     0.008 C 
ATOM      2  C   UNL     1      -7.686  19.748  66.788  1.00  0.00    -0.006 C 
ATOM      3  C   UNL     1      -7.906  21.248  67.040  1.00  0.00     0.008 C 
ATOM      4  C   UNL     1      -8.732  21.486  68.311  1.00  0.00     0.039 C 
ATOM      5  C   UNL     1      -8.156  20.767  69.524  1.00  0.00    -0.006 C 
ATOM      6  C   UNL     1      -8.280  21.287  70.781  1.00  0.00    -0.070 C 
ATOM      7  C   UNL     1      -7.664  20.612  71.985  1.00  0.00     0.039 C 
ATOM      8  C   UNL     1      -9.010  22.588  71.024  1.00  0.00     0.039 C 
ATOM      9  C   UNL     1      -7.560  19.423  69.268  1.00  0.00     0.159 C 
ATOM     10  O   UNL     1      -7.605  18.510  70.137  1.00  0.00    -0.295 OA
ATOM     11  C   UNL     1      -6.897  19.131  67.953  1.00  0.00     0.084 C 
ENDROOT
TORSDOF 0
ENDMDL
MODEL 6
REMARK VINA RESULT:    -5.670      1.692      2.943
REMARK INTER + INTRA:          -5.670
REMARK INTER:                  -5.670
REMARK INTRA:                   0.000
REMARK UNBOUND:                 0.000
REMARK SMILES CC(C)=C1CC[C@@H](C)CC1=O
REMARK SMILES IDX 8 1 7 2 6 3 5 4 4 5 2 6 1 7 3 8 10 9 11 10 9 11
REMARK H PARENT
REMARK Flexibility Score: inf
ROOT
ATOM      1  C   UNL     1      -8.233  25.163  66.953  1.00  0.00     0.008 C 
ATOM      2  C   UNL     1      -7.625  23.925  67.622  1.00  0.00    -0.006 C 
ATOM      3  C   UNL     1      -7.982  22.654  66.836  1.00  0.00     0.008 C 
ATOM      4  C   UNL     1      -7.298  21.417  67.433  1.00  0.00     0.039 C 
ATOM      5  C   UNL     1      -7.555  21.272  68.927  1.00  0.00    -0.006 C 
ATOM      6  C   UNL     1      -7.627  20.044  69.518  1.00  0.00    -0.070 C 
ATOM      7  C   UNL     1      -7.938  19.885  70.989  1.00  0.00     0.039 C 
ATOM      8  C   UNL     1      -7.437  18.776  68.718  1.00  0.00     0.039 C 
ATOM      9  C   UNL     1      -7.605  22.543  69.710  1.00  0.00     0.159 C 
ATOM     10  O   UNL     1      -7.216  22.589  70.909  1.00  0.00    -0.295 OA
ATOM     11  C   UNL     1      -8.118  23.801  69.072  1.00  0.00     0.084 C 
ENDROOT
TORSDOF 0
ENDMDL
MODEL 7
REMARK VINA RESULT:    -5.576      2.458      4.229
REMARK INTER + INTRA:          -5.576
REMARK INTER:                  -5.576
REMARK INTRA:                   0.000
REMARK UNBOUND:                 0.000
REMARK SMILES CC(C)=C1CC[C@@H](C)CC1=O
REMARK SMILES IDX 8 1 7 2 6 3 5 4 4 5 2 6 1 7 3 8 10 9 11 10 9 11
REMARK H PARENT
REMARK Flexibility Score: inf
ROOT
ATOM      1  C   UNL     1      -7.961  25.590  67.282  1.00  0.00     0.008 C 
ATOM      2  C   UNL     1      -8.210  24.083  67.414  1.00  0.00    -0.006 C 
ATOM      3  C   UNL     1      -7.167  23.441  68.342  1.00  0.00     0.008 C 
ATOM      4  C   UNL     1      -7.460  21.951  68.566  1.00  0.00     0.039 C 
ATOM      5  C   UNL     1      -7.632  21.187  67.261  1.00  0.00    -0.006 C 
ATOM      6  C   UNL     1      -7.269  19.875  67.154  1.00  0.00    -0.070 C 
ATOM      7  C   UNL     1      -7.382  19.122  65.848  1.00  0.00     0.039 C 
ATOM      8  C   UNL     1      -6.698  19.121  68.333  1.00  0.00     0.039 C 
ATOM      9  C   UNL     1      -8.321  21.920  66.157  1.00  0.00     0.159 C 
ATOM     10  O   UNL     1      -9.040  21.314  65.316  1.00  0.00    -0.295 OA
ATOM     11  C   UNL     1      -8.172  23.409  66.034  1.00  0.00     0.084 C 
ENDROOT
TORSDOF 0
ENDMDL
MODEL 8
REMARK VINA RESULT:    -5.564      1.647      4.309
REMARK INTER + INTRA:          -5.564
REMARK INTER:                  -5.564
REMARK INTRA:                   0.000
REMARK UNBOUND:                 0.000
REMARK SMILES CC(C)=C1CC[C@@H](C)CC1=O
REMARK SMILES IDX 8 1 7 2 6 3 5 4 4 5 2 6 1 7 3 8 10 9 11 10 9 11
REMARK H PARENT
REMARK Flexibility Score: inf
ROOT
ATOM      1  C   UNL     1      -7.818  20.257  72.260  1.00  0.00     0.008 C 
ATOM      2  C   UNL     1      -8.365  20.862  70.962  1.00  0.00    -0.006 C 
ATOM      3  C   UNL     1      -7.758  20.160  69.738  1.00  0.00     0.008 C 
ATOM      4  C   UNL     1      -8.369  20.684  68.432  1.00  0.00     0.039 C 
ATOM      5  C   UNL     1      -8.307  22.202  68.326  1.00  0.00    -0.006 C 
ATOM      6  C   UNL     1      -8.175  22.824  67.118  1.00  0.00    -0.070 C 
ATOM      7  C   UNL     1      -8.055  24.326  67.005  1.00  0.00     0.039 C 
ATOM      8  C   UNL     1      -8.104  22.032  65.832  1.00  0.00     0.039 C 
ATOM      9  C   UNL     1      -8.514  22.957  69.598  1.00  0.00     0.159 C 
ATOM     10  O   UNL     1      -9.068  24.090  69.604  1.00  0.00    -0.295 OA
ATOM     11  C   UNL     1      -8.067  22.369  70.905  1.00  0.00     0.084 C 
ENDROOT
TORSDOF 0
ENDMDL
MODEL 9
REMARK VINA RESULT:    -5.533      2.017      3.310
REMARK INTER + INTRA:          -5.533
REMARK INTER:                  -5.533
REMARK INTRA:                   0.000
REMARK UNBOUND:                 0.000
REMARK SMILES CC(C)=C1CC[C@@H](C)CC1=O
REMARK SMILES IDX 8 1 7 2 6 3 5 4 4 5 2 6 1 7 3 8 10 9 11 10 9 11
REMARK H PARENT
REMARK Flexibility Score: inf
ROOT
ATOM      1  C   UNL     1      -7.998  25.053  66.539  1.00  0.00     0.008 C 
ATOM      2  C   UNL     1      -8.368  23.869  67.440  1.00  0.00    -0.006 C 
ATOM      3  C   UNL     1      -7.688  23.999  68.812  1.00  0.00     0.008 C 
ATOM      4  C   UNL     1      -8.125  22.877  69.762  1.00  0.00     0.039 C 
ATOM      5  C   UNL     1      -7.950  21.493  69.151  1.00  0.00    -0.006 C 
ATOM      6  C   UNL     1      -7.653  20.409  69.926  1.00  0.00    -0.070 C 
ATOM      7  C   UNL     1      -7.420  19.041  69.325  1.00  0.00     0.039 C 
ATOM      8  C   UNL     1      -7.505  20.532  71.425  1.00  0.00     0.039 C 
ATOM      9  C   UNL     1      -8.233  21.380  67.689  1.00  0.00     0.159 C 
ATOM     10  O   UNL     1      -8.706  20.322  67.193  1.00  0.00    -0.295 OA
ATOM     11  C   UNL     1      -7.963  22.543  66.778  1.00  0.00     0.084 C 
ENDROOT
TORSDOF 0
ENDMDL
