MODEL 1
REMARK VINA RESULT:    -5.161      0.000      0.000
REMARK INTER + INTRA:         -15.449
REMARK INTER:                 -11.798
REMARK INTRA:                  -3.651
REMARK UNBOUND:                -3.651
REMARK SMILES CCCCCCCCCCCCCCCCCCCCCCCC(=O)[O-]
REMARK SMILES IDX 13 1 14 2 15 3 16 4 17 5 18 6 19 7 20 8 21 9 22 10 23 11
REMARK SMILES IDX 24 12 25 13 26 14 12 15 11 16 10 17 9 18 8 19 7 20 6 21 5 22
REMARK SMILES IDX 4 23 3 24 2 25 1 26
REMARK H PARENT
REMARK Flexibility Score: inf
ROOT
ATOM      1  C   UNL     1     138.423 131.077 127.948  1.00  0.00     0.000 C 
ENDROOT
BRANCH   1   2
ATOM      2  C   UNL     1     138.246 130.096 129.119  1.00  0.00     0.000 C 
BRANCH   2   3
ATOM      3  C   UNL     1     138.914 130.522 130.439  1.00  0.00     0.000 C 
BRANCH   3   4
ATOM      4  C   UNL     1     138.054 131.471 131.298  1.00  0.00     0.000 C 
BRANCH   4   5
ATOM      5  C   UNL     1     138.833 132.708 131.777  1.00  0.00     0.000 C 
BRANCH   5   6
ATOM      6  C   UNL     1     139.981 133.093 130.827  1.00  0.00     0.000 C 
BRANCH   6   7
ATOM      7  C   UNL     1     139.599 134.184 129.803  1.00  0.00     0.000 C 
BRANCH   7   8
ATOM      8  C   UNL     1     140.399 135.481 130.018  1.00  0.00     0.000 C 
BRANCH   8   9
ATOM      9  C   UNL     1     139.663 136.498 130.904  1.00  0.00     0.000 C 
BRANCH   9  10
ATOM     10  C   UNL     1     138.514 137.204 130.164  1.00  0.00     0.006 C 
BRANCH  10  11
ATOM     11  C   UNL     1     137.148 136.917 130.806  1.00  0.00     0.053 C 
BRANCH  11  12
ATOM     12  C   UNL     1     136.086 137.837 130.285  1.00  0.00     0.041 C 
ATOM     13  O   UNL     1     134.902 137.428 130.150  1.00  0.00    -0.550 OA
ATOM     14  O   UNL     1     136.397 139.157 129.983  1.00  0.00    -0.550 OA
ENDBRANCH  11  12
ENDBRANCH  10  11
ENDBRANCH   9  10
ENDBRANCH   8   9
ENDBRANCH   7   8
ENDBRANCH   6   7
ENDBRANCH   5   6
ENDBRANCH   4   5
ENDBRANCH   3   4
ENDBRANCH   2   3
ENDBRANCH   1   2
BRANCH   1  15
ATOM     15  C   UNL     1     137.121 131.309 127.161  1.00  0.00     0.000 C 
BRANCH  15  16
ATOM     16  C   UNL     1     136.681 132.784 127.146  1.00  0.00     0.000 C 
BRANCH  16  17
ATOM     17  C   UNL     1     136.428 133.411 128.534  1.00  0.00     0.000 C 
BRANCH  17  18
ATOM     18  C   UNL     1     135.128 134.229 128.658  1.00  0.00    -0.000 C 
BRANCH  18  19
ATOM     19  C   UNL     1     134.315 133.975 129.942  1.00  0.00    -0.000 C 
BRANCH  19  20
ATOM     20  C   UNL     1     134.903 132.871 130.845  1.00  0.00    -0.000 C 
BRANCH  20  21
ATOM     21  C   UNL     1     133.862 131.820 131.261  1.00  0.00    -0.000 C 
BRANCH  21  22
ATOM     22  C   UNL     1     133.640 130.803 130.135  1.00  0.00    -0.000 C 
BRANCH  22  23
ATOM     23  C   UNL     1     134.913 129.990 129.858  1.00  0.00    -0.000 C 
BRANCH  23  24
ATOM     24  C   UNL     1     134.678 128.473 129.943  1.00  0.00    -0.000 C 
BRANCH  24  25
ATOM     25  C   UNL     1     135.908 127.682 130.438  1.00  0.00    -0.003 C 
ATOM     26  C   UNL     1     135.611 126.191 130.613  1.00  0.00     0.004 C 
ENDBRANCH  24  25
ENDBRANCH  23  24
ENDBRANCH  22  23
ENDBRANCH  21  22
ENDBRANCH  20  21
ENDBRANCH  19  20
ENDBRANCH  18  19
ENDBRANCH  17  18
ENDBRANCH  16  17
ENDBRANCH  15  16
ENDBRANCH   1  15
TORSDOF 22
ENDMDL
MODEL 2
REMARK VINA RESULT:    -4.855      1.038      2.936
REMARK INTER + INTRA:         -14.750
REMARK INTER:                 -11.161
REMARK INTRA:                  -3.589
REMARK UNBOUND:                -3.651
REMARK SMILES CCCCCCCCCCCCCCCCCCCCCCCC(=O)[O-]
REMARK SMILES IDX 13 1 14 2 15 3 16 4 17 5 18 6 19 7 20 8 21 9 22 10 23 11
REMARK SMILES IDX 24 12 25 13 26 14 12 15 11 16 10 17 9 18 8 19 7 20 6 21 5 22
REMARK SMILES IDX 4 23 3 24 2 25 1 26
REMARK H PARENT
REMARK Flexibility Score: inf
ROOT
ATOM      1  C   UNL     1     134.740 132.160 131.823  1.00  0.00     0.000 C 
ENDROOT
BRANCH   1   2
ATOM      2  C   UNL     1     135.991 132.979 132.183  1.00  0.00     0.000 C 
BRANCH   2   3
ATOM      3  C   UNL     1     137.017 132.254 133.074  1.00  0.00     0.000 C 
BRANCH   3   4
ATOM      4  C   UNL     1     138.415 132.118 132.435  1.00  0.00     0.000 C 
BRANCH   4   5
ATOM      5  C   UNL     1     138.530 132.866 131.096  1.00  0.00     0.000 C 
BRANCH   5   6
ATOM      6  C   UNL     1     139.978 133.254 130.753  1.00  0.00     0.000 C 
BRANCH   6   7
ATOM      7  C   UNL     1     140.392 134.643 131.286  1.00  0.00     0.000 C 
BRANCH   7   8
ATOM      8  C   UNL     1     140.253 135.736 130.212  1.00  0.00     0.000 C 
BRANCH   8   9
ATOM      9  C   UNL     1     138.850 135.787 129.587  1.00  0.00     0.000 C 
BRANCH   9  10
ATOM     10  C   UNL     1     137.807 136.415 130.527  1.00  0.00     0.006 C 
BRANCH  10  11
ATOM     11  C   UNL     1     137.785 137.948 130.430  1.00  0.00     0.053 C 
BRANCH  11  12
ATOM     12  C   UNL     1     136.390 138.474 130.283  1.00  0.00     0.041 C 
ATOM     13  O   UNL     1     135.412 137.681 130.245  1.00  0.00    -0.550 OA
ATOM     14  O   UNL     1     136.167 139.844 130.223  1.00  0.00    -0.550 OA
ENDBRANCH  11  12
ENDBRANCH  10  11
ENDBRANCH   9  10
ENDBRANCH   8   9
ENDBRANCH   7   8
ENDBRANCH   6   7
ENDBRANCH   5   6
ENDBRANCH   4   5
ENDBRANCH   3   4
ENDBRANCH   2   3
ENDBRANCH   1   2
BRANCH   1  15
ATOM     15  C   UNL     1     134.250 132.419 130.387  1.00  0.00     0.000 C 
BRANCH  15  16
ATOM     16  C   UNL     1     134.100 133.917 130.064  1.00  0.00     0.000 C 
BRANCH  16  17
ATOM     17  C   UNL     1     134.799 134.385 128.770  1.00  0.00     0.000 C 
BRANCH  17  18
ATOM     18  C   UNL     1     136.188 133.769 128.512  1.00  0.00    -0.000 C 
BRANCH  18  19
ATOM     19  C   UNL     1     136.450 133.331 127.058  1.00  0.00    -0.000 C 
BRANCH  19  20
ATOM     20  C   UNL     1     137.089 131.932 126.933  1.00  0.00    -0.000 C 
BRANCH  20  21
ATOM     21  C   UNL     1     137.135 131.173 128.268  1.00  0.00    -0.000 C 
BRANCH  21  22
ATOM     22  C   UNL     1     138.479 130.453 128.434  1.00  0.00    -0.000 C 
BRANCH  22  23
ATOM     23  C   UNL     1     138.486 129.568 129.689  1.00  0.00    -0.000 C 
BRANCH  23  24
ATOM     24  C   UNL     1     137.084 129.382 130.292  1.00  0.00    -0.000 C 
BRANCH  24  25
ATOM     25  C   UNL     1     136.619 127.910 130.338  1.00  0.00    -0.003 C 
ATOM     26  C   UNL     1     135.099 127.783 130.451  1.00  0.00     0.004 C 
ENDBRANCH  24  25
ENDBRANCH  23  24
ENDBRANCH  22  23
ENDBRANCH  21  22
ENDBRANCH  20  21
ENDBRANCH  19  20
ENDBRANCH  18  19
ENDBRANCH  17  18
ENDBRANCH  16  17
ENDBRANCH  15  16
ENDBRANCH   1  15
TORSDOF 22
ENDMDL
MODEL 3
REMARK VINA RESULT:    -4.853      2.962      7.315
REMARK INTER + INTRA:         -14.745
REMARK INTER:                 -10.865
REMARK INTRA:                  -3.880
REMARK UNBOUND:                -3.651
REMARK SMILES CCCCCCCCCCCCCCCCCCCCCCCC(=O)[O-]
REMARK SMILES IDX 13 1 14 2 15 3 16 4 17 5 18 6 19 7 20 8 21 9 22 10 23 11
REMARK SMILES IDX 24 12 25 13 26 14 12 15 11 16 10 17 9 18 8 19 7 20 6 21 5 22
REMARK SMILES IDX 4 23 3 24 2 25 1 26
REMARK H PARENT
REMARK Flexibility Score: inf
ROOT
ATOM      1  C   UNL     1     138.465 131.157 127.653  1.00  0.00     0.000 C 
ENDROOT
BRANCH   1   2
ATOM      2  C   UNL     1     137.040 131.448 127.156  1.00  0.00     0.000 C 
BRANCH   2   3
ATOM      3  C   UNL     1     136.600 132.921 127.251  1.00  0.00     0.000 C 
BRANCH   3   4
ATOM      4  C   UNL     1     136.318 133.398 128.690  1.00  0.00     0.000 C 
BRANCH   4   5
ATOM      5  C   UNL     1     135.097 134.329 128.777  1.00  0.00     0.000 C 
BRANCH   5   6
ATOM      6  C   UNL     1     134.138 133.949 129.918  1.00  0.00     0.000 C 
BRANCH   6   7
ATOM      7  C   UNL     1     134.766 133.008 130.969  1.00  0.00     0.000 C 
BRANCH   7   8
ATOM      8  C   UNL     1     133.941 131.723 131.158  1.00  0.00     0.000 C 
BRANCH   8   9
ATOM      9  C   UNL     1     133.769 130.926 129.856  1.00  0.00     0.000 C 
BRANCH   9  10
ATOM     10  C   UNL     1     134.865 129.862 129.666  1.00  0.00     0.006 C 
BRANCH  10  11
ATOM     11  C   UNL     1     134.385 128.457 130.059  1.00  0.00     0.053 C 
BRANCH  11  12
ATOM     12  C   UNL     1     135.526 127.574 130.462  1.00  0.00     0.041 C 
ATOM     13  O   UNL     1     136.669 128.065 130.663  1.00  0.00    -0.550 OA
ATOM     14  O   UNL     1     135.319 126.213 130.650  1.00  0.00    -0.550 OA
ENDBRANCH  11  12
ENDBRANCH  10  11
ENDBRANCH   9  10
ENDBRANCH   8   9
ENDBRANCH   7   8
ENDBRANCH   6   7
ENDBRANCH   5   6
ENDBRANCH   4   5
ENDBRANCH   3   4
ENDBRANCH   2   3
ENDBRANCH   1   2
BRANCH   1  15
ATOM     15  C   UNL     1     138.500 130.131 128.800  1.00  0.00     0.000 C 
BRANCH  15  16
ATOM     16  C   UNL     1     139.165 130.677 130.076  1.00  0.00     0.000 C 
BRANCH  16  17
ATOM     17  C   UNL     1     138.200 131.296 131.110  1.00  0.00     0.000 C 
BRANCH  17  18
ATOM     18  C   UNL     1     138.486 132.764 131.481  1.00  0.00    -0.000 C 
BRANCH  18  19
ATOM     19  C   UNL     1     139.971 133.171 131.445  1.00  0.00    -0.000 C 
BRANCH  19  20
ATOM     20  C   UNL     1     140.216 134.594 130.901  1.00  0.00    -0.000 C 
BRANCH  20  21
ATOM     21  C   UNL     1     139.914 134.722 129.400  1.00  0.00    -0.000 C 
BRANCH  21  22
ATOM     22  C   UNL     1     138.786 135.733 129.160  1.00  0.00    -0.000 C 
BRANCH  22  23
ATOM     23  C   UNL     1     138.110 136.138 130.478  1.00  0.00    -0.000 C 
BRANCH  23  24
ATOM     24  C   UNL     1     138.235 137.643 130.770  1.00  0.00    -0.000 C 
BRANCH  24  25
ATOM     25  C   UNL     1     137.075 138.485 130.194  1.00  0.00    -0.003 C 
ATOM     26  C   UNL     1     135.735 137.750 130.257  1.00  0.00     0.004 C 
ENDBRANCH  24  25
ENDBRANCH  23  24
ENDBRANCH  22  23
ENDBRANCH  21  22
ENDBRANCH  20  21
ENDBRANCH  19  20
ENDBRANCH  18  19
ENDBRANCH  17  18
ENDBRANCH  16  17
ENDBRANCH  15  16
ENDBRANCH   1  15
TORSDOF 22
ENDMDL
MODEL 4
REMARK VINA RESULT:    -4.850      2.843      6.073
REMARK INTER + INTRA:         -14.739
REMARK INTER:                 -11.481
REMARK INTRA:                  -3.257
REMARK UNBOUND:                -3.651
REMARK SMILES CCCCCCCCCCCCCCCCCCCCCCCC(=O)[O-]
REMARK SMILES IDX 13 1 14 2 15 3 16 4 17 5 18 6 19 7 20 8 21 9 22 10 23 11
REMARK SMILES IDX 24 12 25 13 26 14 12 15 11 16 10 17 9 18 8 19 7 20 6 21 5 22
REMARK SMILES IDX 4 23 3 24 2 25 1 26
REMARK H PARENT
REMARK Flexibility Score: inf
ROOT
ATOM      1  C   UNL     1     136.601 133.047 127.235  1.00  0.00     0.000 C 
ENDROOT
BRANCH   1   2
ATOM      2  C   UNL     1     136.732 131.561 127.608  1.00  0.00     0.000 C 
BRANCH   2   3
ATOM      3  C   UNL     1     138.173 131.021 127.658  1.00  0.00     0.000 C 
BRANCH   3   4
ATOM      4  C   UNL     1     138.445 130.072 128.843  1.00  0.00     0.000 C 
BRANCH   4   5
ATOM      5  C   UNL     1     137.681 130.479 130.115  1.00  0.00     0.000 C 
BRANCH   5   6
ATOM      6  C   UNL     1     138.443 131.512 130.963  1.00  0.00     0.000 C 
BRANCH   6   7
ATOM      7  C   UNL     1     137.649 132.014 132.189  1.00  0.00     0.000 C 
BRANCH   7   8
ATOM      8  C   UNL     1     136.467 132.911 131.781  1.00  0.00     0.000 C 
BRANCH   8   9
ATOM      9  C   UNL     1     135.175 132.580 132.544  1.00  0.00     0.000 C 
BRANCH   9  10
ATOM     10  C   UNL     1     133.977 132.354 131.605  1.00  0.00     0.006 C 
BRANCH  10  11
ATOM     11  C   UNL     1     134.379 131.619 130.318  1.00  0.00     0.053 C 
BRANCH  11  12
ATOM     12  C   UNL     1     133.813 130.233 130.270  1.00  0.00     0.041 C 
ATOM     13  O   UNL     1     132.620 130.021 130.618  1.00  0.00    -0.550 OA
ATOM     14  O   UNL     1     134.593 129.179 129.809  1.00  0.00    -0.550 OA
ENDBRANCH  11  12
ENDBRANCH  10  11
ENDBRANCH   9  10
ENDBRANCH   8   9
ENDBRANCH   7   8
ENDBRANCH   6   7
ENDBRANCH   5   6
ENDBRANCH   4   5
ENDBRANCH   3   4
ENDBRANCH   2   3
ENDBRANCH   1   2
BRANCH   1  15
ATOM     15  C   UNL     1     136.564 133.971 128.465  1.00  0.00     0.000 C 
BRANCH  15  16
ATOM     16  C   UNL     1     135.159 134.527 128.758  1.00  0.00     0.000 C 
BRANCH  16  17
ATOM     17  C   UNL     1     135.056 135.437 130.000  1.00  0.00     0.000 C 
BRANCH  17  18
ATOM     18  C   UNL     1     134.475 136.841 129.741  1.00  0.00    -0.000 C 
BRANCH  18  19
ATOM     19  C   UNL     1     135.436 138.010 130.031  1.00  0.00    -0.000 C 
BRANCH  19  20
ATOM     20  C   UNL     1     136.799 137.570 130.603  1.00  0.00    -0.000 C 
BRANCH  20  21
ATOM     21  C   UNL     1     137.953 138.491 130.177  1.00  0.00    -0.000 C 
BRANCH  21  22
ATOM     22  C   UNL     1     139.288 137.735 130.208  1.00  0.00    -0.000 C 
BRANCH  22  23
ATOM     23  C   UNL     1     139.148 136.386 130.927  1.00  0.00    -0.000 C 
BRANCH  23  24
ATOM     24  C   UNL     1     139.968 135.270 130.259  1.00  0.00    -0.000 C 
BRANCH  24  25
ATOM     25  C   UNL     1     140.505 134.215 131.252  1.00  0.00    -0.003 C 
ATOM     26  C   UNL     1     141.255 134.849 132.425  1.00  0.00     0.004 C 
ENDBRANCH  24  25
ENDBRANCH  23  24
ENDBRANCH  22  23
ENDBRANCH  21  22
ENDBRANCH  20  21
ENDBRANCH  19  20
ENDBRANCH  18  19
ENDBRANCH  17  18
ENDBRANCH  16  17
ENDBRANCH  15  16
ENDBRANCH   1  15
TORSDOF 22
ENDMDL
MODEL 5
REMARK VINA RESULT:    -4.841      3.047      7.131
REMARK INTER + INTRA:         -14.718
REMARK INTER:                 -11.314
REMARK INTRA:                  -3.404
REMARK UNBOUND:                -3.651
REMARK SMILES CCCCCCCCCCCCCCCCCCCCCCCC(=O)[O-]
REMARK SMILES IDX 13 1 14 2 15 3 16 4 17 5 18 6 19 7 20 8 21 9 22 10 23 11
REMARK SMILES IDX 24 12 25 13 26 14 12 15 11 16 10 17 9 18 8 19 7 20 6 21 5 22
REMARK SMILES IDX 4 23 3 24 2 25 1 26
REMARK H PARENT
REMARK Flexibility Score: inf
ROOT
ATOM      1  C   UNL     1     135.953 132.698 132.804  1.00  0.00     0.000 C 
ENDROOT
BRANCH   1   2
ATOM      2  C   UNL     1     134.536 132.721 132.210  1.00  0.00     0.000 C 
BRANCH   2   3
ATOM      3  C   UNL     1     134.263 131.668 131.120  1.00  0.00     0.000 C 
BRANCH   3   4
ATOM      4  C   UNL     1     134.155 132.255 129.697  1.00  0.00     0.000 C 
BRANCH   4   5
ATOM      5  C   UNL     1     134.045 133.789 129.695  1.00  0.00     0.000 C 
BRANCH   5   6
ATOM      6  C   UNL     1     135.126 134.463 128.833  1.00  0.00     0.000 C 
BRANCH   6   7
ATOM      7  C   UNL     1     136.474 133.709 128.826  1.00  0.00     0.000 C 
BRANCH   7   8
ATOM      8  C   UNL     1     137.009 133.498 127.399  1.00  0.00     0.000 C 
BRANCH   8   9
ATOM      9  C   UNL     1     137.043 132.018 126.986  1.00  0.00     0.000 C 
BRANCH   9  10
ATOM     10  C   UNL     1     137.051 131.067 128.196  1.00  0.00     0.006 C 
BRANCH  10  11
ATOM     11  C   UNL     1     138.454 130.517 128.493  1.00  0.00     0.053 C 
BRANCH  11  12
ATOM     12  C   UNL     1     138.475 129.699 129.749  1.00  0.00     0.041 C 
ATOM     13  O   UNL     1     137.420 129.151 130.167  1.00  0.00    -0.550 OA
ATOM     14  O   UNL     1     139.667 129.513 130.437  1.00  0.00    -0.550 OA
ENDBRANCH  11  12
ENDBRANCH  10  11
ENDBRANCH   9  10
ENDBRANCH   8   9
ENDBRANCH   7   8
ENDBRANCH   6   7
ENDBRANCH   5   6
ENDBRANCH   4   5
ENDBRANCH   3   4
ENDBRANCH   2   3
ENDBRANCH   1   2
BRANCH   1  15
ATOM     15  C   UNL     1     137.015 132.219 131.797  1.00  0.00     0.000 C 
BRANCH  15  16
ATOM     16  C   UNL     1     138.449 132.299 132.350  1.00  0.00     0.000 C 
BRANCH  16  17
ATOM     17  C   UNL     1     139.523 132.747 131.336  1.00  0.00     0.000 C 
BRANCH  17  18
ATOM     18  C   UNL     1     140.569 133.739 131.880  1.00  0.00    -0.000 C 
BRANCH  18  19
ATOM     19  C   UNL     1     140.681 135.064 131.101  1.00  0.00    -0.000 C 
BRANCH  19  20
ATOM     20  C   UNL     1     140.091 135.003 129.677  1.00  0.00    -0.000 C 
BRANCH  20  21
ATOM     21  C   UNL     1     139.203 136.211 129.344  1.00  0.00    -0.000 C 
BRANCH  21  22
ATOM     22  C   UNL     1     138.899 137.024 130.609  1.00  0.00    -0.000 C 
BRANCH  22  23
ATOM     23  C   UNL     1     137.403 137.349 130.717  1.00  0.00    -0.000 C 
BRANCH  23  24
ATOM     24  C   UNL     1     137.082 138.804 130.336  1.00  0.00    -0.000 C 
BRANCH  24  25
ATOM     25  C   UNL     1     135.618 139.022 129.898  1.00  0.00    -0.003 C 
ATOM     26  C   UNL     1     134.810 137.723 129.901  1.00  0.00     0.004 C 
ENDBRANCH  24  25
ENDBRANCH  23  24
ENDBRANCH  22  23
ENDBRANCH  21  22
ENDBRANCH  20  21
ENDBRANCH  19  20
ENDBRANCH  18  19
ENDBRANCH  17  18
ENDBRANCH  16  17
ENDBRANCH  15  16
ENDBRANCH   1  15
TORSDOF 22
ENDMDL
MODEL 6
REMARK VINA RESULT:    -4.779      2.757      6.675
REMARK INTER + INTRA:         -14.577
REMARK INTER:                 -11.025
REMARK INTRA:                  -3.552
REMARK UNBOUND:                -3.651
REMARK SMILES CCCCCCCCCCCCCCCCCCCCCCCC(=O)[O-]
REMARK SMILES IDX 13 1 14 2 15 3 16 4 17 5 18 6 19 7 20 8 21 9 22 10 23 11
REMARK SMILES IDX 24 12 25 13 26 14 12 15 11 16 10 17 9 18 8 19 7 20 6 21 5 22
REMARK SMILES IDX 4 23 3 24 2 25 1 26
REMARK H PARENT
REMARK Flexibility Score: inf
ROOT
ATOM      1  C   UNL     1     139.525 131.253 129.516  1.00  0.00     0.000 C 
ENDROOT
BRANCH   1   2
ATOM      2  C   UNL     1     138.778 130.436 128.449  1.00  0.00     0.000 C 
BRANCH   2   3
ATOM      3  C   UNL     1     137.361 130.936 128.111  1.00  0.00     0.000 C 
BRANCH   3   4
ATOM      4  C   UNL     1     137.285 131.778 126.821  1.00  0.00     0.000 C 
BRANCH   4   5
ATOM      5  C   UNL     1     136.576 133.126 127.034  1.00  0.00     0.000 C 
BRANCH   5   6
ATOM      6  C   UNL     1     137.254 133.992 128.110  1.00  0.00     0.000 C 
BRANCH   6   7
ATOM      7  C   UNL     1     136.327 134.353 129.291  1.00  0.00     0.000 C 
BRANCH   7   8
ATOM      8  C   UNL     1     134.875 133.912 129.039  1.00  0.00     0.000 C 
BRANCH   8   9
ATOM      9  C   UNL     1     134.012 133.940 130.311  1.00  0.00     0.000 C 
BRANCH   9  10
ATOM     10  C   UNL     1     134.290 132.745 131.239  1.00  0.00     0.006 C 
BRANCH  10  11
ATOM     11  C   UNL     1     135.022 131.605 130.515  1.00  0.00     0.053 C 
BRANCH  11  12
ATOM     12  C   UNL     1     134.062 130.637 129.891  1.00  0.00     0.041 C 
ATOM     13  O   UNL     1     134.319 130.122 128.770  1.00  0.00    -0.550 OA
ATOM     14  O   UNL     1     132.902 130.277 130.564  1.00  0.00    -0.550 OA
ENDBRANCH  11  12
ENDBRANCH  10  11
ENDBRANCH   9  10
ENDBRANCH   8   9
ENDBRANCH   7   8
ENDBRANCH   6   7
ENDBRANCH   5   6
ENDBRANCH   4   5
ENDBRANCH   3   4
ENDBRANCH   2   3
ENDBRANCH   1   2
BRANCH   1  15
ATOM     15  C   UNL     1     138.696 131.460 130.796  1.00  0.00     0.000 C 
BRANCH  15  16
ATOM     16  C   UNL     1     138.819 132.884 131.368  1.00  0.00     0.000 C 
BRANCH  16  17
ATOM     17  C   UNL     1     140.229 133.280 131.855  1.00  0.00     0.000 C 
BRANCH  17  18
ATOM     18  C   UNL     1     140.736 134.648 131.360  1.00  0.00    -0.000 C 
BRANCH  18  19
ATOM     19  C   UNL     1     140.485 134.939 129.868  1.00  0.00    -0.000 C 
BRANCH  19  20
ATOM     20  C   UNL     1     139.601 136.177 129.614  1.00  0.00    -0.000 C 
BRANCH  20  21
ATOM     21  C   UNL     1     139.329 136.991 130.888  1.00  0.00    -0.000 C 
BRANCH  21  22
ATOM     22  C   UNL     1     137.848 137.380 130.976  1.00  0.00    -0.000 C 
BRANCH  22  23
ATOM     23  C   UNL     1     137.577 138.709 130.257  1.00  0.00    -0.000 C 
BRANCH  23  24
ATOM     24  C   UNL     1     136.077 138.973 130.044  1.00  0.00    -0.000 C 
BRANCH  24  25
ATOM     25  C   UNL     1     135.185 137.744 130.325  1.00  0.00    -0.003 C 
ATOM     26  C   UNL     1     134.185 137.481 129.197  1.00  0.00     0.004 C 
ENDBRANCH  24  25
ENDBRANCH  23  24
ENDBRANCH  22  23
ENDBRANCH  21  22
ENDBRANCH  20  21
ENDBRANCH  19  20
ENDBRANCH  18  19
ENDBRANCH  17  18
ENDBRANCH  16  17
ENDBRANCH  15  16
ENDBRANCH   1  15
TORSDOF 22
ENDMDL
MODEL 7
REMARK VINA RESULT:    -4.686      2.420      4.399
REMARK INTER + INTRA:         -14.364
REMARK INTER:                 -10.768
REMARK INTRA:                  -3.596
REMARK UNBOUND:                -3.651
REMARK SMILES CCCCCCCCCCCCCCCCCCCCCCCC(=O)[O-]
REMARK SMILES IDX 13 1 14 2 15 3 16 4 17 5 18 6 19 7 20 8 21 9 22 10 23 11
REMARK SMILES IDX 24 12 25 13 26 14 12 15 11 16 10 17 9 18 8 19 7 20 6 21 5 22
REMARK SMILES IDX 4 23 3 24 2 25 1 26
REMARK H PARENT
REMARK Flexibility Score: inf
ROOT
ATOM      1  C   UNL     1     136.827 133.675 127.807  1.00  0.00     0.000 C 
ENDROOT
BRANCH   1   2
ATOM      2  C   UNL     1     135.496 134.140 128.418  1.00  0.00     0.000 C 
BRANCH   2   3
ATOM      3  C   UNL     1     135.622 135.050 129.654  1.00  0.00     0.000 C 
BRANCH   3   4
ATOM      4  C   UNL     1     134.498 136.099 129.777  1.00  0.00     0.000 C 
BRANCH   4   5
ATOM      5  C   UNL     1     135.038 137.530 129.939  1.00  0.00     0.000 C 
BRANCH   5   6
ATOM      6  C   UNL     1     136.394 137.576 130.665  1.00  0.00     0.000 C 
BRANCH   6   7
ATOM      7  C   UNL     1     137.282 138.768 130.245  1.00  0.00     0.000 C 
BRANCH   7   8
ATOM      8  C   UNL     1     138.755 138.358 130.076  1.00  0.00     0.000 C 
BRANCH   8   9
ATOM      9  C   UNL     1     139.094 137.038 130.786  1.00  0.00     0.000 C 
BRANCH   9  10
ATOM     10  C   UNL     1     139.977 136.116 129.927  1.00  0.00     0.006 C 
BRANCH  10  11
ATOM     11  C   UNL     1     139.633 134.632 130.126  1.00  0.00     0.053 C 
BRANCH  11  12
ATOM     12  C   UNL     1     140.307 134.064 131.338  1.00  0.00     0.041 C 
ATOM     13  O   UNL     1     140.057 132.886 131.710  1.00  0.00    -0.550 OA
ATOM     14  O   UNL     1     141.238 134.823 132.036  1.00  0.00    -0.550 OA
ENDBRANCH  11  12
ENDBRANCH  10  11
ENDBRANCH   9  10
ENDBRANCH   8   9
ENDBRANCH   7   8
ENDBRANCH   6   7
ENDBRANCH   5   6
ENDBRANCH   4   5
ENDBRANCH   3   4
ENDBRANCH   2   3
ENDBRANCH   1   2
BRANCH   1  15
ATOM     15  C   UNL     1     136.657 132.497 126.831  1.00  0.00     0.000 C 
BRANCH  15  16
ATOM     16  C   UNL     1     137.416 131.234 127.275  1.00  0.00     0.000 C 
BRANCH  16  17
ATOM     17  C   UNL     1     138.322 131.408 128.512  1.00  0.00     0.000 C 
BRANCH  17  18
ATOM     18  C   UNL     1     138.331 130.221 129.494  1.00  0.00    -0.000 C 
BRANCH  18  19
ATOM     19  C   UNL     1     137.645 130.486 130.848  1.00  0.00    -0.000 C 
BRANCH  19  20
ATOM     20  C   UNL     1     136.969 131.870 130.945  1.00  0.00    -0.000 C 
BRANCH  20  21
ATOM     21  C   UNL     1     136.649 132.280 132.391  1.00  0.00    -0.000 C 
BRANCH  21  22
ATOM     22  C   UNL     1     135.186 132.723 132.516  1.00  0.00    -0.000 C 
BRANCH  22  23
ATOM     23  C   UNL     1     134.380 132.343 131.266  1.00  0.00    -0.000 C 
BRANCH  23  24
ATOM     24  C   UNL     1     133.397 131.188 131.522  1.00  0.00    -0.000 C 
BRANCH  24  25
ATOM     25  C   UNL     1     133.201 130.259 130.304  1.00  0.00    -0.003 C 
ATOM     26  C   UNL     1     134.307 130.426 129.260  1.00  0.00     0.004 C 
ENDBRANCH  24  25
ENDBRANCH  23  24
ENDBRANCH  22  23
ENDBRANCH  21  22
ENDBRANCH  20  21
ENDBRANCH  19  20
ENDBRANCH  18  19
ENDBRANCH  17  18
ENDBRANCH  16  17
ENDBRANCH  15  16
ENDBRANCH   1  15
TORSDOF 22
ENDMDL
MODEL 8
REMARK VINA RESULT:    -4.645      1.115      3.921
REMARK INTER + INTRA:         -14.270
REMARK INTER:                 -10.030
REMARK INTRA:                  -4.240
REMARK UNBOUND:                -3.651
REMARK SMILES CCCCCCCCCCCCCCCCCCCCCCCC(=O)[O-]
REMARK SMILES IDX 13 1 14 2 15 3 16 4 17 5 18 6 19 7 20 8 21 9 22 10 23 11
REMARK SMILES IDX 24 12 25 13 26 14 12 15 11 16 10 17 9 18 8 19 7 20 6 21 5 22
REMARK SMILES IDX 4 23 3 24 2 25 1 26
REMARK H PARENT
REMARK Flexibility Score: inf
ROOT
ATOM      1  C   UNL     1     135.995 133.001 132.104  1.00  0.00     0.000 C 
ENDROOT
BRANCH   1   2
ATOM      2  C   UNL     1     136.927 132.307 133.112  1.00  0.00     0.000 C 
BRANCH   2   3
ATOM      3  C   UNL     1     138.380 132.119 132.640  1.00  0.00     0.000 C 
BRANCH   3   4
ATOM      4  C   UNL     1     138.773 133.018 131.449  1.00  0.00     0.000 C 
BRANCH   4   5
ATOM      5  C   UNL     1     140.248 133.450 131.494  1.00  0.00     0.000 C 
BRANCH   5   6
ATOM      6  C   UNL     1     140.538 134.675 130.609  1.00  0.00     0.000 C 
BRANCH   6   7
ATOM      7  C   UNL     1     139.817 134.639 129.244  1.00  0.00     0.000 C 
BRANCH   7   8
ATOM      8  C   UNL     1     138.870 135.837 129.060  1.00  0.00     0.000 C 
BRANCH   8   9
ATOM      9  C   UNL     1     139.232 137.029 129.960  1.00  0.00     0.000 C 
BRANCH   9  10
ATOM     10  C   UNL     1     138.165 137.303 131.034  1.00  0.00     0.006 C 
BRANCH  10  11
ATOM     11  C   UNL     1     136.815 136.657 130.689  1.00  0.00     0.053 C 
BRANCH  11  12
ATOM     12  C   UNL     1     135.812 137.675 130.240  1.00  0.00     0.041 C 
ATOM     13  O   UNL     1     134.628 137.329 129.982  1.00  0.00    -0.550 OA
ATOM     14  O   UNL     1     136.175 139.012 130.140  1.00  0.00    -0.550 OA
ENDBRANCH  11  12
ENDBRANCH  10  11
ENDBRANCH   9  10
ENDBRANCH   8   9
ENDBRANCH   7   8
ENDBRANCH   6   7
ENDBRANCH   5   6
ENDBRANCH   4   5
ENDBRANCH   3   4
ENDBRANCH   2   3
ENDBRANCH   1   2
BRANCH   1  15
ATOM     15  C   UNL     1     134.559 132.448 132.140  1.00  0.00     0.000 C 
BRANCH  15  16
ATOM     16  C   UNL     1     133.954 132.254 130.738  1.00  0.00     0.000 C 
BRANCH  16  17
ATOM     17  C   UNL     1     133.649 130.792 130.349  1.00  0.00     0.000 C 
BRANCH  17  18
ATOM     18  C   UNL     1     134.592 130.181 129.294  1.00  0.00    -0.000 C 
BRANCH  18  19
ATOM     19  C   UNL     1     135.716 129.290 129.859  1.00  0.00    -0.000 C 
BRANCH  19  20
ATOM     20  C   UNL     1     136.996 130.064 130.235  1.00  0.00    -0.000 C 
BRANCH  20  21
ATOM     21  C   UNL     1     138.209 129.668 129.380  1.00  0.00    -0.000 C 
BRANCH  21  22
ATOM     22  C   UNL     1     138.644 130.835 128.485  1.00  0.00    -0.000 C 
BRANCH  22  23
ATOM     23  C   UNL     1     137.653 131.055 127.333  1.00  0.00    -0.000 C 
BRANCH  23  24
ATOM     24  C   UNL     1     137.194 132.518 127.217  1.00  0.00    -0.000 C 
BRANCH  24  25
ATOM     25  C   UNL     1     136.559 133.074 128.510  1.00  0.00    -0.003 C 
ATOM     26  C   UNL     1     135.543 134.183 128.230  1.00  0.00     0.004 C 
ENDBRANCH  24  25
ENDBRANCH  23  24
ENDBRANCH  22  23
ENDBRANCH  21  22
ENDBRANCH  20  21
ENDBRANCH  19  20
ENDBRANCH  18  19
ENDBRANCH  17  18
ENDBRANCH  16  17
ENDBRANCH  15  16
ENDBRANCH   1  15
TORSDOF 22
ENDMDL
MODEL 9
REMARK VINA RESULT:    -4.616      2.991      7.422
REMARK INTER + INTRA:         -14.204
REMARK INTER:                 -10.592
REMARK INTRA:                  -3.612
REMARK UNBOUND:                -3.651
REMARK SMILES CCCCCCCCCCCCCCCCCCCCCCCC(=O)[O-]
REMARK SMILES IDX 13 1 14 2 15 3 16 4 17 5 18 6 19 7 20 8 21 9 22 10 23 11
REMARK SMILES IDX 24 12 25 13 26 14 12 15 11 16 10 17 9 18 8 19 7 20 6 21 5 22
REMARK SMILES IDX 4 23 3 24 2 25 1 26
REMARK H PARENT
REMARK Flexibility Score: inf
ROOT
ATOM      1  C   UNL     1     134.511 132.468 131.221  1.00  0.00     0.000 C 
ENDROOT
BRANCH   1   2
ATOM      2  C   UNL     1     133.982 133.747 130.552  1.00  0.00     0.000 C 
BRANCH   2   3
ATOM      3  C   UNL     1     134.751 134.197 129.297  1.00  0.00     0.000 C 
BRANCH   3   4
ATOM      4  C   UNL     1     135.420 133.041 128.524  1.00  0.00     0.000 C 
BRANCH   4   5
ATOM      5  C   UNL     1     136.341 133.537 127.396  1.00  0.00     0.000 C 
BRANCH   5   6
ATOM      6  C   UNL     1     137.364 132.477 126.954  1.00  0.00     0.000 C 
BRANCH   6   7
ATOM      7  C   UNL     1     137.117 131.082 127.566  1.00  0.00     0.000 C 
BRANCH   7   8
ATOM      8  C   UNL     1     138.416 130.441 128.084  1.00  0.00     0.000 C 
BRANCH   8   9
ATOM      9  C   UNL     1     138.337 130.041 129.566  1.00  0.00     0.000 C 
BRANCH   9  10
ATOM     10  C   UNL     1     136.935 129.552 129.971  1.00  0.00     0.006 C 
BRANCH  10  11
ATOM     11  C   UNL     1     136.923 128.060 130.335  1.00  0.00     0.053 C 
BRANCH  11  12
ATOM     12  C   UNL     1     135.528 127.523 130.429  1.00  0.00     0.041 C 
ATOM     13  O   UNL     1     135.332 126.307 130.698  1.00  0.00    -0.550 OA
ATOM     14  O   UNL     1     134.443 128.372 130.254  1.00  0.00    -0.550 OA
ENDBRANCH  11  12
ENDBRANCH  10  11
ENDBRANCH   9  10
ENDBRANCH   8   9
ENDBRANCH   7   8
ENDBRANCH   6   7
ENDBRANCH   5   6
ENDBRANCH   4   5
ENDBRANCH   3   4
ENDBRANCH   2   3
ENDBRANCH   1   2
BRANCH   1  15
ATOM     15  C   UNL     1     134.817 132.659 132.717  1.00  0.00     0.000 C 
BRANCH  15  16
ATOM     16  C   UNL     1     136.322 132.606 133.035  1.00  0.00     0.000 C 
BRANCH  16  17
ATOM     17  C   UNL     1     137.259 132.740 131.816  1.00  0.00     0.000 C 
BRANCH  17  18
ATOM     18  C   UNL     1     138.712 132.285 132.050  1.00  0.00    -0.000 C 
BRANCH  18  19
ATOM     19  C   UNL     1     139.773 133.025 131.212  1.00  0.00    -0.000 C 
BRANCH  19  20
ATOM     20  C   UNL     1     139.241 133.564 129.868  1.00  0.00    -0.000 C 
BRANCH  20  21
ATOM     21  C   UNL     1     139.832 134.932 129.496  1.00  0.00    -0.000 C 
BRANCH  21  22
ATOM     22  C   UNL     1     139.639 135.934 130.640  1.00  0.00    -0.000 C 
BRANCH  22  23
ATOM     23  C   UNL     1     138.606 137.009 130.273  1.00  0.00    -0.000 C 
BRANCH  23  24
ATOM     24  C   UNL     1     137.190 136.666 130.766  1.00  0.00    -0.000 C 
BRANCH  24  25
ATOM     25  C   UNL     1     136.127 137.718 130.381  1.00  0.00    -0.003 C 
ATOM     26  C   UNL     1     136.703 139.134 130.323  1.00  0.00     0.004 C 
ENDBRANCH  24  25
ENDBRANCH  23  24
ENDBRANCH  22  23
ENDBRANCH  21  22
ENDBRANCH  20  21
ENDBRANCH  19  20
ENDBRANCH  18  19
ENDBRANCH  17  18
ENDBRANCH  16  17
ENDBRANCH  15  16
ENDBRANCH   1  15
TORSDOF 22
ENDMDL
