MODEL 1
REMARK VINA RESULT:    -4.188      0.000      0.000
REMARK INTER + INTRA:         -10.109
REMARK INTER:                  -7.617
REMARK INTRA:                  -2.493
REMARK UNBOUND:                -2.493
REMARK SMILES CCCCCCCCCCCCCC[C@@H](C)C(=O)[O-]
REMARK SMILES IDX 9 1 10 2 11 3 12 4 13 5 14 6 15 7 16 8 17 9 18 10 19 11 8 12
REMARK SMILES IDX 7 13 6 14 5 15 4 16 3 17 2 18 1 19
REMARK H PARENT
REMARK Flexibility Score: inf
ROOT
ATOM      1  C   UNL     1      99.804   4.519  25.892  1.00  0.00     0.000 C 
ENDROOT
BRANCH   1   2
ATOM      2  C   UNL     1      99.169   3.668  26.999  1.00  0.00     0.000 C 
BRANCH   2   3
ATOM      3  C   UNL     1      97.652   3.885  27.060  1.00  0.00     0.000 C 
BRANCH   3   4
ATOM      4  C   UNL     1      96.973   3.384  25.777  1.00  0.00     0.000 C 
BRANCH   4   5
ATOM      5  C   UNL     1      96.296   4.514  24.983  1.00  0.00     0.001 C 
BRANCH   5   6
ATOM      6  C   UNL     1      96.628   4.458  23.478  1.00  0.00     0.009 C 
BRANCH   6   7
ATOM      7  C   UNL     1      97.461   5.655  22.966  1.00  0.00     0.032 C 
ATOM      8  C   UNL     1      98.907   5.270  22.622  1.00  0.00     0.014 C 
BRANCH   7   9
ATOM      9  C   UNL     1      96.784   6.353  21.815  1.00  0.00     0.044 C 
ATOM     10  O   UNL     1      97.474   6.973  20.963  1.00  0.00    -0.550 OA
ATOM     11  O   UNL     1      95.398   6.365  21.708  1.00  0.00    -0.550 OA
ENDBRANCH   7   9
ENDBRANCH   6   7
ENDBRANCH   5   6
ENDBRANCH   4   5
ENDBRANCH   3   4
ENDBRANCH   2   3
ENDBRANCH   1   2
BRANCH   1  12
ATOM     12  C   UNL     1     101.336   4.492  25.989  1.00  0.00     0.000 C 
BRANCH  12  13
ATOM     13  C   UNL     1     101.859   3.266  26.755  1.00  0.00    -0.000 C 
BRANCH  13  14
ATOM     14  C   UNL     1     103.076   2.618  26.076  1.00  0.00    -0.000 C 
BRANCH  14  15
ATOM     15  C   UNL     1     102.941   2.662  24.550  1.00  0.00    -0.000 C 
BRANCH  15  16
ATOM     16  C   UNL     1     102.116   1.473  24.034  1.00  0.00    -0.000 C 
BRANCH  16  17
ATOM     17  C   UNL     1     100.840   1.923  23.293  1.00  0.00    -0.000 C 
BRANCH  17  18
ATOM     18  C   UNL     1      99.539   1.430  23.951  1.00  0.00    -0.003 C 
ATOM     19  C   UNL     1      99.783   0.510  25.144  1.00  0.00     0.004 C 
ENDBRANCH  17  18
ENDBRANCH  16  17
ENDBRANCH  15  16
ENDBRANCH  14  15
ENDBRANCH  13  14
ENDBRANCH  12  13
ENDBRANCH   1  12
TORSDOF 14
ENDMDL
MODEL 2
REMARK VINA RESULT:    -4.181      1.750      2.404
REMARK INTER + INTRA:         -10.095
REMARK INTER:                  -7.702
REMARK INTRA:                  -2.393
REMARK UNBOUND:                -2.493
REMARK SMILES CCCCCCCCCCCCCC[C@@H](C)C(=O)[O-]
REMARK SMILES IDX 9 1 10 2 11 3 12 4 13 5 14 6 15 7 16 8 17 9 18 10 19 11 8 12
REMARK SMILES IDX 7 13 6 14 5 15 4 16 3 17 2 18 1 19
REMARK H PARENT
REMARK Flexibility Score: inf
ROOT
ATOM      1  C   UNL     1      98.902   3.443  26.668  1.00  0.00     0.000 C 
ENDROOT
BRANCH   1   2
ATOM      2  C   UNL     1      97.428   3.288  26.276  1.00  0.00     0.000 C 
BRANCH   2   3
ATOM      3  C   UNL     1      97.274   2.366  25.059  1.00  0.00     0.000 C 
BRANCH   3   4
ATOM      4  C   UNL     1      96.224   2.916  24.083  1.00  0.00     0.000 C 
BRANCH   4   5
ATOM      5  C   UNL     1      96.018   4.434  24.223  1.00  0.00     0.001 C 
BRANCH   5   6
ATOM      6  C   UNL     1      96.657   5.225  23.065  1.00  0.00     0.009 C 
BRANCH   6   7
ATOM      7  C   UNL     1      97.444   6.479  23.510  1.00  0.00     0.032 C 
ATOM      8  C   UNL     1      97.810   7.399  22.337  1.00  0.00     0.014 C 
BRANCH   7   9
ATOM      9  C   UNL     1      96.726   7.229  24.601  1.00  0.00     0.044 C 
ATOM     10  O   UNL     1      95.713   7.925  24.323  1.00  0.00    -0.550 OA
ATOM     11  O   UNL     1      97.198   7.207  25.908  1.00  0.00    -0.550 OA
ENDBRANCH   7   9
ENDBRANCH   6   7
ENDBRANCH   5   6
ENDBRANCH   4   5
ENDBRANCH   3   4
ENDBRANCH   2   3
ENDBRANCH   1   2
BRANCH   1  12
ATOM     12  C   UNL     1      99.549   4.615  25.916  1.00  0.00     0.000 C 
BRANCH  12  13
ATOM     13  C   UNL     1     100.690   4.166  24.988  1.00  0.00    -0.000 C 
BRANCH  13  14
ATOM     14  C   UNL     1     100.215   3.907  23.549  1.00  0.00    -0.000 C 
BRANCH  14  15
ATOM     15  C   UNL     1     100.877   2.651  22.971  1.00  0.00    -0.000 C 
BRANCH  15  16
ATOM     16  C   UNL     1     101.901   2.065  23.955  1.00  0.00    -0.000 C 
BRANCH  16  17
ATOM     17  C   UNL     1     102.011   0.530  23.840  1.00  0.00    -0.000 C 
BRANCH  17  18
ATOM     18  C   UNL     1     100.649  -0.184  23.797  1.00  0.00    -0.003 C 
ATOM     19  C   UNL     1      99.915  -0.155  25.135  1.00  0.00     0.004 C 
ENDBRANCH  17  18
ENDBRANCH  16  17
ENDBRANCH  15  16
ENDBRANCH  14  15
ENDBRANCH  13  14
ENDBRANCH  12  13
ENDBRANCH   1  12
TORSDOF 14
ENDMDL
MODEL 3
REMARK VINA RESULT:    -4.168      1.532      2.868
REMARK INTER + INTRA:         -10.071
REMARK INTER:                  -7.868
REMARK INTRA:                  -2.203
REMARK UNBOUND:                -2.493
REMARK SMILES CCCCCCCCCCCCCC[C@@H](C)C(=O)[O-]
REMARK SMILES IDX 9 1 10 2 11 3 12 4 13 5 14 6 15 7 16 8 17 9 18 10 19 11 8 12
REMARK SMILES IDX 7 13 6 14 5 15 4 16 3 17 2 18 1 19
REMARK H PARENT
REMARK Flexibility Score: inf
ROOT
ATOM      1  C   UNL     1     102.425   3.586  27.285  1.00  0.00     0.000 C 
ENDROOT
BRANCH   1   2
ATOM      2  C   UNL     1     101.653   4.582  26.412  1.00  0.00     0.000 C 
BRANCH   2   3
ATOM      3  C   UNL     1     100.190   4.690  26.860  1.00  0.00     0.000 C 
BRANCH   3   4
ATOM      4  C   UNL     1      99.521   3.308  26.893  1.00  0.00     0.000 C 
BRANCH   4   5
ATOM      5  C   UNL     1      97.998   3.380  26.699  1.00  0.00     0.001 C 
BRANCH   5   6
ATOM      6  C   UNL     1      97.554   4.677  25.993  1.00  0.00     0.009 C 
BRANCH   6   7
ATOM      7  C   UNL     1      96.133   4.617  25.387  1.00  0.00     0.032 C 
ATOM      8  C   UNL     1      95.354   5.928  25.564  1.00  0.00     0.014 C 
BRANCH   7   9
ATOM      9  C   UNL     1      96.162   4.179  23.945  1.00  0.00     0.044 C 
ATOM     10  O   UNL     1      96.202   2.952  23.663  1.00  0.00    -0.550 OA
ATOM     11  O   UNL     1      96.199   5.115  22.919  1.00  0.00    -0.550 OA
ENDBRANCH   7   9
ENDBRANCH   6   7
ENDBRANCH   5   6
ENDBRANCH   4   5
ENDBRANCH   3   4
ENDBRANCH   2   3
ENDBRANCH   1   2
BRANCH   1  12
ATOM     12  C   UNL     1     103.895   3.496  26.848  1.00  0.00     0.000 C 
BRANCH  12  13
ATOM     13  C   UNL     1     104.182   2.254  25.989  1.00  0.00    -0.000 C 
BRANCH  13  14
ATOM     14  C   UNL     1     104.190   2.564  24.484  1.00  0.00    -0.000 C 
BRANCH  14  15
ATOM     15  C   UNL     1     103.265   1.608  23.722  1.00  0.00    -0.000 C 
BRANCH  15  16
ATOM     16  C   UNL     1     102.063   1.197  24.587  1.00  0.00    -0.000 C 
BRANCH  16  17
ATOM     17  C   UNL     1     100.716   1.541  23.917  1.00  0.00    -0.000 C 
BRANCH  17  18
ATOM     18  C   UNL     1     100.815   2.672  22.878  1.00  0.00    -0.003 C 
ATOM     19  C   UNL     1      99.905   3.856  23.193  1.00  0.00     0.004 C 
ENDBRANCH  17  18
ENDBRANCH  16  17
ENDBRANCH  15  16
ENDBRANCH  14  15
ENDBRANCH  13  14
ENDBRANCH  12  13
ENDBRANCH   1  12
TORSDOF 14
ENDMDL
MODEL 4
REMARK VINA RESULT:    -4.168      2.940      6.350
REMARK INTER + INTRA:         -10.071
REMARK INTER:                  -7.641
REMARK INTRA:                  -2.430
REMARK UNBOUND:                -2.493
REMARK SMILES CCCCCCCCCCCCCC[C@@H](C)C(=O)[O-]
REMARK SMILES IDX 9 1 10 2 11 3 12 4 13 5 14 6 15 7 16 8 17 9 18 10 19 11 8 12
REMARK SMILES IDX 7 13 6 14 5 15 4 16 3 17 2 18 1 19
REMARK H PARENT
REMARK Flexibility Score: inf
ROOT
ATOM      1  C   UNL     1      95.274   6.576  23.258  1.00  0.00     0.000 C 
ENDROOT
BRANCH   1   2
ATOM      2  C   UNL     1      95.381   5.545  24.388  1.00  0.00     0.000 C 
BRANCH   2   3
ATOM      3  C   UNL     1      95.739   6.220  25.718  1.00  0.00     0.000 C 
BRANCH   3   4
ATOM      4  C   UNL     1      96.859   5.454  26.439  1.00  0.00     0.000 C 
BRANCH   4   5
ATOM      5  C   UNL     1      98.233   5.647  25.774  1.00  0.00     0.001 C 
BRANCH   5   6
ATOM      6  C   UNL     1      98.963   4.311  25.531  1.00  0.00     0.009 C 
BRANCH   6   7
ATOM      7  C   UNL     1      98.605   3.624  24.194  1.00  0.00     0.032 C 
ATOM      8  C   UNL     1      99.803   3.514  23.241  1.00  0.00     0.014 C 
BRANCH   7   9
ATOM      9  C   UNL     1      97.947   2.287  24.415  1.00  0.00     0.044 C 
ATOM     10  O   UNL     1      98.545   1.230  24.082  1.00  0.00    -0.550 OA
ATOM     11  O   UNL     1      96.660   2.206  24.935  1.00  0.00    -0.550 OA
ENDBRANCH   7   9
ENDBRANCH   6   7
ENDBRANCH   5   6
ENDBRANCH   4   5
ENDBRANCH   3   4
ENDBRANCH   2   3
ENDBRANCH   1   2
BRANCH   1  12
ATOM     12  C   UNL     1      96.133   7.813  23.560  1.00  0.00     0.000 C 
BRANCH  12  13
ATOM     13  C   UNL     1      97.440   7.837  22.750  1.00  0.00    -0.000 C 
BRANCH  13  14
ATOM     14  C   UNL     1      97.704   6.516  22.011  1.00  0.00    -0.000 C 
BRANCH  14  15
ATOM     15  C   UNL     1      98.035   6.769  20.536  1.00  0.00    -0.000 C 
BRANCH  15  16
ATOM     16  C   UNL     1      97.221   7.949  19.983  1.00  0.00    -0.000 C 
BRANCH  16  17
ATOM     17  C   UNL     1      96.056   7.485  19.083  1.00  0.00    -0.000 C 
BRANCH  17  18
ATOM     18  C   UNL     1      94.701   7.429  19.809  1.00  0.00    -0.003 C 
ATOM     19  C   UNL     1      94.274   8.777  20.385  1.00  0.00     0.004 C 
ENDBRANCH  17  18
ENDBRANCH  16  17
ENDBRANCH  15  16
ENDBRANCH  14  15
ENDBRANCH  13  14
ENDBRANCH  12  13
ENDBRANCH   1  12
TORSDOF 14
ENDMDL
MODEL 5
REMARK VINA RESULT:    -4.143      1.443      2.666
REMARK INTER + INTRA:         -10.027
REMARK INTER:                  -7.945
REMARK INTRA:                  -2.082
REMARK UNBOUND:                -2.493
REMARK SMILES CCCCCCCCCCCCCC[C@@H](C)C(=O)[O-]
REMARK SMILES IDX 9 1 10 2 11 3 12 4 13 5 14 6 15 7 16 8 17 9 18 10 19 11 8 12
REMARK SMILES IDX 7 13 6 14 5 15 4 16 3 17 2 18 1 19
REMARK H PARENT
REMARK Flexibility Score: inf
ROOT
ATOM      1  C   UNL     1      97.177   2.646  25.224  1.00  0.00     0.000 C 
ENDROOT
BRANCH   1   2
ATOM      2  C   UNL     1      96.125   3.434  24.435  1.00  0.00     0.000 C 
BRANCH   2   3
ATOM      3  C   UNL     1      95.774   4.749  25.142  1.00  0.00     0.000 C 
BRANCH   3   4
ATOM      4  C   UNL     1      95.711   5.913  24.141  1.00  0.00     0.000 C 
BRANCH   4   5
ATOM      5  C   UNL     1      96.961   6.806  24.189  1.00  0.00     0.001 C 
BRANCH   5   6
ATOM      6  C   UNL     1      97.033   7.785  23.000  1.00  0.00     0.009 C 
BRANCH   6   7
ATOM      7  C   UNL     1      97.788   7.235  21.769  1.00  0.00     0.032 C 
ATOM      8  C   UNL     1      98.647   6.006  22.097  1.00  0.00     0.014 C 
BRANCH   7   9
ATOM      9  C   UNL     1      96.853   6.968  20.617  1.00  0.00     0.044 C 
ATOM     10  O   UNL     1      95.616   6.864  20.824  1.00  0.00    -0.550 OA
ATOM     11  O   UNL     1      97.347   6.782  19.331  1.00  0.00    -0.550 OA
ENDBRANCH   7   9
ENDBRANCH   6   7
ENDBRANCH   5   6
ENDBRANCH   4   5
ENDBRANCH   3   4
ENDBRANCH   2   3
ENDBRANCH   1   2
BRANCH   1  12
ATOM     12  C   UNL     1      97.626   3.426  26.469  1.00  0.00     0.000 C 
BRANCH  12  13
ATOM     13  C   UNL     1      99.140   3.692  26.485  1.00  0.00    -0.000 C 
BRANCH  13  14
ATOM     14  C   UNL     1      99.627   4.420  25.222  1.00  0.00    -0.000 C 
BRANCH  14  15
ATOM     15  C   UNL     1     100.867   3.735  24.638  1.00  0.00    -0.000 C 
BRANCH  15  16
ATOM     16  C   UNL     1     100.521   2.973  23.350  1.00  0.00    -0.000 C 
BRANCH  16  17
ATOM     17  C   UNL     1     101.307   1.650  23.224  1.00  0.00    -0.000 C 
BRANCH  17  18
ATOM     18  C   UNL     1     100.430   0.396  23.381  1.00  0.00    -0.003 C 
ATOM     19  C   UNL     1      99.893   0.214  24.799  1.00  0.00     0.004 C 
ENDBRANCH  17  18
ENDBRANCH  16  17
ENDBRANCH  15  16
ENDBRANCH  14  15
ENDBRANCH  13  14
ENDBRANCH  12  13
ENDBRANCH   1  12
TORSDOF 14
ENDMDL
MODEL 6
REMARK VINA RESULT:    -4.130      2.760      6.200
REMARK INTER + INTRA:         -10.003
REMARK INTER:                  -7.900
REMARK INTRA:                  -2.103
REMARK UNBOUND:                -2.493
REMARK SMILES CCCCCCCCCCCCCC[C@@H](C)C(=O)[O-]
REMARK SMILES IDX 9 1 10 2 11 3 12 4 13 5 14 6 15 7 16 8 17 9 18 10 19 11 8 12
REMARK SMILES IDX 7 13 6 14 5 15 4 16 3 17 2 18 1 19
REMARK H PARENT
REMARK Flexibility Score: inf
ROOT
ATOM      1  C   UNL     1      97.435   5.036  25.692  1.00  0.00     0.000 C 
ENDROOT
BRANCH   1   2
ATOM      2  C   UNL     1      96.173   4.351  25.156  1.00  0.00     0.000 C 
BRANCH   2   3
ATOM      3  C   UNL     1      96.499   3.456  23.953  1.00  0.00     0.000 C 
BRANCH   3   4
ATOM      4  C   UNL     1      96.516   1.974  24.359  1.00  0.00     0.000 C 
BRANCH   4   5
ATOM      5  C   UNL     1      97.848   1.282  24.026  1.00  0.00     0.001 C 
BRANCH   5   6
ATOM      6  C   UNL     1      98.950   1.595  25.059  1.00  0.00     0.009 C 
BRANCH   6   7
ATOM      7  C   UNL     1     100.350   1.067  24.674  1.00  0.00     0.032 C 
ATOM      8  C   UNL     1     100.292  -0.158  23.751  1.00  0.00     0.014 C 
BRANCH   7   9
ATOM      9  C   UNL     1     101.216   2.156  24.096  1.00  0.00     0.044 C 
ATOM     10  O   UNL     1     102.163   2.633  24.775  1.00  0.00    -0.550 OA
ATOM     11  O   UNL     1     100.949   2.683  22.837  1.00  0.00    -0.550 OA
ENDBRANCH   7   9
ENDBRANCH   6   7
ENDBRANCH   5   6
ENDBRANCH   4   5
ENDBRANCH   3   4
ENDBRANCH   2   3
ENDBRANCH   1   2
BRANCH   1  12
ATOM     12  C   UNL     1      97.221   6.551  25.827  1.00  0.00     0.000 C 
BRANCH  12  13
ATOM     13  C   UNL     1      95.861   7.009  25.277  1.00  0.00    -0.000 C 
BRANCH  13  14
ATOM     14  C   UNL     1      95.920   8.403  24.634  1.00  0.00    -0.000 C 
BRANCH  14  15
ATOM     15  C   UNL     1      95.505   8.346  23.160  1.00  0.00    -0.000 C 
BRANCH  15  16
ATOM     16  C   UNL     1      95.058   6.930  22.767  1.00  0.00    -0.000 C 
BRANCH  16  17
ATOM     17  C   UNL     1      95.955   6.316  21.671  1.00  0.00    -0.000 C 
BRANCH  17  18
ATOM     18  C   UNL     1      97.363   6.932  21.611  1.00  0.00    -0.003 C 
ATOM     19  C   UNL     1      98.438   6.032  22.215  1.00  0.00     0.004 C 
ENDBRANCH  17  18
ENDBRANCH  16  17
ENDBRANCH  15  16
ENDBRANCH  14  15
ENDBRANCH  13  14
ENDBRANCH  12  13
ENDBRANCH   1  12
TORSDOF 14
ENDMDL
MODEL 7
REMARK VINA RESULT:    -4.117      3.089      6.065
REMARK INTER + INTRA:          -9.980
REMARK INTER:                  -7.752
REMARK INTRA:                  -2.228
REMARK UNBOUND:                -2.493
REMARK SMILES CCCCCCCCCCCCCC[C@@H](C)C(=O)[O-]
REMARK SMILES IDX 9 1 10 2 11 3 12 4 13 5 14 6 15 7 16 8 17 9 18 10 19 11 8 12
REMARK SMILES IDX 7 13 6 14 5 15 4 16 3 17 2 18 1 19
REMARK H PARENT
REMARK Flexibility Score: inf
ROOT
ATOM      1  C   UNL     1      99.141   4.085  27.010  1.00  0.00     0.000 C 
ENDROOT
BRANCH   1   2
ATOM      2  C   UNL     1      99.976   4.504  25.794  1.00  0.00     0.000 C 
BRANCH   2   3
ATOM      3  C   UNL     1     101.477   4.399  26.092  1.00  0.00     0.000 C 
BRANCH   3   4
ATOM      4  C   UNL     1     101.878   2.946  26.389  1.00  0.00     0.000 C 
BRANCH   4   5
ATOM      5  C   UNL     1     103.193   2.541  25.702  1.00  0.00     0.001 C 
BRANCH   5   6
ATOM      6  C   UNL     1     102.975   1.528  24.560  1.00  0.00     0.009 C 
BRANCH   6   7
ATOM      7  C   UNL     1     101.514   1.435  24.064  1.00  0.00     0.032 C 
ATOM      8  C   UNL     1     101.207   2.422  22.929  1.00  0.00     0.014 C 
BRANCH   7   9
ATOM      9  C   UNL     1     101.144   0.023  23.687  1.00  0.00     0.044 C 
ATOM     10  O   UNL     1     102.021  -0.880  23.698  1.00  0.00    -0.550 OA
ATOM     11  O   UNL     1      99.853  -0.286  23.273  1.00  0.00    -0.550 OA
ENDBRANCH   7   9
ENDBRANCH   6   7
ENDBRANCH   5   6
ENDBRANCH   4   5
ENDBRANCH   3   4
ENDBRANCH   2   3
ENDBRANCH   1   2
BRANCH   1  12
ATOM     12  C   UNL     1      97.984   3.166  26.591  1.00  0.00     0.000 C 
BRANCH  12  13
ATOM     13  C   UNL     1      98.309   2.342  25.334  1.00  0.00    -0.000 C 
BRANCH  13  14
ATOM     14  C   UNL     1      97.094   2.174  24.407  1.00  0.00    -0.000 C 
BRANCH  14  15
ATOM     15  C   UNL     1      96.129   3.356  24.547  1.00  0.00    -0.000 C 
BRANCH  15  16
ATOM     16  C   UNL     1      96.473   4.470  23.547  1.00  0.00    -0.000 C 
BRANCH  16  17
ATOM     17  C   UNL     1      95.806   5.813  23.914  1.00  0.00    -0.000 C 
BRANCH  17  18
ATOM     18  C   UNL     1      95.899   6.158  25.411  1.00  0.00    -0.003 C 
ATOM     19  C   UNL     1      97.119   7.010  25.754  1.00  0.00     0.004 C 
ENDBRANCH  17  18
ENDBRANCH  16  17
ENDBRANCH  15  16
ENDBRANCH  14  15
ENDBRANCH  13  14
ENDBRANCH  12  13
ENDBRANCH   1  12
TORSDOF 14
ENDMDL
MODEL 8
REMARK VINA RESULT:    -4.100      3.702      6.550
REMARK INTER + INTRA:          -9.948
REMARK INTER:                  -7.745
REMARK INTRA:                  -2.203
REMARK UNBOUND:                -2.493
REMARK SMILES CCCCCCCCCCCCCC[C@@H](C)C(=O)[O-]
REMARK SMILES IDX 9 1 10 2 11 3 12 4 13 5 14 6 15 7 16 8 17 9 18 10 19 11 8 12
REMARK SMILES IDX 7 13 6 14 5 15 4 16 3 17 2 18 1 19
REMARK H PARENT
REMARK Flexibility Score: inf
ROOT
ATOM      1  C   UNL     1     100.138   3.244  26.132  1.00  0.00     0.000 C 
ENDROOT
BRANCH   1   2
ATOM      2  C   UNL     1     100.583   4.136  24.967  1.00  0.00     0.000 C 
BRANCH   2   3
ATOM      3  C   UNL     1     100.144   3.545  23.621  1.00  0.00     0.000 C 
BRANCH   3   4
ATOM      4  C   UNL     1     100.061   2.013  23.693  1.00  0.00     0.000 C 
BRANCH   4   5
ATOM      5  C   UNL     1     101.290   1.321  23.081  1.00  0.00     0.001 C 
BRANCH   5   6
ATOM      6  C   UNL     1     102.290   0.840  24.151  1.00  0.00     0.009 C 
BRANCH   6   7
ATOM      7  C   UNL     1     103.567   1.703  24.263  1.00  0.00     0.032 C 
ATOM      8  C   UNL     1     103.783   2.268  25.673  1.00  0.00     0.014 C 
BRANCH   7   9
ATOM      9  C   UNL     1     104.784   0.963  23.770  1.00  0.00     0.044 C 
ATOM     10  O   UNL     1     105.816   0.902  24.489  1.00  0.00    -0.550 OA
ATOM     11  O   UNL     1     104.802   0.389  22.503  1.00  0.00    -0.550 OA
ENDBRANCH   7   9
ENDBRANCH   6   7
ENDBRANCH   5   6
ENDBRANCH   4   5
ENDBRANCH   3   4
ENDBRANCH   2   3
ENDBRANCH   1   2
BRANCH   1  12
ATOM     12  C   UNL     1      99.556   4.086  27.277  1.00  0.00     0.000 C 
BRANCH  12  13
ATOM     13  C   UNL     1      98.026   4.212  27.200  1.00  0.00    -0.000 C 
BRANCH  13  14
ATOM     14  C   UNL     1      97.552   5.673  27.192  1.00  0.00    -0.000 C 
BRANCH  14  15
ATOM     15  C   UNL     1      97.500   6.225  25.763  1.00  0.00    -0.000 C 
BRANCH  15  16
ATOM     16  C   UNL     1      96.056   6.548  25.349  1.00  0.00    -0.000 C 
BRANCH  16  17
ATOM     17  C   UNL     1      95.483   5.507  24.364  1.00  0.00    -0.000 C 
BRANCH  17  18
ATOM     18  C   UNL     1      96.547   4.565  23.776  1.00  0.00    -0.003 C 
ATOM     19  C   UNL     1      96.258   3.091  24.047  1.00  0.00     0.004 C 
ENDBRANCH  17  18
ENDBRANCH  16  17
ENDBRANCH  15  16
ENDBRANCH  14  15
ENDBRANCH  13  14
ENDBRANCH  12  13
ENDBRANCH   1  12
TORSDOF 14
ENDMDL
MODEL 9
REMARK VINA RESULT:    -4.084      2.016      5.170
REMARK INTER + INTRA:          -9.918
REMARK INTER:                  -7.697
REMARK INTRA:                  -2.221
REMARK UNBOUND:                -2.493
REMARK SMILES CCCCCCCCCCCCCC[C@@H](C)C(=O)[O-]
REMARK SMILES IDX 9 1 10 2 11 3 12 4 13 5 14 6 15 7 16 8 17 9 18 10 19 11 8 12
REMARK SMILES IDX 7 13 6 14 5 15 4 16 3 17 2 18 1 19
REMARK H PARENT
REMARK Flexibility Score: inf
ROOT
ATOM      1  C   UNL     1     102.363   3.273  27.070  1.00  0.00     0.000 C 
ENDROOT
BRANCH   1   2
ATOM      2  C   UNL     1     103.528   2.692  26.260  1.00  0.00     0.000 C 
BRANCH   2   3
ATOM      3  C   UNL     1     103.261   2.802  24.753  1.00  0.00     0.000 C 
BRANCH   3   4
ATOM      4  C   UNL     1     102.937   1.426  24.150  1.00  0.00     0.000 C 
BRANCH   4   5
ATOM      5  C   UNL     1     101.732   1.465  23.195  1.00  0.00     0.001 C 
BRANCH   5   6
ATOM      6  C   UNL     1     100.694   2.531  23.598  1.00  0.00     0.009 C 
BRANCH   6   7
ATOM      7  C   UNL     1      99.368   1.954  24.142  1.00  0.00     0.032 C 
ATOM      8  C   UNL     1      99.496   1.414  25.573  1.00  0.00     0.014 C 
BRANCH   7   9
ATOM      9  C   UNL     1      98.239   2.945  24.022  1.00  0.00     0.044 C 
ATOM     10  O   UNL     1      98.485   4.143  23.720  1.00  0.00    -0.550 OA
ATOM     11  O   UNL     1      96.930   2.567  24.294  1.00  0.00    -0.550 OA
ENDBRANCH   7   9
ENDBRANCH   6   7
ENDBRANCH   5   6
ENDBRANCH   4   5
ENDBRANCH   3   4
ENDBRANCH   2   3
ENDBRANCH   1   2
BRANCH   1  12
ATOM     12  C   UNL     1     102.016   4.691  26.593  1.00  0.00     0.000 C 
BRANCH  12  13
ATOM     13  C   UNL     1     100.503   4.905  26.428  1.00  0.00    -0.000 C 
BRANCH  13  14
ATOM     14  C   UNL     1      99.749   4.861  27.766  1.00  0.00    -0.000 C 
BRANCH  14  15
ATOM     15  C   UNL     1      98.379   4.192  27.603  1.00  0.00    -0.000 C 
BRANCH  15  16
ATOM     16  C   UNL     1      97.247   5.226  27.695  1.00  0.00    -0.000 C 
BRANCH  16  17
ATOM     17  C   UNL     1      96.930   5.870  26.329  1.00  0.00    -0.000 C 
BRANCH  17  18
ATOM     18  C   UNL     1      95.531   5.521  25.793  1.00  0.00    -0.003 C 
ATOM     19  C   UNL     1      95.327   5.931  24.337  1.00  0.00     0.004 C 
ENDBRANCH  17  18
ENDBRANCH  16  17
ENDBRANCH  15  16
ENDBRANCH  14  15
ENDBRANCH  13  14
ENDBRANCH  12  13
ENDBRANCH   1  12
TORSDOF 14
ENDMDL
