MODEL 1
REMARK VINA RESULT:    -4.457      0.000      0.000
REMARK INTER + INTRA:          -5.093
REMARK INTER:                  -4.847
REMARK INTRA:                  -0.246
REMARK UNBOUND:                -0.246
REMARK SMILES O=C([O-])c1ccccc1O
REMARK SMILES IDX 4 1 9 2 5 3 8 4 6 5 7 6 2 7 1 8 3 9 10 10
REMARK H PARENT 10 11
REMARK Flexibility Score: inf
ROOT
ATOM      1  C   UNL     1     -17.055 -31.790 -17.789  1.00  0.00     0.039 A 
ATOM      2  C   UNL     1     -17.212 -33.173 -17.518  1.00  0.00     0.124 A 
ATOM      3  C   UNL     1     -17.703 -31.239 -18.910  1.00  0.00     0.014 A 
ATOM      4  C   UNL     1     -18.053 -33.948 -18.328  1.00  0.00     0.047 A 
ATOM      5  C   UNL     1     -18.522 -32.030 -19.721  1.00  0.00     0.001 A 
ATOM      6  C   UNL     1     -18.703 -33.380 -19.424  1.00  0.00     0.004 A 
ENDROOT
BRANCH   1   7
ATOM      7  C   UNL     1     -16.267 -30.894 -16.916  1.00  0.00     0.075 C 
ATOM      8  O   UNL     1     -16.433 -30.921 -15.667  1.00  0.00    -0.545 OA
ATOM      9  O   UNL     1     -15.290 -30.061 -17.447  1.00  0.00    -0.545 OA
ENDBRANCH   1   7
BRANCH   2  10
ATOM     10  O   UNL     1     -16.529 -33.819 -16.486  1.00  0.00    -0.507 OA
ATOM     11  H   UNL     1     -16.983 -34.177 -15.656  1.00  0.00     0.293 HD
ENDBRANCH   2  10
TORSDOF 2
ENDMDL
MODEL 2
REMARK VINA RESULT:    -4.183     11.273     13.366
REMARK INTER + INTRA:          -4.796
REMARK INTER:                  -4.718
REMARK INTRA:                  -0.078
REMARK UNBOUND:                -0.246
REMARK SMILES O=C([O-])c1ccccc1O
REMARK SMILES IDX 4 1 9 2 5 3 8 4 6 5 7 6 2 7 1 8 3 9 10 10
REMARK H PARENT 10 11
REMARK Flexibility Score: inf
ROOT
ATOM      1  C   UNL     1     -10.004 -21.748 -17.541  1.00  0.00     0.039 A 
ATOM      2  C   UNL     1     -10.464 -20.884 -16.514  1.00  0.00     0.124 A 
ATOM      3  C   UNL     1      -8.622 -21.817 -17.802  1.00  0.00     0.014 A 
ATOM      4  C   UNL     1      -9.538 -20.169 -15.742  1.00  0.00     0.047 A 
ATOM      5  C   UNL     1      -7.714 -21.082 -17.038  1.00  0.00     0.001 A 
ATOM      6  C   UNL     1      -8.170 -20.266 -16.003  1.00  0.00     0.004 A 
ENDROOT
BRANCH   1   7
ATOM      7  C   UNL     1     -10.917 -22.608 -18.323  1.00  0.00     0.075 C 
ATOM      8  O   UNL     1     -11.367 -23.673 -17.823  1.00  0.00    -0.545 OA
ATOM      9  O   UNL     1     -11.345 -22.226 -19.588  1.00  0.00    -0.545 OA
ENDBRANCH   1   7
BRANCH   2  10
ATOM     10  O   UNL     1     -11.821 -20.682 -16.254  1.00  0.00    -0.507 OA
ATOM     11  H   UNL     1     -12.349 -19.905 -16.627  1.00  0.00     0.293 HD
ENDBRANCH   2  10
TORSDOF 2
ENDMDL
MODEL 3
REMARK VINA RESULT:    -4.131      2.270      3.414
REMARK INTER + INTRA:          -4.740
REMARK INTER:                  -4.493
REMARK INTRA:                  -0.247
REMARK UNBOUND:                -0.246
REMARK SMILES O=C([O-])c1ccccc1O
REMARK SMILES IDX 4 1 9 2 5 3 8 4 6 5 7 6 2 7 1 8 3 9 10 10
REMARK H PARENT 10 11
REMARK Flexibility Score: inf
ROOT
ATOM      1  C   UNL     1     -17.316 -32.320 -18.807  1.00  0.00     0.039 A 
ATOM      2  C   UNL     1     -17.202 -33.052 -17.597  1.00  0.00     0.124 A 
ATOM      3  C   UNL     1     -16.995 -30.950 -18.806  1.00  0.00     0.014 A 
ATOM      4  C   UNL     1     -16.715 -32.417 -16.446  1.00  0.00     0.047 A 
ATOM      5  C   UNL     1     -16.530 -30.327 -17.646  1.00  0.00     0.001 A 
ATOM      6  C   UNL     1     -16.382 -31.061 -16.469  1.00  0.00     0.004 A 
ENDROOT
BRANCH   1   7
ATOM      7  C   UNL     1     -17.724 -32.952 -20.080  1.00  0.00     0.075 C 
ATOM      8  O   UNL     1     -18.766 -33.657 -20.131  1.00  0.00    -0.545 OA
ATOM      9  O   UNL     1     -17.007 -32.725 -21.248  1.00  0.00    -0.545 OA
ENDBRANCH   1   7
BRANCH   2  10
ATOM     10  O   UNL     1     -17.592 -34.387 -17.486  1.00  0.00    -0.507 OA
ATOM     11  H   UNL     1     -17.526 -35.051 -18.246  1.00  0.00     0.293 HD
ENDBRANCH   2  10
TORSDOF 2
ENDMDL
MODEL 4
REMARK VINA RESULT:    -4.114      9.982     11.180
REMARK INTER + INTRA:          -4.720
REMARK INTER:                  -4.471
REMARK INTRA:                  -0.249
REMARK UNBOUND:                -0.246
REMARK SMILES O=C([O-])c1ccccc1O
REMARK SMILES IDX 4 1 9 2 5 3 8 4 6 5 7 6 2 7 1 8 3 9 10 10
REMARK H PARENT 10 11
REMARK Flexibility Score: inf
ROOT
ATOM      1  C   UNL     1     -10.599 -23.699 -15.324  1.00  0.00     0.039 A 
ATOM      2  C   UNL     1     -10.187 -23.992 -13.998  1.00  0.00     0.124 A 
ATOM      3  C   UNL     1     -11.495 -24.574 -15.966  1.00  0.00     0.014 A 
ATOM      4  C   UNL     1     -10.724 -25.103 -13.334  1.00  0.00     0.047 A 
ATOM      5  C   UNL     1     -12.005 -25.690 -15.298  1.00  0.00     0.001 A 
ATOM      6  C   UNL     1     -11.627 -25.948 -13.981  1.00  0.00     0.004 A 
ENDROOT
BRANCH   1   7
ATOM      7  C   UNL     1     -10.152 -22.488 -16.045  1.00  0.00     0.075 C 
ATOM      8  O   UNL     1      -8.932 -22.171 -16.054  1.00  0.00    -0.545 OA
ATOM      9  O   UNL     1     -11.051 -21.723 -16.776  1.00  0.00    -0.545 OA
ENDBRANCH   1   7
BRANCH   2  10
ATOM     10  O   UNL     1      -9.229 -23.233 -13.324  1.00  0.00    -0.507 OA
ATOM     11  H   UNL     1      -8.285 -23.102 -13.662  1.00  0.00     0.293 HD
ENDBRANCH   2  10
TORSDOF 2
ENDMDL
MODEL 5
REMARK VINA RESULT:    -4.092     10.742     12.293
REMARK INTER + INTRA:          -4.697
REMARK INTER:                  -4.449
REMARK INTRA:                  -0.248
REMARK UNBOUND:                -0.246
REMARK SMILES O=C([O-])c1ccccc1O
REMARK SMILES IDX 4 1 9 2 5 3 8 4 6 5 7 6 2 7 1 8 3 9 10 10
REMARK H PARENT 10 11
REMARK Flexibility Score: inf
ROOT
ATOM      1  C   UNL     1     -10.163 -23.371 -14.907  1.00  0.00     0.039 A 
ATOM      2  C   UNL     1      -9.745 -22.166 -14.288  1.00  0.00     0.124 A 
ATOM      3  C   UNL     1     -10.740 -23.312 -16.190  1.00  0.00     0.014 A 
ATOM      4  C   UNL     1      -9.855 -20.954 -14.983  1.00  0.00     0.047 A 
ATOM      5  C   UNL     1     -10.862 -22.094 -16.861  1.00  0.00     0.001 A 
ATOM      6  C   UNL     1     -10.411 -20.917 -16.263  1.00  0.00     0.004 A 
ENDROOT
BRANCH   1   7
ATOM      7  C   UNL     1      -9.980 -24.694 -14.273  1.00  0.00     0.075 C 
ATOM      8  O   UNL     1      -8.879 -24.994 -13.739  1.00  0.00    -0.545 OA
ATOM      9  O   UNL     1     -11.033 -25.597 -14.196  1.00  0.00    -0.545 OA
ENDBRANCH   1   7
BRANCH   2  10
ATOM     10  O   UNL     1      -9.253 -22.123 -12.982  1.00  0.00    -0.507 OA
ATOM     11  H   UNL     1      -9.354 -21.320 -12.375  1.00  0.00     0.293 HD
ENDBRANCH   2  10
TORSDOF 2
ENDMDL
MODEL 6
REMARK VINA RESULT:    -4.066      3.718      4.501
REMARK INTER + INTRA:          -4.669
REMARK INTER:                  -4.436
REMARK INTRA:                  -0.233
REMARK UNBOUND:                -0.246
REMARK SMILES O=C([O-])c1ccccc1O
REMARK SMILES IDX 4 1 9 2 5 3 8 4 6 5 7 6 2 7 1 8 3 9 10 10
REMARK H PARENT 10 11
REMARK Flexibility Score: inf
ROOT
ATOM      1  C   UNL     1     -17.412 -33.154 -21.246  1.00  0.00     0.039 A 
ATOM      2  C   UNL     1     -16.327 -33.861 -20.669  1.00  0.00     0.124 A 
ATOM      3  C   UNL     1     -17.275 -32.643 -22.550  1.00  0.00     0.014 A 
ATOM      4  C   UNL     1     -15.170 -34.093 -21.426  1.00  0.00     0.047 A 
ATOM      5  C   UNL     1     -16.107 -32.864 -23.284  1.00  0.00     0.001 A 
ATOM      6  C   UNL     1     -15.060 -33.596 -22.725  1.00  0.00     0.004 A 
ENDROOT
BRANCH   1   7
ATOM      7  C   UNL     1     -18.699 -32.964 -20.543  1.00  0.00     0.075 C 
ATOM      8  O   UNL     1     -19.769 -32.855 -21.199  1.00  0.00    -0.545 OA
ATOM      9  O   UNL     1     -18.759 -32.969 -19.155  1.00  0.00    -0.545 OA
ENDBRANCH   1   7
BRANCH   2  10
ATOM     10  O   UNL     1     -16.342 -34.316 -19.350  1.00  0.00    -0.507 OA
ATOM     11  H   UNL     1     -16.124 -35.268 -19.086  1.00  0.00     0.293 HD
ENDBRANCH   2  10
TORSDOF 2
ENDMDL
MODEL 7
REMARK VINA RESULT:    -4.061      8.245     10.214
REMARK INTER + INTRA:          -4.663
REMARK INTER:                  -4.483
REMARK INTRA:                  -0.180
REMARK UNBOUND:                -0.246
REMARK SMILES O=C([O-])c1ccccc1O
REMARK SMILES IDX 4 1 9 2 5 3 8 4 6 5 7 6 2 7 1 8 3 9 10 10
REMARK H PARENT 10 11
REMARK Flexibility Score: inf
ROOT
ATOM      1  C   UNL     1     -11.389 -25.431 -14.671  1.00  0.00     0.039 A 
ATOM      2  C   UNL     1     -10.283 -25.142 -13.832  1.00  0.00     0.124 A 
ATOM      3  C   UNL     1     -11.429 -24.869 -15.961  1.00  0.00     0.014 A 
ATOM      4  C   UNL     1      -9.227 -24.361 -14.320  1.00  0.00     0.047 A 
ATOM      5  C   UNL     1     -10.378 -24.075 -16.426  1.00  0.00     0.001 A 
ATOM      6  C   UNL     1      -9.274 -23.829 -15.610  1.00  0.00     0.004 A 
ENDROOT
BRANCH   1   7
ATOM      7  C   UNL     1     -12.486 -26.331 -14.257  1.00  0.00     0.075 C 
ATOM      8  O   UNL     1     -13.298 -25.970 -13.363  1.00  0.00    -0.545 OA
ATOM      9  O   UNL     1     -12.681 -27.553 -14.887  1.00  0.00    -0.545 OA
ENDBRANCH   1   7
BRANCH   2  10
ATOM     10  O   UNL     1     -10.211 -25.577 -12.507  1.00  0.00    -0.507 OA
ATOM     11  H   UNL     1      -9.345 -25.639 -11.988  1.00  0.00     0.293 HD
ENDBRANCH   2  10
TORSDOF 2
ENDMDL
MODEL 8
REMARK VINA RESULT:    -3.970      3.458      3.746
REMARK INTER + INTRA:          -4.564
REMARK INTER:                  -4.313
REMARK INTRA:                  -0.251
REMARK UNBOUND:                -0.246
REMARK SMILES O=C([O-])c1ccccc1O
REMARK SMILES IDX 4 1 9 2 5 3 8 4 6 5 7 6 2 7 1 8 3 9 10 10
REMARK H PARENT 10 11
REMARK Flexibility Score: inf
ROOT
ATOM      1  C   UNL     1     -16.211 -32.278 -20.634  1.00  0.00     0.039 A 
ATOM      2  C   UNL     1     -16.013 -33.669 -20.440  1.00  0.00     0.124 A 
ATOM      3  C   UNL     1     -15.655 -31.664 -21.773  1.00  0.00     0.014 A 
ATOM      4  C   UNL     1     -15.328 -34.413 -21.409  1.00  0.00     0.047 A 
ATOM      5  C   UNL     1     -14.956 -32.417 -22.719  1.00  0.00     0.001 A 
ATOM      6  C   UNL     1     -14.801 -33.791 -22.542  1.00  0.00     0.004 A 
ENDROOT
BRANCH   1   7
ATOM      7  C   UNL     1     -17.012 -31.453 -19.705  1.00  0.00     0.075 C 
ATOM      8  O   UNL     1     -17.937 -30.719 -20.146  1.00  0.00    -0.545 OA
ATOM      9  O   UNL     1     -16.806 -31.522 -18.333  1.00  0.00    -0.545 OA
ENDBRANCH   1   7
BRANCH   2  10
ATOM     10  O   UNL     1     -16.446 -34.336 -19.293  1.00  0.00    -0.507 OA
ATOM     11  H   UNL     1     -17.400 -34.309 -18.960  1.00  0.00     0.293 HD
ENDBRANCH   2  10
TORSDOF 2
ENDMDL
MODEL 9
REMARK VINA RESULT:    -3.927      7.178      8.524
REMARK INTER + INTRA:          -4.517
REMARK INTER:                  -4.347
REMARK INTRA:                  -0.170
REMARK UNBOUND:                -0.246
REMARK SMILES O=C([O-])c1ccccc1O
REMARK SMILES IDX 4 1 9 2 5 3 8 4 6 5 7 6 2 7 1 8 3 9 10 10
REMARK H PARENT 10 11
REMARK Flexibility Score: inf
ROOT
ATOM      1  C   UNL     1     -12.220 -26.211 -15.153  1.00  0.00     0.039 A 
ATOM      2  C   UNL     1     -11.818 -25.387 -16.235  1.00  0.00     0.124 A 
ATOM      3  C   UNL     1     -12.707 -27.503 -15.427  1.00  0.00     0.014 A 
ATOM      4  C   UNL     1     -11.853 -25.892 -17.541  1.00  0.00     0.047 A 
ATOM      5  C   UNL     1     -12.755 -27.984 -16.737  1.00  0.00     0.001 A 
ATOM      6  C   UNL     1     -12.320 -27.183 -17.792  1.00  0.00     0.004 A 
ENDROOT
BRANCH   1   7
ATOM      7  C   UNL     1     -12.112 -25.780 -13.743  1.00  0.00     0.075 C 
ATOM      8  O   UNL     1     -13.139 -25.731 -13.015  1.00  0.00    -0.545 OA
ATOM      9  O   UNL     1     -10.875 -25.487 -13.182  1.00  0.00    -0.545 OA
ENDBRANCH   1   7
BRANCH   2  10
ATOM     10  O   UNL     1     -11.415 -24.062 -16.061  1.00  0.00    -0.507 OA
ATOM     11  H   UNL     1     -10.661 -23.785 -15.446  1.00  0.00     0.293 HD
ENDBRANCH   2  10
TORSDOF 2
ENDMDL
