MODEL 1
REMARK VINA RESULT:    -6.001      0.000      0.000
REMARK INTER + INTRA:          -7.184
REMARK INTER:                  -7.054
REMARK INTRA:                  -0.131
REMARK UNBOUND:                -0.131
REMARK SMILES O=C([O-])C=Cc1ccc(O)c(O)c1
REMARK SMILES IDX 6 1 13 2 7 3 11 4 8 5 9 6 5 7 4 8 2 9 1 10 3 11 12 12 10 14
REMARK H PARENT 12 13 10 15
REMARK Flexibility Score: inf
ROOT
ATOM      1  C   UNL     1     -28.328  -7.085  -0.968  1.00  0.00    -0.022 A 
ATOM      2  C   UNL     1     -28.079  -6.438  -2.190  1.00  0.00     0.058 A 
ATOM      3  C   UNL     1     -29.024  -6.388   0.040  1.00  0.00     0.012 A 
ATOM      4  C   UNL     1     -28.491  -5.112  -2.397  1.00  0.00     0.157 A 
ATOM      5  C   UNL     1     -29.434  -5.068  -0.166  1.00  0.00     0.051 A 
ATOM      6  C   UNL     1     -29.168  -4.426  -1.382  1.00  0.00     0.157 A 
ENDROOT
BRANCH   1   7
ATOM      7  C   UNL     1     -27.881  -8.490  -0.805  1.00  0.00     0.010 C 
ATOM      8  C   UNL     1     -26.776  -8.991  -1.376  1.00  0.00     0.025 C 
BRANCH   8   9
ATOM      9  C   UNL     1     -26.369 -10.396  -1.202  1.00  0.00     0.064 C 
ATOM     10  O   UNL     1     -26.371 -10.939  -0.066  1.00  0.00    -0.545 OA
ATOM     11  O   UNL     1     -25.976 -11.134  -2.311  1.00  0.00    -0.545 OA
ENDBRANCH   8   9
ENDBRANCH   1   7
BRANCH   4  12
ATOM     12  O   UNL     1     -28.232  -4.474  -3.607  1.00  0.00    -0.504 OA
ATOM     13  H   UNL     1     -28.878  -4.530  -4.386  1.00  0.00     0.293 HD
ENDBRANCH   4  12
BRANCH   6  14
ATOM     14  O   UNL     1     -29.576  -3.110  -1.590  1.00  0.00    -0.504 OA
ATOM     15  H   UNL     1     -28.934  -2.333  -1.482  1.00  0.00     0.293 HD
ENDBRANCH   6  14
TORSDOF 4
ENDMDL
MODEL 2
REMARK VINA RESULT:    -5.798      2.715      3.763
REMARK INTER + INTRA:          -6.945
REMARK INTER:                  -6.808
REMARK INTRA:                  -0.136
REMARK UNBOUND:                -0.131
REMARK SMILES O=C([O-])C=Cc1ccc(O)c(O)c1
REMARK SMILES IDX 6 1 13 2 7 3 11 4 8 5 9 6 5 7 4 8 2 9 1 10 3 11 12 12 10 14
REMARK H PARENT 12 13 10 15
REMARK Flexibility Score: inf
ROOT
ATOM      1  C   UNL     1     -29.239  -6.427  -0.072  1.00  0.00    -0.022 A 
ATOM      2  C   UNL     1     -29.582  -5.087  -0.319  1.00  0.00     0.058 A 
ATOM      3  C   UNL     1     -28.456  -7.114  -1.021  1.00  0.00     0.012 A 
ATOM      4  C   UNL     1     -29.176  -4.450  -1.502  1.00  0.00     0.157 A 
ATOM      5  C   UNL     1     -28.052  -6.479  -2.199  1.00  0.00     0.051 A 
ATOM      6  C   UNL     1     -28.412  -5.148  -2.444  1.00  0.00     0.157 A 
ENDROOT
BRANCH   1   7
ATOM      7  C   UNL     1     -29.683  -7.050   1.199  1.00  0.00     0.010 C 
ATOM      8  C   UNL     1     -29.707  -8.374   1.411  1.00  0.00     0.025 C 
BRANCH   8   9
ATOM      9  C   UNL     1     -30.167  -8.958   2.682  1.00  0.00     0.064 C 
ATOM     10  O   UNL     1     -29.353  -9.467   3.499  1.00  0.00    -0.545 OA
ATOM     11  O   UNL     1     -31.522  -8.950   2.986  1.00  0.00    -0.545 OA
ENDBRANCH   8   9
ENDBRANCH   1   7
BRANCH   4  12
ATOM     12  O   UNL     1     -29.528  -3.124  -1.745  1.00  0.00    -0.504 OA
ATOM     13  H   UNL     1     -29.616  -2.763  -2.688  1.00  0.00     0.293 HD
ENDBRANCH   4  12
BRANCH   6  14
ATOM     14  O   UNL     1     -28.011  -4.513  -3.618  1.00  0.00    -0.504 OA
ATOM     15  H   UNL     1     -27.514  -5.011  -4.346  1.00  0.00     0.293 HD
ENDBRANCH   6  14
TORSDOF 4
ENDMDL
MODEL 3
REMARK VINA RESULT:    -5.560      0.903      2.116
REMARK INTER + INTRA:          -6.665
REMARK INTER:                  -6.530
REMARK INTRA:                  -0.136
REMARK UNBOUND:                -0.131
REMARK SMILES O=C([O-])C=Cc1ccc(O)c(O)c1
REMARK SMILES IDX 6 1 13 2 7 3 11 4 8 5 9 6 5 7 4 8 2 9 1 10 3 11 12 12 10 14
REMARK H PARENT 12 13 10 15
REMARK Flexibility Score: inf
ROOT
ATOM      1  C   UNL     1     -28.411  -6.834  -1.105  1.00  0.00    -0.022 A 
ATOM      2  C   UNL     1     -29.047  -6.150  -0.055  1.00  0.00     0.058 A 
ATOM      3  C   UNL     1     -28.230  -6.173  -2.336  1.00  0.00     0.012 A 
ATOM      4  C   UNL     1     -29.517  -4.840  -0.235  1.00  0.00     0.157 A 
ATOM      5  C   UNL     1     -28.699  -4.868  -2.514  1.00  0.00     0.051 A 
ATOM      6  C   UNL     1     -29.345  -4.200  -1.467  1.00  0.00     0.157 A 
ENDROOT
BRANCH   1   7
ATOM      7  C   UNL     1     -27.922  -8.213  -0.860  1.00  0.00     0.010 C 
ATOM      8  C   UNL     1     -26.761  -8.687  -1.334  1.00  0.00     0.025 C 
BRANCH   8   9
ATOM      9  C   UNL     1     -26.314 -10.068  -1.080  1.00  0.00     0.064 C 
ATOM     10  O   UNL     1     -26.303 -10.929  -1.999  1.00  0.00    -0.545 OA
ATOM     11  O   UNL     1     -25.898 -10.426   0.196  1.00  0.00    -0.545 OA
ENDBRANCH   8   9
ENDBRANCH   1   7
BRANCH   4  12
ATOM     12  O   UNL     1     -30.156  -4.171   0.807  1.00  0.00    -0.504 OA
ATOM     13  H   UNL     1     -30.452  -4.656   1.646  1.00  0.00     0.293 HD
ENDBRANCH   4  12
BRANCH   6  14
ATOM     14  O   UNL     1     -29.814  -2.899  -1.643  1.00  0.00    -0.504 OA
ATOM     15  H   UNL     1     -29.601  -2.368  -2.479  1.00  0.00     0.293 HD
ENDBRANCH   6  14
TORSDOF 4
ENDMDL
MODEL 4
REMARK VINA RESULT:    -5.449      6.938     10.350
REMARK INTER + INTRA:          -6.535
REMARK INTER:                  -6.399
REMARK INTRA:                  -0.137
REMARK UNBOUND:                -0.131
REMARK SMILES O=C([O-])C=Cc1ccc(O)c(O)c1
REMARK SMILES IDX 6 1 13 2 7 3 11 4 8 5 9 6 5 7 4 8 2 9 1 10 3 11 12 12 10 14
REMARK H PARENT 12 13 10 15
REMARK Flexibility Score: inf
ROOT
ATOM      1  C   UNL     1     -26.337 -14.938   2.474  1.00  0.00    -0.022 A 
ATOM      2  C   UNL     1     -26.223 -16.250   1.984  1.00  0.00     0.058 A 
ATOM      3  C   UNL     1     -27.052 -14.718   3.668  1.00  0.00     0.012 A 
ATOM      4  C   UNL     1     -26.832 -17.321   2.657  1.00  0.00     0.157 A 
ATOM      5  C   UNL     1     -27.658 -15.785   4.337  1.00  0.00     0.051 A 
ATOM      6  C   UNL     1     -27.552 -17.087   3.834  1.00  0.00     0.157 A 
ENDROOT
BRANCH   1   7
ATOM      7  C   UNL     1     -25.666 -13.843   1.732  1.00  0.00     0.010 C 
ATOM      8  C   UNL     1     -25.080 -12.792   2.324  1.00  0.00     0.025 C 
BRANCH   8   9
ATOM      9  C   UNL     1     -24.433 -11.716   1.553  1.00  0.00     0.064 C 
ATOM     10  O   UNL     1     -23.511 -11.019   2.054  1.00  0.00    -0.545 OA
ATOM     11  O   UNL     1     -24.848 -11.465   0.251  1.00  0.00    -0.545 OA
ENDBRANCH   8   9
ENDBRANCH   1   7
BRANCH   4  12
ATOM     12  O   UNL     1     -26.724 -18.618   2.160  1.00  0.00    -0.504 OA
ATOM     13  H   UNL     1     -25.822 -19.044   1.980  1.00  0.00     0.293 HD
ENDBRANCH   4  12
BRANCH   6  14
ATOM     14  O   UNL     1     -28.156 -18.153   4.499  1.00  0.00    -0.504 OA
ATOM     15  H   UNL     1     -29.129 -18.119   4.780  1.00  0.00     0.293 HD
ENDBRANCH   6  14
TORSDOF 4
ENDMDL
MODEL 5
REMARK VINA RESULT:    -5.436      5.971      7.898
REMARK INTER + INTRA:          -6.520
REMARK INTER:                  -6.382
REMARK INTRA:                  -0.138
REMARK UNBOUND:                -0.131
REMARK SMILES O=C([O-])C=Cc1ccc(O)c(O)c1
REMARK SMILES IDX 6 1 13 2 7 3 11 4 8 5 9 6 5 7 4 8 2 9 1 10 3 11 12 12 10 14
REMARK H PARENT 12 13 10 15
REMARK Flexibility Score: inf
ROOT
ATOM      1  C   UNL     1     -25.321 -12.956   1.794  1.00  0.00    -0.022 A 
ATOM      2  C   UNL     1     -24.231 -12.245   2.324  1.00  0.00     0.058 A 
ATOM      3  C   UNL     1     -25.876 -12.535   0.570  1.00  0.00     0.012 A 
ATOM      4  C   UNL     1     -23.719 -11.119   1.661  1.00  0.00     0.157 A 
ATOM      5  C   UNL     1     -25.366 -11.415  -0.091  1.00  0.00     0.051 A 
ATOM      6  C   UNL     1     -24.290 -10.702   0.453  1.00  0.00     0.157 A 
ENDROOT
BRANCH   1   7
ATOM      7  C   UNL     1     -25.816 -14.146   2.530  1.00  0.00     0.010 C 
ATOM      8  C   UNL     1     -26.229 -15.273   1.931  1.00  0.00     0.025 C 
BRANCH   8   9
ATOM      9  C   UNL     1     -26.727 -16.430   2.694  1.00  0.00     0.064 C 
ATOM     10  O   UNL     1     -26.751 -17.583   2.187  1.00  0.00    -0.545 OA
ATOM     11  O   UNL     1     -27.178 -16.247   3.995  1.00  0.00    -0.545 OA
ENDBRANCH   8   9
ENDBRANCH   1   7
BRANCH   4  12
ATOM     12  O   UNL     1     -22.645 -10.412   2.197  1.00  0.00    -0.504 OA
ATOM     13  H   UNL     1     -21.823 -10.886   2.554  1.00  0.00     0.293 HD
ENDBRANCH   4  12
BRANCH   6  14
ATOM     14  O   UNL     1     -23.780  -9.583  -0.203  1.00  0.00    -0.504 OA
ATOM     15  H   UNL     1     -22.784  -9.457  -0.339  1.00  0.00     0.293 HD
ENDBRANCH   6  14
TORSDOF 4
ENDMDL
MODEL 6
REMARK VINA RESULT:    -5.402      5.728      7.322
REMARK INTER + INTRA:          -6.480
REMARK INTER:                  -6.352
REMARK INTRA:                  -0.128
REMARK UNBOUND:                -0.131
REMARK SMILES O=C([O-])C=Cc1ccc(O)c(O)c1
REMARK SMILES IDX 6 1 13 2 7 3 11 4 8 5 9 6 5 7 4 8 2 9 1 10 3 11 12 12 10 14
REMARK H PARENT 12 13 10 15
REMARK Flexibility Score: inf
ROOT
ATOM      1  C   UNL     1     -25.593 -11.705   2.112  1.00  0.00    -0.022 A 
ATOM      2  C   UNL     1     -24.685 -10.763   1.598  1.00  0.00     0.058 A 
ATOM      3  C   UNL     1     -26.376 -12.455   1.212  1.00  0.00     0.012 A 
ATOM      4  C   UNL     1     -24.576 -10.554   0.215  1.00  0.00     0.157 A 
ATOM      5  C   UNL     1     -26.267 -12.247  -0.165  1.00  0.00     0.051 A 
ATOM      6  C   UNL     1     -25.370 -11.296  -0.667  1.00  0.00     0.157 A 
ENDROOT
BRANCH   1   7
ATOM      7  C   UNL     1     -25.661 -11.895   3.582  1.00  0.00     0.010 C 
ATOM      8  C   UNL     1     -25.775 -10.887   4.459  1.00  0.00     0.025 C 
BRANCH   8   9
ATOM      9  C   UNL     1     -25.828 -11.114   5.914  1.00  0.00     0.064 C 
ATOM     10  O   UNL     1     -26.465 -12.086   6.400  1.00  0.00    -0.545 OA
ATOM     11  O   UNL     1     -25.165 -10.238   6.765  1.00  0.00    -0.545 OA
ENDBRANCH   8   9
ENDBRANCH   1   7
BRANCH   4  12
ATOM     12  O   UNL     1     -23.680  -9.613  -0.287  1.00  0.00    -0.504 OA
ATOM     13  H   UNL     1     -23.611  -8.683   0.109  1.00  0.00     0.293 HD
ENDBRANCH   4  12
BRANCH   6  14
ATOM     14  O   UNL     1     -25.260 -11.085  -2.041  1.00  0.00    -0.504 OA
ATOM     15  H   UNL     1     -25.978 -10.595  -2.561  1.00  0.00     0.293 HD
ENDBRANCH   6  14
TORSDOF 4
ENDMDL
MODEL 7
REMARK VINA RESULT:    -5.356      5.761      7.289
REMARK INTER + INTRA:          -6.426
REMARK INTER:                  -6.299
REMARK INTRA:                  -0.127
REMARK UNBOUND:                -0.131
REMARK SMILES O=C([O-])C=Cc1ccc(O)c(O)c1
REMARK SMILES IDX 6 1 13 2 7 3 11 4 8 5 9 6 5 7 4 8 2 9 1 10 3 11 12 12 10 14
REMARK H PARENT 12 13 10 15
REMARK Flexibility Score: inf
ROOT
ATOM      1  C   UNL     1     -25.760 -12.763   1.370  1.00  0.00    -0.022 A 
ATOM      2  C   UNL     1     -25.961 -12.416   0.023  1.00  0.00     0.058 A 
ATOM      3  C   UNL     1     -24.885 -11.981   2.150  1.00  0.00     0.012 A 
ATOM      4  C   UNL     1     -25.283 -11.327  -0.545  1.00  0.00     0.157 A 
ATOM      5  C   UNL     1     -24.211 -10.896   1.584  1.00  0.00     0.051 A 
ATOM      6  C   UNL     1     -24.405 -10.567   0.236  1.00  0.00     0.157 A 
ENDROOT
BRANCH   1   7
ATOM      7  C   UNL     1     -26.509 -13.917   1.924  1.00  0.00     0.010 C 
ATOM      8  C   UNL     1     -25.981 -15.138   2.089  1.00  0.00     0.025 C 
BRANCH   8   9
ATOM      9  C   UNL     1     -26.760 -16.265   2.632  1.00  0.00     0.064 C 
ATOM     10  O   UNL     1     -27.090 -16.304   3.847  1.00  0.00    -0.545 OA
ATOM     11  O   UNL     1     -27.136 -17.303   1.789  1.00  0.00    -0.545 OA
ENDBRANCH   8   9
ENDBRANCH   1   7
BRANCH   4  12
ATOM     12  O   UNL     1     -25.479 -10.995  -1.884  1.00  0.00    -0.504 OA
ATOM     13  H   UNL     1     -25.774 -11.685  -2.564  1.00  0.00     0.293 HD
ENDBRANCH   4  12
BRANCH   6  14
ATOM     14  O   UNL     1     -23.733  -9.486  -0.331  1.00  0.00    -0.504 OA
ATOM     15  H   UNL     1     -23.584  -9.420  -1.331  1.00  0.00     0.293 HD
ENDBRANCH   6  14
TORSDOF 4
ENDMDL
MODEL 8
REMARK VINA RESULT:    -5.324      6.299      7.615
REMARK INTER + INTRA:          -6.388
REMARK INTER:                  -6.264
REMARK INTRA:                  -0.124
REMARK UNBOUND:                -0.131
REMARK SMILES O=C([O-])C=Cc1ccc(O)c(O)c1
REMARK SMILES IDX 6 1 13 2 7 3 11 4 8 5 9 6 5 7 4 8 2 9 1 10 3 11 12 12 10 14
REMARK H PARENT 12 13 10 15
REMARK Flexibility Score: inf
ROOT
ATOM      1  C   UNL     1     -25.507 -12.684   1.531  1.00  0.00    -0.022 A 
ATOM      2  C   UNL     1     -25.210 -11.612   0.673  1.00  0.00     0.058 A 
ATOM      3  C   UNL     1     -24.612 -12.985   2.577  1.00  0.00     0.012 A 
ATOM      4  C   UNL     1     -24.032 -10.868   0.836  1.00  0.00     0.157 A 
ATOM      5  C   UNL     1     -23.438 -12.244   2.740  1.00  0.00     0.051 A 
ATOM      6  C   UNL     1     -23.143 -11.187   1.870  1.00  0.00     0.157 A 
ENDROOT
BRANCH   1   7
ATOM      7  C   UNL     1     -26.771 -13.431   1.322  1.00  0.00     0.010 C 
ATOM      8  C   UNL     1     -26.873 -14.522   0.549  1.00  0.00     0.025 C 
BRANCH   8   9
ATOM      9  C   UNL     1     -28.149 -15.232   0.355  1.00  0.00     0.064 C 
ATOM     10  O   UNL     1     -28.179 -16.473   0.141  1.00  0.00    -0.545 OA
ATOM     11  O   UNL     1     -29.340 -14.519   0.407  1.00  0.00    -0.545 OA
ENDBRANCH   8   9
ENDBRANCH   1   7
BRANCH   4  12
ATOM     12  O   UNL     1     -23.739  -9.813  -0.025  1.00  0.00    -0.504 OA
ATOM     13  H   UNL     1     -23.380  -9.974  -0.959  1.00  0.00     0.293 HD
ENDBRANCH   4  12
BRANCH   6  14
ATOM     14  O   UNL     1     -21.973 -10.446   2.029  1.00  0.00    -0.504 OA
ATOM     15  H   UNL     1     -21.256 -10.429   1.313  1.00  0.00     0.293 HD
ENDBRANCH   6  14
TORSDOF 4
ENDMDL
MODEL 9
REMARK VINA RESULT:    -5.314      7.640     10.899
REMARK INTER + INTRA:          -6.377
REMARK INTER:                  -6.249
REMARK INTRA:                  -0.128
REMARK UNBOUND:                -0.131
REMARK SMILES O=C([O-])C=Cc1ccc(O)c(O)c1
REMARK SMILES IDX 6 1 13 2 7 3 11 4 8 5 9 6 5 7 4 8 2 9 1 10 3 11 12 12 10 14
REMARK H PARENT 12 13 10 15
REMARK Flexibility Score: inf
ROOT
ATOM      1  C   UNL     1     -26.451 -14.945   2.707  1.00  0.00    -0.022 A 
ATOM      2  C   UNL     1     -27.212 -15.772   3.550  1.00  0.00     0.058 A 
ATOM      3  C   UNL     1     -25.694 -15.537   1.676  1.00  0.00     0.012 A 
ATOM      4  C   UNL     1     -27.201 -17.166   3.386  1.00  0.00     0.157 A 
ATOM      5  C   UNL     1     -25.684 -16.925   1.513  1.00  0.00     0.051 A 
ATOM      6  C   UNL     1     -26.433 -17.743   2.368  1.00  0.00     0.157 A 
ENDROOT
BRANCH   1   7
ATOM      7  C   UNL     1     -26.506 -13.477   2.915  1.00  0.00     0.010 C 
ATOM      8  C   UNL     1     -26.202 -12.878   4.075  1.00  0.00     0.025 C 
BRANCH   8   9
ATOM      9  C   UNL     1     -26.280 -11.417   4.249  1.00  0.00     0.064 C 
ATOM     10  O   UNL     1     -27.219 -10.749   3.740  1.00  0.00    -0.545 OA
ATOM     11  O   UNL     1     -25.300 -10.764   4.986  1.00  0.00    -0.545 OA
ENDBRANCH   8   9
ENDBRANCH   1   7
BRANCH   4  12
ATOM     12  O   UNL     1     -27.950 -17.981   4.231  1.00  0.00    -0.504 OA
ATOM     13  H   UNL     1     -28.282 -18.892   3.934  1.00  0.00     0.293 HD
ENDBRANCH   4  12
BRANCH   6  14
ATOM     14  O   UNL     1     -26.424 -19.128   2.208  1.00  0.00    -0.504 OA
ATOM     15  H   UNL     1     -25.564 -19.635   2.036  1.00  0.00     0.293 HD
ENDBRANCH   6  14
TORSDOF 4
ENDMDL
