MODEL 1
REMARK VINA RESULT:    -4.350      0.000      0.000
REMARK INTER + INTRA:          -4.777
REMARK INTER:                  -4.732
REMARK INTRA:                  -0.045
REMARK UNBOUND:                -0.045
REMARK SMILES COc1cc2ccc(=O)oc2cc1O
REMARK SMILES IDX 3 1 13 2 12 3 11 4 5 5 4 6 6 7 7 8 8 9 9 10 10 11 2 12 1 13
REMARK SMILES IDX 14 14
REMARK H PARENT 14 15
REMARK Flexibility Score: inf
ROOT
ATOM      1  C   UNL     1    -102.792 185.689  49.558  1.00  0.00     0.161 A 
ATOM      2  C   UNL     1    -103.130 184.530  50.275  1.00  0.00     0.161 A 
ATOM      3  C   UNL     1    -104.268 184.510  51.094  1.00  0.00     0.098 A 
ATOM      4  C   UNL     1    -105.077 185.643  51.203  1.00  0.00     0.142 A 
ATOM      5  C   UNL     1    -104.746 186.812  50.487  1.00  0.00     0.022 A 
ATOM      6  C   UNL     1    -103.608 186.833  49.668  1.00  0.00     0.062 A 
ATOM      7  C   UNL     1    -105.575 187.931  50.617  1.00  0.00     0.019 A 
ATOM      8  C   UNL     1    -106.695 187.860  51.443  1.00  0.00     0.094 A 
ATOM      9  C   UNL     1    -106.961 186.667  52.124  1.00  0.00     0.336 A 
ATOM     10  O   UNL     1    -107.968 186.583  52.875  1.00  0.00    -0.246 OA
ATOM     11  O   UNL     1    -106.156 185.617  51.982  1.00  0.00    -0.423 OA
ENDROOT
BRANCH   1  12
ATOM     12  O   UNL     1    -101.644 185.664  48.752  1.00  0.00    -0.493 OA
ATOM     13  C   UNL     1    -101.158 186.775  48.006  1.00  0.00     0.278 C 
ENDBRANCH   1  12
BRANCH   2  14
ATOM     14  O   UNL     1    -102.324 183.397  50.168  1.00  0.00    -0.504 OA
ATOM     15  H   UNL     1    -101.772 183.216  49.338  1.00  0.00     0.293 HD
ENDBRANCH   2  14
TORSDOF 2
ENDMDL
MODEL 2
REMARK VINA RESULT:    -4.303      1.827      5.284
REMARK INTER + INTRA:          -4.726
REMARK INTER:                  -4.661
REMARK INTRA:                  -0.065
REMARK UNBOUND:                -0.045
REMARK SMILES COc1cc2ccc(=O)oc2cc1O
REMARK SMILES IDX 3 1 13 2 12 3 11 4 5 5 4 6 6 7 7 8 8 9 9 10 10 11 2 12 1 13
REMARK SMILES IDX 14 14
REMARK H PARENT 14 15
REMARK Flexibility Score: inf
ROOT
ATOM      1  C   UNL     1    -105.898 184.988  50.929  1.00  0.00     0.161 A 
ATOM      2  C   UNL     1    -106.213 186.055  50.073  1.00  0.00     0.161 A 
ATOM      3  C   UNL     1    -105.216 186.653  49.289  1.00  0.00     0.098 A 
ATOM      4  C   UNL     1    -103.899 186.191  49.352  1.00  0.00     0.142 A 
ATOM      5  C   UNL     1    -103.574 185.119  50.209  1.00  0.00     0.022 A 
ATOM      6  C   UNL     1    -104.569 184.522  50.993  1.00  0.00     0.062 A 
ATOM      7  C   UNL     1    -102.246 184.679  50.251  1.00  0.00     0.019 A 
ATOM      8  C   UNL     1    -101.291 185.307  49.452  1.00  0.00     0.094 A 
ATOM      9  C   UNL     1    -101.688 186.364  48.626  1.00  0.00     0.336 A 
ATOM     10  O   UNL     1    -100.841 186.944  47.897  1.00  0.00    -0.246 OA
ATOM     11  O   UNL     1    -102.957 186.763  48.605  1.00  0.00    -0.423 OA
ENDROOT
BRANCH   1  12
ATOM     12  O   UNL     1    -106.928 184.421  51.695  1.00  0.00    -0.493 OA
ATOM     13  C   UNL     1    -107.577 183.191  51.389  1.00  0.00     0.278 C 
ENDBRANCH   1  12
BRANCH   2  14
ATOM     14  O   UNL     1    -107.527 186.519  50.007  1.00  0.00    -0.504 OA
ATOM     15  H   UNL     1    -108.151 186.241  49.259  1.00  0.00     0.293 HD
ENDBRANCH   2  14
TORSDOF 2
ENDMDL
MODEL 3
REMARK VINA RESULT:    -3.959     13.033     13.530
REMARK INTER + INTRA:          -4.351
REMARK INTER:                  -4.290
REMARK INTRA:                  -0.061
REMARK UNBOUND:                -0.045
REMARK SMILES COc1cc2ccc(=O)oc2cc1O
REMARK SMILES IDX 3 1 13 2 12 3 11 4 5 5 4 6 6 7 7 8 8 9 9 10 10 11 2 12 1 13
REMARK SMILES IDX 14 14
REMARK H PARENT 14 15
REMARK Flexibility Score: inf
ROOT
ATOM      1  C   UNL     1     -97.187 190.594  60.245  1.00  0.00     0.161 A 
ATOM      2  C   UNL     1     -98.446 190.935  59.726  1.00  0.00     0.161 A 
ATOM      3  C   UNL     1     -98.604 192.097  58.957  1.00  0.00     0.098 A 
ATOM      4  C   UNL     1     -97.510 192.926  58.700  1.00  0.00     0.142 A 
ATOM      5  C   UNL     1     -96.241 192.590  59.217  1.00  0.00     0.022 A 
ATOM      6  C   UNL     1     -96.082 191.430  59.986  1.00  0.00     0.062 A 
ATOM      7  C   UNL     1     -95.164 193.441  58.943  1.00  0.00     0.019 A 
ATOM      8  C   UNL     1     -95.373 194.583  58.173  1.00  0.00     0.094 A 
ATOM      9  C   UNL     1     -96.660 194.852  57.693  1.00  0.00     0.336 A 
ATOM     10  O   UNL     1     -96.868 195.879  56.996  1.00  0.00    -0.246 OA
ATOM     11  O   UNL     1     -97.667 194.027  57.968  1.00  0.00    -0.423 OA
ENDROOT
BRANCH   1  12
ATOM     12  O   UNL     1     -97.076 189.423  61.009  1.00  0.00    -0.493 OA
ATOM     13  C   UNL     1     -96.275 188.301  60.653  1.00  0.00     0.278 C 
ENDBRANCH   1  12
BRANCH   2  14
ATOM     14  O   UNL     1     -99.541 190.110  59.981  1.00  0.00    -0.504 OA
ATOM     15  H   UNL     1    -100.150 189.791  59.236  1.00  0.00     0.293 HD
ENDBRANCH   2  14
TORSDOF 2
ENDMDL
MODEL 4
REMARK VINA RESULT:    -3.944      2.112      4.749
REMARK INTER + INTRA:          -4.335
REMARK INTER:                  -4.271
REMARK INTRA:                  -0.063
REMARK UNBOUND:                -0.045
REMARK SMILES COc1cc2ccc(=O)oc2cc1O
REMARK SMILES IDX 3 1 13 2 12 3 11 4 5 5 4 6 6 7 7 8 8 9 9 10 10 11 2 12 1 13
REMARK SMILES IDX 14 14
REMARK H PARENT 14 15
REMARK Flexibility Score: inf
ROOT
ATOM      1  C   UNL     1    -106.706 185.996  49.030  1.00  0.00     0.161 A 
ATOM      2  C   UNL     1    -106.736 185.101  50.112  1.00  0.00     0.161 A 
ATOM      3  C   UNL     1    -105.541 184.623  50.668  1.00  0.00     0.098 A 
ATOM      4  C   UNL     1    -104.309 185.034  50.153  1.00  0.00     0.142 A 
ATOM      5  C   UNL     1    -104.270 185.932  49.066  1.00  0.00     0.022 A 
ATOM      6  C   UNL     1    -105.464 186.410  48.509  1.00  0.00     0.062 A 
ATOM      7  C   UNL     1    -103.022 186.325  48.571  1.00  0.00     0.019 A 
ATOM      8  C   UNL     1    -101.863 185.822  49.160  1.00  0.00     0.094 A 
ATOM      9  C   UNL     1    -101.979 184.933  50.234  1.00  0.00     0.336 A 
ATOM     10  O   UNL     1    -100.944 184.468  50.780  1.00  0.00    -0.246 OA
ATOM     11  O   UNL     1    -103.179 184.577  50.687  1.00  0.00    -0.423 OA
ENDROOT
BRANCH   1  12
ATOM     12  O   UNL     1    -107.926 186.447  48.505  1.00  0.00    -0.493 OA
ATOM     13  C   UNL     1    -108.394 187.790  48.591  1.00  0.00     0.278 C 
ENDBRANCH   1  12
BRANCH   2  14
ATOM     14  O   UNL     1    -107.963 184.689  50.629  1.00  0.00    -0.504 OA
ATOM     15  H   UNL     1    -108.510 185.287  51.237  1.00  0.00     0.293 HD
ENDBRANCH   2  14
TORSDOF 2
ENDMDL
MODEL 5
REMARK VINA RESULT:    -3.629      1.680      4.913
REMARK INTER + INTRA:          -3.992
REMARK INTER:                  -3.928
REMARK INTRA:                  -0.064
REMARK UNBOUND:                -0.045
REMARK SMILES COc1cc2ccc(=O)oc2cc1O
REMARK SMILES IDX 3 1 13 2 12 3 11 4 5 5 4 6 6 7 7 8 8 9 9 10 10 11 2 12 1 13
REMARK SMILES IDX 14 14
REMARK H PARENT 14 15
REMARK Flexibility Score: inf
ROOT
ATOM      1  C   UNL     1    -106.591 184.838  51.325  1.00  0.00     0.161 A 
ATOM      2  C   UNL     1    -105.636 184.139  52.081  1.00  0.00     0.161 A 
ATOM      3  C   UNL     1    -104.285 184.160  51.709  1.00  0.00     0.098 A 
ATOM      4  C   UNL     1    -103.875 184.879  50.583  1.00  0.00     0.142 A 
ATOM      5  C   UNL     1    -104.827 185.585  49.819  1.00  0.00     0.022 A 
ATOM      6  C   UNL     1    -106.179 185.563  50.189  1.00  0.00     0.062 A 
ATOM      7  C   UNL     1    -104.387 186.295  48.696  1.00  0.00     0.019 A 
ATOM      8  C   UNL     1    -103.032 186.286  48.369  1.00  0.00     0.094 A 
ATOM      9  C   UNL     1    -102.145 185.563  49.174  1.00  0.00     0.336 A 
ATOM     10  O   UNL     1    -100.918 185.542  48.895  1.00  0.00    -0.246 OA
ATOM     11  O   UNL     1    -102.590 184.896  50.236  1.00  0.00    -0.423 OA
ENDROOT
BRANCH   1  12
ATOM     12  O   UNL     1    -107.932 184.787  51.734  1.00  0.00    -0.493 OA
ATOM     13  C   UNL     1    -108.654 185.892  52.270  1.00  0.00     0.278 C 
ENDBRANCH   1  12
BRANCH   2  14
ATOM     14  O   UNL     1    -106.042 183.420  53.205  1.00  0.00    -0.504 OA
ATOM     15  H   UNL     1    -105.515 183.446  54.070  1.00  0.00     0.293 HD
ENDBRANCH   2  14
TORSDOF 2
ENDMDL
MODEL 6
REMARK VINA RESULT:    -3.624      3.008      5.297
REMARK INTER + INTRA:          -3.987
REMARK INTER:                  -3.926
REMARK INTRA:                  -0.061
REMARK UNBOUND:                -0.045
REMARK SMILES COc1cc2ccc(=O)oc2cc1O
REMARK SMILES IDX 3 1 13 2 12 3 11 4 5 5 4 6 6 7 7 8 8 9 9 10 10 11 2 12 1 13
REMARK SMILES IDX 14 14
REMARK H PARENT 14 15
REMARK Flexibility Score: inf
ROOT
ATOM      1  C   UNL     1    -106.397 190.370  50.812  1.00  0.00     0.161 A 
ATOM      2  C   UNL     1    -105.274 190.186  51.634  1.00  0.00     0.161 A 
ATOM      3  C   UNL     1    -104.573 188.972  51.614  1.00  0.00     0.098 A 
ATOM      4  C   UNL     1    -104.985 187.934  50.775  1.00  0.00     0.142 A 
ATOM      5  C   UNL     1    -106.112 188.110  49.945  1.00  0.00     0.022 A 
ATOM      6  C   UNL     1    -106.814 189.323  49.965  1.00  0.00     0.062 A 
ATOM      7  C   UNL     1    -106.501 187.052  49.116  1.00  0.00     0.019 A 
ATOM      8  C   UNL     1    -105.770 185.865  49.133  1.00  0.00     0.094 A 
ATOM      9  C   UNL     1    -104.663 185.763  49.982  1.00  0.00     0.336 A 
ATOM     10  O   UNL     1    -103.990 184.699  50.011  1.00  0.00    -0.246 OA
ATOM     11  O   UNL     1    -104.314 186.784  50.760  1.00  0.00    -0.423 OA
ENDROOT
BRANCH   1  12
ATOM     12  O   UNL     1    -107.068 191.601  50.865  1.00  0.00    -0.493 OA
ATOM     13  C   UNL     1    -106.862 192.672  49.950  1.00  0.00     0.278 C 
ENDBRANCH   1  12
BRANCH   2  14
ATOM     14  O   UNL     1    -104.860 191.220  52.473  1.00  0.00    -0.504 OA
ATOM     15  H   UNL     1    -105.251 192.152  52.399  1.00  0.00     0.293 HD
ENDBRANCH   2  14
TORSDOF 2
ENDMDL
MODEL 7
REMARK VINA RESULT:    -3.603      1.825      2.205
REMARK INTER + INTRA:          -3.964
REMARK INTER:                  -3.899
REMARK INTRA:                  -0.065
REMARK UNBOUND:                -0.045
REMARK SMILES COc1cc2ccc(=O)oc2cc1O
REMARK SMILES IDX 3 1 13 2 12 3 11 4 5 5 4 6 6 7 7 8 8 9 9 10 10 11 2 12 1 13
REMARK SMILES IDX 14 14
REMARK H PARENT 14 15
REMARK Flexibility Score: inf
ROOT
ATOM      1  C   UNL     1    -104.080 186.468  49.983  1.00  0.00     0.161 A 
ATOM      2  C   UNL     1    -104.926 185.555  50.632  1.00  0.00     0.161 A 
ATOM      3  C   UNL     1    -105.768 185.983  51.668  1.00  0.00     0.098 A 
ATOM      4  C   UNL     1    -105.773 187.323  52.064  1.00  0.00     0.142 A 
ATOM      5  C   UNL     1    -104.927 188.247  51.417  1.00  0.00     0.022 A 
ATOM      6  C   UNL     1    -104.084 187.820  50.381  1.00  0.00     0.062 A 
ATOM      7  C   UNL     1    -104.953 189.582  51.836  1.00  0.00     0.019 A 
ATOM      8  C   UNL     1    -105.809 189.957  52.870  1.00  0.00     0.094 A 
ATOM      9  C   UNL     1    -106.621 188.985  53.465  1.00  0.00     0.336 A 
ATOM     10  O   UNL     1    -107.400 189.305  54.401  1.00  0.00    -0.246 OA
ATOM     11  O   UNL     1    -106.576 187.722  53.048  1.00  0.00    -0.423 OA
ENDROOT
BRANCH   1  12
ATOM     12  O   UNL     1    -103.254 185.995  48.952  1.00  0.00    -0.493 OA
ATOM     13  C   UNL     1    -101.855 185.761  49.082  1.00  0.00     0.278 C 
ENDBRANCH   1  12
BRANCH   2  14
ATOM     14  O   UNL     1    -104.923 184.217  50.240  1.00  0.00    -0.504 OA
ATOM     15  H   UNL     1    -104.436 183.910  49.406  1.00  0.00     0.293 HD
ENDBRANCH   2  14
TORSDOF 2
ENDMDL
MODEL 8
REMARK VINA RESULT:    -3.592      1.208      4.781
REMARK INTER + INTRA:          -3.952
REMARK INTER:                  -3.905
REMARK INTRA:                  -0.048
REMARK UNBOUND:                -0.045
REMARK SMILES COc1cc2ccc(=O)oc2cc1O
REMARK SMILES IDX 3 1 13 2 12 3 11 4 5 5 4 6 6 7 7 8 8 9 9 10 10 11 2 12 1 13
REMARK SMILES IDX 14 14
REMARK H PARENT 14 15
REMARK Flexibility Score: inf
ROOT
ATOM      1  C   UNL     1    -106.577 187.670  51.035  1.00  0.00     0.161 A 
ATOM      2  C   UNL     1    -106.841 186.508  51.777  1.00  0.00     0.161 A 
ATOM      3  C   UNL     1    -105.941 185.433  51.754  1.00  0.00     0.098 A 
ATOM      4  C   UNL     1    -104.772 185.509  50.994  1.00  0.00     0.142 A 
ATOM      5  C   UNL     1    -104.498 186.673  50.246  1.00  0.00     0.022 A 
ATOM      6  C   UNL     1    -105.397 187.748  50.267  1.00  0.00     0.062 A 
ATOM      7  C   UNL     1    -103.319 186.720  49.493  1.00  0.00     0.019 A 
ATOM      8  C   UNL     1    -102.456 185.625  49.505  1.00  0.00     0.094 A 
ATOM      9  C   UNL     1    -102.793 184.504  50.271  1.00  0.00     0.336 A 
ATOM     10  O   UNL     1    -102.027 183.506  50.294  1.00  0.00    -0.246 OA
ATOM     11  O   UNL     1    -103.921 184.486  50.978  1.00  0.00    -0.423 OA
ENDROOT
BRANCH   1  12
ATOM     12  O   UNL     1    -107.506 188.720  51.087  1.00  0.00    -0.493 OA
ATOM     13  C   UNL     1    -107.178 190.096  50.927  1.00  0.00     0.278 C 
ENDBRANCH   1  12
BRANCH   2  14
ATOM     14  O   UNL     1    -108.008 186.428  52.537  1.00  0.00    -0.504 OA
ATOM     15  H   UNL     1    -108.567 185.584  52.563  1.00  0.00     0.293 HD
ENDBRANCH   2  14
TORSDOF 2
ENDMDL
MODEL 9
REMARK VINA RESULT:    -3.503      2.190      5.578
REMARK INTER + INTRA:          -3.855
REMARK INTER:                  -3.790
REMARK INTRA:                  -0.065
REMARK UNBOUND:                -0.045
REMARK SMILES COc1cc2ccc(=O)oc2cc1O
REMARK SMILES IDX 3 1 13 2 12 3 11 4 5 5 4 6 6 7 7 8 8 9 9 10 10 11 2 12 1 13
REMARK SMILES IDX 14 14
REMARK H PARENT 14 15
REMARK Flexibility Score: inf
ROOT
ATOM      1  C   UNL     1    -106.373 188.096  53.212  1.00  0.00     0.161 A 
ATOM      2  C   UNL     1    -105.605 189.135  52.663  1.00  0.00     0.161 A 
ATOM      3  C   UNL     1    -104.764 188.892  51.567  1.00  0.00     0.098 A 
ATOM      4  C   UNL     1    -104.685 187.614  51.010  1.00  0.00     0.142 A 
ATOM      5  C   UNL     1    -105.453 186.564  51.554  1.00  0.00     0.022 A 
ATOM      6  C   UNL     1    -106.293 186.805  52.650  1.00  0.00     0.062 A 
ATOM      7  C   UNL     1    -105.351 185.294  50.975  1.00  0.00     0.019 A 
ATOM      8  C   UNL     1    -104.502 185.105  49.886  1.00  0.00     0.094 A 
ATOM      9  C   UNL     1    -103.770 186.193  49.400  1.00  0.00     0.336 A 
ATOM     10  O   UNL     1    -102.998 186.042  48.417  1.00  0.00    -0.246 OA
ATOM     11  O   UNL     1    -103.886 187.391  49.969  1.00  0.00    -0.423 OA
ENDROOT
BRANCH   1  12
ATOM     12  O   UNL     1    -107.199 188.384  54.308  1.00  0.00    -0.493 OA
ATOM     13  C   UNL     1    -106.919 188.002  55.651  1.00  0.00     0.278 C 
ENDBRANCH   1  12
BRANCH   2  14
ATOM     14  O   UNL     1    -105.682 190.413  53.217  1.00  0.00    -0.504 OA
ATOM     15  H   UNL     1    -105.108 191.174  52.875  1.00  0.00     0.293 HD
ENDBRANCH   2  14
TORSDOF 2
ENDMDL
