MODEL 1
REMARK VINA RESULT:    -3.193      0.000      0.000
REMARK INTER + INTRA:          -3.581
REMARK INTER:                  -3.567
REMARK INTRA:                  -0.015
REMARK UNBOUND:                -0.015
REMARK SMILES CCCC(=O)[O-]
REMARK SMILES IDX 3 1 4 2 5 3 6 4 2 5 1 6
REMARK H PARENT
REMARK Flexibility Score: inf
ROOT
ATOM      1  C   UNL     1     -99.223  31.870 -38.138  1.00  0.00     0.052 C 
ENDROOT
BRANCH   1   2
ATOM      2  C   UNL     1     -99.765  31.784 -36.747  1.00  0.00     0.041 C 
ATOM      3  O   UNL     1     -98.981  31.736 -35.763  1.00  0.00    -0.550 OA
ATOM      4  O   UNL     1    -101.137  31.804 -36.534  1.00  0.00    -0.550 OA
ENDBRANCH   1   2
BRANCH   1   5
ATOM      5  C   UNL     1     -98.321  33.099 -38.286  1.00  0.00     0.003 C 
ATOM      6  C   UNL     1     -97.250  32.872 -39.349  1.00  0.00     0.004 C 
ENDBRANCH   1   5
TORSDOF 2
ENDMDL
MODEL 2
REMARK VINA RESULT:    -2.640      2.718      3.579
REMARK INTER + INTRA:          -2.963
REMARK INTER:                  -2.918
REMARK INTRA:                  -0.045
REMARK UNBOUND:                -0.015
REMARK SMILES CCCC(=O)[O-]
REMARK SMILES IDX 3 1 4 2 5 3 6 4 2 5 1 6
REMARK H PARENT
REMARK Flexibility Score: inf
ROOT
ATOM      1  C   UNL     1     -98.389  32.487 -37.686  1.00  0.00     0.052 C 
ENDROOT
BRANCH   1   2
ATOM      2  C   UNL     1     -97.840  33.036 -38.964  1.00  0.00     0.041 C 
ATOM      3  O   UNL     1     -98.313  34.095 -39.453  1.00  0.00    -0.550 OA
ATOM      4  O   UNL     1     -96.772  32.406 -39.589  1.00  0.00    -0.550 OA
ENDBRANCH   1   2
BRANCH   1   5
ATOM      5  C   UNL     1     -99.783  31.895 -37.913  1.00  0.00     0.003 C 
ATOM      6  C   UNL     1     -99.702  30.410 -38.253  1.00  0.00     0.004 C 
ENDBRANCH   1   5
TORSDOF 2
ENDMDL
MODEL 3
REMARK VINA RESULT:    -2.631      1.494      1.989
REMARK INTER + INTRA:          -2.953
REMARK INTER:                  -2.932
REMARK INTRA:                  -0.022
REMARK UNBOUND:                -0.015
REMARK SMILES CCCC(=O)[O-]
REMARK SMILES IDX 3 1 4 2 5 3 6 4 2 5 1 6
REMARK H PARENT
REMARK Flexibility Score: inf
ROOT
ATOM      1  C   UNL     1     -99.729  31.535 -36.982  1.00  0.00     0.052 C 
ENDROOT
BRANCH   1   2
ATOM      2  C   UNL     1    -101.215  31.454 -37.135  1.00  0.00     0.041 C 
ATOM      3  O   UNL     1    -101.719  31.048 -38.215  1.00  0.00    -0.550 OA
ATOM      4  O   UNL     1    -102.042  31.780 -36.068  1.00  0.00    -0.550 OA
ENDBRANCH   1   2
BRANCH   1   5
ATOM      5  C   UNL     1     -99.074  31.914 -38.313  1.00  0.00     0.003 C 
ATOM      6  C   UNL     1     -98.370  33.265 -38.216  1.00  0.00     0.004 C 
ENDBRANCH   1   5
TORSDOF 2
ENDMDL
MODEL 4
REMARK VINA RESULT:    -2.544     14.176     14.478
REMARK INTER + INTRA:          -2.856
REMARK INTER:                  -2.817
REMARK INTRA:                  -0.039
REMARK UNBOUND:                -0.015
REMARK SMILES CCCC(=O)[O-]
REMARK SMILES IDX 3 1 4 2 5 3 6 4 2 5 1 6
REMARK H PARENT
REMARK Flexibility Score: inf
ROOT
ATOM      1  C   UNL     1     -95.257  45.695 -38.086  1.00  0.00     0.052 C 
ENDROOT
BRANCH   1   2
ATOM      2  C   UNL     1     -96.020  46.087 -36.860  1.00  0.00     0.041 C 
ATOM      3  O   UNL     1     -95.428  46.194 -35.754  1.00  0.00    -0.550 OA
ATOM      4  O   UNL     1     -97.374  46.380 -36.948  1.00  0.00    -0.550 OA
ENDBRANCH   1   2
BRANCH   1   5
ATOM      5  C   UNL     1     -96.083  45.980 -39.343  1.00  0.00     0.003 C 
ATOM      6  C   UNL     1     -95.720  47.334 -39.947  1.00  0.00     0.004 C 
ENDBRANCH   1   5
TORSDOF 2
ENDMDL
MODEL 5
REMARK VINA RESULT:    -2.530     14.107     14.636
REMARK INTER + INTRA:          -2.841
REMARK INTER:                  -2.795
REMARK INTRA:                  -0.046
REMARK UNBOUND:                -0.015
REMARK SMILES CCCC(=O)[O-]
REMARK SMILES IDX 3 1 4 2 5 3 6 4 2 5 1 6
REMARK H PARENT
REMARK Flexibility Score: inf
ROOT
ATOM      1  C   UNL     1     -96.900  45.560 -37.695  1.00  0.00     0.052 C 
ENDROOT
BRANCH   1   2
ATOM      2  C   UNL     1     -97.156  46.746 -36.821  1.00  0.00     0.041 C 
ATOM      3  O   UNL     1     -98.326  47.009 -36.438  1.00  0.00    -0.550 OA
ATOM      4  O   UNL     1     -96.097  47.533 -36.389  1.00  0.00    -0.550 OA
ENDBRANCH   1   2
BRANCH   1   5
ATOM      5  C   UNL     1     -95.701  45.820 -38.612  1.00  0.00     0.003 C 
ATOM      6  C   UNL     1     -96.142  46.446 -39.932  1.00  0.00     0.004 C 
ENDBRANCH   1   5
TORSDOF 2
ENDMDL
MODEL 6
REMARK VINA RESULT:    -2.439      2.076      3.208
REMARK INTER + INTRA:          -2.739
REMARK INTER:                  -2.699
REMARK INTRA:                  -0.040
REMARK UNBOUND:                -0.015
REMARK SMILES CCCC(=O)[O-]
REMARK SMILES IDX 3 1 4 2 5 3 6 4 2 5 1 6
REMARK H PARENT
REMARK Flexibility Score: inf
ROOT
ATOM      1  C   UNL     1     -99.514  32.512 -36.953  1.00  0.00     0.052 C 
ENDROOT
BRANCH   1   2
ATOM      2  C   UNL     1     -99.117  31.785 -38.199  1.00  0.00     0.041 C 
ATOM      3  O   UNL     1     -98.262  32.282 -38.977  1.00  0.00    -0.550 OA
ATOM      4  O   UNL     1     -99.657  30.536 -38.476  1.00  0.00    -0.550 OA
ENDBRANCH   1   2
BRANCH   1   5
ATOM      5  C   UNL     1    -100.272  31.577 -36.006  1.00  0.00     0.003 C 
ATOM      6  C   UNL     1     -99.343  30.997 -34.944  1.00  0.00     0.004 C 
ENDBRANCH   1   5
TORSDOF 2
ENDMDL
MODEL 7
REMARK VINA RESULT:    -2.404     13.682     14.354
REMARK INTER + INTRA:          -2.700
REMARK INTER:                  -2.670
REMARK INTRA:                  -0.030
REMARK UNBOUND:                -0.015
REMARK SMILES CCCC(=O)[O-]
REMARK SMILES IDX 3 1 4 2 5 3 6 4 2 5 1 6
REMARK H PARENT
REMARK Flexibility Score: inf
ROOT
ATOM      1  C   UNL     1    -101.599  43.239 -47.492  1.00  0.00     0.052 C 
ENDROOT
BRANCH   1   2
ATOM      2  C   UNL     1    -102.066  41.972 -46.850  1.00  0.00     0.041 C 
ATOM      3  O   UNL     1    -102.010  41.837 -45.600  1.00  0.00    -0.550 OA
ATOM      4  O   UNL     1    -102.608  40.957 -47.628  1.00  0.00    -0.550 OA
ENDBRANCH   1   2
BRANCH   1   5
ATOM      5  C   UNL     1    -100.232  43.034 -48.150  1.00  0.00     0.003 C 
ATOM      6  C   UNL     1     -99.131  43.742 -47.367  1.00  0.00     0.004 C 
ENDBRANCH   1   5
TORSDOF 2
ENDMDL
MODEL 8
REMARK VINA RESULT:    -2.373     14.639     15.297
REMARK INTER + INTRA:          -2.665
REMARK INTER:                  -2.627
REMARK INTRA:                  -0.038
REMARK UNBOUND:                -0.015
REMARK SMILES CCCC(=O)[O-]
REMARK SMILES IDX 3 1 4 2 5 3 6 4 2 5 1 6
REMARK H PARENT
REMARK Flexibility Score: inf
ROOT
ATOM      1  C   UNL     1    -101.714  43.492 -47.595  1.00  0.00     0.052 C 
ENDROOT
BRANCH   1   2
ATOM      2  C   UNL     1    -100.300  43.705 -48.031  1.00  0.00     0.041 C 
ATOM      3  O   UNL     1     -99.368  43.702 -47.184  1.00  0.00    -0.550 OA
ATOM      4  O   UNL     1    -100.004  43.860 -49.379  1.00  0.00    -0.550 OA
ENDBRANCH   1   2
BRANCH   1   5
ATOM      5  C   UNL     1    -101.936  42.032 -47.193  1.00  0.00     0.003 C 
ATOM      6  C   UNL     1    -102.171  41.903 -45.691  1.00  0.00     0.004 C 
ENDBRANCH   1   5
TORSDOF 2
ENDMDL
MODEL 9
REMARK VINA RESULT:    -2.335     14.053     14.592
REMARK INTER + INTRA:          -2.622
REMARK INTER:                  -2.557
REMARK INTRA:                  -0.065
REMARK UNBOUND:                -0.015
REMARK SMILES CCCC(=O)[O-]
REMARK SMILES IDX 3 1 4 2 5 3 6 4 2 5 1 6
REMARK H PARENT
REMARK Flexibility Score: inf
ROOT
ATOM      1  C   UNL     1    -102.033  41.993 -46.846  1.00  0.00     0.052 C 
ENDROOT
BRANCH   1   2
ATOM      2  C   UNL     1    -102.285  40.942 -47.879  1.00  0.00     0.041 C 
ATOM      3  O   UNL     1    -101.320  40.401 -48.481  1.00  0.00    -0.550 OA
ATOM      4  O   UNL     1    -103.582  40.525 -48.144  1.00  0.00    -0.550 OA
ENDBRANCH   1   2
BRANCH   1   5
ATOM      5  C   UNL     1    -101.144  43.102 -47.416  1.00  0.00     0.003 C 
ATOM      6  C   UNL     1    -101.886  43.913 -48.475  1.00  0.00     0.004 C 
ENDBRANCH   1   5
TORSDOF 2
ENDMDL
