MODEL 1
REMARK VINA RESULT:    -3.331      0.000      0.000
REMARK INTER + INTRA:         -10.880
REMARK INTER:                  -7.225
REMARK INTRA:                  -3.654
REMARK UNBOUND:                -3.654
REMARK SMILES CCCCCCCCCCCCCCCCCCCCCC(=O)[O-]
REMARK SMILES IDX 12 1 11 2 10 3 9 4 8 5 7 6 6 7 5 8 4 9 3 10 2 11 1 12 13 13
REMARK SMILES IDX 14 14 15 15 16 16 17 17 18 18 19 19 20 20 21 21 22 22 23 23
REMARK SMILES IDX 24 24
REMARK H PARENT
REMARK Flexibility Score: inf
ROOT
ATOM      1  C   UNL     1       3.936 108.821 178.668  1.00  0.00     0.000 C 
ENDROOT
BRANCH   1   2
ATOM      2  C   UNL     1       2.643 108.302 178.021  1.00  0.00     0.000 C 
BRANCH   2   3
ATOM      3  C   UNL     1       1.460 108.411 178.989  1.00  0.00     0.000 C 
BRANCH   3   4
ATOM      4  C   UNL     1       1.031 107.024 179.492  1.00  0.00    -0.000 C 
BRANCH   4   5
ATOM      5  C   UNL     1       1.595 105.882 178.632  1.00  0.00    -0.000 C 
BRANCH   5   6
ATOM      6  C   UNL     1       2.596 105.002 179.398  1.00  0.00    -0.000 C 
BRANCH   6   7
ATOM      7  C   UNL     1       3.567 104.311 178.427  1.00  0.00    -0.000 C 
BRANCH   7   8
ATOM      8  C   UNL     1       3.369 104.772 176.972  1.00  0.00    -0.000 C 
BRANCH   8   9
ATOM      9  C   UNL     1       4.420 104.195 175.996  1.00  0.00    -0.000 C 
BRANCH   9  10
ATOM     10  C   UNL     1       5.622 103.538 176.701  1.00  0.00    -0.000 C 
BRANCH  10  11
ATOM     11  C   UNL     1       5.690 102.008 176.558  1.00  0.00    -0.003 C 
ATOM     12  C   UNL     1       5.560 101.541 175.109  1.00  0.00     0.004 C 
ENDBRANCH  10  11
ENDBRANCH   9  10
ENDBRANCH   8   9
ENDBRANCH   7   8
ENDBRANCH   6   7
ENDBRANCH   5   6
ENDBRANCH   4   5
ENDBRANCH   3   4
ENDBRANCH   2   3
ENDBRANCH   1   2
BRANCH   1  13
ATOM     13  C   UNL     1       5.046 107.758 178.706  1.00  0.00     0.000 C 
BRANCH  13  14
ATOM     14  C   UNL     1       5.870 107.812 180.004  1.00  0.00     0.000 C 
BRANCH  14  15
ATOM     15  C   UNL     1       5.803 106.502 180.813  1.00  0.00     0.000 C 
BRANCH  15  16
ATOM     16  C   UNL     1       5.148 106.617 182.200  1.00  0.00     0.000 C 
BRANCH  16  17
ATOM     17  C   UNL     1       3.650 106.960 182.130  1.00  0.00     0.000 C 
BRANCH  17  18
ATOM     18  C   UNL     1       3.268 108.173 182.999  1.00  0.00     0.000 C 
BRANCH  18  19
ATOM     19  C   UNL     1       2.853 109.435 182.219  1.00  0.00     0.000 C 
BRANCH  19  20
ATOM     20  C   UNL     1       4.012 110.426 182.015  1.00  0.00     0.006 C 
BRANCH  20  21
ATOM     21  C   UNL     1       4.952 110.476 183.227  1.00  0.00     0.053 C 
BRANCH  21  22
ATOM     22  C   UNL     1       5.075 111.863 183.779  1.00  0.00     0.041 C 
ATOM     23  O   UNL     1       6.071 112.576 183.486  1.00  0.00    -0.550 OA
ATOM     24  O   UNL     1       4.074 112.379 184.591  1.00  0.00    -0.550 OA
ENDBRANCH  21  22
ENDBRANCH  20  21
ENDBRANCH  19  20
ENDBRANCH  18  19
ENDBRANCH  17  18
ENDBRANCH  16  17
ENDBRANCH  15  16
ENDBRANCH  14  15
ENDBRANCH  13  14
ENDBRANCH   1  13
TORSDOF 20
ENDMDL
MODEL 2
REMARK VINA RESULT:    -3.329      1.528      3.198
REMARK INTER + INTRA:         -10.877
REMARK INTER:                  -7.607
REMARK INTRA:                  -3.270
REMARK UNBOUND:                -3.654
REMARK SMILES CCCCCCCCCCCCCCCCCCCCCC(=O)[O-]
REMARK SMILES IDX 12 1 11 2 10 3 9 4 8 5 7 6 6 7 5 8 4 9 3 10 2 11 1 12 13 13
REMARK SMILES IDX 14 14 15 15 16 16 17 17 18 18 19 19 20 20 21 21 22 22 23 23
REMARK SMILES IDX 24 24
REMARK H PARENT
REMARK Flexibility Score: inf
ROOT
ATOM      1  C   UNL     1       2.180 108.516 178.618  1.00  0.00     0.000 C 
ENDROOT
BRANCH   1   2
ATOM      2  C   UNL     1       2.701 107.896 177.312  1.00  0.00     0.000 C 
BRANCH   2   3
ATOM      3  C   UNL     1       4.221 108.055 177.195  1.00  0.00     0.000 C 
BRANCH   3   4
ATOM      4  C   UNL     1       4.862 106.791 176.601  1.00  0.00    -0.000 C 
BRANCH   4   5
ATOM      5  C   UNL     1       3.843 105.891 175.884  1.00  0.00    -0.000 C 
BRANCH   5   6
ATOM      6  C   UNL     1       3.999 104.408 176.255  1.00  0.00    -0.000 C 
BRANCH   6   7
ATOM      7  C   UNL     1       5.236 104.195 177.142  1.00  0.00    -0.000 C 
BRANCH   7   8
ATOM      8  C   UNL     1       6.279 103.276 176.482  1.00  0.00    -0.000 C 
BRANCH   8   9
ATOM      9  C   UNL     1       5.827 101.800 176.390  1.00  0.00    -0.000 C 
BRANCH   9  10
ATOM     10  C   UNL     1       5.554 101.327 174.949  1.00  0.00    -0.000 C 
BRANCH  10  11
ATOM     11  C   UNL     1       5.930 102.345 173.859  1.00  0.00    -0.003 C 
ATOM     12  C   UNL     1       4.751 102.715 172.959  1.00  0.00     0.004 C 
ENDBRANCH  10  11
ENDBRANCH   9  10
ENDBRANCH   8   9
ENDBRANCH   7   8
ENDBRANCH   6   7
ENDBRANCH   5   6
ENDBRANCH   4   5
ENDBRANCH   3   4
ENDBRANCH   2   3
ENDBRANCH   1   2
BRANCH   1  13
ATOM     13  C   UNL     1       1.523 107.478 179.544  1.00  0.00     0.000 C 
BRANCH  13  14
ATOM     14  C   UNL     1       1.501 106.069 178.926  1.00  0.00     0.000 C 
BRANCH  14  15
ATOM     15  C   UNL     1       2.567 105.133 179.527  1.00  0.00     0.000 C 
BRANCH  15  16
ATOM     16  C   UNL     1       3.418 105.742 180.656  1.00  0.00     0.000 C 
BRANCH  16  17
ATOM     17  C   UNL     1       4.872 106.011 180.233  1.00  0.00     0.000 C 
BRANCH  17  18
ATOM     18  C   UNL     1       5.653 106.850 181.263  1.00  0.00     0.000 C 
BRANCH  18  19
ATOM     19  C   UNL     1       5.124 106.775 182.708  1.00  0.00     0.000 C 
BRANCH  19  20
ATOM     20  C   UNL     1       4.745 108.151 183.282  1.00  0.00     0.006 C 
BRANCH  20  21
ATOM     21  C   UNL     1       3.949 108.998 182.280  1.00  0.00     0.053 C 
BRANCH  21  22
ATOM     22  C   UNL     1       2.845 109.759 182.948  1.00  0.00     0.041 C 
ATOM     23  O   UNL     1       2.991 110.980 183.221  1.00  0.00    -0.550 OA
ATOM     24  O   UNL     1       1.644 109.126 183.241  1.00  0.00    -0.550 OA
ENDBRANCH  21  22
ENDBRANCH  20  21
ENDBRANCH  19  20
ENDBRANCH  18  19
ENDBRANCH  17  18
ENDBRANCH  16  17
ENDBRANCH  15  16
ENDBRANCH  14  15
ENDBRANCH  13  14
ENDBRANCH   1  13
TORSDOF 20
ENDMDL
MODEL 3
REMARK VINA RESULT:    -3.299      1.581      3.964
REMARK INTER + INTRA:         -10.812
REMARK INTER:                  -7.279
REMARK INTRA:                  -3.533
REMARK UNBOUND:                -3.654
REMARK SMILES CCCCCCCCCCCCCCCCCCCCCC(=O)[O-]
REMARK SMILES IDX 12 1 11 2 10 3 9 4 8 5 7 6 6 7 5 8 4 9 3 10 2 11 1 12 13 13
REMARK SMILES IDX 14 14 15 15 16 16 17 17 18 18 19 19 20 20 21 21 22 22 23 23
REMARK SMILES IDX 24 24
REMARK H PARENT
REMARK Flexibility Score: inf
ROOT
ATOM      1  C   UNL     1       0.591 106.171 177.647  1.00  0.00     0.000 C 
ENDROOT
BRANCH   1   2
ATOM      2  C   UNL     1       1.476 104.951 177.344  1.00  0.00     0.000 C 
BRANCH   2   3
ATOM      3  C   UNL     1       2.529 104.749 178.439  1.00  0.00     0.000 C 
BRANCH   3   4
ATOM      4  C   UNL     1       3.750 103.991 177.894  1.00  0.00    -0.000 C 
BRANCH   4   5
ATOM      5  C   UNL     1       4.355 104.659 176.650  1.00  0.00    -0.000 C 
BRANCH   5   6
ATOM      6  C   UNL     1       5.891 104.619 176.644  1.00  0.00    -0.000 C 
BRANCH   6   7
ATOM      7  C   UNL     1       6.402 103.228 177.051  1.00  0.00    -0.000 C 
BRANCH   7   8
ATOM      8  C   UNL     1       7.602 102.773 176.201  1.00  0.00    -0.000 C 
BRANCH   8   9
ATOM      9  C   UNL     1       7.195 101.984 174.935  1.00  0.00    -0.000 C 
BRANCH   9  10
ATOM     10  C   UNL     1       5.903 101.163 175.109  1.00  0.00    -0.000 C 
BRANCH  10  11
ATOM     11  C   UNL     1       4.710 101.663 174.278  1.00  0.00    -0.003 C 
ATOM     12  C   UNL     1       5.113 102.689 173.218  1.00  0.00     0.004 C 
ENDBRANCH  10  11
ENDBRANCH   9  10
ENDBRANCH   8   9
ENDBRANCH   7   8
ENDBRANCH   6   7
ENDBRANCH   5   6
ENDBRANCH   4   5
ENDBRANCH   3   4
ENDBRANCH   2   3
ENDBRANCH   1   2
BRANCH   1  13
ATOM     13  C   UNL     1       0.785 106.700 179.078  1.00  0.00     0.000 C 
BRANCH  13  14
ATOM     14  C   UNL     1       1.371 108.122 179.106  1.00  0.00     0.000 C 
BRANCH  14  15
ATOM     15  C   UNL     1       2.082 108.505 177.794  1.00  0.00     0.000 C 
BRANCH  15  16
ATOM     16  C   UNL     1       3.604 108.281 177.780  1.00  0.00     0.000 C 
BRANCH  16  17
ATOM     17  C   UNL     1       4.212 108.201 179.191  1.00  0.00     0.000 C 
BRANCH  17  18
ATOM     18  C   UNL     1       5.304 107.122 179.316  1.00  0.00     0.000 C 
BRANCH  18  19
ATOM     19  C   UNL     1       5.137 106.152 180.501  1.00  0.00     0.000 C 
BRANCH  19  20
ATOM     20  C   UNL     1       3.981 106.541 181.439  1.00  0.00     0.006 C 
BRANCH  20  21
ATOM     21  C   UNL     1       4.467 107.327 182.664  1.00  0.00     0.053 C 
BRANCH  21  22
ATOM     22  C   UNL     1       3.726 108.619 182.825  1.00  0.00     0.041 C 
ATOM     23  O   UNL     1       4.324 109.644 183.249  1.00  0.00    -0.550 OA
ATOM     24  O   UNL     1       2.385 108.699 182.478  1.00  0.00    -0.550 OA
ENDBRANCH  21  22
ENDBRANCH  20  21
ENDBRANCH  19  20
ENDBRANCH  18  19
ENDBRANCH  17  18
ENDBRANCH  16  17
ENDBRANCH  15  16
ENDBRANCH  14  15
ENDBRANCH  13  14
ENDBRANCH   1  13
TORSDOF 20
ENDMDL
MODEL 4
REMARK VINA RESULT:    -3.288      4.044      8.028
REMARK INTER + INTRA:         -10.787
REMARK INTER:                  -7.233
REMARK INTRA:                  -3.554
REMARK UNBOUND:                -3.654
REMARK SMILES CCCCCCCCCCCCCCCCCCCCCC(=O)[O-]
REMARK SMILES IDX 12 1 11 2 10 3 9 4 8 5 7 6 6 7 5 8 4 9 3 10 2 11 1 12 13 13
REMARK SMILES IDX 14 14 15 15 16 16 17 17 18 18 19 19 20 20 21 21 22 22 23 23
REMARK SMILES IDX 24 24
REMARK H PARENT
REMARK Flexibility Score: inf
ROOT
ATOM      1  C   UNL     1       4.612 108.301 179.088  1.00  0.00     0.000 C 
ENDROOT
BRANCH   1   2
ATOM      2  C   UNL     1       5.403 107.008 178.838  1.00  0.00     0.000 C 
BRANCH   2   3
ATOM      3  C   UNL     1       5.245 106.030 180.008  1.00  0.00     0.000 C 
BRANCH   3   4
ATOM      4  C   UNL     1       6.032 106.511 181.237  1.00  0.00    -0.000 C 
BRANCH   4   5
ATOM      5  C   UNL     1       5.153 106.641 182.490  1.00  0.00    -0.000 C 
BRANCH   5   6
ATOM      6  C   UNL     1       3.689 106.968 182.156  1.00  0.00    -0.000 C 
BRANCH   6   7
ATOM      7  C   UNL     1       3.188 108.149 183.004  1.00  0.00    -0.000 C 
BRANCH   7   8
ATOM      8  C   UNL     1       3.284 109.491 182.256  1.00  0.00    -0.000 C 
BRANCH   8   9
ATOM      9  C   UNL     1       4.195 110.522 182.959  1.00  0.00    -0.000 C 
BRANCH   9  10
ATOM     10  C   UNL     1       5.680 110.111 182.994  1.00  0.00    -0.000 C 
BRANCH  10  11
ATOM     11  C   UNL     1       6.218 109.774 184.395  1.00  0.00    -0.003 C 
ATOM     12  C   UNL     1       7.442 108.860 184.357  1.00  0.00     0.004 C 
ENDBRANCH  10  11
ENDBRANCH   9  10
ENDBRANCH   8   9
ENDBRANCH   7   8
ENDBRANCH   6   7
ENDBRANCH   5   6
ENDBRANCH   4   5
ENDBRANCH   3   4
ENDBRANCH   2   3
ENDBRANCH   1   2
BRANCH   1  13
ATOM     13  C   UNL     1       3.345 108.394 178.220  1.00  0.00     0.000 C 
BRANCH  13  14
ATOM     14  C   UNL     1       2.057 108.185 179.035  1.00  0.00     0.000 C 
BRANCH  14  15
ATOM     15  C   UNL     1       1.283 106.919 178.619  1.00  0.00     0.000 C 
BRANCH  15  16
ATOM     16  C   UNL     1       1.784 105.606 179.245  1.00  0.00     0.000 C 
BRANCH  16  17
ATOM     17  C   UNL     1       2.381 104.638 178.209  1.00  0.00     0.000 C 
BRANCH  17  18
ATOM     18  C   UNL     1       2.290 105.169 176.766  1.00  0.00     0.000 C 
BRANCH  18  19
ATOM     19  C   UNL     1       3.604 105.118 175.963  1.00  0.00     0.000 C 
BRANCH  19  20
ATOM     20  C   UNL     1       4.608 104.092 176.516  1.00  0.00     0.006 C 
BRANCH  20  21
ATOM     21  C   UNL     1       5.263 103.263 175.403  1.00  0.00     0.053 C 
BRANCH  21  22
ATOM     22  C   UNL     1       5.628 101.889 175.874  1.00  0.00     0.041 C 
ATOM     23  O   UNL     1       5.265 100.876 175.218  1.00  0.00    -0.550 OA
ATOM     24  O   UNL     1       6.394 101.728 177.021  1.00  0.00    -0.550 OA
ENDBRANCH  21  22
ENDBRANCH  20  21
ENDBRANCH  19  20
ENDBRANCH  18  19
ENDBRANCH  17  18
ENDBRANCH  16  17
ENDBRANCH  15  16
ENDBRANCH  14  15
ENDBRANCH  13  14
ENDBRANCH   1  13
TORSDOF 20
ENDMDL
MODEL 5
REMARK VINA RESULT:    -3.275      1.919      2.780
REMARK INTER + INTRA:         -10.759
REMARK INTER:                  -7.133
REMARK INTRA:                  -3.627
REMARK UNBOUND:                -3.654
REMARK SMILES CCCCCCCCCCCCCCCCCCCCCC(=O)[O-]
REMARK SMILES IDX 12 1 11 2 10 3 9 4 8 5 7 6 6 7 5 8 4 9 3 10 2 11 1 12 13 13
REMARK SMILES IDX 14 14 15 15 16 16 17 17 18 18 19 19 20 20 21 21 22 22 23 23
REMARK SMILES IDX 24 24
REMARK H PARENT
REMARK Flexibility Score: inf
ROOT
ATOM      1  C   UNL     1       3.107 108.443 180.015  1.00  0.00     0.000 C 
ENDROOT
BRANCH   1   2
ATOM      2  C   UNL     1       2.141 108.474 178.820  1.00  0.00     0.000 C 
BRANCH   2   3
ATOM      3  C   UNL     1       0.710 108.143 179.259  1.00  0.00     0.000 C 
BRANCH   3   4
ATOM      4  C   UNL     1       0.359 106.683 178.934  1.00  0.00    -0.000 C 
BRANCH   4   5
ATOM      5  C   UNL     1       0.648 106.316 177.470  1.00  0.00    -0.000 C 
BRANCH   5   6
ATOM      6  C   UNL     1       1.711 105.215 177.333  1.00  0.00    -0.000 C 
BRANCH   6   7
ATOM      7  C   UNL     1       2.188 104.744 178.717  1.00  0.00    -0.000 C 
BRANCH   7   8
ATOM      8  C   UNL     1       3.720 104.790 178.855  1.00  0.00    -0.000 C 
BRANCH   8   9
ATOM      9  C   UNL     1       4.407 105.679 177.792  1.00  0.00    -0.000 C 
BRANCH   9  10
ATOM     10  C   UNL     1       5.595 106.492 178.342  1.00  0.00    -0.000 C 
BRANCH  10  11
ATOM     11  C   UNL     1       6.582 105.683 179.200  1.00  0.00    -0.003 C 
ATOM     12  C   UNL     1       7.733 106.531 179.741  1.00  0.00     0.004 C 
ENDBRANCH  10  11
ENDBRANCH   9  10
ENDBRANCH   8   9
ENDBRANCH   7   8
ENDBRANCH   6   7
ENDBRANCH   5   6
ENDBRANCH   4   5
ENDBRANCH   3   4
ENDBRANCH   2   3
ENDBRANCH   1   2
BRANCH   1  13
ATOM     13  C   UNL     1       2.375 108.489 181.367  1.00  0.00     0.000 C 
BRANCH  13  14
ATOM     14  C   UNL     1       3.096 107.673 182.454  1.00  0.00     0.000 C 
BRANCH  14  15
ATOM     15  C   UNL     1       4.252 106.820 181.898  1.00  0.00     0.000 C 
BRANCH  15  16
ATOM     16  C   UNL     1       5.492 106.720 182.804  1.00  0.00     0.000 C 
BRANCH  16  17
ATOM     17  C   UNL     1       6.305 108.025 182.854  1.00  0.00     0.000 C 
BRANCH  17  18
ATOM     18  C   UNL     1       6.150 108.781 184.187  1.00  0.00     0.000 C 
BRANCH  18  19
ATOM     19  C   UNL     1       6.061 110.315 184.066  1.00  0.00     0.000 C 
BRANCH  19  20
ATOM     20  C   UNL     1       5.122 110.776 182.938  1.00  0.00     0.006 C 
BRANCH  20  21
ATOM     21  C   UNL     1       3.747 111.205 183.468  1.00  0.00     0.053 C 
BRANCH  21  22
ATOM     22  C   UNL     1       3.742 112.638 183.904  1.00  0.00     0.041 C 
ATOM     23  O   UNL     1       4.606 113.440 183.459  1.00  0.00    -0.550 OA
ATOM     24  O   UNL     1       2.764 113.095 184.778  1.00  0.00    -0.550 OA
ENDBRANCH  21  22
ENDBRANCH  20  21
ENDBRANCH  19  20
ENDBRANCH  18  19
ENDBRANCH  17  18
ENDBRANCH  16  17
ENDBRANCH  15  16
ENDBRANCH  14  15
ENDBRANCH  13  14
ENDBRANCH   1  13
TORSDOF 20
ENDMDL
MODEL 6
REMARK VINA RESULT:    -3.256      4.276      8.276
REMARK INTER + INTRA:         -10.718
REMARK INTER:                  -7.333
REMARK INTRA:                  -3.385
REMARK UNBOUND:                -3.654
REMARK SMILES CCCCCCCCCCCCCCCCCCCCCC(=O)[O-]
REMARK SMILES IDX 12 1 11 2 10 3 9 4 8 5 7 6 6 7 5 8 4 9 3 10 2 11 1 12 13 13
REMARK SMILES IDX 14 14 15 15 16 16 17 17 18 18 19 19 20 20 21 21 22 22 23 23
REMARK SMILES IDX 24 24
REMARK H PARENT
REMARK Flexibility Score: inf
ROOT
ATOM      1  C   UNL     1       3.805 108.258 179.416  1.00  0.00     0.000 C 
ENDROOT
BRANCH   1   2
ATOM      2  C   UNL     1       2.887 107.480 180.372  1.00  0.00     0.000 C 
BRANCH   2   3
ATOM      3  C   UNL     1       3.680 106.443 181.175  1.00  0.00     0.000 C 
BRANCH   3   4
ATOM      4  C   UNL     1       5.163 106.453 180.773  1.00  0.00    -0.000 C 
BRANCH   4   5
ATOM      5  C   UNL     1       6.101 106.651 181.974  1.00  0.00    -0.000 C 
BRANCH   5   6
ATOM      6  C   UNL     1       5.344 106.971 183.271  1.00  0.00    -0.000 C 
BRANCH   6   7
ATOM      7  C   UNL     1       5.884 108.260 183.913  1.00  0.00    -0.000 C 
BRANCH   7   8
ATOM      8  C   UNL     1       5.941 109.432 182.917  1.00  0.00    -0.000 C 
BRANCH   8   9
ATOM      9  C   UNL     1       4.930 110.558 183.235  1.00  0.00    -0.000 C 
BRANCH   9  10
ATOM     10  C   UNL     1       3.586 110.406 182.497  1.00  0.00    -0.000 C 
BRANCH  10  11
ATOM     11  C   UNL     1       2.364 110.247 183.417  1.00  0.00    -0.003 C 
ATOM     12  C   UNL     1       1.867 108.803 183.499  1.00  0.00     0.004 C 
ENDBRANCH  10  11
ENDBRANCH   9  10
ENDBRANCH   8   9
ENDBRANCH   7   8
ENDBRANCH   6   7
ENDBRANCH   5   6
ENDBRANCH   4   5
ENDBRANCH   3   4
ENDBRANCH   2   3
ENDBRANCH   1   2
BRANCH   1  13
ATOM     13  C   UNL     1       3.205 108.400 178.007  1.00  0.00     0.000 C 
BRANCH  13  14
ATOM     14  C   UNL     1       1.847 107.691 177.871  1.00  0.00     0.000 C 
BRANCH  14  15
ATOM     15  C   UNL     1       1.669 106.990 176.510  1.00  0.00     0.000 C 
BRANCH  15  16
ATOM     16  C   UNL     1       1.770 105.455 176.541  1.00  0.00     0.000 C 
BRANCH  16  17
ATOM     17  C   UNL     1       1.871 104.889 177.968  1.00  0.00     0.000 C 
BRANCH  17  18
ATOM     18  C   UNL     1       3.272 104.341 178.301  1.00  0.00     0.000 C 
BRANCH  18  19
ATOM     19  C   UNL     1       4.385 104.742 177.314  1.00  0.00     0.000 C 
BRANCH  19  20
ATOM     20  C   UNL     1       5.381 103.603 177.036  1.00  0.00     0.006 C 
BRANCH  20  21
ATOM     21  C   UNL     1       5.611 103.388 175.534  1.00  0.00     0.053 C 
BRANCH  21  22
ATOM     22  C   UNL     1       5.565 101.937 175.166  1.00  0.00     0.041 C 
ATOM     23  O   UNL     1       6.322 101.112 175.743  1.00  0.00    -0.550 OA
ATOM     24  O   UNL     1       4.663 101.491 174.208  1.00  0.00    -0.550 OA
ENDBRANCH  21  22
ENDBRANCH  20  21
ENDBRANCH  19  20
ENDBRANCH  18  19
ENDBRANCH  17  18
ENDBRANCH  16  17
ENDBRANCH  15  16
ENDBRANCH  14  15
ENDBRANCH  13  14
ENDBRANCH   1  13
TORSDOF 20
ENDMDL
MODEL 7
REMARK VINA RESULT:    -3.227      2.177      3.618
REMARK INTER + INTRA:         -10.655
REMARK INTER:                  -6.480
REMARK INTRA:                  -4.176
REMARK UNBOUND:                -3.654
REMARK SMILES CCCCCCCCCCCCCCCCCCCCCC(=O)[O-]
REMARK SMILES IDX 12 1 11 2 10 3 9 4 8 5 7 6 6 7 5 8 4 9 3 10 2 11 1 12 13 13
REMARK SMILES IDX 14 14 15 15 16 16 17 17 18 18 19 19 20 20 21 21 22 22 23 23
REMARK SMILES IDX 24 24
REMARK H PARENT
REMARK Flexibility Score: inf
ROOT
ATOM      1  C   UNL     1       5.437 109.801 179.730  1.00  0.00     0.000 C 
ENDROOT
BRANCH   1   2
ATOM      2  C   UNL     1       4.012 109.255 179.546  1.00  0.00     0.000 C 
BRANCH   2   3
ATOM      3  C   UNL     1       3.565 109.363 178.084  1.00  0.00     0.000 C 
BRANCH   3   4
ATOM      4  C   UNL     1       2.161 108.769 177.893  1.00  0.00    -0.000 C 
BRANCH   4   5
ATOM      5  C   UNL     1       1.609 108.128 179.176  1.00  0.00    -0.000 C 
BRANCH   5   6
ATOM      6  C   UNL     1       0.625 106.983 178.890  1.00  0.00    -0.000 C 
BRANCH   6   7
ATOM      7  C   UNL     1       1.364 105.756 178.331  1.00  0.00    -0.000 C 
BRANCH   7   8
ATOM      8  C   UNL     1       2.281 105.097 179.376  1.00  0.00    -0.000 C 
BRANCH   8   9
ATOM      9  C   UNL     1       3.669 104.706 178.817  1.00  0.00    -0.000 C 
BRANCH   9  10
ATOM     10  C   UNL     1       4.294 105.783 177.909  1.00  0.00    -0.000 C 
BRANCH  10  11
ATOM     11  C   UNL     1       5.691 106.255 178.346  1.00  0.00    -0.003 C 
ATOM     12  C   UNL     1       6.630 106.503 177.165  1.00  0.00     0.004 C 
ENDBRANCH  10  11
ENDBRANCH   9  10
ENDBRANCH   8   9
ENDBRANCH   7   8
ENDBRANCH   6   7
ENDBRANCH   5   6
ENDBRANCH   4   5
ENDBRANCH   3   4
ENDBRANCH   2   3
ENDBRANCH   1   2
BRANCH   1  13
ATOM     13  C   UNL     1       5.677 110.359 181.143  1.00  0.00     0.000 C 
BRANCH  13  14
ATOM     14  C   UNL     1       4.478 111.166 181.670  1.00  0.00     0.000 C 
BRANCH  14  15
ATOM     15  C   UNL     1       4.018 110.714 183.068  1.00  0.00     0.000 C 
BRANCH  15  16
ATOM     16  C   UNL     1       2.535 110.317 183.177  1.00  0.00     0.000 C 
BRANCH  16  17
ATOM     17  C   UNL     1       2.265 108.873 182.722  1.00  0.00     0.000 C 
BRANCH  17  18
ATOM     18  C   UNL     1       3.376 107.892 183.141  1.00  0.00     0.000 C 
BRANCH  18  19
ATOM     19  C   UNL     1       3.823 106.899 182.051  1.00  0.00     0.000 C 
BRANCH  19  20
ATOM     20  C   UNL     1       5.346 106.684 182.020  1.00  0.00     0.006 C 
BRANCH  20  21
ATOM     21  C   UNL     1       5.961 106.694 183.427  1.00  0.00     0.053 C 
BRANCH  21  22
ATOM     22  C   UNL     1       6.912 107.836 183.609  1.00  0.00     0.041 C 
ATOM     23  O   UNL     1       6.646 108.759 184.424  1.00  0.00    -0.550 OA
ATOM     24  O   UNL     1       8.107 107.864 182.903  1.00  0.00    -0.550 OA
ENDBRANCH  21  22
ENDBRANCH  20  21
ENDBRANCH  19  20
ENDBRANCH  18  19
ENDBRANCH  17  18
ENDBRANCH  16  17
ENDBRANCH  15  16
ENDBRANCH  14  15
ENDBRANCH  13  14
ENDBRANCH   1  13
TORSDOF 20
ENDMDL
MODEL 8
REMARK VINA RESULT:    -3.174      3.712      7.960
REMARK INTER + INTRA:         -10.539
REMARK INTER:                  -6.956
REMARK INTRA:                  -3.583
REMARK UNBOUND:                -3.654
REMARK SMILES CCCCCCCCCCCCCCCCCCCCCC(=O)[O-]
REMARK SMILES IDX 12 1 11 2 10 3 9 4 8 5 7 6 6 7 5 8 4 9 3 10 2 11 1 12 13 13
REMARK SMILES IDX 14 14 15 15 16 16 17 17 18 18 19 19 20 20 21 21 22 22 23 23
REMARK SMILES IDX 24 24
REMARK H PARENT
REMARK Flexibility Score: inf
ROOT
ATOM      1  C   UNL     1       4.808 108.233 179.896  1.00  0.00     0.000 C 
ENDROOT
BRANCH   1   2
ATOM      2  C   UNL     1       6.003 107.276 179.758  1.00  0.00     0.000 C 
BRANCH   2   3
ATOM      3  C   UNL     1       6.019 106.247 180.893  1.00  0.00     0.000 C 
BRANCH   3   4
ATOM      4  C   UNL     1       4.983 106.601 181.972  1.00  0.00    -0.000 C 
BRANCH   4   5
ATOM      5  C   UNL     1       5.608 106.748 183.368  1.00  0.00    -0.000 C 
BRANCH   5   6
ATOM      6  C   UNL     1       7.117 107.030 183.316  1.00  0.00    -0.000 C 
BRANCH   6   7
ATOM      7  C   UNL     1       7.392 108.541 183.399  1.00  0.00    -0.000 C 
BRANCH   7   8
ATOM      8  C   UNL     1       6.594 109.221 184.526  1.00  0.00    -0.000 C 
BRANCH   8   9
ATOM      9  C   UNL     1       5.909 110.535 184.087  1.00  0.00    -0.000 C 
BRANCH   9  10
ATOM     10  C   UNL     1       5.190 110.432 182.728  1.00  0.00    -0.000 C 
BRANCH  10  11
ATOM     11  C   UNL     1       3.683 110.736 182.777  1.00  0.00    -0.003 C 
ATOM     12  C   UNL     1       2.824 109.473 182.842  1.00  0.00     0.004 C 
ENDBRANCH  10  11
ENDBRANCH   9  10
ENDBRANCH   8   9
ENDBRANCH   7   8
ENDBRANCH   6   7
ENDBRANCH   5   6
ENDBRANCH   4   5
ENDBRANCH   3   4
ENDBRANCH   2   3
ENDBRANCH   1   2
BRANCH   1  13
ATOM     13  C   UNL     1       4.209 108.629 178.536  1.00  0.00     0.000 C 
BRANCH  13  14
ATOM     14  C   UNL     1       2.678 108.476 178.501  1.00  0.00     0.000 C 
BRANCH  14  15
ATOM     15  C   UNL     1       2.131 107.637 179.671  1.00  0.00     0.000 C 
BRANCH  15  16
ATOM     16  C   UNL     1       1.613 106.238 179.293  1.00  0.00     0.000 C 
BRANCH  16  17
ATOM     17  C   UNL     1       2.652 105.128 179.534  1.00  0.00     0.000 C 
BRANCH  17  18
ATOM     18  C   UNL     1       3.079 104.413 178.238  1.00  0.00     0.000 C 
BRANCH  18  19
ATOM     19  C   UNL     1       4.587 104.460 177.928  1.00  0.00     0.000 C 
BRANCH  19  20
ATOM     20  C   UNL     1       4.931 103.920 176.529  1.00  0.00     0.006 C 
BRANCH  20  21
ATOM     21  C   UNL     1       5.479 102.487 176.578  1.00  0.00     0.053 C 
BRANCH  21  22
ATOM     22  C   UNL     1       6.949 102.464 176.861  1.00  0.00     0.041 C 
ATOM     23  O   UNL     1       7.459 101.500 177.492  1.00  0.00    -0.550 OA
ATOM     24  O   UNL     1       7.762 103.491 176.399  1.00  0.00    -0.550 OA
ENDBRANCH  21  22
ENDBRANCH  20  21
ENDBRANCH  19  20
ENDBRANCH  18  19
ENDBRANCH  17  18
ENDBRANCH  16  17
ENDBRANCH  15  16
ENDBRANCH  14  15
ENDBRANCH  13  14
ENDBRANCH   1  13
TORSDOF 20
ENDMDL
MODEL 9
REMARK VINA RESULT:    -3.114      1.643      3.836
REMARK INTER + INTRA:         -10.409
REMARK INTER:                  -6.714
REMARK INTRA:                  -3.695
REMARK UNBOUND:                -3.654
REMARK SMILES CCCCCCCCCCCCCCCCCCCCCC(=O)[O-]
REMARK SMILES IDX 12 1 11 2 10 3 9 4 8 5 7 6 6 7 5 8 4 9 3 10 2 11 1 12 13 13
REMARK SMILES IDX 14 14 15 15 16 16 17 17 18 18 19 19 20 20 21 21 22 22 23 23
REMARK SMILES IDX 24 24
REMARK H PARENT
REMARK Flexibility Score: inf
ROOT
ATOM      1  C   UNL     1       3.173 108.724 177.412  1.00  0.00     0.000 C 
ENDROOT
BRANCH   1   2
ATOM      2  C   UNL     1       4.349 107.871 176.912  1.00  0.00     0.000 C 
BRANCH   2   3
ATOM      3  C   UNL     1       3.884 106.849 175.868  1.00  0.00     0.000 C 
BRANCH   3   4
ATOM      4  C   UNL     1       4.546 105.482 176.103  1.00  0.00    -0.000 C 
BRANCH   4   5
ATOM      5  C   UNL     1       5.841 105.584 176.923  1.00  0.00    -0.000 C 
BRANCH   5   6
ATOM      6  C   UNL     1       6.584 104.243 177.027  1.00  0.00    -0.000 C 
BRANCH   6   7
ATOM      7  C   UNL     1       5.594 103.067 176.984  1.00  0.00    -0.000 C 
BRANCH   7   8
ATOM      8  C   UNL     1       6.285 101.731 176.659  1.00  0.00    -0.000 C 
BRANCH   8   9
ATOM      9  C   UNL     1       6.241 101.366 175.157  1.00  0.00    -0.000 C 
BRANCH   9  10
ATOM     10  C   UNL     1       4.868 101.611 174.502  1.00  0.00    -0.000 C 
BRANCH  10  11
ATOM     11  C   UNL     1       4.904 102.511 173.255  1.00  0.00    -0.003 C 
ATOM     12  C   UNL     1       6.115 103.444 173.231  1.00  0.00     0.004 C 
ENDBRANCH  10  11
ENDBRANCH   9  10
ENDBRANCH   8   9
ENDBRANCH   7   8
ENDBRANCH   6   7
ENDBRANCH   5   6
ENDBRANCH   4   5
ENDBRANCH   3   4
ENDBRANCH   2   3
ENDBRANCH   1   2
BRANCH   1  13
ATOM     13  C   UNL     1       1.811 108.058 177.159  1.00  0.00     0.000 C 
BRANCH  13  14
ATOM     14  C   UNL     1       0.898 108.094 178.397  1.00  0.00     0.000 C 
BRANCH  14  15
ATOM     15  C   UNL     1       0.746 106.717 179.071  1.00  0.00     0.000 C 
BRANCH  15  16
ATOM     16  C   UNL     1       1.814 105.676 178.692  1.00  0.00     0.000 C 
BRANCH  16  17
ATOM     17  C   UNL     1       2.590 105.143 179.909  1.00  0.00     0.000 C 
BRANCH  17  18
ATOM     18  C   UNL     1       4.081 105.530 179.888  1.00  0.00     0.000 C 
BRANCH  18  19
ATOM     19  C   UNL     1       4.406 106.924 180.459  1.00  0.00     0.000 C 
BRANCH  19  20
ATOM     20  C   UNL     1       3.578 107.271 181.708  1.00  0.00     0.006 C 
BRANCH  20  21
ATOM     21  C   UNL     1       2.750 108.549 181.518  1.00  0.00     0.053 C 
BRANCH  21  22
ATOM     22  C   UNL     1       3.519 109.774 181.909  1.00  0.00     0.041 C 
ATOM     23  O   UNL     1       3.476 110.198 183.094  1.00  0.00    -0.550 OA
ATOM     24  O   UNL     1       4.308 110.428 180.972  1.00  0.00    -0.550 OA
ENDBRANCH  21  22
ENDBRANCH  20  21
ENDBRANCH  19  20
ENDBRANCH  18  19
ENDBRANCH  17  18
ENDBRANCH  16  17
ENDBRANCH  15  16
ENDBRANCH  14  15
ENDBRANCH  13  14
ENDBRANCH   1  13
TORSDOF 20
ENDMDL
