MODEL 1
REMARK VINA RESULT:    -5.769      0.000      0.000
REMARK INTER + INTRA:          -7.075
REMARK INTER:                  -6.781
REMARK INTRA:                  -0.294
REMARK UNBOUND:                -0.294
REMARK SMILES COc1cc2ccc(=O)oc2c(OC)c1OC
REMARK SMILES IDX 3 1 15 2 12 3 11 4 5 5 4 6 6 7 7 8 8 9 9 10 10 11 2 12 1 13
REMARK SMILES IDX 16 14 17 15 13 16 14 17
REMARK H PARENT
REMARK Flexibility Score: inf
ROOT
ATOM      1  C   UNL     1     -27.243  -9.498  -0.719  1.00  0.00     0.165 A 
ATOM      2  C   UNL     1     -28.162  -9.739   0.341  1.00  0.00     0.207 A 
ATOM      3  C   UNL     1     -29.028  -8.691   0.762  1.00  0.00     0.208 A 
ATOM      4  C   UNL     1     -28.967  -7.441   0.133  1.00  0.00     0.184 A 
ATOM      5  C   UNL     1     -28.055  -7.212  -0.914  1.00  0.00     0.025 A 
ATOM      6  C   UNL     1     -27.203  -8.233  -1.333  1.00  0.00     0.062 A 
ATOM      7  C   UNL     1     -28.027  -5.948  -1.515  1.00  0.00     0.020 A 
ATOM      8  C   UNL     1     -28.896  -4.956  -1.065  1.00  0.00     0.094 A 
ATOM      9  C   UNL     1     -29.776  -5.252  -0.021  1.00  0.00     0.336 A 
ATOM     10  O   UNL     1     -30.570  -4.371   0.401  1.00  0.00    -0.246 OA
ATOM     11  O   UNL     1     -29.780  -6.463   0.531  1.00  0.00    -0.419 OA
ENDROOT
BRANCH   1  12
ATOM     12  O   UNL     1     -26.381 -10.522  -1.146  1.00  0.00    -0.493 OA
ATOM     13  C   UNL     1     -25.097 -10.799  -0.593  1.00  0.00     0.278 C 
ENDBRANCH   1  12
BRANCH   2  14
ATOM     14  O   UNL     1     -28.252 -10.981   0.996  1.00  0.00    -0.490 OA
ATOM     15  C   UNL     1     -27.503 -11.418   2.125  1.00  0.00     0.278 C 
ENDBRANCH   2  14
BRANCH   3  16
ATOM     16  O   UNL     1     -29.975  -8.821   1.800  1.00  0.00    -0.490 OA
ATOM     17  C   UNL     1     -29.736  -8.695   3.197  1.00  0.00     0.278 C 
ENDBRANCH   3  16
TORSDOF 3
ENDMDL
MODEL 2
REMARK VINA RESULT:    -5.756      1.625      3.531
REMARK INTER + INTRA:          -7.060
REMARK INTER:                  -6.779
REMARK INTRA:                  -0.281
REMARK UNBOUND:                -0.294
REMARK SMILES COc1cc2ccc(=O)oc2c(OC)c1OC
REMARK SMILES IDX 3 1 15 2 12 3 11 4 5 5 4 6 6 7 7 8 8 9 9 10 10 11 2 12 1 13
REMARK SMILES IDX 16 14 17 15 13 16 14 17
REMARK H PARENT
REMARK Flexibility Score: inf
ROOT
ATOM      1  C   UNL     1     -29.749  -8.495   1.773  1.00  0.00     0.165 A 
ATOM      2  C   UNL     1     -28.945  -9.271   0.889  1.00  0.00     0.207 A 
ATOM      3  C   UNL     1     -28.387  -8.655  -0.266  1.00  0.00     0.208 A 
ATOM      4  C   UNL     1     -28.632  -7.300  -0.521  1.00  0.00     0.184 A 
ATOM      5  C   UNL     1     -29.428  -6.541   0.358  1.00  0.00     0.025 A 
ATOM      6  C   UNL     1     -29.979  -7.136   1.491  1.00  0.00     0.062 A 
ATOM      7  C   UNL     1     -29.649  -5.190   0.065  1.00  0.00     0.020 A 
ATOM      8  C   UNL     1     -29.079  -4.634  -1.079  1.00  0.00     0.094 A 
ATOM      9  C   UNL     1     -28.300  -5.446  -1.907  1.00  0.00     0.336 A 
ATOM     10  O   UNL     1     -27.775  -4.966  -2.946  1.00  0.00    -0.246 OA
ATOM     11  O   UNL     1     -28.108  -6.727  -1.604  1.00  0.00    -0.419 OA
ENDROOT
BRANCH   1  12
ATOM     12  O   UNL     1     -30.307  -9.089   2.917  1.00  0.00    -0.493 OA
ATOM     13  C   UNL     1     -31.523  -9.832   2.947  1.00  0.00     0.278 C 
ENDBRANCH   1  12
BRANCH   2  14
ATOM     14  O   UNL     1     -28.676 -10.635   1.113  1.00  0.00    -0.490 OA
ATOM     15  C   UNL     1     -27.657 -11.191   1.936  1.00  0.00     0.278 C 
ENDBRANCH   2  14
BRANCH   3  16
ATOM     16  O   UNL     1     -27.578  -9.330  -1.204  1.00  0.00    -0.490 OA
ATOM     17  C   UNL     1     -26.187  -9.611  -1.091  1.00  0.00     0.278 C 
ENDBRANCH   3  16
TORSDOF 3
ENDMDL
MODEL 3
REMARK VINA RESULT:    -5.663      5.841      8.184
REMARK INTER + INTRA:          -6.951
REMARK INTER:                  -6.710
REMARK INTRA:                  -0.241
REMARK UNBOUND:                -0.294
REMARK SMILES COc1cc2ccc(=O)oc2c(OC)c1OC
REMARK SMILES IDX 3 1 15 2 12 3 11 4 5 5 4 6 6 7 7 8 8 9 9 10 10 11 2 12 1 13
REMARK SMILES IDX 16 14 17 15 13 16 14 17
REMARK H PARENT
REMARK Flexibility Score: inf
ROOT
ATOM      1  C   UNL     1     -27.471 -14.542   6.303  1.00  0.00     0.165 A 
ATOM      2  C   UNL     1     -27.444 -15.107   4.996  1.00  0.00     0.207 A 
ATOM      3  C   UNL     1     -26.905 -14.346   3.920  1.00  0.00     0.208 A 
ATOM      4  C   UNL     1     -26.409 -13.058   4.157  1.00  0.00     0.184 A 
ATOM      5  C   UNL     1     -26.439 -12.508   5.452  1.00  0.00     0.025 A 
ATOM      6  C   UNL     1     -26.966 -13.245   6.511  1.00  0.00     0.062 A 
ATOM      7  C   UNL     1     -25.934 -11.217   5.644  1.00  0.00     0.020 A 
ATOM      8  C   UNL     1     -25.417 -10.514   4.558  1.00  0.00     0.094 A 
ATOM      9  C   UNL     1     -25.418 -11.121   3.300  1.00  0.00     0.336 A 
ATOM     10  O   UNL     1     -24.955 -10.505   2.304  1.00  0.00    -0.246 OA
ATOM     11  O   UNL     1     -25.905 -12.350   3.147  1.00  0.00    -0.419 OA
ENDROOT
BRANCH   1  12
ATOM     12  O   UNL     1     -28.000 -15.279   7.375  1.00  0.00    -0.493 OA
ATOM     13  C   UNL     1     -27.490 -15.278   8.705  1.00  0.00     0.278 C 
ENDBRANCH   1  12
BRANCH   2  14
ATOM     14  O   UNL     1     -27.933 -16.398   4.720  1.00  0.00    -0.490 OA
ATOM     15  C   UNL     1     -29.280 -16.772   4.451  1.00  0.00     0.278 C 
ENDBRANCH   2  14
BRANCH   3  16
ATOM     16  O   UNL     1     -26.830 -14.809   2.590  1.00  0.00    -0.490 OA
ATOM     17  C   UNL     1     -25.854 -15.688   2.042  1.00  0.00     0.278 C 
ENDBRANCH   3  16
TORSDOF 3
ENDMDL
MODEL 4
REMARK VINA RESULT:    -5.624      6.456      9.294
REMARK INTER + INTRA:          -6.905
REMARK INTER:                  -6.599
REMARK INTRA:                  -0.305
REMARK UNBOUND:                -0.294
REMARK SMILES COc1cc2ccc(=O)oc2c(OC)c1OC
REMARK SMILES IDX 3 1 15 2 12 3 11 4 5 5 4 6 6 7 7 8 8 9 9 10 10 11 2 12 1 13
REMARK SMILES IDX 16 14 17 15 13 16 14 17
REMARK H PARENT
REMARK Flexibility Score: inf
ROOT
ATOM      1  C   UNL     1     -30.067 -15.272   4.834  1.00  0.00     0.165 A 
ATOM      2  C   UNL     1     -30.323 -14.251   3.875  1.00  0.00     0.207 A 
ATOM      3  C   UNL     1     -31.664 -13.993   3.474  1.00  0.00     0.208 A 
ATOM      4  C   UNL     1     -32.712 -14.742   4.023  1.00  0.00     0.184 A 
ATOM      5  C   UNL     1     -32.450 -15.750   4.970  1.00  0.00     0.025 A 
ATOM      6  C   UNL     1     -31.139 -16.010   5.368  1.00  0.00     0.062 A 
ATOM      7  C   UNL     1     -33.526 -16.476   5.493  1.00  0.00     0.020 A 
ATOM      8  C   UNL     1     -34.821 -16.184   5.067  1.00  0.00     0.094 A 
ATOM      9  C   UNL     1     -35.009 -15.171   4.124  1.00  0.00     0.336 A 
ATOM     10  O   UNL     1     -36.169 -14.890   3.725  1.00  0.00    -0.246 OA
ATOM     11  O   UNL     1     -33.966 -14.498   3.644  1.00  0.00    -0.419 OA
ENDROOT
BRANCH   1  12
ATOM     12  O   UNL     1     -28.749 -15.540   5.239  1.00  0.00    -0.493 OA
ATOM     13  C   UNL     1     -27.875 -16.483   4.625  1.00  0.00     0.278 C 
ENDBRANCH   1  12
BRANCH   2  14
ATOM     14  O   UNL     1     -29.295 -13.478   3.302  1.00  0.00    -0.490 OA
ATOM     15  C   UNL     1     -28.519 -13.791   2.150  1.00  0.00     0.278 C 
ENDBRANCH   2  14
BRANCH   3  16
ATOM     16  O   UNL     1     -32.028 -13.007   2.533  1.00  0.00    -0.490 OA
ATOM     17  C   UNL     1     -32.002 -13.125   1.115  1.00  0.00     0.278 C 
ENDBRANCH   3  16
TORSDOF 3
ENDMDL
MODEL 5
REMARK VINA RESULT:    -5.591      6.425      9.319
REMARK INTER + INTRA:          -6.866
REMARK INTER:                  -6.577
REMARK INTRA:                  -0.288
REMARK UNBOUND:                -0.294
REMARK SMILES COc1cc2ccc(=O)oc2c(OC)c1OC
REMARK SMILES IDX 3 1 15 2 12 3 11 4 5 5 4 6 6 7 7 8 8 9 9 10 10 11 2 12 1 13
REMARK SMILES IDX 16 14 17 15 13 16 14 17
REMARK H PARENT
REMARK Flexibility Score: inf
ROOT
ATOM      1  C   UNL     1     -31.835 -13.372   2.359  1.00  0.00     0.165 A 
ATOM      2  C   UNL     1     -30.755 -13.724   3.218  1.00  0.00     0.207 A 
ATOM      3  C   UNL     1     -31.002 -14.566   4.338  1.00  0.00     0.208 A 
ATOM      4  C   UNL     1     -32.298 -15.037   4.584  1.00  0.00     0.184 A 
ATOM      5  C   UNL     1     -33.360 -14.684   3.730  1.00  0.00     0.025 A 
ATOM      6  C   UNL     1     -33.126 -13.860   2.631  1.00  0.00     0.062 A 
ATOM      7  C   UNL     1     -34.639 -15.176   4.012  1.00  0.00     0.020 A 
ATOM      8  C   UNL     1     -34.829 -15.998   5.122  1.00  0.00     0.094 A 
ATOM      9  C   UNL     1     -33.730 -16.308   5.927  1.00  0.00     0.336 A 
ATOM     10  O   UNL     1     -33.878 -17.048   6.935  1.00  0.00    -0.246 OA
ATOM     11  O   UNL     1     -32.525 -15.825   5.634  1.00  0.00    -0.419 OA
ENDROOT
BRANCH   1  12
ATOM     12  O   UNL     1     -31.607 -12.542   1.250  1.00  0.00    -0.493 OA
ATOM     13  C   UNL     1     -31.643 -11.117   1.268  1.00  0.00     0.278 C 
ENDBRANCH   1  12
BRANCH   2  14
ATOM     14  O   UNL     1     -29.439 -13.271   3.003  1.00  0.00    -0.490 OA
ATOM     15  C   UNL     1     -28.470 -13.821   2.118  1.00  0.00     0.278 C 
ENDBRANCH   2  14
BRANCH   3  16
ATOM     16  O   UNL     1     -30.007 -14.976   5.250  1.00  0.00    -0.490 OA
ATOM     17  C   UNL     1     -29.071 -16.034   5.079  1.00  0.00     0.278 C 
ENDBRANCH   3  16
TORSDOF 3
ENDMDL
MODEL 6
REMARK VINA RESULT:    -5.452      4.955      6.568
REMARK INTER + INTRA:          -6.703
REMARK INTER:                  -6.417
REMARK INTRA:                  -0.286
REMARK UNBOUND:                -0.294
REMARK SMILES COc1cc2ccc(=O)oc2c(OC)c1OC
REMARK SMILES IDX 3 1 15 2 12 3 11 4 5 5 4 6 6 7 7 8 8 9 9 10 10 11 2 12 1 13
REMARK SMILES IDX 16 14 17 15 13 16 14 17
REMARK H PARENT
REMARK Flexibility Score: inf
ROOT
ATOM      1  C   UNL     1     -25.605 -11.969   0.737  1.00  0.00     0.165 A 
ATOM      2  C   UNL     1     -26.296 -13.187   0.994  1.00  0.00     0.207 A 
ATOM      3  C   UNL     1     -26.661 -13.512   2.331  1.00  0.00     0.208 A 
ATOM      4  C   UNL     1     -26.339 -12.635   3.374  1.00  0.00     0.184 A 
ATOM      5  C   UNL     1     -25.655 -11.433   3.111  1.00  0.00     0.025 A 
ATOM      6  C   UNL     1     -25.293 -11.107   1.805  1.00  0.00     0.062 A 
ATOM      7  C   UNL     1     -25.351 -10.585   4.183  1.00  0.00     0.020 A 
ATOM      8  C   UNL     1     -25.732 -10.949   5.474  1.00  0.00     0.094 A 
ATOM      9  C   UNL     1     -26.407 -12.157   5.663  1.00  0.00     0.336 A 
ATOM     10  O   UNL     1     -26.760 -12.506   6.820  1.00  0.00    -0.246 OA
ATOM     11  O   UNL     1     -26.682 -12.942   4.625  1.00  0.00    -0.419 OA
ENDROOT
BRANCH   1  12
ATOM     12  O   UNL     1     -25.237 -11.635  -0.576  1.00  0.00    -0.493 OA
ATOM     13  C   UNL     1     -26.074 -10.977  -1.522  1.00  0.00     0.278 C 
ENDBRANCH   1  12
BRANCH   2  14
ATOM     14  O   UNL     1     -26.637 -14.093  -0.028  1.00  0.00    -0.490 OA
ATOM     15  C   UNL     1     -27.887 -14.205  -0.701  1.00  0.00     0.278 C 
ENDBRANCH   2  14
BRANCH   3  16
ATOM     16  O   UNL     1     -27.346 -14.689   2.696  1.00  0.00    -0.490 OA
ATOM     17  C   UNL     1     -26.784 -15.983   2.886  1.00  0.00     0.278 C 
ENDBRANCH   3  16
TORSDOF 3
ENDMDL
MODEL 7
REMARK VINA RESULT:    -5.429      5.048      7.847
REMARK INTER + INTRA:          -6.676
REMARK INTER:                  -6.420
REMARK INTRA:                  -0.256
REMARK UNBOUND:                -0.294
REMARK SMILES COc1cc2ccc(=O)oc2c(OC)c1OC
REMARK SMILES IDX 3 1 15 2 12 3 11 4 5 5 4 6 6 7 7 8 8 9 9 10 10 11 2 12 1 13
REMARK SMILES IDX 16 14 17 15 13 16 14 17
REMARK H PARENT
REMARK Flexibility Score: inf
ROOT
ATOM      1  C   UNL     1     -25.579 -12.098   1.994  1.00  0.00     0.165 A 
ATOM      2  C   UNL     1     -26.216 -11.927   3.256  1.00  0.00     0.207 A 
ATOM      3  C   UNL     1     -26.778 -13.059   3.911  1.00  0.00     0.208 A 
ATOM      4  C   UNL     1     -26.700 -14.322   3.310  1.00  0.00     0.184 A 
ATOM      5  C   UNL     1     -26.068 -14.481   2.063  1.00  0.00     0.025 A 
ATOM      6  C   UNL     1     -25.516 -13.378   1.414  1.00  0.00     0.062 A 
ATOM      7  C   UNL     1     -26.013 -15.761   1.497  1.00  0.00     0.020 A 
ATOM      8  C   UNL     1     -26.578 -16.837   2.179  1.00  0.00     0.094 A 
ATOM      9  C   UNL     1     -27.190 -16.606   3.414  1.00  0.00     0.336 A 
ATOM     10  O   UNL     1     -27.707 -17.563   4.048  1.00  0.00    -0.246 OA
ATOM     11  O   UNL     1     -27.228 -15.379   3.927  1.00  0.00    -0.419 OA
ENDROOT
BRANCH   1  12
ATOM     12  O   UNL     1     -25.020 -10.991   1.335  1.00  0.00    -0.493 OA
ATOM     13  C   UNL     1     -24.844 -10.876  -0.075  1.00  0.00     0.278 C 
ENDBRANCH   1  12
BRANCH   2  14
ATOM     14  O   UNL     1     -26.314 -10.674   3.890  1.00  0.00    -0.490 OA
ATOM     15  C   UNL     1     -25.323 -10.027   4.681  1.00  0.00     0.278 C 
ENDBRANCH   2  14
BRANCH   3  16
ATOM     16  O   UNL     1     -27.430 -13.002   5.160  1.00  0.00    -0.490 OA
ATOM     17  C   UNL     1     -26.818 -12.983   6.445  1.00  0.00     0.278 C 
ENDBRANCH   3  16
TORSDOF 3
ENDMDL
MODEL 8
REMARK VINA RESULT:    -5.408      4.947      8.406
REMARK INTER + INTRA:          -6.651
REMARK INTER:                  -6.353
REMARK INTRA:                  -0.298
REMARK UNBOUND:                -0.294
REMARK SMILES COc1cc2ccc(=O)oc2c(OC)c1OC
REMARK SMILES IDX 3 1 15 2 12 3 11 4 5 5 4 6 6 7 7 8 8 9 9 10 10 11 2 12 1 13
REMARK SMILES IDX 16 14 17 15 13 16 14 17
REMARK H PARENT
REMARK Flexibility Score: inf
ROOT
ATOM      1  C   UNL     1     -32.600 -12.122   1.918  1.00  0.00     0.165 A 
ATOM      2  C   UNL     1     -31.182 -12.004   1.945  1.00  0.00     0.207 A 
ATOM      3  C   UNL     1     -30.423 -12.899   2.750  1.00  0.00     0.208 A 
ATOM      4  C   UNL     1     -31.077 -13.882   3.505  1.00  0.00     0.184 A 
ATOM      5  C   UNL     1     -32.479 -13.991   3.472  1.00  0.00     0.025 A 
ATOM      6  C   UNL     1     -33.230 -13.118   2.687  1.00  0.00     0.062 A 
ATOM      7  C   UNL     1     -33.092 -14.987   4.242  1.00  0.00     0.020 A 
ATOM      8  C   UNL     1     -32.305 -15.839   5.014  1.00  0.00     0.094 A 
ATOM      9  C   UNL     1     -30.918 -15.674   4.999  1.00  0.00     0.336 A 
ATOM     10  O   UNL     1     -30.186 -16.432   5.688  1.00  0.00    -0.246 OA
ATOM     11  O   UNL     1     -30.363 -14.718   4.258  1.00  0.00    -0.419 OA
ENDROOT
BRANCH   1  12
ATOM     12  O   UNL     1     -33.363 -11.245   1.129  1.00  0.00    -0.493 OA
ATOM     13  C   UNL     1     -34.096 -10.125   1.618  1.00  0.00     0.278 C 
ENDBRANCH   1  12
BRANCH   2  14
ATOM     14  O   UNL     1     -30.490 -11.029   1.200  1.00  0.00    -0.490 OA
ATOM     15  C   UNL     1     -30.144  -9.711   1.613  1.00  0.00     0.278 C 
ENDBRANCH   2  14
BRANCH   3  16
ATOM     16  O   UNL     1     -29.017 -12.870   2.849  1.00  0.00    -0.490 OA
ATOM     17  C   UNL     1     -28.083 -13.451   1.945  1.00  0.00     0.278 C 
ENDBRANCH   3  16
TORSDOF 3
ENDMDL
MODEL 9
REMARK VINA RESULT:    -5.296      5.109      6.425
REMARK INTER + INTRA:          -6.520
REMARK INTER:                  -6.245
REMARK INTRA:                  -0.275
REMARK UNBOUND:                -0.294
REMARK SMILES COc1cc2ccc(=O)oc2c(OC)c1OC
REMARK SMILES IDX 3 1 15 2 12 3 11 4 5 5 4 6 6 7 7 8 8 9 9 10 10 11 2 12 1 13
REMARK SMILES IDX 16 14 17 15 13 16 14 17
REMARK H PARENT
REMARK Flexibility Score: inf
ROOT
ATOM      1  C   UNL     1     -26.146 -12.777   3.886  1.00  0.00     0.165 A 
ATOM      2  C   UNL     1     -27.032 -13.613   3.148  1.00  0.00     0.207 A 
ATOM      3  C   UNL     1     -27.103 -13.474   1.733  1.00  0.00     0.208 A 
ATOM      4  C   UNL     1     -26.305 -12.524   1.085  1.00  0.00     0.184 A 
ATOM      5  C   UNL     1     -25.431 -11.702   1.822  1.00  0.00     0.025 A 
ATOM      6  C   UNL     1     -25.356 -11.830   3.208  1.00  0.00     0.062 A 
ATOM      7  C   UNL     1     -24.652 -10.764   1.135  1.00  0.00     0.020 A 
ATOM      8  C   UNL     1     -24.758 -10.669  -0.252  1.00  0.00     0.094 A 
ATOM      9  C   UNL     1     -25.645 -11.516  -0.920  1.00  0.00     0.336 A 
ATOM     10  O   UNL     1     -25.758 -11.447  -2.172  1.00  0.00    -0.246 OA
ATOM     11  O   UNL     1     -26.374 -12.397  -0.240  1.00  0.00    -0.419 OA
ENDROOT
BRANCH   1  12
ATOM     12  O   UNL     1     -26.065 -12.901   5.282  1.00  0.00    -0.493 OA
ATOM     13  C   UNL     1     -26.499 -11.920   6.221  1.00  0.00     0.278 C 
ENDBRANCH   1  12
BRANCH   2  14
ATOM     14  O   UNL     1     -27.849 -14.579   3.764  1.00  0.00    -0.490 OA
ATOM     15  C   UNL     1     -27.481 -15.896   4.160  1.00  0.00     0.278 C 
ENDBRANCH   2  14
BRANCH   3  16
ATOM     16  O   UNL     1     -27.944 -14.249   0.907  1.00  0.00    -0.490 OA
ATOM     17  C   UNL     1     -27.689 -15.559   0.413  1.00  0.00     0.278 C 
ENDBRANCH   3  16
TORSDOF 3
ENDMDL
