MODEL 1
REMARK VINA RESULT:    -4.980      0.000      0.000
REMARK INTER + INTRA:          -4.980
REMARK INTER:                  -4.980
REMARK INTRA:                   0.000
REMARK UNBOUND:                 0.000
REMARK SMILES C=C1CCC[C@@]2(C)CC(=O)C(=C(C)C)C[C@H]12
REMARK SMILES IDX 13 1 12 2 11 3 15 4 16 5 2 6 1 7 3 8 4 9 5 10 6 11 8 12 9 13
REMARK SMILES IDX 10 14 7 15 14 16
REMARK H PARENT
REMARK Flexibility Score: inf
ROOT
ATOM      1  C   UNL     1      75.285  -8.997  28.249  1.00  0.00     0.039 C 
ATOM      2  C   UNL     1      76.680  -9.084  27.672  1.00  0.00    -0.070 C 
ATOM      3  C   UNL     1      77.680  -8.244  28.074  1.00  0.00    -0.006 C 
ATOM      4  C   UNL     1      79.062  -8.308  27.436  1.00  0.00     0.047 C 
ATOM      5  C   UNL     1      79.818  -6.953  27.463  1.00  0.00     0.025 C 
ATOM      6  C   UNL     1      81.255  -7.012  26.935  1.00  0.00    -0.073 C 
ATOM      7  C   UNL     1      81.790  -8.095  26.338  1.00  0.00     0.008 C 
ATOM      8  C   UNL     1      82.114  -5.776  27.070  1.00  0.00     0.031 C 
ATOM      9  C   UNL     1      81.298  -4.574  27.547  1.00  0.00     0.005 C 
ATOM     10  C   UNL     1      80.533  -4.876  28.847  1.00  0.00     0.008 C 
ATOM     11  C   UNL     1      79.800  -6.272  28.873  1.00  0.00    -0.018 C 
ATOM     12  C   UNL     1      78.325  -6.049  29.287  1.00  0.00     0.088 C 
ATOM     13  C   UNL     1      77.521  -7.313  29.226  1.00  0.00     0.159 C 
ATOM     14  O   UNL     1      76.731  -7.572  30.173  1.00  0.00    -0.295 OA
ATOM     15  C   UNL     1      80.498  -7.171  29.933  1.00  0.00     0.012 C 
ATOM     16  C   UNL     1      76.913 -10.125  26.600  1.00  0.00     0.039 C 
ENDROOT
TORSDOF 0
ENDMDL
MODEL 2
REMARK VINA RESULT:    -4.776      2.046      4.807
REMARK INTER + INTRA:          -4.776
REMARK INTER:                  -4.776
REMARK INTRA:                   0.000
REMARK UNBOUND:                 0.000
REMARK SMILES C=C1CCC[C@@]2(C)CC(=O)C(=C(C)C)C[C@H]12
REMARK SMILES IDX 13 1 12 2 11 3 15 4 16 5 2 6 1 7 3 8 4 9 5 10 6 11 8 12 9 13
REMARK SMILES IDX 10 14 7 15 14 16
REMARK H PARENT
REMARK Flexibility Score: inf
ROOT
ATOM      1  C   UNL     1      83.876  -7.516  26.298  1.00  0.00     0.039 C 
ATOM      2  C   UNL     1      82.552  -8.247  26.308  1.00  0.00    -0.070 C 
ATOM      3  C   UNL     1      81.416  -7.672  26.803  1.00  0.00    -0.006 C 
ATOM      4  C   UNL     1      80.105  -8.447  26.860  1.00  0.00     0.047 C 
ATOM      5  C   UNL     1      79.160  -7.981  27.999  1.00  0.00     0.025 C 
ATOM      6  C   UNL     1      77.788  -8.661  28.010  1.00  0.00    -0.073 C 
ATOM      7  C   UNL     1      77.459  -9.698  27.215  1.00  0.00     0.008 C 
ATOM      8  C   UNL     1      76.751  -8.156  28.986  1.00  0.00     0.031 C 
ATOM      9  C   UNL     1      77.349  -7.146  29.968  1.00  0.00     0.005 C 
ATOM     10  C   UNL     1      78.056  -5.988  29.243  1.00  0.00     0.008 C 
ATOM     11  C   UNL     1      78.980  -6.426  28.043  1.00  0.00    -0.018 C 
ATOM     12  C   UNL     1      80.375  -5.779  28.231  1.00  0.00     0.088 C 
ATOM     13  C   UNL     1      81.356  -6.235  27.193  1.00  0.00     0.159 C 
ATOM     14  O   UNL     1      82.107  -5.379  26.655  1.00  0.00    -0.295 OA
ATOM     15  C   UNL     1      78.348  -5.902  26.723  1.00  0.00     0.012 C 
ATOM     16  C   UNL     1      82.549  -9.663  25.777  1.00  0.00     0.039 C 
ENDROOT
TORSDOF 0
ENDMDL
MODEL 3
REMARK VINA RESULT:    -4.703      2.003      4.547
REMARK INTER + INTRA:          -4.703
REMARK INTER:                  -4.703
REMARK INTRA:                   0.000
REMARK UNBOUND:                 0.000
REMARK SMILES C=C1CCC[C@@]2(C)CC(=O)C(=C(C)C)C[C@H]12
REMARK SMILES IDX 13 1 12 2 11 3 15 4 16 5 2 6 1 7 3 8 4 9 5 10 6 11 8 12 9 13
REMARK SMILES IDX 10 14 7 15 14 16
REMARK H PARENT
REMARK Flexibility Score: inf
ROOT
ATOM      1  C   UNL     1      79.527  -2.780  30.153  1.00  0.00     0.039 C 
ATOM      2  C   UNL     1      80.546  -3.490  29.290  1.00  0.00    -0.070 C 
ATOM      3  C   UNL     1      80.267  -4.680  28.679  1.00  0.00    -0.006 C 
ATOM      4  C   UNL     1      81.328  -5.409  27.863  1.00  0.00     0.047 C 
ATOM      5  C   UNL     1      81.132  -6.948  27.830  1.00  0.00     0.025 C 
ATOM      6  C   UNL     1      82.112  -7.698  26.924  1.00  0.00    -0.073 C 
ATOM      7  C   UNL     1      83.170  -7.119  26.323  1.00  0.00     0.008 C 
ATOM      8  C   UNL     1      81.896  -9.178  26.711  1.00  0.00     0.031 C 
ATOM      9  C   UNL     1      80.808  -9.725  27.638  1.00  0.00     0.005 C 
ATOM     10  C   UNL     1      79.494  -8.936  27.512  1.00  0.00     0.008 C 
ATOM     11  C   UNL     1      79.664  -7.369  27.484  1.00  0.00    -0.018 C 
ATOM     12  C   UNL     1      78.718  -6.750  28.543  1.00  0.00     0.088 C 
ATOM     13  C   UNL     1      78.898  -5.266  28.666  1.00  0.00     0.159 C 
ATOM     14  O   UNL     1      77.873  -4.537  28.740  1.00  0.00    -0.295 OA
ATOM     15  C   UNL     1      79.257  -6.857  26.073  1.00  0.00     0.012 C 
ATOM     16  C   UNL     1      81.905  -2.840  29.162  1.00  0.00     0.039 C 
ENDROOT
TORSDOF 0
ENDMDL
MODEL 4
REMARK VINA RESULT:    -4.647      2.613      5.362
REMARK INTER + INTRA:          -4.647
REMARK INTER:                  -4.647
REMARK INTRA:                   0.000
REMARK UNBOUND:                 0.000
REMARK SMILES C=C1CCC[C@@]2(C)CC(=O)C(=C(C)C)C[C@H]12
REMARK SMILES IDX 13 1 12 2 11 3 15 4 16 5 2 6 1 7 3 8 4 9 5 10 6 11 8 12 9 13
REMARK SMILES IDX 10 14 7 15 14 16
REMARK H PARENT
REMARK Flexibility Score: inf
ROOT
ATOM      1  C   UNL     1      85.112  -9.715  26.883  1.00  0.00     0.039 C 
ATOM      2  C   UNL     1      84.102  -8.622  26.615  1.00  0.00    -0.070 C 
ATOM      3  C   UNL     1      82.867  -8.624  27.199  1.00  0.00    -0.006 C 
ATOM      4  C   UNL     1      81.842  -7.547  26.868  1.00  0.00     0.047 C 
ATOM      5  C   UNL     1      80.373  -8.023  27.022  1.00  0.00     0.025 C 
ATOM      6  C   UNL     1      79.321  -6.930  26.810  1.00  0.00    -0.073 C 
ATOM      7  C   UNL     1      79.606  -5.692  26.365  1.00  0.00     0.008 C 
ATOM      8  C   UNL     1      77.875  -7.269  27.094  1.00  0.00     0.031 C 
ATOM      9  C   UNL     1      77.691  -8.764  27.360  1.00  0.00     0.005 C 
ATOM     10  C   UNL     1      78.621  -9.269  28.477  1.00  0.00     0.008 C 
ATOM     11  C   UNL     1      80.108  -8.756  28.381  1.00  0.00    -0.018 C 
ATOM     12  C   UNL     1      81.059  -9.975  28.469  1.00  0.00     0.088 C 
ATOM     13  C   UNL     1      82.495  -9.590  28.270  1.00  0.00     0.159 C 
ATOM     14  O   UNL     1      83.365 -10.086  29.035  1.00  0.00    -0.295 OA
ATOM     15  C   UNL     1      80.378  -7.809  29.584  1.00  0.00     0.012 C 
ATOM     16  C   UNL     1      84.508  -7.540  25.641  1.00  0.00     0.039 C 
ENDROOT
TORSDOF 0
ENDMDL
MODEL 5
REMARK VINA RESULT:    -4.578      2.045      2.751
REMARK INTER + INTRA:          -4.578
REMARK INTER:                  -4.578
REMARK INTRA:                   0.000
REMARK UNBOUND:                 0.000
REMARK SMILES C=C1CCC[C@@]2(C)CC(=O)C(=C(C)C)C[C@H]12
REMARK SMILES IDX 13 1 12 2 11 3 15 4 16 5 2 6 1 7 3 8 4 9 5 10 6 11 8 12 9 13
REMARK SMILES IDX 10 14 7 15 14 16
REMARK H PARENT
REMARK Flexibility Score: inf
ROOT
ATOM      1  C   UNL     1      76.436  -8.974  24.195  1.00  0.00     0.039 C 
ATOM      2  C   UNL     1      77.704  -8.187  24.439  1.00  0.00    -0.070 C 
ATOM      3  C   UNL     1      78.110  -7.847  25.698  1.00  0.00    -0.006 C 
ATOM      4  C   UNL     1      79.358  -7.001  25.918  1.00  0.00     0.047 C 
ATOM      5  C   UNL     1      79.310  -6.155  27.218  1.00  0.00     0.025 C 
ATOM      6  C   UNL     1      80.597  -5.384  27.527  1.00  0.00    -0.073 C 
ATOM      7  C   UNL     1      81.639  -5.295  26.678  1.00  0.00     0.008 C 
ATOM      8  C   UNL     1      80.694  -4.660  28.850  1.00  0.00     0.031 C 
ATOM      9  C   UNL     1      79.354  -4.661  29.589  1.00  0.00     0.005 C 
ATOM     10  C   UNL     1      78.792  -6.083  29.760  1.00  0.00     0.008 C 
ATOM     11  C   UNL     1      78.878  -6.987  28.472  1.00  0.00    -0.018 C 
ATOM     12  C   UNL     1      77.479  -7.592  28.197  1.00  0.00     0.088 C 
ATOM     13  C   UNL     1      77.442  -8.377  26.919  1.00  0.00     0.159 C 
ATOM     14  O   UNL     1      76.853  -9.490  26.912  1.00  0.00    -0.295 OA
ATOM     15  C   UNL     1      79.887  -8.138  28.749  1.00  0.00     0.012 C 
ATOM     16  C   UNL     1      78.488  -7.760  23.219  1.00  0.00     0.039 C 
ENDROOT
TORSDOF 0
ENDMDL
MODEL 6
REMARK VINA RESULT:    -4.094      1.897      5.361
REMARK INTER + INTRA:          -4.094
REMARK INTER:                  -4.094
REMARK INTRA:                   0.000
REMARK UNBOUND:                 0.000
REMARK SMILES C=C1CCC[C@@]2(C)CC(=O)C(=C(C)C)C[C@H]12
REMARK SMILES IDX 13 1 12 2 11 3 15 4 16 5 2 6 1 7 3 8 4 9 5 10 6 11 8 12 9 13
REMARK SMILES IDX 10 14 7 15 14 16
REMARK H PARENT
REMARK Flexibility Score: inf
ROOT
ATOM      1  C   UNL     1      81.739  -4.129  27.426  1.00  0.00     0.039 C 
ATOM      2  C   UNL     1      80.630  -4.721  28.266  1.00  0.00    -0.070 C 
ATOM      3  C   UNL     1      80.123  -5.965  28.015  1.00  0.00    -0.006 C 
ATOM      4  C   UNL     1      78.965  -6.519  28.836  1.00  0.00     0.047 C 
ATOM      5  C   UNL     1      78.089  -7.538  28.058  1.00  0.00     0.025 C 
ATOM      6  C   UNL     1      76.987  -8.200  28.891  1.00  0.00    -0.073 C 
ATOM      7  C   UNL     1      76.673  -7.830  30.148  1.00  0.00     0.008 C 
ATOM      8  C   UNL     1      76.189  -9.317  28.258  1.00  0.00     0.031 C 
ATOM      9  C   UNL     1      76.504  -9.455  26.767  1.00  0.00     0.005 C 
ATOM     10  C   UNL     1      78.012  -9.620  26.510  1.00  0.00     0.008 C 
ATOM     11  C   UNL     1      78.933  -8.636  27.329  1.00  0.00    -0.018 C 
ATOM     12  C   UNL     1      79.903  -7.933  26.347  1.00  0.00     0.088 C 
ATOM     13  C   UNL     1      80.741  -6.891  27.026  1.00  0.00     0.159 C 
ATOM     14  O   UNL     1      81.970  -6.834  26.753  1.00  0.00    -0.295 OA
ATOM     15  C   UNL     1      79.756  -9.473  28.349  1.00  0.00     0.012 C 
ATOM     16  C   UNL     1      80.080  -3.859  29.379  1.00  0.00     0.039 C 
ENDROOT
TORSDOF 0
ENDMDL
MODEL 7
REMARK VINA RESULT:    -4.030      2.756      3.498
REMARK INTER + INTRA:          -4.030
REMARK INTER:                  -4.030
REMARK INTRA:                   0.000
REMARK UNBOUND:                 0.000
REMARK SMILES C=C1CCC[C@@]2(C)CC(=O)C(=C(C)C)C[C@H]12
REMARK SMILES IDX 13 1 12 2 11 3 15 4 16 5 2 6 1 7 3 8 4 9 5 10 6 11 8 12 9 13
REMARK SMILES IDX 10 14 7 15 14 16
REMARK H PARENT
REMARK Flexibility Score: inf
ROOT
ATOM      1  C   UNL     1      77.678  -9.127  22.380  1.00  0.00     0.039 C 
ATOM      2  C   UNL     1      78.706  -9.224  23.484  1.00  0.00    -0.070 C 
ATOM      3  C   UNL     1      78.588  -8.509  24.643  1.00  0.00    -0.006 C 
ATOM      4  C   UNL     1      79.666  -8.574  25.717  1.00  0.00     0.047 C 
ATOM      5  C   UNL     1      79.760  -7.285  26.577  1.00  0.00     0.025 C 
ATOM      6  C   UNL     1      80.754  -7.364  27.740  1.00  0.00    -0.073 C 
ATOM      7  C   UNL     1      81.609  -8.388  27.927  1.00  0.00     0.008 C 
ATOM      8  C   UNL     1      80.796  -6.214  28.720  1.00  0.00     0.031 C 
ATOM      9  C   UNL     1      79.943  -5.037  28.241  1.00  0.00     0.005 C 
ATOM     10  C   UNL     1      78.498  -5.463  27.928  1.00  0.00     0.008 C 
ATOM     11  C   UNL     1      78.367  -6.800  27.103  1.00  0.00    -0.018 C 
ATOM     12  C   UNL     1      77.449  -6.542  25.883  1.00  0.00     0.088 C 
ATOM     13  C   UNL     1      77.361  -7.734  24.977  1.00  0.00     0.159 C 
ATOM     14  O   UNL     1      76.232  -8.068  24.527  1.00  0.00    -0.295 OA
ATOM     15  C   UNL     1      77.714  -7.876  28.017  1.00  0.00     0.012 C 
ATOM     16  C   UNL     1      79.896 -10.123  23.234  1.00  0.00     0.039 C 
ENDROOT
TORSDOF 0
ENDMDL
MODEL 8
REMARK VINA RESULT:    -3.867      2.527      5.126
REMARK INTER + INTRA:          -3.867
REMARK INTER:                  -3.867
REMARK INTRA:                   0.000
REMARK UNBOUND:                 0.000
REMARK SMILES C=C1CCC[C@@]2(C)CC(=O)C(=C(C)C)C[C@H]12
REMARK SMILES IDX 13 1 12 2 11 3 15 4 16 5 2 6 1 7 3 8 4 9 5 10 6 11 8 12 9 13
REMARK SMILES IDX 10 14 7 15 14 16
REMARK H PARENT
REMARK Flexibility Score: inf
ROOT
ATOM      1  C   UNL     1      80.660  -5.039  28.983  1.00  0.00     0.039 C 
ATOM      2  C   UNL     1      79.366  -5.464  28.326  1.00  0.00    -0.070 C 
ATOM      3  C   UNL     1      79.302  -6.543  27.491  1.00  0.00    -0.006 C 
ATOM      4  C   UNL     1      78.002  -6.919  26.792  1.00  0.00     0.047 C 
ATOM      5  C   UNL     1      78.216  -7.651  25.440  1.00  0.00     0.025 C 
ATOM      6  C   UNL     1      76.930  -8.144  24.770  1.00  0.00    -0.073 C 
ATOM      7  C   UNL     1      75.693  -7.840  25.207  1.00  0.00     0.008 C 
ATOM      8  C   UNL     1      77.057  -9.002  23.532  1.00  0.00     0.031 C 
ATOM      9  C   UNL     1      78.503  -9.060  23.034  1.00  0.00     0.005 C 
ATOM     10  C   UNL     1      79.474  -9.511  24.138  1.00  0.00     0.008 C 
ATOM     11  C   UNL     1      79.246  -8.827  25.540  1.00  0.00    -0.018 C 
ATOM     12  C   UNL     1      80.595  -8.251  26.036  1.00  0.00     0.088 C 
ATOM     13  C   UNL     1      80.448  -7.479  27.313  1.00  0.00     0.159 C 
ATOM     14  O   UNL     1      81.298  -7.654  28.226  1.00  0.00    -0.295 OA
ATOM     15  C   UNL     1      78.754  -9.912  26.540  1.00  0.00     0.012 C 
ATOM     16  C   UNL     1      78.145  -4.616  28.608  1.00  0.00     0.039 C 
ENDROOT
TORSDOF 0
ENDMDL
MODEL 9
REMARK VINA RESULT:    -3.825      2.070      3.429
REMARK INTER + INTRA:          -3.825
REMARK INTER:                  -3.825
REMARK INTRA:                   0.000
REMARK UNBOUND:                 0.000
REMARK SMILES C=C1CCC[C@@]2(C)CC(=O)C(=C(C)C)C[C@H]12
REMARK SMILES IDX 13 1 12 2 11 3 15 4 16 5 2 6 1 7 3 8 4 9 5 10 6 11 8 12 9 13
REMARK SMILES IDX 10 14 7 15 14 16
REMARK H PARENT
REMARK Flexibility Score: inf
ROOT
ATOM      1  C   UNL     1      75.883  -8.656  27.834  1.00  0.00     0.039 C 
ATOM      2  C   UNL     1      77.112  -8.868  28.689  1.00  0.00    -0.070 C 
ATOM      3  C   UNL     1      78.371  -8.650  28.207  1.00  0.00    -0.006 C 
ATOM      4  C   UNL     1      79.599  -8.928  29.066  1.00  0.00     0.047 C 
ATOM      5  C   UNL     1      80.859  -9.298  28.240  1.00  0.00     0.025 C 
ATOM      6  C   UNL     1      82.138  -9.469  29.067  1.00  0.00    -0.073 C 
ATOM      7  C   UNL     1      82.164  -9.468  30.413  1.00  0.00     0.008 C 
ATOM      8  C   UNL     1      83.441  -9.675  28.329  1.00  0.00     0.031 C 
ATOM      9  C   UNL     1      83.210  -9.885  26.831  1.00  0.00     0.005 C 
ATOM     10  C   UNL     1      82.382  -8.747  26.211  1.00  0.00     0.008 C 
ATOM     11  C   UNL     1      81.124  -8.309  27.055  1.00  0.00    -0.018 C 
ATOM     12  C   UNL     1      79.882  -8.313  26.130  1.00  0.00     0.088 C 
ATOM     13  C   UNL     1      78.617  -8.019  26.880  1.00  0.00     0.159 C 
ATOM     14  O   UNL     1      77.786  -7.219  26.371  1.00  0.00    -0.295 OA
ATOM     15  C   UNL     1      81.367  -6.865  27.580  1.00  0.00     0.012 C 
ATOM     16  C   UNL     1      76.886  -9.369  30.098  1.00  0.00     0.039 C 
ENDROOT
TORSDOF 0
ENDMDL
