MODEL 1
REMARK VINA RESULT:    -4.786      0.000      0.000
REMARK INTER + INTRA:         -10.886
REMARK INTER:                  -8.983
REMARK INTRA:                  -1.903
REMARK UNBOUND:                -1.903
REMARK SMILES O=C([O-])CCCCCCCCCCCCCCC(=O)[O-]
REMARK SMILES IDX 10 1 9 2 8 3 7 4 6 5 5 6 4 7 2 8 1 9 3 10 11 11 12 12 13 13
REMARK SMILES IDX 14 14 15 15 16 16 17 17 18 18 19 19 20 20
REMARK H PARENT
REMARK Flexibility Score: inf
ROOT
ATOM      1  C   UNL     1     100.075  89.048  88.754  1.00  0.00     0.000 C 
ENDROOT
BRANCH   1   2
ATOM      2  C   UNL     1      99.309  88.308  87.649  1.00  0.00     0.000 C 
BRANCH   2   3
ATOM      3  C   UNL     1     100.163  88.066  86.395  1.00  0.00     0.000 C 
BRANCH   3   4
ATOM      4  C   UNL     1     100.445  89.358  85.612  1.00  0.00     0.000 C 
BRANCH   4   5
ATOM      5  C   UNL     1      99.183  89.851  84.894  1.00  0.00     0.000 C 
BRANCH   5   6
ATOM      6  C   UNL     1      98.901  91.324  85.223  1.00  0.00     0.006 C 
BRANCH   6   7
ATOM      7  C   UNL     1      99.912  91.900  86.225  1.00  0.00     0.053 C 
BRANCH   7   8
ATOM      8  C   UNL     1      99.235  92.444  87.446  1.00  0.00     0.041 C 
ATOM      9  O   UNL     1      99.899  92.664  88.492  1.00  0.00    -0.550 OA
ATOM     10  O   UNL     1      97.865  92.677  87.438  1.00  0.00    -0.550 OA
ENDBRANCH   7   8
ENDBRANCH   6   7
ENDBRANCH   5   6
ENDBRANCH   4   5
ENDBRANCH   3   4
ENDBRANCH   2   3
ENDBRANCH   1   2
BRANCH   1  11
ATOM     11  C   UNL     1     101.267  88.217  89.247  1.00  0.00     0.000 C 
BRANCH  11  12
ATOM     12  C   UNL     1     100.798  86.899  89.874  1.00  0.00     0.000 C 
BRANCH  12  13
ATOM     13  C   UNL     1     101.027  86.902  91.393  1.00  0.00     0.000 C 
BRANCH  13  14
ATOM     14  C   UNL     1     101.944  88.048  91.852  1.00  0.00     0.000 C 
BRANCH  14  15
ATOM     15  C   UNL     1     101.212  89.072  92.735  1.00  0.00     0.000 C 
BRANCH  15  16
ATOM     16  C   UNL     1      99.688  89.077  92.514  1.00  0.00     0.006 C 
BRANCH  16  17
ATOM     17  C   UNL     1      99.112  90.461  92.159  1.00  0.00     0.053 C 
BRANCH  17  18
ATOM     18  C   UNL     1      97.784  90.373  91.472  1.00  0.00     0.041 C 
ATOM     19  O   UNL     1      96.851  89.699  91.983  1.00  0.00    -0.550 OA
ATOM     20  O   UNL     1      97.563  91.062  90.286  1.00  0.00    -0.550 OA
ENDBRANCH  17  18
ENDBRANCH  16  17
ENDBRANCH  15  16
ENDBRANCH  14  15
ENDBRANCH  13  14
ENDBRANCH  12  13
ENDBRANCH  11  12
ENDBRANCH   1  11
TORSDOF 15
ENDMDL
MODEL 2
REMARK VINA RESULT:    -4.681      0.866      5.646
REMARK INTER + INTRA:         -10.689
REMARK INTER:                  -8.893
REMARK INTRA:                  -1.796
REMARK UNBOUND:                -1.903
REMARK SMILES O=C([O-])CCCCCCCCCCCCCCC(=O)[O-]
REMARK SMILES IDX 10 1 9 2 8 3 7 4 6 5 5 6 4 7 2 8 1 9 3 10 11 11 12 12 13 13
REMARK SMILES IDX 14 14 15 15 16 16 17 17 18 18 19 19 20 20
REMARK H PARENT
REMARK Flexibility Score: inf
ROOT
ATOM      1  C   UNL     1     101.171  87.979  89.038  1.00  0.00     0.000 C 
ENDROOT
BRANCH   1   2
ATOM      2  C   UNL     1     100.747  86.921  90.066  1.00  0.00     0.000 C 
BRANCH   2   3
ATOM      3  C   UNL     1     101.558  87.003  91.369  1.00  0.00     0.000 C 
BRANCH   3   4
ATOM      4  C   UNL     1     100.727  87.520  92.553  1.00  0.00     0.000 C 
BRANCH   4   5
ATOM      5  C   UNL     1     101.003  89.007  92.810  1.00  0.00     0.000 C 
BRANCH   5   6
ATOM      6  C   UNL     1      99.994  89.892  92.064  1.00  0.00     0.006 C 
BRANCH   6   7
ATOM      7  C   UNL     1      98.542  89.490  92.354  1.00  0.00     0.053 C 
BRANCH   7   8
ATOM      8  C   UNL     1      97.588  90.110  91.378  1.00  0.00     0.041 C 
ATOM      9  O   UNL     1      96.363  89.823  91.421  1.00  0.00    -0.550 OA
ATOM     10  O   UNL     1      98.058  90.979  90.401  1.00  0.00    -0.550 OA
ENDBRANCH   7   8
ENDBRANCH   6   7
ENDBRANCH   5   6
ENDBRANCH   4   5
ENDBRANCH   3   4
ENDBRANCH   2   3
ENDBRANCH   1   2
BRANCH   1  11
ATOM     11  C   UNL     1      99.961  88.792  88.558  1.00  0.00     0.000 C 
BRANCH  11  12
ATOM     12  C   UNL     1      99.340  88.167  87.302  1.00  0.00     0.000 C 
BRANCH  12  13
ATOM     13  C   UNL     1     100.296  88.279  86.104  1.00  0.00     0.000 C 
BRANCH  13  14
ATOM     14  C   UNL     1      99.829  89.316  85.068  1.00  0.00     0.000 C 
BRANCH  14  15
ATOM     15  C   UNL     1      98.481  89.954  85.440  1.00  0.00     0.000 C 
BRANCH  15  16
ATOM     16  C   UNL     1      98.549  91.490  85.541  1.00  0.00     0.006 C 
BRANCH  16  17
ATOM     17  C   UNL     1      98.425  92.028  86.978  1.00  0.00     0.053 C 
BRANCH  17  18
ATOM     18  C   UNL     1      99.754  92.365  87.583  1.00  0.00     0.041 C 
ATOM     19  O   UNL     1      99.814  93.078  88.620  1.00  0.00    -0.550 OA
ATOM     20  O   UNL     1     100.924  91.865  87.026  1.00  0.00    -0.550 OA
ENDBRANCH  17  18
ENDBRANCH  16  17
ENDBRANCH  15  16
ENDBRANCH  14  15
ENDBRANCH  13  14
ENDBRANCH  12  13
ENDBRANCH  11  12
ENDBRANCH   1  11
TORSDOF 15
ENDMDL
MODEL 3
REMARK VINA RESULT:    -4.530      2.005      5.172
REMARK INTER + INTRA:         -10.405
REMARK INTER:                  -8.585
REMARK INTRA:                  -1.821
REMARK UNBOUND:                -1.903
REMARK SMILES O=C([O-])CCCCCCCCCCCCCCC(=O)[O-]
REMARK SMILES IDX 10 1 9 2 8 3 7 4 6 5 5 6 4 7 2 8 1 9 3 10 11 11 12 12 13 13
REMARK SMILES IDX 14 14 15 15 16 16 17 17 18 18 19 19 20 20
REMARK H PARENT
REMARK Flexibility Score: inf
ROOT
ATOM      1  C   UNL     1      99.907  89.772  85.246  1.00  0.00     0.000 C 
ENDROOT
BRANCH   1   2
ATOM      2  C   UNL     1      99.891  88.447  86.023  1.00  0.00     0.000 C 
BRANCH   2   3
ATOM      3  C   UNL     1      99.738  88.652  87.539  1.00  0.00     0.000 C 
BRANCH   3   4
ATOM      4  C   UNL     1     100.367  87.513  88.356  1.00  0.00     0.000 C 
BRANCH   4   5
ATOM      5  C   UNL     1     101.558  88.021  89.177  1.00  0.00     0.000 C 
BRANCH   5   6
ATOM      6  C   UNL     1     101.793  87.138  90.411  1.00  0.00     0.006 C 
BRANCH   6   7
ATOM      7  C   UNL     1     102.253  87.950  91.629  1.00  0.00     0.053 C 
BRANCH   7   8
ATOM      8  C   UNL     1     101.167  88.079  92.654  1.00  0.00     0.041 C 
ATOM      9  O   UNL     1     100.188  87.289  92.642  1.00  0.00    -0.550 OA
ATOM     10  O   UNL     1     101.222  89.094  93.602  1.00  0.00    -0.550 OA
ENDBRANCH   7   8
ENDBRANCH   6   7
ENDBRANCH   5   6
ENDBRANCH   4   5
ENDBRANCH   3   4
ENDBRANCH   2   3
ENDBRANCH   1   2
BRANCH   1  11
ATOM     11  C   UNL     1      98.529  90.444  85.279  1.00  0.00     0.000 C 
BRANCH  11  12
ATOM     12  C   UNL     1      98.591  91.794  86.004  1.00  0.00     0.000 C 
BRANCH  12  13
ATOM     13  C   UNL     1      99.985  92.031  86.604  1.00  0.00     0.000 C 
BRANCH  13  14
ATOM     14  C   UNL     1      99.928  92.542  88.054  1.00  0.00     0.000 C 
BRANCH  14  15
ATOM     15  C   UNL     1      98.822  91.861  88.875  1.00  0.00     0.000 C 
BRANCH  15  16
ATOM     16  C   UNL     1      99.350  91.188  90.156  1.00  0.00     0.006 C 
BRANCH  16  17
ATOM     17  C   UNL     1      98.443  90.067  90.694  1.00  0.00     0.053 C 
BRANCH  17  18
ATOM     18  C   UNL     1      98.149  90.215  92.156  1.00  0.00     0.041 C 
ATOM     19  O   UNL     1      98.871  90.955  92.874  1.00  0.00    -0.550 OA
ATOM     20  O   UNL     1      97.059  89.564  92.719  1.00  0.00    -0.550 OA
ENDBRANCH  17  18
ENDBRANCH  16  17
ENDBRANCH  15  16
ENDBRANCH  14  15
ENDBRANCH  13  14
ENDBRANCH  12  13
ENDBRANCH  11  12
ENDBRANCH   1  11
TORSDOF 15
ENDMDL
MODEL 4
REMARK VINA RESULT:    -4.512      2.688      6.656
REMARK INTER + INTRA:         -10.372
REMARK INTER:                  -8.732
REMARK INTRA:                  -1.640
REMARK UNBOUND:                -1.903
REMARK SMILES O=C([O-])CCCCCCCCCCCCCCC(=O)[O-]
REMARK SMILES IDX 10 1 9 2 8 3 7 4 6 5 5 6 4 7 2 8 1 9 3 10 11 11 12 12 13 13
REMARK SMILES IDX 14 14 15 15 16 16 17 17 18 18 19 19 20 20
REMARK H PARENT
REMARK Flexibility Score: inf
ROOT
ATOM      1  C   UNL     1      99.622  91.326  89.326  1.00  0.00     0.000 C 
ENDROOT
BRANCH   1   2
ATOM      2  C   UNL     1      99.206  90.041  90.055  1.00  0.00     0.000 C 
BRANCH   2   3
ATOM      3  C   UNL     1      98.025  90.260  91.015  1.00  0.00     0.000 C 
BRANCH   3   4
ATOM      4  C   UNL     1      98.360  89.871  92.463  1.00  0.00     0.000 C 
BRANCH   4   5
ATOM      5  C   UNL     1      99.842  89.505  92.605  1.00  0.00     0.000 C 
BRANCH   5   6
ATOM      6  C   UNL     1     100.042  87.984  92.539  1.00  0.00     0.006 C 
BRANCH   6   7
ATOM      7  C   UNL     1     101.525  87.591  92.558  1.00  0.00     0.053 C 
BRANCH   7   8
ATOM      8  C   UNL     1     101.989  87.105  91.219  1.00  0.00     0.041 C 
ATOM      9  O   UNL     1     101.155  86.876  90.305  1.00  0.00    -0.550 OA
ATOM     10  O   UNL     1     103.341  86.875  90.991  1.00  0.00    -0.550 OA
ENDBRANCH   7   8
ENDBRANCH   6   7
ENDBRANCH   5   6
ENDBRANCH   4   5
ENDBRANCH   3   4
ENDBRANCH   2   3
ENDBRANCH   1   2
BRANCH   1  11
ATOM     11  C   UNL     1      98.392  92.143  88.909  1.00  0.00     0.000 C 
BRANCH  11  12
ATOM     12  C   UNL     1      98.643  92.881  87.587  1.00  0.00     0.000 C 
BRANCH  12  13
ATOM     13  C   UNL     1      99.994  92.474  86.979  1.00  0.00     0.000 C 
BRANCH  13  14
ATOM     14  C   UNL     1      99.846  91.794  85.608  1.00  0.00     0.000 C 
BRANCH  14  15
ATOM     15  C   UNL     1      98.478  91.114  85.432  1.00  0.00     0.000 C 
BRANCH  15  16
ATOM     16  C   UNL     1      98.547  89.580  85.561  1.00  0.00     0.006 C 
BRANCH  16  17
ATOM     17  C   UNL     1      99.981  89.020  85.605  1.00  0.00     0.053 C 
BRANCH  17  18
ATOM     18  C   UNL     1     100.284  88.314  86.891  1.00  0.00     0.041 C 
ATOM     19  O   UNL     1     101.385  88.503  87.472  1.00  0.00    -0.550 OA
ATOM     20  O   UNL     1      99.340  87.474  87.468  1.00  0.00    -0.550 OA
ENDBRANCH  17  18
ENDBRANCH  16  17
ENDBRANCH  15  16
ENDBRANCH  14  15
ENDBRANCH  13  14
ENDBRANCH  12  13
ENDBRANCH  11  12
ENDBRANCH   1  11
TORSDOF 15
ENDMDL
MODEL 5
REMARK VINA RESULT:    -4.393     10.046     12.063
REMARK INTER + INTRA:         -10.149
REMARK INTER:                  -8.153
REMARK INTRA:                  -1.996
REMARK UNBOUND:                -1.903
REMARK SMILES O=C([O-])CCCCCCCCCCCCCCC(=O)[O-]
REMARK SMILES IDX 10 1 9 2 8 3 7 4 6 5 5 6 4 7 2 8 1 9 3 10 11 11 12 12 13 13
REMARK SMILES IDX 14 14 15 15 16 16 17 17 18 18 19 19 20 20
REMARK H PARENT
REMARK Flexibility Score: inf
ROOT
ATOM      1  C   UNL     1     102.595  97.396 100.041  1.00  0.00     0.000 C 
ENDROOT
BRANCH   1   2
ATOM      2  C   UNL     1     102.477  96.168  99.127  1.00  0.00     0.000 C 
BRANCH   2   3
ATOM      3  C   UNL     1     103.724  95.956  98.254  1.00  0.00     0.000 C 
BRANCH   3   4
ATOM      4  C   UNL     1     104.102  97.207  97.447  1.00  0.00     0.000 C 
BRANCH   4   5
ATOM      5  C   UNL     1     105.298  96.929  96.530  1.00  0.00     0.000 C 
BRANCH   5   6
ATOM      6  C   UNL     1     105.130  97.635  95.177  1.00  0.00     0.006 C 
BRANCH   6   7
ATOM      7  C   UNL     1     103.751  98.292  95.030  1.00  0.00     0.053 C 
BRANCH   7   8
ATOM      8  C   UNL     1     103.860  99.769  94.803  1.00  0.00     0.041 C 
ATOM      9  O   UNL     1     103.048 100.353  94.039  1.00  0.00    -0.550 OA
ATOM     10  O   UNL     1     104.878 100.493  95.411  1.00  0.00    -0.550 OA
ENDBRANCH   7   8
ENDBRANCH   6   7
ENDBRANCH   5   6
ENDBRANCH   4   5
ENDBRANCH   3   4
ENDBRANCH   2   3
ENDBRANCH   1   2
BRANCH   1  11
ATOM     11  C   UNL     1     101.560  98.462  99.663  1.00  0.00     0.000 C 
BRANCH  11  12
ATOM     12  C   UNL     1     100.451  97.868  98.786  1.00  0.00     0.000 C 
BRANCH  12  13
ATOM     13  C   UNL     1      99.870  98.931  97.840  1.00  0.00     0.000 C 
BRANCH  13  14
ATOM     14  C   UNL     1     100.122  98.607  96.358  1.00  0.00     0.000 C 
BRANCH  14  15
ATOM     15  C   UNL     1     100.457  97.124  96.128  1.00  0.00     0.000 C 
BRANCH  15  16
ATOM     16  C   UNL     1      99.227  96.282  95.741  1.00  0.00     0.006 C 
BRANCH  16  17
ATOM     17  C   UNL     1      98.899  95.157  96.740  1.00  0.00     0.053 C 
BRANCH  17  18
ATOM     18  C   UNL     1      97.760  95.507  97.648  1.00  0.00     0.041 C 
ATOM     19  O   UNL     1      97.427  94.724  98.576  1.00  0.00    -0.550 OA
ATOM     20  O   UNL     1      97.087  96.713  97.494  1.00  0.00    -0.550 OA
ENDBRANCH  17  18
ENDBRANCH  16  17
ENDBRANCH  15  16
ENDBRANCH  14  15
ENDBRANCH  13  14
ENDBRANCH  12  13
ENDBRANCH  11  12
ENDBRANCH   1  11
TORSDOF 15
ENDMDL
MODEL 6
REMARK VINA RESULT:    -4.386      1.918      4.273
REMARK INTER + INTRA:         -10.136
REMARK INTER:                  -8.296
REMARK INTRA:                  -1.840
REMARK UNBOUND:                -1.903
REMARK SMILES O=C([O-])CCCCCCCCCCCCCCC(=O)[O-]
REMARK SMILES IDX 10 1 9 2 8 3 7 4 6 5 5 6 4 7 2 8 1 9 3 10 11 11 12 12 13 13
REMARK SMILES IDX 14 14 15 15 16 16 17 17 18 18 19 19 20 20
REMARK H PARENT
REMARK Flexibility Score: inf
ROOT
ATOM      1  C   UNL     1      99.648  90.160  85.521  1.00  0.00     0.000 C 
ENDROOT
BRANCH   1   2
ATOM      2  C   UNL     1     100.833  90.973  86.062  1.00  0.00     0.000 C 
BRANCH   2   3
ATOM      3  C   UNL     1     100.430  91.921  87.203  1.00  0.00     0.000 C 
BRANCH   3   4
ATOM      4  C   UNL     1      98.915  92.168  87.260  1.00  0.00     0.000 C 
BRANCH   4   5
ATOM      5  C   UNL     1      98.438  92.317  88.710  1.00  0.00     0.000 C 
BRANCH   5   6
ATOM      6  C   UNL     1      99.162  91.327  89.633  1.00  0.00     0.006 C 
BRANCH   6   7
ATOM      7  C   UNL     1      98.203  90.307  90.260  1.00  0.00     0.053 C 
BRANCH   7   8
ATOM      8  C   UNL     1      98.256  90.341  91.758  1.00  0.00     0.041 C 
ATOM      9  O   UNL     1      99.126  91.035  92.344  1.00  0.00    -0.550 OA
ATOM     10  O   UNL     1      97.365  89.579  92.503  1.00  0.00    -0.550 OA
ENDBRANCH   7   8
ENDBRANCH   6   7
ENDBRANCH   5   6
ENDBRANCH   4   5
ENDBRANCH   3   4
ENDBRANCH   2   3
ENDBRANCH   1   2
BRANCH   1  11
ATOM     11  C   UNL     1     100.008  88.674  85.408  1.00  0.00     0.000 C 
BRANCH  11  12
ATOM     12  C   UNL     1     100.737  88.186  86.666  1.00  0.00     0.000 C 
BRANCH  12  13
ATOM     13  C   UNL     1      99.756  88.008  87.835  1.00  0.00     0.000 C 
BRANCH  13  14
ATOM     14  C   UNL     1     100.388  87.285  89.036  1.00  0.00     0.000 C 
BRANCH  14  15
ATOM     15  C   UNL     1     101.214  88.229  89.923  1.00  0.00     0.000 C 
BRANCH  15  16
ATOM     16  C   UNL     1     102.489  87.569  90.482  1.00  0.00     0.006 C 
BRANCH  16  17
ATOM     17  C   UNL     1     102.316  86.963  91.887  1.00  0.00     0.053 C 
BRANCH  17  18
ATOM     18  C   UNL     1     101.203  87.605  92.658  1.00  0.00     0.041 C 
ATOM     19  O   UNL     1     101.349  88.761  93.135  1.00  0.00    -0.550 OA
ATOM     20  O   UNL     1      99.993  86.943  92.822  1.00  0.00    -0.550 OA
ENDBRANCH  17  18
ENDBRANCH  16  17
ENDBRANCH  15  16
ENDBRANCH  14  15
ENDBRANCH  13  14
ENDBRANCH  12  13
ENDBRANCH  11  12
ENDBRANCH   1  11
TORSDOF 15
ENDMDL
MODEL 7
REMARK VINA RESULT:    -4.277     10.213     11.948
REMARK INTER + INTRA:          -9.931
REMARK INTER:                  -8.359
REMARK INTRA:                  -1.572
REMARK UNBOUND:                -1.903
REMARK SMILES O=C([O-])CCCCCCCCCCCCCCC(=O)[O-]
REMARK SMILES IDX 10 1 9 2 8 3 7 4 6 5 5 6 4 7 2 8 1 9 3 10 11 11 12 12 13 13
REMARK SMILES IDX 14 14 15 15 16 16 17 17 18 18 19 19 20 20
REMARK H PARENT
REMARK Flexibility Score: inf
ROOT
ATOM      1  C   UNL     1     101.010  97.224  98.748  1.00  0.00     0.000 C 
ENDROOT
BRANCH   1   2
ATOM      2  C   UNL     1     100.579  95.966  97.981  1.00  0.00     0.000 C 
BRANCH   2   3
ATOM      3  C   UNL     1      99.052  95.804  97.918  1.00  0.00     0.000 C 
BRANCH   3   4
ATOM      4  C   UNL     1      98.564  95.317  96.546  1.00  0.00     0.000 C 
BRANCH   4   5
ATOM      5  C   UNL     1      99.155  96.171  95.418  1.00  0.00     0.000 C 
BRANCH   5   6
ATOM      6  C   UNL     1      98.384  97.490  95.263  1.00  0.00     0.006 C 
BRANCH   6   7
ATOM      7  C   UNL     1      99.228  98.708  95.661  1.00  0.00     0.053 C 
BRANCH   7   8
ATOM      8  C   UNL     1      98.461  99.656  96.533  1.00  0.00     0.041 C 
ATOM      9  O   UNL     1      98.168 100.805  96.113  1.00  0.00    -0.550 OA
ATOM     10  O   UNL     1      98.100  99.279  97.821  1.00  0.00    -0.550 OA
ENDBRANCH   7   8
ENDBRANCH   6   7
ENDBRANCH   5   6
ENDBRANCH   4   5
ENDBRANCH   3   4
ENDBRANCH   2   3
ENDBRANCH   1   2
BRANCH   1  11
ATOM     11  C   UNL     1     102.412  97.049  99.345  1.00  0.00     0.000 C 
BRANCH  11  12
ATOM     12  C   UNL     1     102.937  95.627  99.113  1.00  0.00     0.000 C 
BRANCH  12  13
ATOM     13  C   UNL     1     104.109  95.631  98.119  1.00  0.00     0.000 C 
BRANCH  13  14
ATOM     14  C   UNL     1     104.341  97.011  97.482  1.00  0.00     0.000 C 
BRANCH  14  15
ATOM     15  C   UNL     1     105.450  96.989  96.417  1.00  0.00     0.000 C 
BRANCH  15  16
ATOM     16  C   UNL     1     105.024  97.646  95.090  1.00  0.00     0.006 C 
BRANCH  16  17
ATOM     17  C   UNL     1     103.598  98.226  95.109  1.00  0.00     0.053 C 
BRANCH  17  18
ATOM     18  C   UNL     1     103.567  99.690  94.792  1.00  0.00     0.041 C 
ATOM     19  O   UNL     1     104.631 100.295  94.494  1.00  0.00    -0.550 OA
ATOM     20  O   UNL     1     102.362 100.381  94.791  1.00  0.00    -0.550 OA
ENDBRANCH  17  18
ENDBRANCH  16  17
ENDBRANCH  15  16
ENDBRANCH  14  15
ENDBRANCH  13  14
ENDBRANCH  12  13
ENDBRANCH  11  12
ENDBRANCH   1  11
TORSDOF 15
ENDMDL
MODEL 8
REMARK VINA RESULT:    -4.222     11.278     13.327
REMARK INTER + INTRA:          -9.828
REMARK INTER:                  -7.914
REMARK INTRA:                  -1.914
REMARK UNBOUND:                -1.903
REMARK SMILES O=C([O-])CCCCCCCCCCCCCCC(=O)[O-]
REMARK SMILES IDX 10 1 9 2 8 3 7 4 6 5 5 6 4 7 2 8 1 9 3 10 11 11 12 12 13 13
REMARK SMILES IDX 14 14 15 15 16 16 17 17 18 18 19 19 20 20
REMARK H PARENT
REMARK Flexibility Score: inf
ROOT
ATOM      1  C   UNL     1     104.205  96.920  97.310  1.00  0.00     0.000 C 
ENDROOT
BRANCH   1   2
ATOM      2  C   UNL     1     104.128  95.644  98.160  1.00  0.00     0.000 C 
BRANCH   2   3
ATOM      3  C   UNL     1     102.777  95.491  98.877  1.00  0.00     0.000 C 
BRANCH   3   4
ATOM      4  C   UNL     1     101.882  96.731  98.726  1.00  0.00     0.000 C 
BRANCH   4   5
ATOM      5  C   UNL     1     100.577  96.381  98.000  1.00  0.00     0.000 C 
BRANCH   5   6
ATOM      6  C   UNL     1     100.360  97.294  96.786  1.00  0.00     0.006 C 
BRANCH   6   7
ATOM      7  C   UNL     1     100.910  98.708  97.015  1.00  0.00     0.053 C 
BRANCH   7   8
ATOM      8  C   UNL     1     100.313  99.699  96.061  1.00  0.00     0.041 C 
ATOM      9  O   UNL     1     100.864 100.815  95.882  1.00  0.00    -0.550 OA
ATOM     10  O   UNL     1      99.131  99.399  95.395  1.00  0.00    -0.550 OA
ENDBRANCH   7   8
ENDBRANCH   6   7
ENDBRANCH   5   6
ENDBRANCH   4   5
ENDBRANCH   3   4
ENDBRANCH   2   3
ENDBRANCH   1   2
BRANCH   1  11
ATOM     11  C   UNL     1     105.479  96.934  96.456  1.00  0.00     0.000 C 
BRANCH  11  12
ATOM     12  C   UNL     1     105.211  97.545  95.075  1.00  0.00     0.000 C 
BRANCH  12  13
ATOM     13  C   UNL     1     103.938  98.405  95.093  1.00  0.00     0.000 C 
BRANCH  13  14
ATOM     14  C   UNL     1     104.239  99.910  94.998  1.00  0.00     0.000 C 
BRANCH  14  15
ATOM     15  C   UNL     1     105.724 100.199  94.726  1.00  0.00     0.000 C 
BRANCH  15  16
ATOM     16  C   UNL     1     106.379 101.064  95.819  1.00  0.00     0.006 C 
BRANCH  16  17
ATOM     17  C   UNL     1     106.661 100.309  97.131  1.00  0.00     0.053 C 
BRANCH  17  18
ATOM     18  C   UNL     1     107.993  99.625  97.127  1.00  0.00     0.041 C 
ATOM     19  O   UNL     1     108.243  98.722  97.969  1.00  0.00    -0.550 OA
ATOM     20  O   UNL     1     108.947  99.957  96.174  1.00  0.00    -0.550 OA
ENDBRANCH  17  18
ENDBRANCH  16  17
ENDBRANCH  15  16
ENDBRANCH  14  15
ENDBRANCH  13  14
ENDBRANCH  12  13
ENDBRANCH  11  12
ENDBRANCH   1  11
TORSDOF 15
ENDMDL
MODEL 9
REMARK VINA RESULT:    -4.215     11.939     13.649
REMARK INTER + INTRA:          -9.814
REMARK INTER:                  -7.222
REMARK INTRA:                  -2.592
REMARK UNBOUND:                -1.903
REMARK SMILES O=C([O-])CCCCCCCCCCCCCCC(=O)[O-]
REMARK SMILES IDX 10 1 9 2 8 3 7 4 6 5 5 6 4 7 2 8 1 9 3 10 11 11 12 12 13 13
REMARK SMILES IDX 14 14 15 15 16 16 17 17 18 18 19 19 20 20
REMARK H PARENT
REMARK Flexibility Score: inf
ROOT
ATOM      1  C   UNL     1     101.519  97.749  98.923  1.00  0.00     0.000 C 
ENDROOT
BRANCH   1   2
ATOM      2  C   UNL     1     102.863  97.158  99.370  1.00  0.00     0.000 C 
BRANCH   2   3
ATOM      3  C   UNL     1     103.145  95.785  98.740  1.00  0.00     0.000 C 
BRANCH   3   4
ATOM      4  C   UNL     1     104.448  95.763  97.926  1.00  0.00     0.000 C 
BRANCH   4   5
ATOM      5  C   UNL     1     104.468  96.896  96.893  1.00  0.00     0.000 C 
BRANCH   5   6
ATOM      6  C   UNL     1     105.907  97.239  96.480  1.00  0.00     0.006 C 
BRANCH   6   7
ATOM      7  C   UNL     1     105.981  97.836  95.069  1.00  0.00     0.053 C 
BRANCH   7   8
ATOM      8  C   UNL     1     106.918  99.004  95.006  1.00  0.00     0.041 C 
ATOM      9  O   UNL     1     108.019  98.965  95.615  1.00  0.00    -0.550 OA
ATOM     10  O   UNL     1     106.560 100.147  94.302  1.00  0.00    -0.550 OA
ENDBRANCH   7   8
ENDBRANCH   6   7
ENDBRANCH   5   6
ENDBRANCH   4   5
ENDBRANCH   3   4
ENDBRANCH   2   3
ENDBRANCH   1   2
BRANCH   1  11
ATOM     11  C   UNL     1     100.828  96.833  97.905  1.00  0.00     0.000 C 
BRANCH  11  12
ATOM     12  C   UNL     1     100.730  97.509  96.531  1.00  0.00     0.000 C 
BRANCH  12  13
ATOM     13  C   UNL     1     101.280  98.943  96.585  1.00  0.00     0.000 C 
BRANCH  13  14
ATOM     14  C   UNL     1     102.124  99.301  95.351  1.00  0.00     0.000 C 
BRANCH  14  15
ATOM     15  C   UNL     1     103.258 100.286  95.678  1.00  0.00     0.000 C 
BRANCH  15  16
ATOM     16  C   UNL     1     103.498 100.447  97.191  1.00  0.00     0.006 C 
BRANCH  16  17
ATOM     17  C   UNL     1     104.544 101.519  97.549  1.00  0.00     0.053 C 
BRANCH  17  18
ATOM     18  C   UNL     1     105.865 100.927  97.936  1.00  0.00     0.041 C 
ATOM     19  O   UNL     1     106.936 101.453  97.531  1.00  0.00    -0.550 OA
ATOM     20  O   UNL     1     105.918  99.818  98.770  1.00  0.00    -0.550 OA
ENDBRANCH  17  18
ENDBRANCH  16  17
ENDBRANCH  15  16
ENDBRANCH  14  15
ENDBRANCH  13  14
ENDBRANCH  12  13
ENDBRANCH  11  12
ENDBRANCH   1  11
TORSDOF 15
ENDMDL
