MODEL 1
REMARK VINA RESULT:    -4.969      0.000      0.000
REMARK INTER + INTRA:          -5.720
REMARK INTER:                  -5.549
REMARK INTRA:                  -0.170
REMARK UNBOUND:                -0.170
REMARK SMILES O=C([O-])c1ccccc1C(=O)[O-]
REMARK SMILES IDX 4 1 9 2 5 3 8 4 6 5 7 6 2 7 1 8 3 9 10 10 11 11 12 12
REMARK H PARENT
REMARK Flexibility Score: inf
ROOT
ATOM      1  C   UNL     1      88.543  77.347  73.293  1.00  0.00     0.006 A 
ATOM      2  C   UNL     1      87.368  77.419  72.494  1.00  0.00     0.006 A 
ATOM      3  C   UNL     1      89.719  77.972  72.837  1.00  0.00     0.010 A 
ATOM      4  C   UNL     1      87.431  78.055  71.240  1.00  0.00     0.010 A 
ATOM      5  C   UNL     1      89.753  78.615  71.600  1.00  0.00     0.001 A 
ATOM      6  C   UNL     1      88.614  78.647  70.798  1.00  0.00     0.001 A 
ENDROOT
BRANCH   1   7
ATOM      7  C   UNL     1      88.611  76.584  74.561  1.00  0.00     0.072 C 
ATOM      8  O   UNL     1      89.225  75.487  74.619  1.00  0.00    -0.545 OA
ATOM      9  O   UNL     1      88.052  77.107  75.721  1.00  0.00    -0.545 OA
ENDBRANCH   1   7
BRANCH   2  10
ATOM     10  C   UNL     1      86.054  76.914  72.956  1.00  0.00     0.072 C 
ATOM     11  O   UNL     1      85.209  77.707  73.449  1.00  0.00    -0.545 OA
ATOM     12  O   UNL     1      85.761  75.556  72.913  1.00  0.00    -0.545 OA
ENDBRANCH   2  10
TORSDOF 2
ENDMDL
MODEL 2
REMARK VINA RESULT:    -4.954      0.077      3.135
REMARK INTER + INTRA:          -5.704
REMARK INTER:                  -5.542
REMARK INTRA:                  -0.162
REMARK UNBOUND:                -0.170
REMARK SMILES O=C([O-])c1ccccc1C(=O)[O-]
REMARK SMILES IDX 4 1 9 2 5 3 8 4 6 5 7 6 2 7 1 8 3 9 10 10 11 11 12 12
REMARK H PARENT
REMARK Flexibility Score: inf
ROOT
ATOM      1  C   UNL     1      87.370  77.410  72.534  1.00  0.00     0.006 A 
ATOM      2  C   UNL     1      88.567  77.358  73.300  1.00  0.00     0.006 A 
ATOM      3  C   UNL     1      87.383  78.065  71.288  1.00  0.00     0.010 A 
ATOM      4  C   UNL     1      89.715  78.019  72.823  1.00  0.00     0.010 A 
ATOM      5  C   UNL     1      88.538  78.696  70.825  1.00  0.00     0.001 A 
ATOM      6  C   UNL     1      89.698  78.683  71.596  1.00  0.00     0.001 A 
ENDROOT
BRANCH   1   7
ATOM      7  C   UNL     1      86.080  76.863  73.014  1.00  0.00     0.072 C 
ATOM      8  O   UNL     1      85.176  77.627  73.441  1.00  0.00    -0.545 OA
ATOM      9  O   UNL     1      85.828  75.498  72.936  1.00  0.00    -0.545 OA
ENDBRANCH   1   7
BRANCH   2  10
ATOM     10  C   UNL     1      88.683  76.573  74.552  1.00  0.00     0.072 C 
ATOM     11  O   UNL     1      89.262  75.455  74.546  1.00  0.00    -0.545 OA
ATOM     12  O   UNL     1      88.100  77.026  75.729  1.00  0.00    -0.545 OA
ENDBRANCH   2  10
TORSDOF 2
ENDMDL
MODEL 3
REMARK VINA RESULT:    -4.905      2.365      4.129
REMARK INTER + INTRA:          -5.649
REMARK INTER:                  -5.526
REMARK INTRA:                  -0.123
REMARK UNBOUND:                -0.170
REMARK SMILES O=C([O-])c1ccccc1C(=O)[O-]
REMARK SMILES IDX 4 1 9 2 5 3 8 4 6 5 7 6 2 7 1 8 3 9 10 10 11 11 12 12
REMARK H PARENT
REMARK Flexibility Score: inf
ROOT
ATOM      1  C   UNL     1      87.444  77.676  71.964  1.00  0.00     0.006 A 
ATOM      2  C   UNL     1      87.976  76.549  72.650  1.00  0.00     0.006 A 
ATOM      3  C   UNL     1      86.084  77.999  72.130  1.00  0.00     0.010 A 
ATOM      4  C   UNL     1      87.114  75.749  73.424  1.00  0.00     0.010 A 
ATOM      5  C   UNL     1      85.253  77.204  72.919  1.00  0.00     0.001 A 
ATOM      6  C   UNL     1      85.763  76.075  73.555  1.00  0.00     0.001 A 
ENDROOT
BRANCH   1   7
ATOM      7  C   UNL     1      88.240  78.496  71.022  1.00  0.00     0.072 C 
ATOM      8  O   UNL     1      88.527  78.063  69.875  1.00  0.00    -0.545 OA
ATOM      9  O   UNL     1      88.624  79.785  71.371  1.00  0.00    -0.545 OA
ENDBRANCH   1   7
BRANCH   2  10
ATOM     10  C   UNL     1      89.420  76.218  72.646  1.00  0.00     0.072 C 
ATOM     11  O   UNL     1      90.135  76.489  73.648  1.00  0.00    -0.545 OA
ATOM     12  O   UNL     1      90.018  75.666  71.520  1.00  0.00    -0.545 OA
ENDBRANCH   2  10
TORSDOF 2
ENDMDL
MODEL 4
REMARK VINA RESULT:    -4.651      2.316      3.538
REMARK INTER + INTRA:          -5.366
REMARK INTER:                  -5.282
REMARK INTRA:                  -0.084
REMARK UNBOUND:                -0.170
REMARK SMILES O=C([O-])c1ccccc1C(=O)[O-]
REMARK SMILES IDX 4 1 9 2 5 3 8 4 6 5 7 6 2 7 1 8 3 9 10 10 11 11 12 12
REMARK H PARENT
REMARK Flexibility Score: inf
ROOT
ATOM      1  C   UNL     1      88.870  77.342  71.255  1.00  0.00     0.006 A 
ATOM      2  C   UNL     1      89.180  76.434  72.307  1.00  0.00     0.006 A 
ATOM      3  C   UNL     1      89.573  77.247  70.039  1.00  0.00     0.010 A 
ATOM      4  C   UNL     1      90.226  75.509  72.126  1.00  0.00     0.010 A 
ATOM      5  C   UNL     1      90.591  76.307  69.875  1.00  0.00     0.001 A 
ATOM      6  C   UNL     1      90.925  75.449  70.920  1.00  0.00     0.001 A 
ENDROOT
BRANCH   1   7
ATOM      7  C   UNL     1      87.883  78.436  71.400  1.00  0.00     0.072 C 
ATOM      8  O   UNL     1      88.229  79.639  71.263  1.00  0.00    -0.545 OA
ATOM      9  O   UNL     1      86.543  78.142  71.623  1.00  0.00    -0.545 OA
ENDBRANCH   1   7
BRANCH   2  10
ATOM     10  C   UNL     1      88.400  76.370  73.564  1.00  0.00     0.072 C 
ATOM     11  O   UNL     1      87.443  75.559  73.675  1.00  0.00    -0.545 OA
ATOM     12  O   UNL     1      88.669  77.243  74.611  1.00  0.00    -0.545 OA
ENDBRANCH   2  10
TORSDOF 2
ENDMDL
MODEL 5
REMARK VINA RESULT:    -4.399     10.974     12.388
REMARK INTER + INTRA:          -5.084
REMARK INTER:                  -4.885
REMARK INTRA:                  -0.199
REMARK UNBOUND:                -0.170
REMARK SMILES O=C([O-])c1ccccc1C(=O)[O-]
REMARK SMILES IDX 4 1 9 2 5 3 8 4 6 5 7 6 2 7 1 8 3 9 10 10 11 11 12 12
REMARK H PARENT
REMARK Flexibility Score: inf
ROOT
ATOM      1  C   UNL     1      92.495  84.496  80.358  1.00  0.00     0.006 A 
ATOM      2  C   UNL     1      93.139  85.385  81.263  1.00  0.00     0.006 A 
ATOM      3  C   UNL     1      93.272  83.803  79.410  1.00  0.00     0.010 A 
ATOM      4  C   UNL     1      94.525  85.597  81.143  1.00  0.00     0.010 A 
ATOM      5  C   UNL     1      94.648  84.013  79.324  1.00  0.00     0.001 A 
ATOM      6  C   UNL     1      95.272  84.917  80.180  1.00  0.00     0.001 A 
ENDROOT
BRANCH   1   7
ATOM      7  C   UNL     1      91.026  84.311  80.317  1.00  0.00     0.072 C 
ATOM      8  O   UNL     1      90.336  84.835  79.403  1.00  0.00    -0.545 OA
ATOM      9  O   UNL     1      90.398  83.498  81.253  1.00  0.00    -0.545 OA
ENDBRANCH   1   7
BRANCH   2  10
ATOM     10  C   UNL     1      92.424  86.047  82.379  1.00  0.00     0.072 C 
ATOM     11  O   UNL     1      92.350  85.486  83.505  1.00  0.00    -0.545 OA
ATOM     12  O   UNL     1      91.773  87.259  82.184  1.00  0.00    -0.545 OA
ENDBRANCH   2  10
TORSDOF 2
ENDMDL
MODEL 6
REMARK VINA RESULT:    -4.383     10.950     12.103
REMARK INTER + INTRA:          -5.065
REMARK INTER:                  -4.875
REMARK INTRA:                  -0.190
REMARK UNBOUND:                -0.170
REMARK SMILES O=C([O-])c1ccccc1C(=O)[O-]
REMARK SMILES IDX 4 1 9 2 5 3 8 4 6 5 7 6 2 7 1 8 3 9 10 10 11 11 12 12
REMARK H PARENT
REMARK Flexibility Score: inf
ROOT
ATOM      1  C   UNL     1      93.108  85.355  81.235  1.00  0.00     0.006 A 
ATOM      2  C   UNL     1      92.452  84.483  80.322  1.00  0.00     0.006 A 
ATOM      3  C   UNL     1      94.495  85.562  81.109  1.00  0.00     0.010 A 
ATOM      4  C   UNL     1      93.219  83.799  79.360  1.00  0.00     0.010 A 
ATOM      5  C   UNL     1      95.231  84.889  80.133  1.00  0.00     0.001 A 
ATOM      6  C   UNL     1      94.596  84.001  79.268  1.00  0.00     0.001 A 
ENDROOT
BRANCH   1   7
ATOM      7  C   UNL     1      92.411  86.012  82.365  1.00  0.00     0.072 C 
ATOM      8  O   UNL     1      92.421  85.498  83.514  1.00  0.00    -0.545 OA
ATOM      9  O   UNL     1      91.791  87.242  82.182  1.00  0.00    -0.545 OA
ENDBRANCH   1   7
BRANCH   2  10
ATOM     10  C   UNL     1      90.981  84.315  80.292  1.00  0.00     0.072 C 
ATOM     11  O   UNL     1      90.292  84.921  79.429  1.00  0.00    -0.545 OA
ATOM     12  O   UNL     1      90.335  83.542  81.250  1.00  0.00    -0.545 OA
ENDBRANCH   2  10
TORSDOF 2
ENDMDL
MODEL 7
REMARK VINA RESULT:    -4.178     16.326     17.778
REMARK INTER + INTRA:          -4.837
REMARK INTER:                  -4.619
REMARK INTRA:                  -0.219
REMARK UNBOUND:                -0.170
REMARK SMILES O=C([O-])c1ccccc1C(=O)[O-]
REMARK SMILES IDX 4 1 9 2 5 3 8 4 6 5 7 6 2 7 1 8 3 9 10 10 11 11 12 12
REMARK H PARENT
REMARK Flexibility Score: inf
ROOT
ATOM      1  C   UNL     1      99.973  84.503  84.190  1.00  0.00     0.006 A 
ATOM      2  C   UNL     1      98.587  84.785  84.031  1.00  0.00     0.006 A 
ATOM      3  C   UNL     1     100.701  84.008  83.091  1.00  0.00     0.010 A 
ATOM      4  C   UNL     1      97.967  84.500  82.800  1.00  0.00     0.010 A 
ATOM      5  C   UNL     1     100.070  83.753  81.873  1.00  0.00     0.001 A 
ATOM      6  C   UNL     1      98.704  83.987  81.731  1.00  0.00     0.001 A 
ENDROOT
BRANCH   1   7
ATOM      7  C   UNL     1     100.681  84.640  85.483  1.00  0.00     0.072 C 
ATOM      8  O   UNL     1     101.297  85.700  85.771  1.00  0.00    -0.545 OA
ATOM      9  O   UNL     1     100.616  83.622  86.426  1.00  0.00    -0.545 OA
ENDBRANCH   1   7
BRANCH   2  10
ATOM     10  C   UNL     1      97.777  85.436  85.087  1.00  0.00     0.072 C 
ATOM     11  O   UNL     1      96.928  84.769  85.735  1.00  0.00    -0.545 OA
ATOM     12  O   UNL     1      97.895  86.799  85.331  1.00  0.00    -0.545 OA
ENDBRANCH   2  10
TORSDOF 2
ENDMDL
MODEL 8
REMARK VINA RESULT:    -4.157     16.283     17.920
REMARK INTER + INTRA:          -4.813
REMARK INTER:                  -4.604
REMARK INTRA:                  -0.209
REMARK UNBOUND:                -0.170
REMARK SMILES O=C([O-])c1ccccc1C(=O)[O-]
REMARK SMILES IDX 4 1 9 2 5 3 8 4 6 5 7 6 2 7 1 8 3 9 10 10 11 11 12 12
REMARK H PARENT
REMARK Flexibility Score: inf
ROOT
ATOM      1  C   UNL     1      98.502  84.808  84.074  1.00  0.00     0.006 A 
ATOM      2  C   UNL     1      99.890  84.505  84.141  1.00  0.00     0.006 A 
ATOM      3  C   UNL     1      97.788  84.498  82.901  1.00  0.00     0.010 A 
ATOM      4  C   UNL     1     100.526  83.962  83.008  1.00  0.00     0.010 A 
ATOM      5  C   UNL     1      98.436  83.940  81.798  1.00  0.00     0.001 A 
ATOM      6  C   UNL     1      99.804  83.684  81.847  1.00  0.00     0.001 A 
ENDROOT
BRANCH   1   7
ATOM      7  C   UNL     1      97.775  85.504  85.162  1.00  0.00     0.072 C 
ATOM      8  O   UNL     1      97.849  86.754  85.289  1.00  0.00    -0.545 OA
ATOM      9  O   UNL     1      96.947  84.787  86.017  1.00  0.00    -0.545 OA
ENDBRANCH   1   7
BRANCH   2  10
ATOM     10  C   UNL     1     100.686  84.667  85.379  1.00  0.00     0.072 C 
ATOM     11  O   UNL     1     101.411  85.685  85.536  1.00  0.00    -0.545 OA
ATOM     12  O   UNL     1     100.697  83.674  86.351  1.00  0.00    -0.545 OA
ENDBRANCH   2  10
TORSDOF 2
ENDMDL
