MODEL 1
REMARK VINA RESULT:    -3.933      0.000      0.000
REMARK INTER + INTRA:          -4.325
REMARK INTER:                  -4.278
REMARK INTRA:                  -0.046
REMARK UNBOUND:                -0.046
REMARK SMILES COc1cc2ccc(=O)oc2cc1O
REMARK SMILES IDX 3 1 13 2 12 3 11 4 5 5 4 6 6 7 7 8 8 9 9 10 10 11 2 12 1 13
REMARK SMILES IDX 14 14
REMARK H PARENT 14 15
REMARK Flexibility Score: inf
ROOT
ATOM      1  C   UNL     1      18.228   5.620 -10.794  1.00  0.00     0.161 A 
ATOM      2  C   UNL     1      19.106   6.439 -10.066  1.00  0.00     0.161 A 
ATOM      3  C   UNL     1      20.445   6.569 -10.463  1.00  0.00     0.098 A 
ATOM      4  C   UNL     1      20.917   5.883 -11.583  1.00  0.00     0.142 A 
ATOM      5  C   UNL     1      20.042   5.057 -12.320  1.00  0.00     0.022 A 
ATOM      6  C   UNL     1      18.703   4.927 -11.926  1.00  0.00     0.062 A 
ATOM      7  C   UNL     1      20.545   4.383 -13.438  1.00  0.00     0.019 A 
ATOM      8  C   UNL     1      21.884   4.545 -13.790  1.00  0.00     0.094 A 
ATOM      9  C   UNL     1      22.694   5.381 -13.013  1.00  0.00     0.336 A 
ATOM     10  O   UNL     1      23.905   5.540 -13.315  1.00  0.00    -0.246 OA
ATOM     11  O   UNL     1      22.189   6.010 -11.954  1.00  0.00    -0.423 OA
ENDROOT
BRANCH   1  12
ATOM     12  O   UNL     1      16.896   5.519 -10.361  1.00  0.00    -0.493 OA
ATOM     13  C   UNL     1      16.028   4.433 -10.669  1.00  0.00     0.278 C 
ENDBRANCH   1  12
BRANCH   2  14
ATOM     14  O   UNL     1      18.637   7.125  -8.948  1.00  0.00    -0.504 OA
ATOM     15  H   UNL     1      18.280   6.634  -8.135  1.00  0.00     0.293 HD
ENDBRANCH   2  14
TORSDOF 2
ENDMDL
MODEL 2
REMARK VINA RESULT:    -3.025      1.211      4.982
REMARK INTER + INTRA:          -3.337
REMARK INTER:                  -3.978
REMARK INTRA:                   0.641
REMARK UNBOUND:                -0.046
REMARK SMILES COc1cc2ccc(=O)oc2cc1O
REMARK SMILES IDX 3 1 13 2 12 3 11 4 5 5 4 6 6 7 7 8 8 9 9 10 10 11 2 12 1 13
REMARK SMILES IDX 14 14
REMARK H PARENT 14 15
REMARK Flexibility Score: inf
ROOT
ATOM      1  C   UNL     1      21.032   4.966 -12.747  1.00  0.00     0.161 A 
ATOM      2  C   UNL     1      20.920   6.181 -12.052  1.00  0.00     0.161 A 
ATOM      3  C   UNL     1      19.782   6.449 -11.277  1.00  0.00     0.098 A 
ATOM      4  C   UNL     1      18.751   5.512 -11.190  1.00  0.00     0.142 A 
ATOM      5  C   UNL     1      18.856   4.289 -11.885  1.00  0.00     0.022 A 
ATOM      6  C   UNL     1      19.993   4.018 -12.660  1.00  0.00     0.062 A 
ATOM      7  C   UNL     1      17.807   3.369 -11.779  1.00  0.00     0.019 A 
ATOM      8  C   UNL     1      16.697   3.684 -10.995  1.00  0.00     0.094 A 
ATOM      9  C   UNL     1      16.662   4.916 -10.334  1.00  0.00     0.336 A 
ATOM     10  O   UNL     1      15.670   5.219  -9.621  1.00  0.00    -0.246 OA
ATOM     11  O   UNL     1      17.674   5.773 -10.452  1.00  0.00    -0.423 OA
ENDROOT
BRANCH   1  12
ATOM     12  O   UNL     1      22.188   4.740 -13.511  1.00  0.00    -0.493 OA
ATOM     13  C   UNL     1      23.499   5.141 -13.128  1.00  0.00     0.278 C 
ENDBRANCH   1  12
BRANCH   2  14
ATOM     14  O   UNL     1      21.947   7.118 -12.137  1.00  0.00    -0.504 OA
ATOM     15  H   UNL     1      21.851   7.962 -12.691  1.00  0.00     0.293 HD
ENDBRANCH   2  14
TORSDOF 2
ENDMDL
MODEL 3
REMARK VINA RESULT:    -2.839     22.867     24.951
REMARK INTER + INTRA:          -3.134
REMARK INTER:                  -3.084
REMARK INTRA:                  -0.049
REMARK UNBOUND:                -0.046
REMARK SMILES COc1cc2ccc(=O)oc2cc1O
REMARK SMILES IDX 3 1 13 2 12 3 11 4 5 5 4 6 6 7 7 8 8 9 9 10 10 11 2 12 1 13
REMARK SMILES IDX 14 14
REMARK H PARENT 14 15
REMARK Flexibility Score: inf
ROOT
ATOM      1  C   UNL     1      30.191 -11.811 -24.808  1.00  0.00     0.161 A 
ATOM      2  C   UNL     1      30.714 -12.685 -25.775  1.00  0.00     0.161 A 
ATOM      3  C   UNL     1      29.917 -13.114 -26.847  1.00  0.00     0.098 A 
ATOM      4  C   UNL     1      28.596 -12.676 -26.961  1.00  0.00     0.142 A 
ATOM      5  C   UNL     1      28.063 -11.798 -25.995  1.00  0.00     0.022 A 
ATOM      6  C   UNL     1      28.858 -11.368 -24.923  1.00  0.00     0.062 A 
ATOM      7  C   UNL     1      26.737 -11.376 -26.137  1.00  0.00     0.019 A 
ATOM      8  C   UNL     1      25.985 -11.831 -27.221  1.00  0.00     0.094 A 
ATOM      9  C   UNL     1      26.581 -12.701 -28.140  1.00  0.00     0.336 A 
ATOM     10  O   UNL     1      25.920 -13.122 -29.125  1.00  0.00    -0.246 OA
ATOM     11  O   UNL     1      27.845 -13.086 -27.981  1.00  0.00    -0.423 OA
ENDROOT
BRANCH   1  12
ATOM     12  O   UNL     1      31.024 -11.409 -23.753  1.00  0.00    -0.493 OA
ATOM     13  C   UNL     1      31.012 -10.111 -23.167  1.00  0.00     0.278 C 
ENDBRANCH   1  12
BRANCH   2  14
ATOM     14  O   UNL     1      32.032 -13.124 -25.663  1.00  0.00    -0.504 OA
ATOM     15  H   UNL     1      32.255 -14.053 -25.323  1.00  0.00     0.293 HD
ENDBRANCH   2  14
TORSDOF 2
ENDMDL
MODEL 4
REMARK VINA RESULT:    -2.695      1.653      5.217
REMARK INTER + INTRA:          -2.978
REMARK INTER:                  -3.798
REMARK INTRA:                   0.820
REMARK UNBOUND:                -0.046
REMARK SMILES COc1cc2ccc(=O)oc2cc1O
REMARK SMILES IDX 3 1 13 2 12 3 11 4 5 5 4 6 6 7 7 8 8 9 9 10 10 11 2 12 1 13
REMARK SMILES IDX 14 14
REMARK H PARENT 14 15
REMARK Flexibility Score: inf
ROOT
ATOM      1  C   UNL     1      21.549   6.314 -11.879  1.00  0.00     0.161 A 
ATOM      2  C   UNL     1      21.547   5.095 -12.575  1.00  0.00     0.161 A 
ATOM      3  C   UNL     1      20.424   4.256 -12.528  1.00  0.00     0.098 A 
ATOM      4  C   UNL     1      19.299   4.625 -11.788  1.00  0.00     0.142 A 
ATOM      5  C   UNL     1      19.293   5.848 -11.086  1.00  0.00     0.022 A 
ATOM      6  C   UNL     1      20.414   6.689 -11.132  1.00  0.00     0.062 A 
ATOM      7  C   UNL     1      18.152   6.191 -10.353  1.00  0.00     0.019 A 
ATOM      8  C   UNL     1      17.061   5.322 -10.338  1.00  0.00     0.094 A 
ATOM      9  C   UNL     1      17.138   4.125 -11.059  1.00  0.00     0.336 A 
ATOM     10  O   UNL     1      16.165   3.328 -11.058  1.00  0.00    -0.246 OA
ATOM     11  O   UNL     1      18.237   3.824 -11.747  1.00  0.00    -0.423 OA
ENDROOT
BRANCH   1  12
ATOM     12  O   UNL     1      22.694   7.122 -11.954  1.00  0.00    -0.493 OA
ATOM     13  C   UNL     1      23.614   7.118 -13.042  1.00  0.00     0.278 C 
ENDBRANCH   1  12
BRANCH   2  14
ATOM     14  O   UNL     1      22.668   4.724 -13.315  1.00  0.00    -0.504 OA
ATOM     15  H   UNL     1      22.593   4.121 -14.127  1.00  0.00     0.293 HD
ENDBRANCH   2  14
TORSDOF 2
ENDMDL
MODEL 5
REMARK VINA RESULT:    -2.614     10.953     13.857
REMARK INTER + INTRA:          -2.890
REMARK INTER:                  -2.826
REMARK INTRA:                  -0.064
REMARK UNBOUND:                -0.046
REMARK SMILES COc1cc2ccc(=O)oc2cc1O
REMARK SMILES IDX 3 1 13 2 12 3 11 4 5 5 4 6 6 7 7 8 8 9 9 10 10 11 2 12 1 13
REMARK SMILES IDX 14 14
REMARK H PARENT 14 15
REMARK Flexibility Score: inf
ROOT
ATOM      1  C   UNL     1      25.766  -5.255 -20.283  1.00  0.00     0.161 A 
ATOM      2  C   UNL     1      25.744  -4.216 -21.228  1.00  0.00     0.161 A 
ATOM      3  C   UNL     1      25.329  -2.930 -20.855  1.00  0.00     0.098 A 
ATOM      4  C   UNL     1      24.932  -2.671 -19.541  1.00  0.00     0.142 A 
ATOM      5  C   UNL     1      24.951  -3.708 -18.586  1.00  0.00     0.022 A 
ATOM      6  C   UNL     1      25.367  -4.995 -18.957  1.00  0.00     0.062 A 
ATOM      7  C   UNL     1      24.549  -3.418 -17.279  1.00  0.00     0.019 A 
ATOM      8  C   UNL     1      24.144  -2.122 -16.958  1.00  0.00     0.094 A 
ATOM      9  C   UNL     1      24.151  -1.144 -17.958  1.00  0.00     0.336 A 
ATOM     10  O   UNL     1      23.790   0.032 -17.689  1.00  0.00    -0.246 OA
ATOM     11  O   UNL     1      24.539  -1.447 -19.194  1.00  0.00    -0.423 OA
ENDROOT
BRANCH   1  12
ATOM     12  O   UNL     1      26.189  -6.527 -20.701  1.00  0.00    -0.493 OA
ATOM     13  C   UNL     1      25.329  -7.651 -20.856  1.00  0.00     0.278 C 
ENDBRANCH   1  12
BRANCH   2  14
ATOM     14  O   UNL     1      26.140  -4.473 -22.540  1.00  0.00    -0.504 OA
ATOM     15  H   UNL     1      26.702  -5.283 -22.776  1.00  0.00     0.293 HD
ENDBRANCH   2  14
TORSDOF 2
ENDMDL
MODEL 6
REMARK VINA RESULT:    -2.574     10.798     13.162
REMARK INTER + INTRA:          -2.846
REMARK INTER:                  -2.793
REMARK INTRA:                  -0.053
REMARK UNBOUND:                -0.046
REMARK SMILES COc1cc2ccc(=O)oc2cc1O
REMARK SMILES IDX 3 1 13 2 12 3 11 4 5 5 4 6 6 7 7 8 8 9 9 10 10 11 2 12 1 13
REMARK SMILES IDX 14 14
REMARK H PARENT 14 15
REMARK Flexibility Score: inf
ROOT
ATOM      1  C   UNL     1      24.589  -1.763 -18.502  1.00  0.00     0.161 A 
ATOM      2  C   UNL     1      24.494  -2.834 -17.599  1.00  0.00     0.161 A 
ATOM      3  C   UNL     1      24.823  -4.135 -18.007  1.00  0.00     0.098 A 
ATOM      4  C   UNL     1      25.249  -4.377 -19.314  1.00  0.00     0.142 A 
ATOM      5  C   UNL     1      25.347  -3.307 -20.228  1.00  0.00     0.022 A 
ATOM      6  C   UNL     1      25.019  -2.006 -19.823  1.00  0.00     0.062 A 
ATOM      7  C   UNL     1      25.777  -3.581 -21.531  1.00  0.00     0.019 A 
ATOM      8  C   UNL     1      26.093  -4.892 -21.887  1.00  0.00     0.094 A 
ATOM      9  C   UNL     1      25.971  -5.903 -20.927  1.00  0.00     0.336 A 
ATOM     10  O   UNL     1      26.251  -7.092 -21.228  1.00  0.00    -0.246 OA
ATOM     11  O   UNL     1      25.560  -5.614 -19.694  1.00  0.00    -0.423 OA
ENDROOT
BRANCH   1  12
ATOM     12  O   UNL     1      24.249  -0.478 -18.052  1.00  0.00    -0.493 OA
ATOM     13  C   UNL     1      22.961   0.112 -18.197  1.00  0.00     0.278 C 
ENDBRANCH   1  12
BRANCH   2  14
ATOM     14  O   UNL     1      24.069  -2.595 -16.293  1.00  0.00    -0.504 OA
ATOM     15  H   UNL     1      24.678  -2.760 -15.499  1.00  0.00     0.293 HD
ENDBRANCH   2  14
TORSDOF 2
ENDMDL
MODEL 7
REMARK VINA RESULT:    -2.510     10.903     13.845
REMARK INTER + INTRA:          -2.777
REMARK INTER:                  -2.719
REMARK INTRA:                  -0.058
REMARK UNBOUND:                -0.046
REMARK SMILES COc1cc2ccc(=O)oc2cc1O
REMARK SMILES IDX 3 1 13 2 12 3 11 4 5 5 4 6 6 7 7 8 8 9 9 10 10 11 2 12 1 13
REMARK SMILES IDX 14 14
REMARK H PARENT 14 15
REMARK Flexibility Score: inf
ROOT
ATOM      1  C   UNL     1      25.750  -4.769 -20.770  1.00  0.00     0.161 A 
ATOM      2  C   UNL     1      25.667  -5.480 -19.562  1.00  0.00     0.161 A 
ATOM      3  C   UNL     1      25.267  -4.831 -18.385  1.00  0.00     0.098 A 
ATOM      4  C   UNL     1      24.948  -3.472 -18.403  1.00  0.00     0.142 A 
ATOM      5  C   UNL     1      25.028  -2.750 -19.612  1.00  0.00     0.022 A 
ATOM      6  C   UNL     1      25.427  -3.397 -20.790  1.00  0.00     0.062 A 
ATOM      7  C   UNL     1      24.702  -1.390 -19.599  1.00  0.00     0.019 A 
ATOM      8  C   UNL     1      24.309  -0.791 -18.402  1.00  0.00     0.094 A 
ATOM      9  C   UNL     1      24.252  -1.570 -17.242  1.00  0.00     0.336 A 
ATOM     10  O   UNL     1      23.900  -1.048 -16.152  1.00  0.00    -0.246 OA
ATOM     11  O   UNL     1      24.568  -2.862 -17.282  1.00  0.00    -0.423 OA
ENDROOT
BRANCH   1  12
ATOM     12  O   UNL     1      26.155  -5.458 -21.923  1.00  0.00    -0.493 OA
ATOM     13  C   UNL     1      27.491  -5.489 -22.416  1.00  0.00     0.278 C 
ENDBRANCH   1  12
BRANCH   2  14
ATOM     14  O   UNL     1      25.985  -6.837 -19.541  1.00  0.00    -0.504 OA
ATOM     15  H   UNL     1      26.933  -7.157 -19.379  1.00  0.00     0.293 HD
ENDBRANCH   2  14
TORSDOF 2
ENDMDL
MODEL 8
REMARK VINA RESULT:    -2.438     10.750     13.157
REMARK INTER + INTRA:          -2.698
REMARK INTER:                  -2.645
REMARK INTRA:                  -0.053
REMARK UNBOUND:                -0.046
REMARK SMILES COc1cc2ccc(=O)oc2cc1O
REMARK SMILES IDX 3 1 13 2 12 3 11 4 5 5 4 6 6 7 7 8 8 9 9 10 10 11 2 12 1 13
REMARK SMILES IDX 14 14
REMARK H PARENT 14 15
REMARK Flexibility Score: inf
ROOT
ATOM      1  C   UNL     1      24.390  -2.299 -17.879  1.00  0.00     0.161 A 
ATOM      2  C   UNL     1      24.580  -1.592 -19.077  1.00  0.00     0.161 A 
ATOM      3  C   UNL     1      25.099  -2.241 -20.207  1.00  0.00     0.098 A 
ATOM      4  C   UNL     1      25.432  -3.595 -20.151  1.00  0.00     0.142 A 
ATOM      5  C   UNL     1      25.244  -4.314 -18.952  1.00  0.00     0.022 A 
ATOM      6  C   UNL     1      24.725  -3.667 -17.821  1.00  0.00     0.062 A 
ATOM      7  C   UNL     1      25.587  -5.669 -18.927  1.00  0.00     0.019 A 
ATOM      8  C   UNL     1      26.099  -6.268 -20.078  1.00  0.00     0.094 A 
ATOM      9  C   UNL     1      26.257  -5.493 -21.231  1.00  0.00     0.336 A 
ATOM     10  O   UNL     1      26.717  -6.015 -22.280  1.00  0.00    -0.246 OA
ATOM     11  O   UNL     1      25.923  -4.205 -21.228  1.00  0.00    -0.423 OA
ENDROOT
BRANCH   1  12
ATOM     12  O   UNL     1      23.869  -1.610 -16.773  1.00  0.00    -0.493 OA
ATOM     13  C   UNL     1      24.660  -1.003 -15.756  1.00  0.00     0.278 C 
ENDBRANCH   1  12
BRANCH   2  14
ATOM     14  O   UNL     1      24.248  -0.239 -19.136  1.00  0.00    -0.504 OA
ATOM     15  H   UNL     1      24.958   0.477 -19.245  1.00  0.00     0.293 HD
ENDBRANCH   2  14
TORSDOF 2
ENDMDL
