MODEL 1
REMARK VINA RESULT:    -4.307      0.000      0.000
REMARK INTER + INTRA:          -7.590
REMARK INTER:                  -6.825
REMARK INTRA:                  -0.765
REMARK UNBOUND:                -0.765
REMARK SMILES CCCCCCCCCCCC(=O)[O-]
REMARK SMILES IDX 7 1 8 2 9 3 10 4 11 5 12 6 13 7 14 8 6 9 5 10 4 11 3 12 2 13
REMARK SMILES IDX 1 14
REMARK H PARENT
REMARK Flexibility Score: inf
ROOT
ATOM      1  C   UNL     1      25.422  -0.588  -9.103  1.00  0.00     0.000 C 
ENDROOT
BRANCH   1   2
ATOM      2  C   UNL     1      25.619  -0.727 -10.618  1.00  0.00     0.000 C 
BRANCH   2   3
ATOM      3  C   UNL     1      24.329  -1.206 -11.299  1.00  0.00     0.000 C 
BRANCH   3   4
ATOM      4  C   UNL     1      23.877  -0.274 -12.435  1.00  0.00     0.006 C 
BRANCH   4   5
ATOM      5  C   UNL     1      24.645  -0.519 -13.740  1.00  0.00     0.053 C 
BRANCH   5   6
ATOM      6  C   UNL     1      25.060   0.782 -14.352  1.00  0.00     0.041 C 
ATOM      7  O   UNL     1      25.297   0.854 -15.587  1.00  0.00    -0.550 OA
ATOM      8  O   UNL     1      25.232   1.904 -13.552  1.00  0.00    -0.550 OA
ENDBRANCH   5   6
ENDBRANCH   4   5
ENDBRANCH   3   4
ENDBRANCH   2   3
ENDBRANCH   1   2
BRANCH   1   9
ATOM      9  C   UNL     1      26.621  -1.166  -8.337  1.00  0.00     0.000 C 
BRANCH   9  10
ATOM     10  C   UNL     1      26.411  -2.630  -7.913  1.00  0.00    -0.000 C 
BRANCH  10  11
ATOM     11  C   UNL     1      24.940  -3.086  -7.843  1.00  0.00    -0.000 C 
BRANCH  11  12
ATOM     12  C   UNL     1      24.671  -4.509  -8.367  1.00  0.00    -0.000 C 
BRANCH  12  13
ATOM     13  C   UNL     1      23.724  -4.530  -9.575  1.00  0.00    -0.003 C 
ATOM     14  C   UNL     1      22.971  -5.855  -9.659  1.00  0.00     0.004 C 
ENDBRANCH  12  13
ENDBRANCH  11  12
ENDBRANCH  10  11
ENDBRANCH   9  10
ENDBRANCH   1   9
TORSDOF 10
ENDMDL
MODEL 2
REMARK VINA RESULT:    -4.162      1.115      3.216
REMARK INTER + INTRA:          -7.360
REMARK INTER:                  -6.624
REMARK INTRA:                  -0.736
REMARK UNBOUND:                -0.765
REMARK SMILES CCCCCCCCCCCC(=O)[O-]
REMARK SMILES IDX 7 1 8 2 9 3 10 4 11 5 12 6 13 7 14 8 6 9 5 10 4 11 3 12 2 13
REMARK SMILES IDX 1 14
REMARK H PARENT
REMARK Flexibility Score: inf
ROOT
ATOM      1  C   UNL     1      24.461  -3.148 -10.403  1.00  0.00     0.000 C 
ENDROOT
BRANCH   1   2
ATOM      2  C   UNL     1      23.971  -1.700 -10.270  1.00  0.00     0.000 C 
BRANCH   2   3
ATOM      3  C   UNL     1      24.791  -0.757 -11.163  1.00  0.00     0.000 C 
BRANCH   3   4
ATOM      4  C   UNL     1      23.986  -0.227 -12.361  1.00  0.00     0.006 C 
BRANCH   4   5
ATOM      5  C   UNL     1      24.671  -0.512 -13.704  1.00  0.00     0.053 C 
BRANCH   5   6
ATOM      6  C   UNL     1      25.046   0.768 -14.380  1.00  0.00     0.041 C 
ATOM      7  O   UNL     1      25.102   0.829 -15.637  1.00  0.00    -0.550 OA
ATOM      8  O   UNL     1      25.382   1.883 -13.622  1.00  0.00    -0.550 OA
ENDBRANCH   5   6
ENDBRANCH   4   5
ENDBRANCH   3   4
ENDBRANCH   2   3
ENDBRANCH   1   2
BRANCH   1   9
ATOM      9  C   UNL     1      24.508  -3.841  -9.034  1.00  0.00     0.000 C 
BRANCH   9  10
ATOM     10  C   UNL     1      24.946  -2.897  -7.900  1.00  0.00    -0.000 C 
BRANCH  10  11
ATOM     11  C   UNL     1      26.465  -2.849  -7.640  1.00  0.00    -0.000 C 
BRANCH  11  12
ATOM     12  C   UNL     1      27.219  -1.725  -8.374  1.00  0.00    -0.000 C 
BRANCH  12  13
ATOM     13  C   UNL     1      27.768  -0.655  -7.419  1.00  0.00    -0.003 C 
ATOM     14  C   UNL     1      28.663  -1.280  -6.353  1.00  0.00     0.004 C 
ENDBRANCH  12  13
ENDBRANCH  11  12
ENDBRANCH  10  11
ENDBRANCH   9  10
ENDBRANCH   1   9
TORSDOF 10
ENDMDL
MODEL 3
REMARK VINA RESULT:    -4.157     16.400     17.377
REMARK INTER + INTRA:          -7.352
REMARK INTER:                  -6.528
REMARK INTRA:                  -0.824
REMARK UNBOUND:                -0.765
REMARK SMILES CCCCCCCCCCCC(=O)[O-]
REMARK SMILES IDX 7 1 8 2 9 3 10 4 11 5 12 6 13 7 14 8 6 9 5 10 4 11 3 12 2 13
REMARK SMILES IDX 1 14
REMARK H PARENT
REMARK Flexibility Score: inf
ROOT
ATOM      1  C   UNL     1      11.012   7.875  -6.896  1.00  0.00     0.000 C 
ENDROOT
BRANCH   1   2
ATOM      2  C   UNL     1      10.500   9.308  -6.699  1.00  0.00     0.000 C 
BRANCH   2   3
ATOM      3  C   UNL     1      11.638  10.326  -6.862  1.00  0.00     0.000 C 
BRANCH   3   4
ATOM      4  C   UNL     1      12.308  10.251  -8.243  1.00  0.00     0.006 C 
BRANCH   4   5
ATOM      5  C   UNL     1      11.352  10.626  -9.383  1.00  0.00     0.053 C 
BRANCH   5   6
ATOM      6  C   UNL     1      12.076  11.403 -10.436  1.00  0.00     0.041 C 
ATOM      7  O   UNL     1      11.682  11.370 -11.632  1.00  0.00    -0.550 OA
ATOM      8  O   UNL     1      13.217  12.124 -10.108  1.00  0.00    -0.550 OA
ENDBRANCH   5   6
ENDBRANCH   4   5
ENDBRANCH   3   4
ENDBRANCH   2   3
ENDBRANCH   1   2
BRANCH   1   9
ATOM      9  C   UNL     1       9.903   6.965  -7.444  1.00  0.00     0.000 C 
BRANCH   9  10
ATOM     10  C   UNL     1      10.140   5.477  -7.129  1.00  0.00    -0.000 C 
BRANCH  10  11
ATOM     11  C   UNL     1      11.449   5.169  -6.375  1.00  0.00    -0.000 C 
BRANCH  11  12
ATOM     12  C   UNL     1      11.270   4.700  -4.919  1.00  0.00    -0.000 C 
BRANCH  12  13
ATOM     13  C   UNL     1      11.755   5.737  -3.896  1.00  0.00    -0.003 C 
ATOM     14  C   UNL     1      10.581   6.506  -3.296  1.00  0.00     0.004 C 
ENDBRANCH  12  13
ENDBRANCH  11  12
ENDBRANCH  10  11
ENDBRANCH   9  10
ENDBRANCH   1   9
TORSDOF 10
ENDMDL
MODEL 4
REMARK VINA RESULT:    -4.139     16.345     17.318
REMARK INTER + INTRA:          -7.323
REMARK INTER:                  -6.231
REMARK INTRA:                  -1.092
REMARK UNBOUND:                -0.765
REMARK SMILES CCCCCCCCCCCC(=O)[O-]
REMARK SMILES IDX 7 1 8 2 9 3 10 4 11 5 12 6 13 7 14 8 6 9 5 10 4 11 3 12 2 13
REMARK SMILES IDX 1 14
REMARK H PARENT
REMARK Flexibility Score: inf
ROOT
ATOM      1  C   UNL     1       9.993   5.438  -7.045  1.00  0.00     0.000 C 
ENDROOT
BRANCH   1   2
ATOM      2  C   UNL     1       9.875   6.905  -7.476  1.00  0.00     0.000 C 
BRANCH   2   3
ATOM      3  C   UNL     1      11.084   7.721  -6.992  1.00  0.00     0.000 C 
BRANCH   3   4
ATOM      4  C   UNL     1      10.908   9.231  -7.217  1.00  0.00     0.006 C 
BRANCH   4   5
ATOM      5  C   UNL     1      12.146   9.882  -7.846  1.00  0.00     0.053 C 
BRANCH   5   6
ATOM      6  C   UNL     1      11.789  10.539  -9.141  1.00  0.00     0.041 C 
ATOM      7  O   UNL     1      10.582  10.679  -9.469  1.00  0.00    -0.550 OA
ATOM      8  O   UNL     1      12.791  10.952 -10.010  1.00  0.00    -0.550 OA
ENDBRANCH   5   6
ENDBRANCH   4   5
ENDBRANCH   3   4
ENDBRANCH   2   3
ENDBRANCH   1   2
BRANCH   1   9
ATOM      9  C   UNL     1      11.460   4.984  -7.035  1.00  0.00     0.000 C 
BRANCH   9  10
ATOM     10  C   UNL     1      11.923   4.483  -5.656  1.00  0.00    -0.000 C 
BRANCH  10  11
ATOM     11  C   UNL     1      11.086   4.987  -4.463  1.00  0.00    -0.000 C 
BRANCH  11  12
ATOM     12  C   UNL     1      11.678   6.197  -3.715  1.00  0.00    -0.000 C 
BRANCH  12  13
ATOM     13  C   UNL     1      10.609   7.210  -3.282  1.00  0.00    -0.003 C 
ATOM     14  C   UNL     1      11.146   8.636  -3.349  1.00  0.00     0.004 C 
ENDBRANCH  12  13
ENDBRANCH  11  12
ENDBRANCH  10  11
ENDBRANCH   9  10
ENDBRANCH   1   9
TORSDOF 10
ENDMDL
MODEL 5
REMARK VINA RESULT:    -4.064      1.285      2.096
REMARK INTER + INTRA:          -7.205
REMARK INTER:                  -6.327
REMARK INTRA:                  -0.878
REMARK UNBOUND:                -0.765
REMARK SMILES CCCCCCCCCCCC(=O)[O-]
REMARK SMILES IDX 7 1 8 2 9 3 10 4 11 5 12 6 13 7 14 8 6 9 5 10 4 11 3 12 2 13
REMARK SMILES IDX 1 14
REMARK H PARENT
REMARK Flexibility Score: inf
ROOT
ATOM      1  C   UNL     1      25.562  -2.191  -8.493  1.00  0.00     0.000 C 
ENDROOT
BRANCH   1   2
ATOM      2  C   UNL     1      24.388  -1.319  -8.956  1.00  0.00     0.000 C 
BRANCH   2   3
ATOM      3  C   UNL     1      23.873  -1.774 -10.330  1.00  0.00     0.000 C 
BRANCH   3   4
ATOM      4  C   UNL     1      24.943  -1.673 -11.428  1.00  0.00     0.006 C 
BRANCH   4   5
ATOM      5  C   UNL     1      25.293  -0.221 -11.780  1.00  0.00     0.053 C 
BRANCH   5   6
ATOM      6  C   UNL     1      24.614   0.185 -13.049  1.00  0.00     0.041 C 
ATOM      7  O   UNL     1      24.116  -0.687 -13.810  1.00  0.00    -0.550 OA
ATOM      8  O   UNL     1      24.574   1.523 -13.419  1.00  0.00    -0.550 OA
ENDBRANCH   5   6
ENDBRANCH   4   5
ENDBRANCH   3   4
ENDBRANCH   2   3
ENDBRANCH   1   2
BRANCH   1   9
ATOM      9  C   UNL     1      25.060  -3.491  -7.847  1.00  0.00     0.000 C 
BRANCH   9  10
ATOM     10  C   UNL     1      25.666  -4.750  -8.491  1.00  0.00    -0.000 C 
BRANCH  10  11
ATOM     11  C   UNL     1      24.642  -5.815  -8.934  1.00  0.00    -0.000 C 
BRANCH  11  12
ATOM     12  C   UNL     1      23.194  -5.310  -9.076  1.00  0.00    -0.000 C 
BRANCH  12  13
ATOM     13  C   UNL     1      22.267  -6.341  -9.737  1.00  0.00    -0.003 C 
ATOM     14  C   UNL     1      23.038  -7.598 -10.131  1.00  0.00     0.004 C 
ENDBRANCH  12  13
ENDBRANCH  11  12
ENDBRANCH  10  11
ENDBRANCH   9  10
ENDBRANCH   1   9
TORSDOF 10
ENDMDL
MODEL 6
REMARK VINA RESULT:    -4.058      3.878      6.274
REMARK INTER + INTRA:          -7.195
REMARK INTER:                  -6.290
REMARK INTRA:                  -0.906
REMARK UNBOUND:                -0.765
REMARK SMILES CCCCCCCCCCCC(=O)[O-]
REMARK SMILES IDX 7 1 8 2 9 3 10 4 11 5 12 6 13 7 14 8 6 9 5 10 4 11 3 12 2 13
REMARK SMILES IDX 1 14
REMARK H PARENT
REMARK Flexibility Score: inf
ROOT
ATOM      1  C   UNL     1      26.365  -2.288  -8.182  1.00  0.00     0.000 C 
ENDROOT
BRANCH   1   2
ATOM      2  C   UNL     1      25.305  -3.226  -7.591  1.00  0.00     0.000 C 
BRANCH   2   3
ATOM      3  C   UNL     1      25.571  -4.683  -7.997  1.00  0.00     0.000 C 
BRANCH   3   4
ATOM      4  C   UNL     1      25.015  -5.021  -9.390  1.00  0.00     0.006 C 
BRANCH   4   5
ATOM      5  C   UNL     1      23.482  -5.058  -9.420  1.00  0.00     0.053 C 
BRANCH   5   6
ATOM      6  C   UNL     1      22.999  -6.436  -9.742  1.00  0.00     0.041 C 
ATOM      7  O   UNL     1      21.765  -6.670  -9.837  1.00  0.00    -0.550 OA
ATOM      8  O   UNL     1      23.910  -7.475  -9.890  1.00  0.00    -0.550 OA
ENDBRANCH   5   6
ENDBRANCH   4   5
ENDBRANCH   3   4
ENDBRANCH   2   3
ENDBRANCH   1   2
BRANCH   1   9
ATOM      9  C   UNL     1      25.712  -1.064  -8.841  1.00  0.00     0.000 C 
BRANCH   9  10
ATOM     10  C   UNL     1      24.274  -1.337  -9.315  1.00  0.00    -0.000 C 
BRANCH  10  11
ATOM     11  C   UNL     1      24.096  -1.434 -10.843  1.00  0.00    -0.000 C 
BRANCH  11  12
ATOM     12  C   UNL     1      24.963  -0.464 -11.666  1.00  0.00    -0.000 C 
BRANCH  12  13
ATOM     13  C   UNL     1      24.143   0.369 -12.661  1.00  0.00    -0.003 C 
ATOM     14  C   UNL     1      25.028   0.919 -13.776  1.00  0.00     0.004 C 
ENDBRANCH  12  13
ENDBRANCH  11  12
ENDBRANCH  10  11
ENDBRANCH   9  10
ENDBRANCH   1   9
TORSDOF 10
ENDMDL
MODEL 7
REMARK VINA RESULT:    -4.032      3.125      6.183
REMARK INTER + INTRA:          -7.154
REMARK INTER:                  -6.283
REMARK INTRA:                  -0.871
REMARK UNBOUND:                -0.765
REMARK SMILES CCCCCCCCCCCC(=O)[O-]
REMARK SMILES IDX 7 1 8 2 9 3 10 4 11 5 12 6 13 7 14 8 6 9 5 10 4 11 3 12 2 13
REMARK SMILES IDX 1 14
REMARK H PARENT
REMARK Flexibility Score: inf
ROOT
ATOM      1  C   UNL     1      24.036  -2.722  -9.660  1.00  0.00     0.000 C 
ENDROOT
BRANCH   1   2
ATOM      2  C   UNL     1      24.784  -3.762  -8.816  1.00  0.00     0.000 C 
BRANCH   2   3
ATOM      3  C   UNL     1      25.352  -3.127  -7.537  1.00  0.00     0.000 C 
BRANCH   3   4
ATOM      4  C   UNL     1      26.807  -3.541  -7.266  1.00  0.00     0.006 C 
BRANCH   4   5
ATOM      5  C   UNL     1      27.822  -2.619  -7.954  1.00  0.00     0.053 C 
BRANCH   5   6
ATOM      6  C   UNL     1      27.989  -1.354  -7.174  1.00  0.00     0.041 C 
ATOM      7  O   UNL     1      28.591  -1.366  -6.068  1.00  0.00    -0.550 OA
ATOM      8  O   UNL     1      27.437  -0.169  -7.644  1.00  0.00    -0.550 OA
ENDBRANCH   5   6
ENDBRANCH   4   5
ENDBRANCH   3   4
ENDBRANCH   2   3
ENDBRANCH   1   2
BRANCH   1   9
ATOM      9  C   UNL     1      24.649  -1.326  -9.484  1.00  0.00     0.000 C 
BRANCH   9  10
ATOM     10  C   UNL     1      25.671  -0.979 -10.581  1.00  0.00    -0.000 C 
BRANCH  10  11
ATOM     11  C   UNL     1      25.178   0.028 -11.640  1.00  0.00    -0.000 C 
BRANCH  11  12
ATOM     12  C   UNL     1      24.158  -0.531 -12.649  1.00  0.00    -0.000 C 
BRANCH  12  13
ATOM     13  C   UNL     1      24.609  -0.362 -14.106  1.00  0.00    -0.003 C 
ATOM     14  C   UNL     1      25.159   1.040 -14.351  1.00  0.00     0.004 C 
ENDBRANCH  12  13
ENDBRANCH  11  12
ENDBRANCH  10  11
ENDBRANCH   9  10
ENDBRANCH   1   9
TORSDOF 10
ENDMDL
MODEL 8
REMARK VINA RESULT:    -3.990     16.324     17.197
REMARK INTER + INTRA:          -7.088
REMARK INTER:                  -6.345
REMARK INTRA:                  -0.742
REMARK UNBOUND:                -0.765
REMARK SMILES CCCCCCCCCCCC(=O)[O-]
REMARK SMILES IDX 7 1 8 2 9 3 10 4 11 5 12 6 13 7 14 8 6 9 5 10 4 11 3 12 2 13
REMARK SMILES IDX 1 14
REMARK H PARENT
REMARK Flexibility Score: inf
ROOT
ATOM      1  C   UNL     1       9.934   8.889  -6.221  1.00  0.00     0.000 C 
ENDROOT
BRANCH   1   2
ATOM      2  C   UNL     1      10.770   8.653  -7.485  1.00  0.00     0.000 C 
BRANCH   2   3
ATOM      3  C   UNL     1      11.779   9.791  -7.698  1.00  0.00     0.000 C 
BRANCH   3   4
ATOM      4  C   UNL     1      11.538  10.560  -9.007  1.00  0.00     0.006 C 
BRANCH   4   5
ATOM      5  C   UNL     1      12.843  11.001  -9.681  1.00  0.00     0.053 C 
BRANCH   5   6
ATOM      6  C   UNL     1      12.576  11.475 -11.074  1.00  0.00     0.041 C 
ATOM      7  O   UNL     1      11.435  11.327 -11.586  1.00  0.00    -0.550 OA
ATOM      8  O   UNL     1      13.600  12.037 -11.826  1.00  0.00    -0.550 OA
ENDBRANCH   5   6
ENDBRANCH   4   5
ENDBRANCH   3   4
ENDBRANCH   2   3
ENDBRANCH   1   2
BRANCH   1   9
ATOM      9  C   UNL     1      10.770   8.650  -4.955  1.00  0.00     0.000 C 
BRANCH   9  10
ATOM     10  C   UNL     1      10.503   7.277  -4.313  1.00  0.00    -0.000 C 
BRANCH  10  11
ATOM     11  C   UNL     1      11.764   6.479  -3.928  1.00  0.00    -0.000 C 
BRANCH  11  12
ATOM     12  C   UNL     1      11.983   5.178  -4.723  1.00  0.00    -0.000 C 
BRANCH  12  13
ATOM     13  C   UNL     1      12.010   5.407  -6.241  1.00  0.00    -0.003 C 
ATOM     14  C   UNL     1      10.878   4.649  -6.930  1.00  0.00     0.004 C 
ENDBRANCH  12  13
ENDBRANCH  11  12
ENDBRANCH  10  11
ENDBRANCH   9  10
ENDBRANCH   1   9
TORSDOF 10
ENDMDL
MODEL 9
REMARK VINA RESULT:    -3.955      2.990      6.050
REMARK INTER + INTRA:          -7.032
REMARK INTER:                  -5.979
REMARK INTRA:                  -1.053
REMARK UNBOUND:                -0.765
REMARK SMILES CCCCCCCCCCCC(=O)[O-]
REMARK SMILES IDX 7 1 8 2 9 3 10 4 11 5 12 6 13 7 14 8 6 9 5 10 4 11 3 12 2 13
REMARK SMILES IDX 1 14
REMARK H PARENT
REMARK Flexibility Score: inf
ROOT
ATOM      1  C   UNL     1      25.712  -0.633 -10.756  1.00  0.00     0.000 C 
ENDROOT
BRANCH   1   2
ATOM      2  C   UNL     1      25.663  -0.830  -9.235  1.00  0.00     0.000 C 
BRANCH   2   3
ATOM      3  C   UNL     1      24.477  -1.720  -8.833  1.00  0.00     0.000 C 
BRANCH   3   4
ATOM      4  C   UNL     1      24.895  -2.894  -7.934  1.00  0.00     0.006 C 
BRANCH   4   5
ATOM      5  C   UNL     1      24.536  -4.257  -8.538  1.00  0.00     0.053 C 
BRANCH   5   6
ATOM      6  C   UNL     1      25.421  -4.559  -9.706  1.00  0.00     0.041 C 
ATOM      7  O   UNL     1      26.667  -4.655  -9.549  1.00  0.00    -0.550 OA
ATOM      8  O   UNL     1      24.876  -4.686 -10.977  1.00  0.00    -0.550 OA
ENDBRANCH   5   6
ENDBRANCH   4   5
ENDBRANCH   3   4
ENDBRANCH   2   3
ENDBRANCH   1   2
BRANCH   1   9
ATOM      9  C   UNL     1      24.466  -1.228 -11.428  1.00  0.00     0.000 C 
BRANCH   9  10
ATOM     10  C   UNL     1      23.792  -0.253 -12.409  1.00  0.00    -0.000 C 
BRANCH  10  11
ATOM     11  C   UNL     1      24.710   0.855 -12.964  1.00  0.00    -0.000 C 
BRANCH  11  12
ATOM     12  C   UNL     1      24.929   0.820 -14.488  1.00  0.00    -0.000 C 
BRANCH  12  13
ATOM     13  C   UNL     1      25.098  -0.606 -15.032  1.00  0.00    -0.003 C 
ATOM     14  C   UNL     1      26.514  -1.121 -14.790  1.00  0.00     0.004 C 
ENDBRANCH  12  13
ENDBRANCH  11  12
ENDBRANCH  10  11
ENDBRANCH   9  10
ENDBRANCH   1   9
TORSDOF 10
ENDMDL
