MODEL 1
REMARK VINA RESULT:    -3.115      0.000      0.000
REMARK INTER + INTRA:          -3.541
REMARK INTER:                  -3.479
REMARK INTRA:                  -0.063
REMARK UNBOUND:                -0.063
REMARK SMILES CCCC(=O)[O-]
REMARK SMILES IDX 3 1 4 2 5 3 6 4 2 5 1 6
REMARK H PARENT
REMARK Flexibility Score: inf
ROOT
ATOM      1  C   UNL     1      28.448   5.092  10.031  1.00  0.00     0.052 C 
ENDROOT
BRANCH   1   2
ATOM      2  C   UNL     1      28.841   4.745  11.433  1.00  0.00     0.041 C 
ATOM      3  O   UNL     1      29.040   5.656  12.279  1.00  0.00    -0.550 OA
ATOM      4  O   UNL     1      29.036   3.418  11.792  1.00  0.00    -0.550 OA
ENDBRANCH   1   2
BRANCH   1   5
ATOM      5  C   UNL     1      27.228   6.015  10.029  1.00  0.00     0.003 C 
ATOM      6  C   UNL     1      25.987   5.291  10.544  1.00  0.00     0.004 C 
ENDBRANCH   1   5
TORSDOF 2
ENDMDL
MODEL 2
REMARK VINA RESULT:    -3.026      2.549      3.204
REMARK INTER + INTRA:          -3.442
REMARK INTER:                  -3.410
REMARK INTRA:                  -0.032
REMARK UNBOUND:                -0.063
REMARK SMILES CCCC(=O)[O-]
REMARK SMILES IDX 3 1 4 2 5 3 6 4 2 5 1 6
REMARK H PARENT
REMARK Flexibility Score: inf
ROOT
ATOM      1  C   UNL     1      27.008   5.370  10.760  1.00  0.00     0.052 C 
ENDROOT
BRANCH   1   2
ATOM      2  C   UNL     1      27.000   5.784   9.323  1.00  0.00     0.041 C 
ATOM      3  O   UNL     1      26.890   7.000   9.013  1.00  0.00    -0.550 OA
ATOM      4  O   UNL     1      27.065   4.823   8.322  1.00  0.00    -0.550 OA
ENDBRANCH   1   2
BRANCH   1   5
ATOM      5  C   UNL     1      28.436   5.369  11.310  1.00  0.00     0.003 C 
ATOM      6  C   UNL     1      28.928   3.947  11.565  1.00  0.00     0.004 C 
ENDBRANCH   1   5
TORSDOF 2
ENDMDL
MODEL 3
REMARK VINA RESULT:    -3.023      2.300      3.254
REMARK INTER + INTRA:          -3.440
REMARK INTER:                  -3.401
REMARK INTRA:                  -0.038
REMARK UNBOUND:                -0.063
REMARK SMILES CCCC(=O)[O-]
REMARK SMILES IDX 3 1 4 2 5 3 6 4 2 5 1 6
REMARK H PARENT
REMARK Flexibility Score: inf
ROOT
ATOM      1  C   UNL     1      28.285   5.379   9.921  1.00  0.00     0.052 C 
ENDROOT
BRANCH   1   2
ATOM      2  C   UNL     1      26.953   6.059   9.895  1.00  0.00     0.041 C 
ATOM      3  O   UNL     1      26.012   5.638  10.619  1.00  0.00    -0.550 OA
ATOM      4  O   UNL     1      26.734   7.128   9.035  1.00  0.00    -0.550 OA
ENDBRANCH   1   2
BRANCH   1   5
ATOM      5  C   UNL     1      28.690   5.046  11.359  1.00  0.00     0.003 C 
ATOM      6  C   UNL     1      28.862   3.542  11.549  1.00  0.00     0.004 C 
ENDBRANCH   1   5
TORSDOF 2
ENDMDL
MODEL 4
REMARK VINA RESULT:    -2.968      2.586      3.380
REMARK INTER + INTRA:          -3.377
REMARK INTER:                  -3.345
REMARK INTRA:                  -0.032
REMARK UNBOUND:                -0.063
REMARK SMILES CCCC(=O)[O-]
REMARK SMILES IDX 3 1 4 2 5 3 6 4 2 5 1 6
REMARK H PARENT
REMARK Flexibility Score: inf
ROOT
ATOM      1  C   UNL     1      27.274   4.141  10.581  1.00  0.00     0.052 C 
ENDROOT
BRANCH   1   2
ATOM      2  C   UNL     1      27.431   4.430   9.122  1.00  0.00     0.041 C 
ATOM      3  O   UNL     1      28.095   3.650   8.388  1.00  0.00    -0.550 OA
ATOM      4  O   UNL     1      26.886   5.587   8.580  1.00  0.00    -0.550 OA
ENDBRANCH   1   2
BRANCH   1   5
ATOM      5  C   UNL     1      28.644   4.009  11.252  1.00  0.00     0.003 C 
ATOM      6  C   UNL     1      29.010   5.280  12.013  1.00  0.00     0.004 C 
ENDBRANCH   1   5
TORSDOF 2
ENDMDL
MODEL 5
REMARK VINA RESULT:    -2.916      8.675      9.134
REMARK INTER + INTRA:          -3.320
REMARK INTER:                  -3.294
REMARK INTRA:                  -0.026
REMARK UNBOUND:                -0.063
REMARK SMILES CCCC(=O)[O-]
REMARK SMILES IDX 3 1 4 2 5 3 6 4 2 5 1 6
REMARK H PARENT
REMARK Flexibility Score: inf
ROOT
ATOM      1  C   UNL     1      25.153   1.288  17.800  1.00  0.00     0.052 C 
ENDROOT
BRANCH   1   2
ATOM      2  C   UNL     1      24.484   0.197  18.574  1.00  0.00     0.041 C 
ATOM      3  O   UNL     1      23.487   0.453  19.299  1.00  0.00    -0.550 OA
ATOM      4  O   UNL     1      24.993  -1.095  18.536  1.00  0.00    -0.550 OA
ENDBRANCH   1   2
BRANCH   1   5
ATOM      5  C   UNL     1      24.192   2.460  17.585  1.00  0.00     0.003 C 
ATOM      6  C   UNL     1      24.900   3.797  17.785  1.00  0.00     0.004 C 
ENDBRANCH   1   5
TORSDOF 2
ENDMDL
MODEL 6
REMARK VINA RESULT:    -2.806      2.011      2.557
REMARK INTER + INTRA:          -3.197
REMARK INTER:                  -3.187
REMARK INTRA:                  -0.010
REMARK UNBOUND:                -0.063
REMARK SMILES CCCC(=O)[O-]
REMARK SMILES IDX 3 1 4 2 5 3 6 4 2 5 1 6
REMARK H PARENT
REMARK Flexibility Score: inf
ROOT
ATOM      1  C   UNL     1      28.188   3.791  10.427  1.00  0.00     0.052 C 
ENDROOT
BRANCH   1   2
ATOM      2  C   UNL     1      28.240   5.218  10.870  1.00  0.00     0.041 C 
ATOM      3  O   UNL     1      28.784   5.524  11.964  1.00  0.00    -0.550 OA
ATOM      4  O   UNL     1      27.643   6.207  10.098  1.00  0.00    -0.550 OA
ENDBRANCH   1   2
BRANCH   1   5
ATOM      5  C   UNL     1      27.909   3.704   8.925  1.00  0.00     0.003 C 
ATOM      6  C   UNL     1      27.753   2.255   8.475  1.00  0.00     0.004 C 
ENDBRANCH   1   5
TORSDOF 2
ENDMDL
MODEL 7
REMARK VINA RESULT:    -2.645      4.003      4.627
REMARK INTER + INTRA:          -3.017
REMARK INTER:                  -2.979
REMARK INTRA:                  -0.038
REMARK UNBOUND:                -0.063
REMARK SMILES CCCC(=O)[O-]
REMARK SMILES IDX 3 1 4 2 5 3 6 4 2 5 1 6
REMARK H PARENT
REMARK Flexibility Score: inf
ROOT
ATOM      1  C   UNL     1      26.516   7.904   7.544  1.00  0.00     0.052 C 
ENDROOT
BRANCH   1   2
ATOM      2  C   UNL     1      26.322   6.955   8.684  1.00  0.00     0.041 C 
ATOM      3  O   UNL     1      27.316   6.522   9.325  1.00  0.00    -0.550 OA
ATOM      4  O   UNL     1      25.047   6.509   9.007  1.00  0.00    -0.550 OA
ENDBRANCH   1   2
BRANCH   1   5
ATOM      5  C   UNL     1      26.495   7.151   6.210  1.00  0.00     0.003 C 
ATOM      6  C   UNL     1      25.133   7.266   5.533  1.00  0.00     0.004 C 
ENDBRANCH   1   5
TORSDOF 2
ENDMDL
MODEL 8
REMARK VINA RESULT:    -2.560      3.273      3.865
REMARK INTER + INTRA:          -2.922
REMARK INTER:                  -2.863
REMARK INTRA:                  -0.059
REMARK UNBOUND:                -0.063
REMARK SMILES CCCC(=O)[O-]
REMARK SMILES IDX 3 1 4 2 5 3 6 4 2 5 1 6
REMARK H PARENT
REMARK Flexibility Score: inf
ROOT
ATOM      1  C   UNL     1      25.781   7.183   8.485  1.00  0.00     0.052 C 
ENDROOT
BRANCH   1   2
ATOM      2  C   UNL     1      26.570   6.033   9.026  1.00  0.00     0.041 C 
ATOM      3  O   UNL     1      27.615   6.242   9.698  1.00  0.00    -0.550 OA
ATOM      4  O   UNL     1      26.181   4.730   8.746  1.00  0.00    -0.550 OA
ENDBRANCH   1   2
BRANCH   1   5
ATOM      5  C   UNL     1      26.568   7.906   7.389  1.00  0.00     0.003 C 
ATOM      6  C   UNL     1      26.438   7.187   6.050  1.00  0.00     0.004 C 
ENDBRANCH   1   5
TORSDOF 2
ENDMDL
MODEL 9
REMARK VINA RESULT:    -2.558      8.576      9.074
REMARK INTER + INTRA:          -2.919
REMARK INTER:                  -2.895
REMARK INTRA:                  -0.024
REMARK UNBOUND:                -0.063
REMARK SMILES CCCC(=O)[O-]
REMARK SMILES IDX 3 1 4 2 5 3 6 4 2 5 1 6
REMARK H PARENT
REMARK Flexibility Score: inf
ROOT
ATOM      1  C   UNL     1      24.992   1.433  17.553  1.00  0.00     0.052 C 
ENDROOT
BRANCH   1   2
ATOM      2  C   UNL     1      24.455   2.710  18.117  1.00  0.00     0.041 C 
ATOM      3  O   UNL     1      23.460   2.693  18.890  1.00  0.00    -0.550 OA
ATOM      4  O   UNL     1      25.021   3.924  17.750  1.00  0.00    -0.550 OA
ENDBRANCH   1   2
BRANCH   1   5
ATOM      5  C   UNL     1      24.982   0.331  18.616  1.00  0.00     0.003 C 
ATOM      6  C   UNL     1      24.574  -1.011  18.015  1.00  0.00     0.004 C 
ENDBRANCH   1   5
TORSDOF 2
ENDMDL
