MODEL 1
REMARK VINA RESULT:    -4.409      0.000      0.000
REMARK INTER + INTRA:          -4.765
REMARK INTER:                  -4.667
REMARK INTRA:                  -0.098
REMARK UNBOUND:                -0.098
REMARK SMILES C=C(C)[C@H]1CC=C(C)C(=O)C1
REMARK SMILES IDX 8 1 7 2 6 3 5 4 4 5 11 6 9 7 10 8 2 9 1 10 3 11
REMARK H PARENT
REMARK Flexibility Score: inf
ROOT
ATOM      1  C   UNL     1      20.171 -45.782 -10.193  1.00  0.00     0.048 C 
ATOM      2  C   UNL     1      18.822 -45.587  -9.556  1.00  0.00    -0.012 C 
ATOM      3  C   UNL     1      18.638 -45.912  -8.265  1.00  0.00    -0.019 C 
ATOM      4  C   UNL     1      17.304 -45.755  -7.585  1.00  0.00     0.036 C 
ATOM      5  C   UNL     1      16.529 -44.552  -8.157  1.00  0.00     0.025 C 
ATOM      6  C   UNL     1      16.391 -44.684  -9.685  1.00  0.00     0.089 C 
ATOM      7  C   UNL     1      17.735 -44.922 -10.318  1.00  0.00     0.158 C 
ATOM      8  O   UNL     1      17.917 -44.584 -11.519  1.00  0.00    -0.295 OA
ENDROOT
BRANCH   5   9
ATOM      9  C   UNL     1      15.170 -44.396  -7.489  1.00  0.00    -0.077 C 
ATOM     10  C   UNL     1      14.846 -45.164  -6.436  1.00  0.00     0.008 C 
ATOM     11  C   UNL     1      14.162 -43.388  -7.982  1.00  0.00     0.039 C 
ENDBRANCH   5   9
TORSDOF 1
ENDMDL
MODEL 2
REMARK VINA RESULT:    -4.398     15.475     17.009
REMARK INTER + INTRA:          -4.754
REMARK INTER:                  -4.656
REMARK INTRA:                  -0.098
REMARK UNBOUND:                -0.098
REMARK SMILES C=C(C)[C@H]1CC=C(C)C(=O)C1
REMARK SMILES IDX 8 1 7 2 6 3 5 4 4 5 11 6 9 7 10 8 2 9 1 10 3 11
REMARK H PARENT
REMARK Flexibility Score: inf
ROOT
ATOM      1  C   UNL     1      29.407 -43.118 -17.576  1.00  0.00     0.048 C 
ATOM      2  C   UNL     1      28.807 -42.908 -18.940  1.00  0.00    -0.012 C 
ATOM      3  C   UNL     1      28.489 -41.668 -19.347  1.00  0.00    -0.019 C 
ATOM      4  C   UNL     1      27.869 -41.405 -20.693  1.00  0.00     0.036 C 
ATOM      5  C   UNL     1      28.371 -42.416 -21.742  1.00  0.00     0.025 C 
ATOM      6  C   UNL     1      28.122 -43.856 -21.258  1.00  0.00     0.089 C 
ATOM      7  C   UNL     1      28.684 -44.054 -19.877  1.00  0.00     0.158 C 
ATOM      8  O   UNL     1      29.015 -45.213 -19.509  1.00  0.00    -0.295 OA
ENDROOT
BRANCH   5   9
ATOM      9  C   UNL     1      27.735 -42.169 -23.103  1.00  0.00    -0.077 C 
ATOM     10  C   UNL     1      27.724 -43.143 -24.027  1.00  0.00     0.008 C 
ATOM     11  C   UNL     1      27.106 -40.842 -23.449  1.00  0.00     0.039 C 
ENDBRANCH   5   9
TORSDOF 1
ENDMDL
MODEL 3
REMARK VINA RESULT:    -4.392     15.423     17.032
REMARK INTER + INTRA:          -4.747
REMARK INTER:                  -4.651
REMARK INTRA:                  -0.097
REMARK UNBOUND:                -0.098
REMARK SMILES C=C(C)[C@H]1CC=C(C)C(=O)C1
REMARK SMILES IDX 8 1 7 2 6 3 5 4 4 5 11 6 9 7 10 8 2 9 1 10 3 11
REMARK H PARENT
REMARK Flexibility Score: inf
ROOT
ATOM      1  C   UNL     1      28.993 -44.848 -18.232  1.00  0.00     0.048 C 
ATOM      2  C   UNL     1      28.784 -44.025 -19.474  1.00  0.00    -0.012 C 
ATOM      3  C   UNL     1      28.333 -44.611 -20.596  1.00  0.00    -0.019 C 
ATOM      4  C   UNL     1      28.124 -43.838 -21.871  1.00  0.00     0.036 C 
ATOM      5  C   UNL     1      27.694 -42.388 -21.576  1.00  0.00     0.025 C 
ATOM      6  C   UNL     1      28.714 -41.708 -20.644  1.00  0.00     0.089 C 
ATOM      7  C   UNL     1      28.956 -42.551 -19.422  1.00  0.00     0.158 C 
ATOM      8  O   UNL     1      29.345 -41.995 -18.360  1.00  0.00    -0.295 OA
ENDROOT
BRANCH   5   9
ATOM      9  C   UNL     1      27.499 -41.593 -22.860  1.00  0.00    -0.077 C 
ATOM     10  C   UNL     1      27.332 -40.261 -22.808  1.00  0.00     0.008 C 
ATOM     11  C   UNL     1      27.489 -42.267 -24.209  1.00  0.00     0.039 C 
ENDBRANCH   5   9
TORSDOF 1
ENDMDL
MODEL 4
REMARK VINA RESULT:    -4.161      1.882      2.332
REMARK INTER + INTRA:          -4.503
REMARK INTER:                  -4.405
REMARK INTRA:                  -0.098
REMARK UNBOUND:                -0.098
REMARK SMILES C=C(C)[C@H]1CC=C(C)C(=O)C1
REMARK SMILES IDX 8 1 7 2 6 3 5 4 4 5 11 6 9 7 10 8 2 9 1 10 3 11
REMARK H PARENT
REMARK Flexibility Score: inf
ROOT
ATOM      1  C   UNL     1      19.905 -46.125  -9.410  1.00  0.00     0.048 C 
ATOM      2  C   UNL     1      18.674 -45.557  -8.756  1.00  0.00    -0.012 C 
ATOM      3  C   UNL     1      17.499 -45.581  -9.407  1.00  0.00    -0.019 C 
ATOM      4  C   UNL     1      16.242 -45.010  -8.807  1.00  0.00     0.036 C 
ATOM      5  C   UNL     1      16.236 -45.175  -7.275  1.00  0.00     0.025 C 
ATOM      6  C   UNL     1      17.506 -44.554  -6.666  1.00  0.00     0.089 C 
ATOM      7  C   UNL     1      18.735 -45.088  -7.349  1.00  0.00     0.158 C 
ATOM      8  O   UNL     1      19.830 -45.098  -6.723  1.00  0.00    -0.295 OA
ENDROOT
BRANCH   5   9
ATOM      9  C   UNL     1      14.977 -44.583  -6.656  1.00  0.00    -0.077 C 
ATOM     10  C   UNL     1      14.953 -44.266  -5.352  1.00  0.00     0.008 C 
ATOM     11  C   UNL     1      13.736 -44.338  -7.480  1.00  0.00     0.039 C 
ENDBRANCH   5   9
TORSDOF 1
ENDMDL
MODEL 5
REMARK VINA RESULT:    -4.114     14.115     16.410
REMARK INTER + INTRA:          -4.452
REMARK INTER:                  -4.355
REMARK INTRA:                  -0.097
REMARK UNBOUND:                -0.098
REMARK SMILES C=C(C)[C@H]1CC=C(C)C(=O)C1
REMARK SMILES IDX 8 1 7 2 6 3 5 4 4 5 11 6 9 7 10 8 2 9 1 10 3 11
REMARK H PARENT
REMARK Flexibility Score: inf
ROOT
ATOM      1  C   UNL     1      27.806 -40.623 -22.389  1.00  0.00     0.048 C 
ATOM      2  C   UNL     1      28.209 -41.665 -21.381  1.00  0.00    -0.012 C 
ATOM      3  C   UNL     1      28.471 -41.303 -20.113  1.00  0.00    -0.019 C 
ATOM      4  C   UNL     1      28.896 -42.302 -19.070  1.00  0.00     0.036 C 
ATOM      5  C   UNL     1      28.245 -43.676 -19.322  1.00  0.00     0.025 C 
ATOM      6  C   UNL     1      28.554 -44.160 -20.750  1.00  0.00     0.089 C 
ATOM      7  C   UNL     1      28.192 -43.101 -21.757  1.00  0.00     0.158 C 
ATOM      8  O   UNL     1      27.911 -43.445 -22.936  1.00  0.00    -0.295 OA
ENDROOT
BRANCH   5   9
ATOM      9  C   UNL     1      28.684 -44.699 -18.283  1.00  0.00    -0.077 C 
ATOM     10  C   UNL     1      29.796 -45.425 -18.480  1.00  0.00     0.008 C 
ATOM     11  C   UNL     1      27.893 -44.923 -17.017  1.00  0.00     0.039 C 
ENDBRANCH   5   9
TORSDOF 1
ENDMDL
MODEL 6
REMARK VINA RESULT:    -4.088      2.625      4.116
REMARK INTER + INTRA:          -4.425
REMARK INTER:                  -4.328
REMARK INTRA:                  -0.097
REMARK UNBOUND:                -0.098
REMARK SMILES C=C(C)[C@H]1CC=C(C)C(=O)C1
REMARK SMILES IDX 8 1 7 2 6 3 5 4 4 5 11 6 9 7 10 8 2 9 1 10 3 11
REMARK H PARENT
REMARK Flexibility Score: inf
ROOT
ATOM      1  C   UNL     1      23.592 -46.024 -10.321  1.00  0.00     0.048 C 
ATOM      2  C   UNL     1      22.138 -45.797 -10.005  1.00  0.00    -0.012 C 
ATOM      3  C   UNL     1      21.239 -45.737 -11.001  1.00  0.00    -0.019 C 
ATOM      4  C   UNL     1      19.776 -45.494 -10.742  1.00  0.00     0.036 C 
ATOM      5  C   UNL     1      19.342 -46.108  -9.397  1.00  0.00     0.025 C 
ATOM      6  C   UNL     1      20.231 -45.579  -8.257  1.00  0.00     0.089 C 
ATOM      7  C   UNL     1      21.686 -45.766  -8.591  1.00  0.00     0.158 C 
ATOM      8  O   UNL     1      22.524 -45.857  -7.655  1.00  0.00    -0.295 OA
ENDROOT
BRANCH   5   9
ATOM      9  C   UNL     1      17.868 -45.851  -9.117  1.00  0.00    -0.077 C 
ATOM     10  C   UNL     1      17.000 -45.730 -10.135  1.00  0.00     0.008 C 
ATOM     11  C   UNL     1      17.345 -45.727  -7.707  1.00  0.00     0.039 C 
ENDBRANCH   5   9
TORSDOF 1
ENDMDL
MODEL 7
REMARK VINA RESULT:    -4.075     16.002     17.310
REMARK INTER + INTRA:          -4.411
REMARK INTER:                  -4.314
REMARK INTRA:                  -0.097
REMARK UNBOUND:                -0.098
REMARK SMILES C=C(C)[C@H]1CC=C(C)C(=O)C1
REMARK SMILES IDX 8 1 7 2 6 3 5 4 4 5 11 6 9 7 10 8 2 9 1 10 3 11
REMARK H PARENT
REMARK Flexibility Score: inf
ROOT
ATOM      1  C   UNL     1      27.123 -41.438 -24.832  1.00  0.00     0.048 C 
ATOM      2  C   UNL     1      27.414 -41.907 -23.432  1.00  0.00    -0.012 C 
ATOM      3  C   UNL     1      27.879 -43.150 -23.227  1.00  0.00    -0.019 C 
ATOM      4  C   UNL     1      28.168 -43.676 -21.846  1.00  0.00     0.036 C 
ATOM      5  C   UNL     1      28.649 -42.549 -20.913  1.00  0.00     0.025 C 
ATOM      6  C   UNL     1      27.628 -41.397 -20.895  1.00  0.00     0.089 C 
ATOM      7  C   UNL     1      27.304 -40.956 -22.297  1.00  0.00     0.158 C 
ATOM      8  O   UNL     1      26.901 -39.778 -22.492  1.00  0.00    -0.295 OA
ENDROOT
BRANCH   5   9
ATOM      9  C   UNL     1      28.926 -43.067 -19.508  1.00  0.00    -0.077 C 
ATOM     10  C   UNL     1      29.119 -42.204 -18.498  1.00  0.00     0.008 C 
ATOM     11  C   UNL     1      28.989 -44.546 -19.214  1.00  0.00     0.039 C 
ENDBRANCH   5   9
TORSDOF 1
ENDMDL
MODEL 8
REMARK VINA RESULT:    -4.040     17.349     18.054
REMARK INTER + INTRA:          -4.375
REMARK INTER:                  -4.278
REMARK INTRA:                  -0.097
REMARK UNBOUND:                -0.098
REMARK SMILES C=C(C)[C@H]1CC=C(C)C(=O)C1
REMARK SMILES IDX 8 1 7 2 6 3 5 4 4 5 11 6 9 7 10 8 2 9 1 10 3 11
REMARK H PARENT
REMARK Flexibility Score: inf
ROOT
ATOM      1  C   UNL     1      30.125 -35.515 -14.768  1.00  0.00     0.048 C 
ATOM      2  C   UNL     1      29.365 -34.237 -14.536  1.00  0.00    -0.012 C 
ATOM      3  C   UNL     1      29.444 -33.619 -13.345  1.00  0.00    -0.019 C 
ATOM      4  C   UNL     1      28.690 -32.349 -13.054  1.00  0.00     0.036 C 
ATOM      5  C   UNL     1      28.550 -31.485 -14.322  1.00  0.00     0.025 C 
ATOM      6  C   UNL     1      27.901 -32.301 -15.455  1.00  0.00     0.089 C 
ATOM      7  C   UNL     1      28.634 -33.599 -15.659  1.00  0.00     0.158 C 
ATOM      8  O   UNL     1      28.588 -34.159 -16.787  1.00  0.00    -0.295 OA
ENDROOT
BRANCH   5   9
ATOM      9  C   UNL     1      27.772 -30.206 -14.042  1.00  0.00    -0.077 C 
ATOM     10  C   UNL     1      26.652 -30.248 -13.302  1.00  0.00     0.008 C 
ATOM     11  C   UNL     1      28.231 -28.873 -14.579  1.00  0.00     0.039 C 
ENDBRANCH   5   9
TORSDOF 1
ENDMDL
MODEL 9
REMARK VINA RESULT:    -3.990     17.067     18.099
REMARK INTER + INTRA:          -4.321
REMARK INTER:                  -4.224
REMARK INTRA:                  -0.097
REMARK UNBOUND:                -0.098
REMARK SMILES C=C(C)[C@H]1CC=C(C)C(=O)C1
REMARK SMILES IDX 8 1 7 2 6 3 5 4 4 5 11 6 9 7 10 8 2 9 1 10 3 11
REMARK H PARENT
REMARK Flexibility Score: inf
ROOT
ATOM      1  C   UNL     1      29.899 -35.951 -14.970  1.00  0.00     0.048 C 
ATOM      2  C   UNL     1      29.511 -34.503 -14.847  1.00  0.00    -0.012 C 
ATOM      3  C   UNL     1      29.024 -33.848 -15.914  1.00  0.00    -0.019 C 
ATOM      4  C   UNL     1      28.638 -32.394 -15.850  1.00  0.00     0.036 C 
ATOM      5  C   UNL     1      28.102 -32.024 -14.454  1.00  0.00     0.025 C 
ATOM      6  C   UNL     1      29.128 -32.402 -13.371  1.00  0.00     0.089 C 
ATOM      7  C   UNL     1      29.549 -33.838 -13.519  1.00  0.00     0.158 C 
ATOM      8  O   UNL     1      29.972 -34.462 -12.509  1.00  0.00    -0.295 OA
ENDROOT
BRANCH   5   9
ATOM      9  C   UNL     1      27.727 -30.550 -14.374  1.00  0.00    -0.077 C 
ATOM     10  C   UNL     1      28.498 -29.626 -14.970  1.00  0.00     0.008 C 
ATOM     11  C   UNL     1      26.494 -30.092 -13.636  1.00  0.00     0.039 C 
ENDBRANCH   5   9
TORSDOF 1
ENDMDL
