MODEL 1
REMARK VINA RESULT:    -4.515      0.000      0.000
REMARK INTER + INTRA:         -10.077
REMARK INTER:                  -8.737
REMARK INTRA:                  -1.339
REMARK UNBOUND:                -1.339
REMARK SMILES CCCCCCCCCCCCCCCCCC(=O)[O-]
REMARK SMILES IDX 10 1 11 2 12 3 13 4 14 5 15 6 16 7 17 8 18 9 19 10 20 11
REMARK SMILES IDX 9 12 8 13 7 14 6 15 5 16 4 17 3 18 2 19 1 20
REMARK H PARENT
REMARK Flexibility Score: inf
ROOT
ATOM      1  C   UNL     1      50.217  33.772   3.757  1.00  0.00     0.000 C 
ENDROOT
BRANCH   1   2
ATOM      2  C   UNL     1      50.516  33.806   2.248  1.00  0.00     0.000 C 
BRANCH   2   3
ATOM      3  C   UNL     1      51.675  32.876   1.855  1.00  0.00     0.000 C 
BRANCH   3   4
ATOM      4  C   UNL     1      52.683  33.553   0.916  1.00  0.00     0.000 C 
BRANCH   4   5
ATOM      5  C   UNL     1      52.342  33.269  -0.554  1.00  0.00     0.000 C 
BRANCH   5   6
ATOM      6  C   UNL     1      51.533  31.975  -0.741  1.00  0.00     0.000 C 
BRANCH   6   7
ATOM      7  C   UNL     1      50.076  32.215  -1.197  1.00  0.00     0.006 C 
BRANCH   7   8
ATOM      8  C   UNL     1      49.781  33.684  -1.540  1.00  0.00     0.053 C 
BRANCH   8   9
ATOM      9  C   UNL     1      49.710  33.903  -3.021  1.00  0.00     0.041 C 
ATOM     10  O   UNL     1      48.692  33.545  -3.667  1.00  0.00    -0.550 OA
ATOM     11  O   UNL     1      50.781  34.484  -3.689  1.00  0.00    -0.550 OA
ENDBRANCH   8   9
ENDBRANCH   7   8
ENDBRANCH   6   7
ENDBRANCH   5   6
ENDBRANCH   4   5
ENDBRANCH   3   4
ENDBRANCH   2   3
ENDBRANCH   1   2
BRANCH   1  12
ATOM     12  C   UNL     1      51.140  32.809   4.518  1.00  0.00     0.000 C 
BRANCH  12  13
ATOM     13  C   UNL     1      50.368  31.882   5.474  1.00  0.00    -0.000 C 
BRANCH  13  14
ATOM     14  C   UNL     1      50.724  32.128   6.948  1.00  0.00    -0.000 C 
BRANCH  14  15
ATOM     15  C   UNL     1      49.487  32.113   7.864  1.00  0.00    -0.000 C 
BRANCH  15  16
ATOM     16  C   UNL     1      48.799  33.484   7.944  1.00  0.00    -0.000 C 
BRANCH  16  17
ATOM     17  C   UNL     1      49.798  34.651   7.862  1.00  0.00    -0.000 C 
BRANCH  17  18
ATOM     18  C   UNL     1      50.193  35.197   9.246  1.00  0.00    -0.000 C 
BRANCH  18  19
ATOM     19  C   UNL     1      49.197  34.874  10.374  1.00  0.00    -0.003 C 
ATOM     20  C   UNL     1      48.579  36.124  11.003  1.00  0.00     0.004 C 
ENDBRANCH  18  19
ENDBRANCH  17  18
ENDBRANCH  16  17
ENDBRANCH  15  16
ENDBRANCH  14  15
ENDBRANCH  13  14
ENDBRANCH  12  13
ENDBRANCH   1  12
TORSDOF 16
ENDMDL
MODEL 2
REMARK VINA RESULT:    -4.345      1.060      2.479
REMARK INTER + INTRA:          -9.748
REMARK INTER:                  -8.623
REMARK INTRA:                  -1.126
REMARK UNBOUND:                -1.339
REMARK SMILES CCCCCCCCCCCCCCCCCC(=O)[O-]
REMARK SMILES IDX 10 1 11 2 12 3 13 4 14 5 15 6 16 7 17 8 18 9 19 10 20 11
REMARK SMILES IDX 9 12 8 13 7 14 6 15 5 16 4 17 3 18 2 19 1 20
REMARK H PARENT
REMARK Flexibility Score: inf
ROOT
ATOM      1  C   UNL     1      50.728  32.256   5.700  1.00  0.00     0.000 C 
ENDROOT
BRANCH   1   2
ATOM      2  C   UNL     1      51.233  32.677   4.309  1.00  0.00     0.000 C 
BRANCH   2   3
ATOM      3  C   UNL     1      50.371  33.781   3.677  1.00  0.00     0.000 C 
BRANCH   3   4
ATOM      4  C   UNL     1      50.486  33.818   2.147  1.00  0.00     0.000 C 
BRANCH   4   5
ATOM      5  C   UNL     1      51.755  33.096   1.673  1.00  0.00     0.000 C 
BRANCH   5   6
ATOM      6  C   UNL     1      51.500  32.159   0.480  1.00  0.00     0.000 C 
BRANCH   6   7
ATOM      7  C   UNL     1      50.100  32.327  -0.151  1.00  0.00     0.006 C 
BRANCH   7   8
ATOM      8  C   UNL     1      50.098  32.161  -1.679  1.00  0.00     0.053 C 
BRANCH   8   9
ATOM      9  C   UNL     1      50.050  33.485  -2.380  1.00  0.00     0.041 C 
ATOM     10  O   UNL     1      51.026  34.277  -2.309  1.00  0.00    -0.550 OA
ATOM     11  O   UNL     1      48.915  33.853  -3.093  1.00  0.00    -0.550 OA
ENDBRANCH   8   9
ENDBRANCH   7   8
ENDBRANCH   6   7
ENDBRANCH   5   6
ENDBRANCH   4   5
ENDBRANCH   3   4
ENDBRANCH   2   3
ENDBRANCH   1   2
BRANCH   1  12
ATOM     12  C   UNL     1      49.371  32.888   6.048  1.00  0.00     0.000 C 
BRANCH  12  13
ATOM     13  C   UNL     1      49.311  33.392   7.501  1.00  0.00    -0.000 C 
BRANCH  13  14
ATOM     14  C   UNL     1      50.023  34.741   7.686  1.00  0.00    -0.000 C 
BRANCH  14  15
ATOM     15  C   UNL     1      50.037  35.204   9.154  1.00  0.00    -0.000 C 
BRANCH  15  16
ATOM     16  C   UNL     1      49.552  34.112  10.120  1.00  0.00    -0.000 C 
BRANCH  16  17
ATOM     17  C   UNL     1      48.363  34.572  10.980  1.00  0.00    -0.000 C 
BRANCH  17  18
ATOM     18  C   UNL     1      48.302  36.102  11.144  1.00  0.00    -0.000 C 
BRANCH  18  19
ATOM     19  C   UNL     1      47.889  36.583  12.547  1.00  0.00    -0.003 C 
ATOM     20  C   UNL     1      47.260  35.478  13.397  1.00  0.00     0.004 C 
ENDBRANCH  18  19
ENDBRANCH  17  18
ENDBRANCH  16  17
ENDBRANCH  15  16
ENDBRANCH  14  15
ENDBRANCH  13  14
ENDBRANCH  12  13
ENDBRANCH   1  12
TORSDOF 16
ENDMDL
MODEL 3
REMARK VINA RESULT:    -4.309      1.151      1.803
REMARK INTER + INTRA:          -9.680
REMARK INTER:                  -8.545
REMARK INTRA:                  -1.135
REMARK UNBOUND:                -1.339
REMARK SMILES CCCCCCCCCCCCCCCCCC(=O)[O-]
REMARK SMILES IDX 10 1 11 2 12 3 13 4 14 5 15 6 16 7 17 8 18 9 19 10 20 11
REMARK SMILES IDX 9 12 8 13 7 14 6 15 5 16 4 17 3 18 2 19 1 20
REMARK H PARENT
REMARK Flexibility Score: inf
ROOT
ATOM      1  C   UNL     1      50.563  33.842   3.726  1.00  0.00     0.000 C 
ENDROOT
BRANCH   1   2
ATOM      2  C   UNL     1      50.444  33.763   2.194  1.00  0.00     0.000 C 
BRANCH   2   3
ATOM      3  C   UNL     1      51.671  33.107   1.540  1.00  0.00     0.000 C 
BRANCH   3   4
ATOM      4  C   UNL     1      51.450  32.792   0.054  1.00  0.00     0.000 C 
BRANCH   4   5
ATOM      5  C   UNL     1      49.953  32.766  -0.287  1.00  0.00     0.000 C 
BRANCH   5   6
ATOM      6  C   UNL     1      49.674  32.269  -1.715  1.00  0.00     0.000 C 
BRANCH   6   7
ATOM      7  C   UNL     1      49.302  33.398  -2.702  1.00  0.00     0.006 C 
BRANCH   7   8
ATOM      8  C   UNL     1      50.344  33.601  -3.814  1.00  0.00     0.053 C 
BRANCH   8   9
ATOM      9  C   UNL     1      51.096  34.886  -3.641  1.00  0.00     0.041 C 
ATOM     10  O   UNL     1      50.853  35.869  -4.388  1.00  0.00    -0.550 OA
ATOM     11  O   UNL     1      52.081  34.989  -2.667  1.00  0.00    -0.550 OA
ENDBRANCH   8   9
ENDBRANCH   7   8
ENDBRANCH   6   7
ENDBRANCH   5   6
ENDBRANCH   4   5
ENDBRANCH   3   4
ENDBRANCH   2   3
ENDBRANCH   1   2
BRANCH   1  12
ATOM     12  C   UNL     1      51.236  32.600   4.329  1.00  0.00     0.000 C 
BRANCH  12  13
ATOM     13  C   UNL     1      50.593  32.165   5.658  1.00  0.00    -0.000 C 
BRANCH  13  14
ATOM     14  C   UNL     1      49.388  33.038   6.042  1.00  0.00    -0.000 C 
BRANCH  14  15
ATOM     15  C   UNL     1      49.394  33.427   7.531  1.00  0.00    -0.000 C 
BRANCH  15  16
ATOM     16  C   UNL     1      49.852  34.876   7.759  1.00  0.00    -0.000 C 
BRANCH  16  17
ATOM     17  C   UNL     1      50.200  35.160   9.230  1.00  0.00    -0.000 C 
BRANCH  17  18
ATOM     18  C   UNL     1      48.954  35.273  10.127  1.00  0.00    -0.000 C 
BRANCH  18  19
ATOM     19  C   UNL     1      48.839  34.185  11.210  1.00  0.00    -0.003 C 
ATOM     20  C   UNL     1      50.104  33.335  11.340  1.00  0.00     0.004 C 
ENDBRANCH  18  19
ENDBRANCH  17  18
ENDBRANCH  16  17
ENDBRANCH  15  16
ENDBRANCH  14  15
ENDBRANCH  13  14
ENDBRANCH  12  13
ENDBRANCH   1  12
TORSDOF 16
ENDMDL
MODEL 4
REMARK VINA RESULT:    -4.286      4.789     10.112
REMARK INTER + INTRA:          -9.635
REMARK INTER:                  -8.512
REMARK INTRA:                  -1.123
REMARK UNBOUND:                -1.339
REMARK SMILES CCCCCCCCCCCCCCCCCC(=O)[O-]
REMARK SMILES IDX 10 1 11 2 12 3 13 4 14 5 15 6 16 7 17 8 18 9 19 10 20 11
REMARK SMILES IDX 9 12 8 13 7 14 6 15 5 16 4 17 3 18 2 19 1 20
REMARK H PARENT
REMARK Flexibility Score: inf
ROOT
ATOM      1  C   UNL     1      50.338  33.659   3.799  1.00  0.00     0.000 C 
ENDROOT
BRANCH   1   2
ATOM      2  C   UNL     1      51.319  32.615   4.360  1.00  0.00     0.000 C 
BRANCH   2   3
ATOM      3  C   UNL     1      50.882  32.070   5.729  1.00  0.00     0.000 C 
BRANCH   3   4
ATOM      4  C   UNL     1      49.356  32.049   5.896  1.00  0.00     0.000 C 
BRANCH   4   5
ATOM      5  C   UNL     1      48.953  32.456   7.320  1.00  0.00     0.000 C 
BRANCH   5   6
ATOM      6  C   UNL     1      49.717  33.691   7.828  1.00  0.00     0.000 C 
BRANCH   6   7
ATOM      7  C   UNL     1      49.696  33.843   9.366  1.00  0.00     0.006 C 
BRANCH   7   8
ATOM      8  C   UNL     1      49.772  35.306   9.832  1.00  0.00     0.053 C 
BRANCH   8   9
ATOM      9  C   UNL     1      48.511  35.733  10.521  1.00  0.00     0.041 C 
ATOM     10  O   UNL     1      47.411  35.202  10.217  1.00  0.00    -0.550 OA
ATOM     11  O   UNL     1      48.549  36.735  11.483  1.00  0.00    -0.550 OA
ENDBRANCH   8   9
ENDBRANCH   7   8
ENDBRANCH   6   7
ENDBRANCH   5   6
ENDBRANCH   4   5
ENDBRANCH   3   4
ENDBRANCH   2   3
ENDBRANCH   1   2
BRANCH   1  12
ATOM     12  C   UNL     1      50.476  33.839   2.280  1.00  0.00     0.000 C 
BRANCH  12  13
ATOM     13  C   UNL     1      51.671  33.063   1.700  1.00  0.00    -0.000 C 
BRANCH  13  14
ATOM     14  C   UNL     1      51.371  32.465   0.317  1.00  0.00    -0.000 C 
BRANCH  14  15
ATOM     15  C   UNL     1      49.931  32.747  -0.148  1.00  0.00    -0.000 C 
BRANCH  15  16
ATOM     16  C   UNL     1      49.702  32.364  -1.618  1.00  0.00    -0.000 C 
BRANCH  16  17
ATOM     17  C   UNL     1      51.017  32.097  -2.370  1.00  0.00    -0.000 C 
BRANCH  17  18
ATOM     18  C   UNL     1      51.409  33.249  -3.313  1.00  0.00    -0.000 C 
BRANCH  18  19
ATOM     19  C   UNL     1      50.232  34.114  -3.796  1.00  0.00    -0.003 C 
ATOM     20  C   UNL     1      50.660  35.222  -4.760  1.00  0.00     0.004 C 
ENDBRANCH  18  19
ENDBRANCH  17  18
ENDBRANCH  16  17
ENDBRANCH  15  16
ENDBRANCH  14  15
ENDBRANCH  13  14
ENDBRANCH  12  13
ENDBRANCH   1  12
TORSDOF 16
ENDMDL
MODEL 5
REMARK VINA RESULT:    -4.259      5.108     10.422
REMARK INTER + INTRA:          -9.583
REMARK INTER:                  -8.665
REMARK INTRA:                  -0.918
REMARK UNBOUND:                -1.339
REMARK SMILES CCCCCCCCCCCCCCCCCC(=O)[O-]
REMARK SMILES IDX 10 1 11 2 12 3 13 4 14 5 15 6 16 7 17 8 18 9 19 10 20 11
REMARK SMILES IDX 9 12 8 13 7 14 6 15 5 16 4 17 3 18 2 19 1 20
REMARK H PARENT
REMARK Flexibility Score: inf
ROOT
ATOM      1  C   UNL     1      50.863  32.123   6.447  1.00  0.00     0.000 C 
ENDROOT
BRANCH   1   2
ATOM      2  C   UNL     1      50.069  33.250   7.130  1.00  0.00     0.000 C 
BRANCH   2   3
ATOM      3  C   UNL     1      48.754  32.753   7.751  1.00  0.00     0.000 C 
BRANCH   3   4
ATOM      4  C   UNL     1      48.294  33.620   8.931  1.00  0.00     0.000 C 
BRANCH   4   5
ATOM      5  C   UNL     1      49.489  34.071   9.782  1.00  0.00     0.000 C 
BRANCH   5   6
ATOM      6  C   UNL     1      49.377  35.534  10.243  1.00  0.00     0.000 C 
BRANCH   6   7
ATOM      7  C   UNL     1      48.172  35.799  11.173  1.00  0.00     0.006 C 
BRANCH   7   8
ATOM      8  C   UNL     1      48.120  37.241  11.704  1.00  0.00     0.053 C 
BRANCH   8   9
ATOM      9  C   UNL     1      46.841  37.924  11.328  1.00  0.00     0.041 C 
ATOM     10  O   UNL     1      46.595  39.086  11.744  1.00  0.00    -0.550 OA
ATOM     11  O   UNL     1      45.909  37.266  10.534  1.00  0.00    -0.550 OA
ENDBRANCH   8   9
ENDBRANCH   7   8
ENDBRANCH   6   7
ENDBRANCH   5   6
ENDBRANCH   4   5
ENDBRANCH   3   4
ENDBRANCH   2   3
ENDBRANCH   1   2
BRANCH   1  12
ATOM     12  C   UNL     1      50.913  32.281   4.919  1.00  0.00     0.000 C 
BRANCH  12  13
ATOM     13  C   UNL     1      50.281  33.600   4.442  1.00  0.00    -0.000 C 
BRANCH  13  14
ATOM     14  C   UNL     1      50.453  33.823   2.931  1.00  0.00    -0.000 C 
BRANCH  14  15
ATOM     15  C   UNL     1      51.609  32.997   2.341  1.00  0.00    -0.000 C 
BRANCH  15  16
ATOM     16  C   UNL     1      51.619  33.014   0.805  1.00  0.00    -0.000 C 
BRANCH  16  17
ATOM     17  C   UNL     1      50.202  33.018   0.206  1.00  0.00    -0.000 C 
BRANCH  17  18
ATOM     18  C   UNL     1      50.155  33.616  -1.212  1.00  0.00    -0.000 C 
BRANCH  18  19
ATOM     19  C   UNL     1      51.528  33.784  -1.886  1.00  0.00    -0.003 C 
ATOM     20  C   UNL     1      51.467  34.610  -3.171  1.00  0.00     0.004 C 
ENDBRANCH  18  19
ENDBRANCH  17  18
ENDBRANCH  16  17
ENDBRANCH  15  16
ENDBRANCH  14  15
ENDBRANCH  13  14
ENDBRANCH  12  13
ENDBRANCH   1  12
TORSDOF 16
ENDMDL
MODEL 6
REMARK VINA RESULT:    -4.252      4.873      9.735
REMARK INTER + INTRA:          -9.568
REMARK INTER:                  -8.194
REMARK INTRA:                  -1.374
REMARK UNBOUND:                -1.339
REMARK SMILES CCCCCCCCCCCCCCCCCC(=O)[O-]
REMARK SMILES IDX 10 1 11 2 12 3 13 4 14 5 15 6 16 7 17 8 18 9 19 10 20 11
REMARK SMILES IDX 9 12 8 13 7 14 6 15 5 16 4 17 3 18 2 19 1 20
REMARK H PARENT
REMARK Flexibility Score: inf
ROOT
ATOM      1  C   UNL     1      50.201  33.691   3.602  1.00  0.00     0.000 C 
ENDROOT
BRANCH   1   2
ATOM      2  C   UNL     1      51.276  32.883   4.351  1.00  0.00     0.000 C 
BRANCH   2   3
ATOM      3  C   UNL     1      50.680  31.974   5.437  1.00  0.00     0.000 C 
BRANCH   3   4
ATOM      4  C   UNL     1      50.308  32.744   6.712  1.00  0.00     0.000 C 
BRANCH   4   5
ATOM      5  C   UNL     1      49.050  32.154   7.364  1.00  0.00     0.000 C 
BRANCH   5   6
ATOM      6  C   UNL     1      48.437  33.081   8.427  1.00  0.00     0.000 C 
BRANCH   6   7
ATOM      7  C   UNL     1      49.193  34.418   8.593  1.00  0.00     0.006 C 
BRANCH   7   8
ATOM      8  C   UNL     1      49.669  34.673  10.032  1.00  0.00     0.053 C 
BRANCH   8   9
ATOM      9  C   UNL     1      48.649  35.432  10.826  1.00  0.00     0.041 C 
ATOM     10  O   UNL     1      48.828  36.649  11.091  1.00  0.00    -0.550 OA
ATOM     11  O   UNL     1      47.510  34.786  11.291  1.00  0.00    -0.550 OA
ENDBRANCH   8   9
ENDBRANCH   7   8
ENDBRANCH   6   7
ENDBRANCH   5   6
ENDBRANCH   4   5
ENDBRANCH   3   4
ENDBRANCH   2   3
ENDBRANCH   1   2
BRANCH   1  12
ATOM     12  C   UNL     1      50.505  33.824   2.102  1.00  0.00     0.000 C 
BRANCH  12  13
ATOM     13  C   UNL     1      51.606  32.856   1.634  1.00  0.00    -0.000 C 
BRANCH  13  14
ATOM     14  C   UNL     1      51.225  32.106   0.349  1.00  0.00    -0.000 C 
BRANCH  14  15
ATOM     15  C   UNL     1      49.982  32.702  -0.335  1.00  0.00    -0.000 C 
BRANCH  15  16
ATOM     16  C   UNL     1      50.335  33.520  -1.588  1.00  0.00    -0.000 C 
BRANCH  16  17
ATOM     17  C   UNL     1      51.769  33.258  -2.078  1.00  0.00    -0.000 C 
BRANCH  17  18
ATOM     18  C   UNL     1      52.696  34.472  -1.886  1.00  0.00    -0.000 C 
BRANCH  18  19
ATOM     19  C   UNL     1      53.995  34.175  -1.116  1.00  0.00    -0.003 C 
ATOM     20  C   UNL     1      54.175  35.060   0.117  1.00  0.00     0.004 C 
ENDBRANCH  18  19
ENDBRANCH  17  18
ENDBRANCH  16  17
ENDBRANCH  15  16
ENDBRANCH  14  15
ENDBRANCH  13  14
ENDBRANCH  12  13
ENDBRANCH   1  12
TORSDOF 16
ENDMDL
MODEL 7
REMARK VINA RESULT:    -4.231     14.281     16.329
REMARK INTER + INTRA:          -9.528
REMARK INTER:                  -7.610
REMARK INTRA:                  -1.918
REMARK UNBOUND:                -1.339
REMARK SMILES CCCCCCCCCCCCCCCCCC(=O)[O-]
REMARK SMILES IDX 10 1 11 2 12 3 13 4 14 5 15 6 16 7 17 8 18 9 19 10 20 11
REMARK SMILES IDX 9 12 8 13 7 14 6 15 5 16 4 17 3 18 2 19 1 20
REMARK H PARENT
REMARK Flexibility Score: inf
ROOT
ATOM      1  C   UNL     1      47.275  47.515  11.326  1.00  0.00     0.000 C 
ENDROOT
BRANCH   1   2
ATOM      2  C   UNL     1      48.563  47.956  12.044  1.00  0.00     0.000 C 
BRANCH   2   3
ATOM      3  C   UNL     1      49.705  48.272  11.066  1.00  0.00     0.000 C 
BRANCH   3   4
ATOM      4  C   UNL     1      50.842  47.242  11.133  1.00  0.00     0.000 C 
BRANCH   4   5
ATOM      5  C   UNL     1      50.714  46.362  12.384  1.00  0.00     0.000 C 
BRANCH   5   6
ATOM      6  C   UNL     1      52.071  46.058  13.041  1.00  0.00     0.000 C 
BRANCH   6   7
ATOM      7  C   UNL     1      53.256  46.806  12.391  1.00  0.00     0.006 C 
BRANCH   7   8
ATOM      8  C   UNL     1      54.442  45.889  12.053  1.00  0.00     0.053 C 
BRANCH   8   9
ATOM      9  C   UNL     1      54.080  44.880  11.004  1.00  0.00     0.041 C 
ATOM     10  O   UNL     1      53.525  45.247   9.936  1.00  0.00    -0.550 OA
ATOM     11  O   UNL     1      54.337  43.532  11.219  1.00  0.00    -0.550 OA
ENDBRANCH   8   9
ENDBRANCH   7   8
ENDBRANCH   6   7
ENDBRANCH   5   6
ENDBRANCH   4   5
ENDBRANCH   3   4
ENDBRANCH   2   3
ENDBRANCH   1   2
BRANCH   1  12
ATOM     12  C   UNL     1      46.395  46.608  12.201  1.00  0.00     0.000 C 
BRANCH  12  13
ATOM     13  C   UNL     1      47.123  45.326  12.640  1.00  0.00    -0.000 C 
BRANCH  13  14
ATOM     14  C   UNL     1      46.377  44.051  12.218  1.00  0.00    -0.000 C 
BRANCH  14  15
ATOM     15  C   UNL     1      45.122  44.352  11.380  1.00  0.00    -0.000 C 
BRANCH  15  16
ATOM     16  C   UNL     1      45.276  43.918   9.914  1.00  0.00    -0.000 C 
BRANCH  16  17
ATOM     17  C   UNL     1      44.927  45.044   8.926  1.00  0.00    -0.000 C 
BRANCH  17  18
ATOM     18  C   UNL     1      43.902  46.042   9.496  1.00  0.00    -0.000 C 
BRANCH  18  19
ATOM     19  C   UNL     1      43.817  47.380   8.741  1.00  0.00    -0.003 C 
ATOM     20  C   UNL     1      44.050  48.592   9.643  1.00  0.00     0.004 C 
ENDBRANCH  18  19
ENDBRANCH  17  18
ENDBRANCH  16  17
ENDBRANCH  15  16
ENDBRANCH  14  15
ENDBRANCH  13  14
ENDBRANCH  12  13
ENDBRANCH   1  12
TORSDOF 16
ENDMDL
MODEL 8
REMARK VINA RESULT:    -4.217      4.319      9.240
REMARK INTER + INTRA:          -9.500
REMARK INTER:                  -7.921
REMARK INTRA:                  -1.579
REMARK UNBOUND:                -1.339
REMARK SMILES CCCCCCCCCCCCCCCCCC(=O)[O-]
REMARK SMILES IDX 10 1 11 2 12 3 13 4 14 5 15 6 16 7 17 8 18 9 19 10 20 11
REMARK SMILES IDX 9 12 8 13 7 14 6 15 5 16 4 17 3 18 2 19 1 20
REMARK H PARENT
REMARK Flexibility Score: inf
ROOT
ATOM      1  C   UNL     1      50.165  33.349   0.226  1.00  0.00     0.000 C 
ENDROOT
BRANCH   1   2
ATOM      2  C   UNL     1      51.087  33.287   1.456  1.00  0.00     0.000 C 
BRANCH   2   3
ATOM      3  C   UNL     1      50.480  33.984   2.684  1.00  0.00     0.000 C 
BRANCH   3   4
ATOM      4  C   UNL     1      50.878  33.308   4.004  1.00  0.00     0.000 C 
BRANCH   4   5
ATOM      5  C   UNL     1      49.677  33.206   4.954  1.00  0.00     0.000 C 
BRANCH   5   6
ATOM      6  C   UNL     1      49.848  32.109   6.019  1.00  0.00     0.000 C 
BRANCH   6   7
ATOM      7  C   UNL     1      50.039  32.659   7.450  1.00  0.00     0.006 C 
BRANCH   7   8
ATOM      8  C   UNL     1      48.890  33.570   7.909  1.00  0.00     0.053 C 
BRANCH   8   9
ATOM      9  C   UNL     1      49.379  34.676   8.795  1.00  0.00     0.041 C 
ATOM     10  O   UNL     1      50.473  35.249   8.549  1.00  0.00    -0.550 OA
ATOM     11  O   UNL     1      48.637  35.057   9.905  1.00  0.00    -0.550 OA
ENDBRANCH   8   9
ENDBRANCH   7   8
ENDBRANCH   6   7
ENDBRANCH   5   6
ENDBRANCH   4   5
ENDBRANCH   3   4
ENDBRANCH   2   3
ENDBRANCH   1   2
BRANCH   1  12
ATOM     12  C   UNL     1      50.110  32.016  -0.535  1.00  0.00     0.000 C 
BRANCH  12  13
ATOM     13  C   UNL     1      49.909  32.207  -2.049  1.00  0.00    -0.000 C 
BRANCH  13  14
ATOM     14  C   UNL     1      50.228  33.638  -2.509  1.00  0.00    -0.000 C 
BRANCH  14  15
ATOM     15  C   UNL     1      51.638  33.764  -3.111  1.00  0.00    -0.000 C 
BRANCH  15  16
ATOM     16  C   UNL     1      52.526  34.743  -2.329  1.00  0.00    -0.000 C 
BRANCH  16  17
ATOM     17  C   UNL     1      53.866  34.116  -1.906  1.00  0.00    -0.000 C 
BRANCH  17  18
ATOM     18  C   UNL     1      53.688  32.817  -1.099  1.00  0.00    -0.000 C 
BRANCH  18  19
ATOM     19  C   UNL     1      54.573  32.713   0.155  1.00  0.00    -0.003 C 
ATOM     20  C   UNL     1      54.595  34.000   0.981  1.00  0.00     0.004 C 
ENDBRANCH  18  19
ENDBRANCH  17  18
ENDBRANCH  16  17
ENDBRANCH  15  16
ENDBRANCH  14  15
ENDBRANCH  13  14
ENDBRANCH  12  13
ENDBRANCH   1  12
TORSDOF 16
ENDMDL
MODEL 9
REMARK VINA RESULT:    -4.191      4.994      9.797
REMARK INTER + INTRA:          -9.450
REMARK INTER:                  -8.043
REMARK INTRA:                  -1.407
REMARK UNBOUND:                -1.339
REMARK SMILES CCCCCCCCCCCCCCCCCC(=O)[O-]
REMARK SMILES IDX 10 1 11 2 12 3 13 4 14 5 15 6 16 7 17 8 18 9 19 10 20 11
REMARK SMILES IDX 9 12 8 13 7 14 6 15 5 16 4 17 3 18 2 19 1 20
REMARK H PARENT
REMARK Flexibility Score: inf
ROOT
ATOM      1  C   UNL     1      50.966  32.307   5.167  1.00  0.00     0.000 C 
ENDROOT
BRANCH   1   2
ATOM      2  C   UNL     1      49.622  31.898   5.796  1.00  0.00     0.000 C 
BRANCH   2   3
ATOM      3  C   UNL     1      49.058  32.976   6.735  1.00  0.00     0.000 C 
BRANCH   3   4
ATOM      4  C   UNL     1      50.039  33.359   7.851  1.00  0.00     0.000 C 
BRANCH   4   5
ATOM      5  C   UNL     1      50.075  34.881   8.055  1.00  0.00     0.000 C 
BRANCH   5   6
ATOM      6  C   UNL     1      49.745  35.298   9.498  1.00  0.00     0.000 C 
BRANCH   6   7
ATOM      7  C   UNL     1      49.061  34.186  10.324  1.00  0.00     0.006 C 
BRANCH   7   8
ATOM      8  C   UNL     1      47.540  34.368  10.446  1.00  0.00     0.053 C 
BRANCH   8   9
ATOM      9  C   UNL     1      47.187  35.707  11.019  1.00  0.00     0.041 C 
ATOM     10  O   UNL     1      46.441  36.494  10.381  1.00  0.00    -0.550 OA
ATOM     11  O   UNL     1      47.702  36.093  12.250  1.00  0.00    -0.550 OA
ENDBRANCH   8   9
ENDBRANCH   7   8
ENDBRANCH   6   7
ENDBRANCH   5   6
ENDBRANCH   4   5
ENDBRANCH   3   4
ENDBRANCH   2   3
ENDBRANCH   1   2
BRANCH   1  12
ATOM     12  C   UNL     1      50.834  33.526   4.241  1.00  0.00     0.000 C 
BRANCH  12  13
ATOM     13  C   UNL     1      51.205  33.204   2.783  1.00  0.00    -0.000 C 
BRANCH  13  14
ATOM     14  C   UNL     1      50.271  33.888   1.772  1.00  0.00    -0.000 C 
BRANCH  14  15
ATOM     15  C   UNL     1      50.260  33.179   0.406  1.00  0.00    -0.000 C 
BRANCH  15  16
ATOM     16  C   UNL     1      51.367  32.121   0.284  1.00  0.00    -0.000 C 
BRANCH  16  17
ATOM     17  C   UNL     1      52.137  32.225  -1.043  1.00  0.00    -0.000 C 
BRANCH  17  18
ATOM     18  C   UNL     1      53.652  32.414  -0.840  1.00  0.00    -0.000 C 
BRANCH  18  19
ATOM     19  C   UNL     1      54.090  32.576   0.626  1.00  0.00    -0.003 C 
ATOM     20  C   UNL     1      54.444  34.019   0.987  1.00  0.00     0.004 C 
ENDBRANCH  18  19
ENDBRANCH  17  18
ENDBRANCH  16  17
ENDBRANCH  15  16
ENDBRANCH  14  15
ENDBRANCH  13  14
ENDBRANCH  12  13
ENDBRANCH   1  12
TORSDOF 16
ENDMDL
