MODEL 1
REMARK VINA RESULT:    -1.595      0.000      0.000
REMARK INTER + INTRA:          -2.241
REMARK INTER:                  -2.155
REMARK INTRA:                  -0.086
REMARK UNBOUND:                -0.086
REMARK SMILES C=C1CCC=C(C)CC[C@H]2[C@H]1CC2(C)C
REMARK SMILES IDX 11 1 12 2 13 3 10 4 14 5 15 6 9 7 8 8 6 9 7 10 5 11 2 13
REMARK SMILES IDX 1 14 3 15 4 16
REMARK H PARENT
REMARK Flexibility Score: 70.00
ROOT
ATOM      1  C   UNL     1     169.765 173.088 139.618  1.00  0.00     0.018 C 
ATOM      2  C   UNL     1     171.042 172.283 139.895  1.00  0.00     0.015 C 
ATOM      3  C   UNL     1     170.282 171.397 140.893  1.00  0.00    -0.031 C 
ATOM      4  C   UNL     1     168.975 172.159 140.557  1.00  0.00     0.002 C 
ATOM      5  C   UNL     1     170.237 169.921 140.457  1.00  0.00     0.011 C 
ATOM      6  C   UNL     1     170.813 171.538 142.335  1.00  0.00     0.011 C 
ENDROOT
BRANCH   4   7
ATOM      7  C   UNL     1     168.262 172.909 141.702  1.00  0.00     0.009 C 
BRANCH   7   8
ATOM      8  C   UNL     1     166.779 173.161 141.393  1.00  0.00     0.030 C 
BRANCH   8   9
ATOM      9  C   UNL     1     166.544 174.522 140.762  1.00  0.00    -0.077 C 
ATOM     10  C   UNL     1     166.178 175.671 141.667  1.00  0.00     0.039 C 
ATOM     11  C   UNL     1     166.591 174.753 139.427  1.00  0.00    -0.028 CG0
ATOM     12  G   UNL     1     166.895 173.735 138.351  1.00  0.00     0.000 G0
ENDBRANCH   8   9
ENDBRANCH   7   8
ENDBRANCH   4   7
BRANCH   1  13
ATOM     13  C   UNL     1     169.363 173.116 138.148  1.00  0.00    -0.074 C 
ATOM     14  C   UNL     1     170.132 172.441 137.275  1.00  0.00     0.008 C 
BRANCH  13  15
ATOM     15  C   UNL     1     168.238 173.988 137.615  1.00  0.00     0.035 C 
BRANCH  15  16
ATOM     16  C   UNL     1     166.901 173.728 138.339  1.00  0.00     0.032 CG0
ATOM     17  G   UNL     1     166.620 174.751 139.417  1.00  0.00     0.000 G0
ENDBRANCH  15  16
ENDBRANCH  13  15
ENDBRANCH   1  13
TORSDOF 0
ENDMDL
MODEL 2
REMARK VINA RESULT:    -1.592     14.867     16.615
REMARK INTER + INTRA:          -2.236
REMARK INTER:                  -2.190
REMARK INTRA:                  -0.046
REMARK UNBOUND:                -0.086
REMARK SMILES C=C1CCC=C(C)CC[C@H]2[C@H]1CC2(C)C
REMARK SMILES IDX 11 1 12 2 13 3 10 4 14 5 15 6 9 7 8 8 6 9 7 10 5 11 2 13
REMARK SMILES IDX 1 14 3 15 4 16
REMARK H PARENT
REMARK Flexibility Score: 70.00
ROOT
ATOM      1  C   UNL     1     164.408 158.943 140.514  1.00  0.00     0.018 C 
ATOM      2  C   UNL     1     163.313 159.840 139.920  1.00  0.00     0.015 C 
ATOM      3  C   UNL     1     162.816 158.677 139.047  1.00  0.00    -0.031 C 
ATOM      4  C   UNL     1     163.871 157.750 139.702  1.00  0.00     0.002 C 
ATOM      5  C   UNL     1     161.372 158.263 139.383  1.00  0.00     0.011 C 
ATOM      6  C   UNL     1     162.982 158.956 137.539  1.00  0.00     0.011 C 
ENDROOT
BRANCH   4   7
ATOM      7  C   UNL     1     164.933 157.106 138.787  1.00  0.00     0.009 C 
BRANCH   7   8
ATOM      8  C   UNL     1     165.627 155.910 139.458  1.00  0.00     0.030 C 
BRANCH   8   9
ATOM      9  C   UNL     1     166.905 156.310 140.172  1.00  0.00    -0.077 C 
ATOM     10  C   UNL     1     168.199 156.243 139.402  1.00  0.00     0.039 C 
ATOM     11  C   UNL     1     166.959 156.672 141.477  1.00  0.00    -0.028 CG0
ATOM     12  G   UNL     1     165.790 156.761 142.432  1.00  0.00     0.000 G0
ENDBRANCH   8   9
ENDBRANCH   7   8
ENDBRANCH   4   7
BRANCH   1  13
ATOM     13  C   UNL     1     164.362 158.843 142.034  1.00  0.00    -0.074 C 
ATOM     14  C   UNL     1     163.346 159.451 142.672  1.00  0.00     0.008 C 
BRANCH  13  15
ATOM     15  C   UNL     1     165.483 158.227 142.856  1.00  0.00     0.035 C 
BRANCH  15  16
ATOM     16  C   UNL     1     165.791 156.776 142.431  1.00  0.00     0.032 CG0
ATOM     17  G   UNL     1     166.978 156.689 141.498  1.00  0.00     0.000 G0
ENDBRANCH  15  16
ENDBRANCH  13  15
ENDBRANCH   1  13
TORSDOF 0
ENDMDL
MODEL 3
REMARK VINA RESULT:    -1.515      2.934      4.404
REMARK INTER + INTRA:          -2.132
REMARK INTER:                  -2.054
REMARK INTRA:                  -0.078
REMARK UNBOUND:                -0.086
REMARK SMILES C=C1CCC=C(C)CC[C@H]2[C@H]1CC2(C)C
REMARK SMILES IDX 11 1 12 2 13 3 10 4 14 5 15 6 9 7 8 8 6 9 7 10 5 11 2 13
REMARK SMILES IDX 1 14 3 15 4 16
REMARK H PARENT
REMARK Flexibility Score: 70.00
ROOT
ATOM      1  C   UNL     1     166.000 173.233 138.434  1.00  0.00     0.018 C 
ATOM      2  C   UNL     1     167.455 173.392 137.975  1.00  0.00     0.015 C 
ATOM      3  C   UNL     1     167.678 174.496 139.019  1.00  0.00    -0.031 C 
ATOM      4  C   UNL     1     166.232 174.283 139.536  1.00  0.00     0.002 C 
ATOM      5  C   UNL     1     168.743 174.115 140.063  1.00  0.00     0.011 C 
ATOM      6  C   UNL     1     167.988 175.864 138.377  1.00  0.00     0.011 C 
ENDROOT
BRANCH   4   7
ATOM      7  C   UNL     1     165.256 175.475 139.459  1.00  0.00     0.009 C 
BRANCH   7   8
ATOM      8  C   UNL     1     164.081 175.324 140.438  1.00  0.00     0.030 C 
BRANCH   8   9
ATOM      9  C   UNL     1     162.874 174.665 139.794  1.00  0.00    -0.077 C 
ATOM     10  C   UNL     1     161.814 175.555 139.198  1.00  0.00     0.039 C 
ATOM     11  C   UNL     1     162.668 173.326 139.773  1.00  0.00    -0.028 CG0
ATOM     12  G   UNL     1     163.582 172.269 140.351  1.00  0.00     0.000 G0
ENDBRANCH   8   9
ENDBRANCH   7   8
ENDBRANCH   4   7
BRANCH   1  13
ATOM     13  C   UNL     1     165.645 171.816 138.871  1.00  0.00    -0.074 C 
ATOM     14  C   UNL     1     166.612 170.882 138.816  1.00  0.00     0.008 C 
BRANCH  13  15
ATOM     15  C   UNL     1     164.227 171.387 139.213  1.00  0.00     0.035 C 
BRANCH  15  16
ATOM     16  C   UNL     1     163.606 172.254 140.328  1.00  0.00     0.032 CG0
ATOM     17  G   UNL     1     162.683 173.321 139.781  1.00  0.00     0.000 G0
ENDBRANCH  15  16
ENDBRANCH  13  15
ENDBRANCH   1  13
TORSDOF 0
ENDMDL
MODEL 4
REMARK VINA RESULT:    -1.488     13.834     15.809
REMARK INTER + INTRA:          -2.096
REMARK INTER:                  -2.151
REMARK INTRA:                   0.054
REMARK UNBOUND:                -0.086
REMARK SMILES C=C1CCC=C(C)CC[C@H]2[C@H]1CC2(C)C
REMARK SMILES IDX 11 1 12 2 13 3 10 4 14 5 15 6 9 7 8 8 6 9 7 10 5 11 2 13
REMARK SMILES IDX 1 14 3 15 4 16
REMARK H PARENT
REMARK Flexibility Score: 70.00
ROOT
ATOM      1  C   UNL     1     164.336 157.322 140.292  1.00  0.00     0.018 C 
ATOM      2  C   UNL     1     163.292 156.799 139.298  1.00  0.00     0.015 C 
ATOM      3  C   UNL     1     163.023 158.229 138.807  1.00  0.00    -0.031 C 
ATOM      4  C   UNL     1     164.133 158.751 139.755  1.00  0.00     0.002 C 
ATOM      5  C   UNL     1     163.377 158.419 137.320  1.00  0.00     0.011 C 
ATOM      6  C   UNL     1     161.584 158.697 139.104  1.00  0.00     0.011 C 
ENDROOT
BRANCH   4   7
ATOM      7  C   UNL     1     163.731 159.763 140.847  1.00  0.00     0.009 C 
BRANCH   7   8
ATOM      8  C   UNL     1     164.954 160.372 141.550  1.00  0.00     0.030 C 
BRANCH   8   9
ATOM      9  C   UNL     1     165.349 159.600 142.795  1.00  0.00    -0.077 C 
ATOM     10  C   UNL     1     164.681 159.961 144.097  1.00  0.00     0.039 C 
ATOM     11  C   UNL     1     166.306 158.640 142.816  1.00  0.00    -0.028 CG0
ATOM     12  G   UNL     1     167.122 158.162 141.635  1.00  0.00     0.000 G0
ENDBRANCH   8   9
ENDBRANCH   7   8
ENDBRANCH   4   7
BRANCH   1  13
ATOM     13  C   UNL     1     165.715 156.693 140.124  1.00  0.00    -0.074 C 
ATOM     14  C   UNL     1     165.940 155.967 139.014  1.00  0.00     0.008 C 
BRANCH  13  15
ATOM     15  C   UNL     1     166.775 156.722 141.212  1.00  0.00     0.035 C 
BRANCH  15  16
ATOM     16  C   UNL     1     167.128 158.159 141.648  1.00  0.00     0.032 CG0
ATOM     17  G   UNL     1     166.299 158.624 142.825  1.00  0.00     0.000 G0
ENDBRANCH  15  16
ENDBRANCH  13  15
ENDBRANCH   1  13
TORSDOF 0
ENDMDL
MODEL 5
REMARK VINA RESULT:    -1.423      2.435      4.951
REMARK INTER + INTRA:          -2.008
REMARK INTER:                  -1.963
REMARK INTRA:                  -0.045
REMARK UNBOUND:                -0.086
REMARK SMILES C=C1CCC=C(C)CC[C@H]2[C@H]1CC2(C)C
REMARK SMILES IDX 11 1 12 2 13 3 10 4 14 5 15 6 9 7 8 8 6 9 7 10 5 11 2 13
REMARK SMILES IDX 1 14 3 15 4 16
REMARK H PARENT
REMARK Flexibility Score: 70.00
ROOT
ATOM      1  C   UNL     1     167.155 172.527 140.175  1.00  0.00     0.018 C 
ATOM      2  C   UNL     1     166.327 173.433 141.096  1.00  0.00     0.015 C 
ATOM      3  C   UNL     1     166.204 174.479 139.978  1.00  0.00    -0.031 C 
ATOM      4  C   UNL     1     166.974 173.532 139.022  1.00  0.00     0.002 C 
ATOM      5  C   UNL     1     164.745 174.707 139.540  1.00  0.00     0.011 C 
ATOM      6  C   UNL     1     166.895 175.812 140.334  1.00  0.00     0.011 C 
ENDROOT
BRANCH   4   7
ATOM      7  C   UNL     1     168.308 174.032 138.431  1.00  0.00     0.009 C 
BRANCH   7   8
ATOM      8  C   UNL     1     168.637 173.356 137.091  1.00  0.00     0.030 C 
BRANCH   8   9
ATOM      9  C   UNL     1     169.494 172.115 137.266  1.00  0.00    -0.077 C 
ATOM     10  C   UNL     1     170.982 172.246 137.067  1.00  0.00     0.039 C 
ATOM     11  C   UNL     1     168.993 170.885 137.537  1.00  0.00    -0.028 CG0
ATOM     12  G   UNL     1     167.535 170.532 137.729  1.00  0.00     0.000 G0
ENDBRANCH   8   9
ENDBRANCH   7   8
ENDBRANCH   4   7
BRANCH   1  13
ATOM     13  C   UNL     1     166.568 171.132 139.996  1.00  0.00    -0.074 C 
ATOM     14  C   UNL     1     165.473 170.817 140.710  1.00  0.00     0.008 C 
BRANCH  13  15
ATOM     15  C   UNL     1     167.248 170.049 139.175  1.00  0.00     0.035 C 
BRANCH  15  16
ATOM     16  C   UNL     1     167.545 170.506 137.732  1.00  0.00     0.032 CG0
ATOM     17  G   UNL     1     168.997 170.880 137.533  1.00  0.00     0.000 G0
ENDBRANCH  15  16
ENDBRANCH  13  15
ENDBRANCH   1  13
TORSDOF 0
ENDMDL
MODEL 6
REMARK VINA RESULT:    -1.423      1.890      3.018
REMARK INTER + INTRA:          -2.008
REMARK INTER:                  -2.137
REMARK INTRA:                   0.129
REMARK UNBOUND:                -0.086
REMARK SMILES C=C1CCC=C(C)CC[C@H]2[C@H]1CC2(C)C
REMARK SMILES IDX 11 1 12 2 13 3 10 4 14 5 15 6 9 7 8 8 6 9 7 10 5 11 2 13
REMARK SMILES IDX 1 14 3 15 4 16
REMARK H PARENT
REMARK Flexibility Score: 70.00
ROOT
ATOM      1  C   UNL     1     169.415 173.277 139.619  1.00  0.00     0.018 C 
ATOM      2  C   UNL     1     170.935 173.363 139.426  1.00  0.00     0.015 C 
ATOM      3  C   UNL     1     170.946 171.963 138.793  1.00  0.00    -0.031 C 
ATOM      4  C   UNL     1     169.402 171.907 138.915  1.00  0.00     0.002 C 
ATOM      5  C   UNL     1     171.424 171.982 137.329  1.00  0.00     0.011 C 
ATOM      6  C   UNL     1     171.744 170.941 139.629  1.00  0.00     0.011 C 
ENDROOT
BRANCH   4   7
ATOM      7  C   UNL     1     168.787 170.784 139.776  1.00  0.00     0.009 C 
BRANCH   7   8
ATOM      8  C   UNL     1     167.276 170.972 139.977  1.00  0.00     0.030 C 
BRANCH   8   9
ATOM      9  C   UNL     1     166.516 170.989 138.663  1.00  0.00    -0.077 C 
ATOM     10  C   UNL     1     166.263 169.674 137.971  1.00  0.00     0.039 C 
ATOM     11  C   UNL     1     166.099 172.123 138.048  1.00  0.00    -0.028 CG0
ATOM     12  G   UNL     1     166.289 173.537 138.548  1.00  0.00     0.000 G0
ENDBRANCH   8   9
ENDBRANCH   7   8
ENDBRANCH   4   7
BRANCH   1  13
ATOM     13  C   UNL     1     168.647 174.418 138.960  1.00  0.00    -0.074 C 
ATOM     14  C   UNL     1     168.859 175.664 139.420  1.00  0.00     0.008 C 
BRANCH  13  15
ATOM     15  C   UNL     1     167.555 174.191 137.928  1.00  0.00     0.035 C 
BRANCH  15  16
ATOM     16  C   UNL     1     166.299 173.534 138.538  1.00  0.00     0.032 CG0
ATOM     17  G   UNL     1     166.096 172.117 138.051  1.00  0.00     0.000 G0
ENDBRANCH  15  16
ENDBRANCH  13  15
ENDBRANCH   1  13
TORSDOF 0
ENDMDL
MODEL 7
REMARK VINA RESULT:    -1.393     13.844     16.132
REMARK INTER + INTRA:          -1.968
REMARK INTER:                  -2.358
REMARK INTRA:                   0.391
REMARK UNBOUND:                -0.086
REMARK SMILES C=C1CCC=C(C)CC[C@H]2[C@H]1CC2(C)C
REMARK SMILES IDX 11 1 12 2 13 3 10 4 14 5 15 6 9 7 8 8 6 9 7 10 5 11 2 13
REMARK SMILES IDX 1 14 3 15 4 16
REMARK H PARENT
REMARK Flexibility Score: 70.00
ROOT
ATOM      1  C   UNL     1     163.307 158.718 140.498  1.00  0.00     0.018 C 
ATOM      2  C   UNL     1     162.731 159.921 141.256  1.00  0.00     0.015 C 
ATOM      3  C   UNL     1     164.149 160.436 141.544  1.00  0.00    -0.031 C 
ATOM      4  C   UNL     1     164.731 159.265 140.713  1.00  0.00     0.002 C 
ATOM      5  C   UNL     1     164.420 161.810 140.902  1.00  0.00     0.011 C 
ATOM      6  C   UNL     1     164.481 160.447 143.050  1.00  0.00     0.011 C 
ENDROOT
BRANCH   4   7
ATOM      7  C   UNL     1     165.667 158.268 141.428  1.00  0.00     0.009 C 
BRANCH   7   8
ATOM      8  C   UNL     1     165.263 156.808 141.170  1.00  0.00     0.030 C 
BRANCH   8   9
ATOM      9  C   UNL     1     165.901 156.247 139.912  1.00  0.00    -0.077 C 
ATOM     10  C   UNL     1     167.384 155.974 139.929  1.00  0.00     0.039 C 
ATOM     11  C   UNL     1     165.226 156.027 138.758  1.00  0.00    -0.028 CG0
ATOM     12  G   UNL     1     163.754 156.275 138.519  1.00  0.00     0.000 G0
ENDBRANCH   8   9
ENDBRANCH   7   8
ENDBRANCH   4   7
BRANCH   1  13
ATOM     13  C   UNL     1     162.805 158.597 139.064  1.00  0.00    -0.074 C 
ATOM     14  C   UNL     1     161.630 159.177 138.761  1.00  0.00     0.008 C 
BRANCH  13  15
ATOM     15  C   UNL     1     163.489 157.731 138.019  1.00  0.00     0.035 C 
BRANCH  15  16
ATOM     16  C   UNL     1     163.743 156.295 138.524  1.00  0.00     0.032 CG0
ATOM     17  G   UNL     1     165.211 156.018 138.760  1.00  0.00     0.000 G0
ENDBRANCH  15  16
ENDBRANCH  13  15
ENDBRANCH   1  13
TORSDOF 0
ENDMDL
MODEL 8
REMARK VINA RESULT:    -1.391      4.299      6.496
REMARK INTER + INTRA:          -1.965
REMARK INTER:                  -1.943
REMARK INTRA:                  -0.022
REMARK UNBOUND:                -0.086
REMARK SMILES C=C1CCC=C(C)CC[C@H]2[C@H]1CC2(C)C
REMARK SMILES IDX 11 1 12 2 13 3 10 4 14 5 15 6 9 7 8 8 6 9 7 10 5 11 2 13
REMARK SMILES IDX 1 14 3 15 4 16
REMARK H PARENT
REMARK Flexibility Score: 70.00
ROOT
ATOM      1  C   UNL     1     172.402 171.730 139.580  1.00  0.00     0.018 C 
ATOM      2  C   UNL     1     170.955 171.311 139.289  1.00  0.00     0.015 C 
ATOM      3  C   UNL     1     170.713 172.625 138.531  1.00  0.00    -0.031 C 
ATOM      4  C   UNL     1     172.195 173.015 138.757  1.00  0.00     0.002 C 
ATOM      5  C   UNL     1     170.380 172.396 137.045  1.00  0.00     0.011 C 
ATOM      6  C   UNL     1     169.652 173.514 139.212  1.00  0.00     0.011 C 
ENDROOT
BRANCH   4   7
ATOM      7  C   UNL     1     172.488 174.304 139.553  1.00  0.00     0.009 C 
BRANCH   7   8
ATOM      8  C   UNL     1     173.947 174.762 139.395  1.00  0.00     0.030 C 
BRANCH   8   9
ATOM      9  C   UNL     1     174.844 174.220 140.493  1.00  0.00    -0.077 C 
ATOM     10  C   UNL     1     175.008 175.041 141.746  1.00  0.00     0.039 C 
ATOM     11  C   UNL     1     175.549 173.067 140.390  1.00  0.00    -0.028 CG0
ATOM     12  G   UNL     1     175.560 172.125 139.207  1.00  0.00     0.000 G0
ENDBRANCH   8   9
ENDBRANCH   7   8
ENDBRANCH   4   7
BRANCH   1  13
ATOM     13  C   UNL     1     173.442 170.733 139.084  1.00  0.00    -0.074 C 
ATOM     14  C   UNL     1     173.014 169.701 138.335  1.00  0.00     0.008 C 
BRANCH  13  15
ATOM     15  C   UNL     1     174.897 170.768 139.524  1.00  0.00     0.035 C 
BRANCH  15  16
ATOM     16  C   UNL     1     175.569 172.122 139.215  1.00  0.00     0.032 CG0
ATOM     17  G   UNL     1     175.549 173.059 140.401  1.00  0.00     0.000 G0
ENDBRANCH  15  16
ENDBRANCH  13  15
ENDBRANCH   1  13
TORSDOF 0
ENDMDL
MODEL 9
REMARK VINA RESULT:    -1.342     13.598     15.657
REMARK INTER + INTRA:          -1.899
REMARK INTER:                  -2.237
REMARK INTRA:                   0.339
REMARK UNBOUND:                -0.086
REMARK SMILES C=C1CCC=C(C)CC[C@H]2[C@H]1CC2(C)C
REMARK SMILES IDX 11 1 12 2 13 3 10 4 14 5 15 6 9 7 8 8 6 9 7 10 5 11 2 13
REMARK SMILES IDX 1 14 3 15 4 16
REMARK H PARENT
REMARK Flexibility Score: 70.00
ROOT
ATOM      1  C   UNL     1     161.854 161.003 138.883  1.00  0.00     0.018 C 
ATOM      2  C   UNL     1     160.322 161.099 138.879  1.00  0.00     0.015 C 
ATOM      3  C   UNL     1     160.219 159.652 138.374  1.00  0.00    -0.031 C 
ATOM      4  C   UNL     1     161.762 159.527 138.451  1.00  0.00     0.002 C 
ATOM      5  C   UNL     1     159.499 158.728 139.373  1.00  0.00     0.011 C 
ATOM      6  C   UNL     1     159.588 159.559 136.970  1.00  0.00     0.011 C 
ENDROOT
BRANCH   4   7
ATOM      7  C   UNL     1     162.527 159.224 137.147  1.00  0.00     0.009 C 
BRANCH   7   8
ATOM      8  C   UNL     1     163.942 158.688 137.417  1.00  0.00     0.030 C 
BRANCH   8   9
ATOM      9  C   UNL     1     163.992 157.777 138.631  1.00  0.00    -0.077 C 
ATOM     10  C   UNL     1     163.747 156.304 138.424  1.00  0.00     0.039 C 
ATOM     11  C   UNL     1     164.190 158.218 139.897  1.00  0.00    -0.028 CG0
ATOM     12  G   UNL     1     164.410 159.652 140.323  1.00  0.00     0.000 G0
ENDBRANCH   8   9
ENDBRANCH   7   8
ENDBRANCH   4   7
BRANCH   1  13
ATOM     13  C   UNL     1     162.485 161.305 140.237  1.00  0.00    -0.074 C 
ATOM     14  C   UNL     1     162.525 162.589 140.637  1.00  0.00     0.008 C 
BRANCH  13  15
ATOM     15  C   UNL     1     163.199 160.253 141.070  1.00  0.00     0.035 C 
BRANCH  15  16
ATOM     16  C   UNL     1     164.422 159.659 140.340  1.00  0.00     0.032 CG0
ATOM     17  G   UNL     1     164.187 158.235 139.888  1.00  0.00     0.000 G0
ENDBRANCH  15  16
ENDBRANCH  13  15
ENDBRANCH   1  13
TORSDOF 0
ENDMDL
