MODEL 1
REMARK VINA RESULT:    -5.730      0.000      0.000
REMARK INTER + INTRA:          -7.649
REMARK INTER:                  -7.739
REMARK INTRA:                   0.091
REMARK UNBOUND:                 0.091
REMARK SMILES O=c1c(-c2ccc(O)cc2)coc2c([C@@H]3O[C@H](CO)[C@@H](O)[C@@H](O)[C@H]3O)c(O)ccc12
REMARK SMILES IDX 3 1 11 2 12 3 13 4 30 5 2 6 1 7 29 8 28 9 26 10 14 11 4 12
REMARK SMILES IDX 5 13 6 14 7 15 10 16 9 17 8 18 15 20 24 21 16 22 22 23 17 24
REMARK SMILES IDX 20 25 25 26 23 28 18 30 19 31 21 33 27 35
REMARK H PARENT 8 19 25 27 23 29 19 32 21 34 27 36
REMARK Flexibility Score: inf
ROOT
ATOM      1  C   UNL     1      -9.231  -6.339   2.224  1.00  0.00     0.065 A 
ATOM      2  C   UNL     1      -9.110  -7.356   1.266  1.00  0.00     0.208 A 
ATOM      3  O   UNL     1      -9.601  -7.202   0.043  1.00  0.00    -0.463 OA
ATOM      4  C   UNL     1     -10.232  -6.100  -0.356  1.00  0.00     0.147 A 
ATOM      5  C   UNL     1     -10.408  -5.028   0.550  1.00  0.00     0.066 A 
ATOM      6  C   UNL     1      -9.902  -5.159   1.856  1.00  0.00     0.200 A 
ATOM      7  O   UNL     1     -10.067  -4.233   2.699  1.00  0.00    -0.288 OA
ATOM      8  C   UNL     1     -11.089  -3.873   0.134  1.00  0.00     0.020 A 
ATOM      9  C   UNL     1     -11.596  -3.786  -1.161  1.00  0.00     0.047 A 
ATOM     10  C   UNL     1     -11.429  -4.841  -2.065  1.00  0.00     0.125 A 
ATOM     11  C   UNL     1     -10.725  -6.005  -1.678  1.00  0.00     0.069 A 
ENDROOT
BRANCH   1  12
ATOM     12  C   UNL     1      -8.667  -6.531   3.584  1.00  0.00    -0.011 A 
ATOM     13  C   UNL     1      -8.213  -7.796   3.999  1.00  0.00     0.013 A 
ATOM     14  C   UNL     1      -7.690  -7.973   5.284  1.00  0.00     0.047 A 
ATOM     15  C   UNL     1      -7.619  -6.891   6.170  1.00  0.00     0.115 A 
ATOM     16  C   UNL     1      -8.598  -5.452   4.483  1.00  0.00     0.013 A 
ATOM     17  C   UNL     1      -8.074  -5.633   5.767  1.00  0.00     0.047 A 
BRANCH  15  18
ATOM     18  O   UNL     1      -7.099  -7.056   7.453  1.00  0.00    -0.508 OA
ATOM     19  H   UNL     1      -6.110  -6.946   7.642  1.00  0.00     0.293 HD
ENDBRANCH  15  18
ENDBRANCH   1  12
BRANCH  11  20
ATOM     20  C   UNL     1     -10.558  -7.168  -2.648  1.00  0.00     0.188 C 
ATOM     21  C   UNL     1     -11.638  -8.241  -2.384  1.00  0.00     0.179 C 
ATOM     22  O   UNL     1     -10.646  -6.684  -3.979  1.00  0.00    -0.362 OA
ATOM     23  C   UNL     1     -11.498  -9.388  -3.400  1.00  0.00     0.177 C 
ATOM     24  C   UNL     1     -10.369  -7.709  -4.918  1.00  0.00     0.176 C 
ATOM     25  C   UNL     1     -11.448  -8.818  -4.830  1.00  0.00     0.177 C 
BRANCH  21  26
ATOM     26  O   UNL     1     -11.508  -8.737  -1.076  1.00  0.00    -0.387 OA
ATOM     27  H   UNL     1     -12.196  -8.280  -0.526  1.00  0.00     0.211 HD
ENDBRANCH  21  26
BRANCH  23  28
ATOM     28  O   UNL     1     -10.332 -10.125  -3.122  1.00  0.00    -0.387 OA
ATOM     29  H   UNL     1      -9.564  -9.585  -3.444  1.00  0.00     0.211 HD
ENDBRANCH  23  28
BRANCH  24  30
ATOM     30  C   UNL     1     -10.329  -7.068  -6.315  1.00  0.00     0.191 C 
BRANCH  30  31
ATOM     31  O   UNL     1      -9.846  -7.969  -7.275  1.00  0.00    -0.394 OA
ATOM     32  H   UNL     1     -10.524  -8.689  -7.358  1.00  0.00     0.210 HD
ENDBRANCH  30  31
ENDBRANCH  24  30
BRANCH  25  33
ATOM     33  O   UNL     1     -11.169  -9.859  -5.732  1.00  0.00    -0.388 OA
ATOM     34  H   UNL     1     -10.843  -9.441  -6.573  1.00  0.00     0.211 HD
ENDBRANCH  25  33
ENDBRANCH  11  20
BRANCH  10  35
ATOM     35  O   UNL     1     -11.966  -4.733  -3.349  1.00  0.00    -0.507 OA
ATOM     36  H   UNL     1     -11.491  -5.113  -4.159  1.00  0.00     0.293 HD
ENDBRANCH  10  35
TORSDOF 9
ENDMDL
MODEL 2
REMARK VINA RESULT:    -5.604      1.787      4.012
REMARK INTER + INTRA:          -7.480
REMARK INTER:                 -10.132
REMARK INTRA:                   2.653
REMARK UNBOUND:                 0.091
REMARK SMILES O=c1c(-c2ccc(O)cc2)coc2c([C@@H]3O[C@H](CO)[C@@H](O)[C@@H](O)[C@H]3O)c(O)ccc12
REMARK SMILES IDX 3 1 11 2 12 3 13 4 30 5 2 6 1 7 29 8 28 9 26 10 14 11 4 12
REMARK SMILES IDX 5 13 6 14 7 15 10 16 9 17 8 18 15 20 24 21 16 22 22 23 17 24
REMARK SMILES IDX 20 25 25 26 23 28 18 30 19 31 21 33 27 35
REMARK H PARENT 8 19 25 27 23 29 19 32 21 34 27 36
REMARK Flexibility Score: inf
ROOT
ATOM      1  C   UNL     1      -8.852  -6.688   3.565  1.00  0.00     0.065 A 
ATOM      2  C   UNL     1      -8.984  -5.786   2.499  1.00  0.00     0.208 A 
ATOM      3  O   UNL     1      -9.418  -6.191   1.313  1.00  0.00    -0.463 OA
ATOM      4  C   UNL     1      -9.752  -7.453   1.050  1.00  0.00     0.147 A 
ATOM      5  C   UNL     1      -9.639  -8.431   2.065  1.00  0.00     0.066 A 
ATOM      6  C   UNL     1      -9.178  -8.037   3.334  1.00  0.00     0.200 A 
ATOM      7  O   UNL     1      -9.038  -8.890   4.255  1.00  0.00    -0.288 OA
ATOM      8  C   UNL     1      -9.973  -9.765   1.783  1.00  0.00     0.020 A 
ATOM      9  C   UNL     1     -10.405 -10.125   0.508  1.00  0.00     0.047 A 
ATOM     10  C   UNL     1     -10.520  -9.166  -0.504  1.00  0.00     0.125 A 
ATOM     11  C   UNL     1     -10.212  -7.811  -0.238  1.00  0.00     0.069 A 
ENDROOT
BRANCH   1  12
ATOM     12  C   UNL     1      -8.371  -6.210   4.885  1.00  0.00    -0.011 A 
ATOM     13  C   UNL     1      -8.896  -5.036   5.456  1.00  0.00     0.013 A 
ATOM     14  C   UNL     1      -8.433  -4.585   6.696  1.00  0.00     0.047 A 
ATOM     15  C   UNL     1      -7.437  -5.297   7.377  1.00  0.00     0.115 A 
ATOM     16  C   UNL     1      -7.366  -6.914   5.572  1.00  0.00     0.013 A 
ATOM     17  C   UNL     1      -6.906  -6.460   6.812  1.00  0.00     0.047 A 
BRANCH  15  18
ATOM     18  O   UNL     1      -6.969  -4.857   8.614  1.00  0.00    -0.508 OA
ATOM     19  H   UNL     1      -7.597  -4.487   9.317  1.00  0.00     0.293 HD
ENDBRANCH  15  18
ENDBRANCH   1  12
BRANCH  11  20
ATOM     20  C   UNL     1     -10.312  -6.764  -1.340  1.00  0.00     0.188 C 
ATOM     21  C   UNL     1     -10.775  -7.421  -2.659  1.00  0.00     0.179 C 
ATOM     22  O   UNL     1     -11.218  -5.748  -0.940  1.00  0.00    -0.362 OA
ATOM     23  C   UNL     1     -10.925  -6.352  -3.755  1.00  0.00     0.177 C 
ATOM     24  C   UNL     1     -11.246  -4.686  -1.879  1.00  0.00     0.176 C 
ATOM     25  C   UNL     1     -11.794  -5.191  -3.238  1.00  0.00     0.177 C 
BRANCH  21  26
ATOM     26  O   UNL     1      -9.843  -8.395  -3.060  1.00  0.00    -0.387 OA
ATOM     27  H   UNL     1      -8.978  -7.926  -3.192  1.00  0.00     0.211 HD
ENDBRANCH  21  26
BRANCH  23  28
ATOM     28  O   UNL     1      -9.653  -5.884  -4.135  1.00  0.00    -0.387 OA
ATOM     29  H   UNL     1      -9.301  -6.517  -4.812  1.00  0.00     0.211 HD
ENDBRANCH  23  28
BRANCH  24  30
ATOM     30  C   UNL     1     -12.124  -3.567  -1.296  1.00  0.00     0.191 C 
BRANCH  30  31
ATOM     31  O   UNL     1     -11.414  -2.796  -0.363  1.00  0.00    -0.394 OA
ATOM     32  H   UNL     1     -11.895  -2.880   0.501  1.00  0.00     0.210 HD
ENDBRANCH  30  31
ENDBRANCH  24  30
BRANCH  25  33
ATOM     33  O   UNL     1     -11.797  -4.157  -4.190  1.00  0.00    -0.388 OA
ATOM     34  H   UNL     1     -11.435  -4.533  -5.035  1.00  0.00     0.211 HD
ENDBRANCH  25  33
ENDBRANCH  11  20
BRANCH  10  35
ATOM     35  O   UNL     1     -10.936  -9.560  -1.776  1.00  0.00    -0.507 OA
ATOM     36  H   UNL     1     -11.041 -10.536  -2.024  1.00  0.00     0.293 HD
ENDBRANCH  10  35
TORSDOF 9
ENDMDL
MODEL 3
REMARK VINA RESULT:    -5.579      3.351      6.182
REMARK INTER + INTRA:          -7.445
REMARK INTER:                  -7.406
REMARK INTRA:                  -0.039
REMARK UNBOUND:                 0.091
REMARK SMILES O=c1c(-c2ccc(O)cc2)coc2c([C@@H]3O[C@H](CO)[C@@H](O)[C@@H](O)[C@H]3O)c(O)ccc12
REMARK SMILES IDX 3 1 11 2 12 3 13 4 30 5 2 6 1 7 29 8 28 9 26 10 14 11 4 12
REMARK SMILES IDX 5 13 6 14 7 15 10 16 9 17 8 18 15 20 24 21 16 22 22 23 17 24
REMARK SMILES IDX 20 25 25 26 23 28 18 30 19 31 21 33 27 35
REMARK H PARENT 8 19 25 27 23 29 19 32 21 34 27 36
REMARK Flexibility Score: inf
ROOT
ATOM      1  C   UNL     1      -9.788  -3.533   5.251  1.00  0.00     0.065 A 
ATOM      2  C   UNL     1     -10.390  -4.106   4.121  1.00  0.00     0.208 A 
ATOM      3  O   UNL     1     -10.012  -5.300   3.680  1.00  0.00    -0.463 OA
ATOM      4  C   UNL     1      -9.058  -6.023   4.261  1.00  0.00     0.147 A 
ATOM      5  C   UNL     1      -8.391  -5.515   5.400  1.00  0.00     0.066 A 
ATOM      6  C   UNL     1      -8.764  -4.251   5.892  1.00  0.00     0.200 A 
ATOM      7  O   UNL     1      -8.170  -3.755   6.890  1.00  0.00    -0.288 OA
ATOM      8  C   UNL     1      -7.372  -6.270   6.001  1.00  0.00     0.020 A 
ATOM      9  C   UNL     1      -7.013  -7.509   5.473  1.00  0.00     0.047 A 
ATOM     10  C   UNL     1      -7.664  -8.021   4.346  1.00  0.00     0.125 A 
ATOM     11  C   UNL     1      -8.711  -7.290   3.737  1.00  0.00     0.069 A 
ENDROOT
BRANCH   1  12
ATOM     12  C   UNL     1     -10.233  -2.200   5.730  1.00  0.00    -0.011 A 
ATOM     13  C   UNL     1     -10.261  -1.905   7.105  1.00  0.00     0.013 A 
ATOM     14  C   UNL     1     -10.689  -0.651   7.551  1.00  0.00     0.047 A 
ATOM     15  C   UNL     1     -11.101   0.321   6.630  1.00  0.00     0.115 A 
ATOM     16  C   UNL     1     -10.655  -1.221   4.813  1.00  0.00     0.013 A 
ATOM     17  C   UNL     1     -11.083   0.033   5.263  1.00  0.00     0.047 A 
BRANCH  15  18
ATOM     18  O   UNL     1     -11.529   1.574   7.063  1.00  0.00    -0.508 OA
ATOM     19  H   UNL     1     -11.574   1.807   8.048  1.00  0.00     0.293 HD
ENDBRANCH  15  18
ENDBRANCH   1  12
BRANCH  11  20
ATOM     20  C   UNL     1      -9.411  -7.828   2.496  1.00  0.00     0.188 C 
ATOM     21  C   UNL     1     -10.735  -8.521   2.890  1.00  0.00     0.179 C 
ATOM     22  O   UNL     1      -9.652  -6.761   1.593  1.00  0.00    -0.362 OA
ATOM     23  C   UNL     1     -11.464  -9.017   1.629  1.00  0.00     0.177 C 
ATOM     24  C   UNL     1     -10.187  -7.235   0.368  1.00  0.00     0.176 C 
ATOM     25  C   UNL     1     -11.579  -7.872   0.606  1.00  0.00     0.177 C 
BRANCH  21  26
ATOM     26  O   UNL     1     -10.472  -9.601   3.750  1.00  0.00    -0.387 OA
ATOM     27  H   UNL     1     -10.086  -9.217   4.580  1.00  0.00     0.211 HD
ENDBRANCH  21  26
BRANCH  23  28
ATOM     28  O   UNL     1     -10.762 -10.103   1.074  1.00  0.00    -0.387 OA
ATOM     29  H   UNL     1     -11.410 -10.619   0.527  1.00  0.00     0.211 HD
ENDBRANCH  23  28
BRANCH  24  30
ATOM     30  C   UNL     1     -10.268  -6.043  -0.600  1.00  0.00     0.191 C 
BRANCH  30  31
ATOM     31  O   UNL     1     -10.119  -6.458  -1.932  1.00  0.00    -0.394 OA
ATOM     32  H   UNL     1      -9.464  -7.203  -1.928  1.00  0.00     0.210 HD
ENDBRANCH  30  31
ENDBRANCH  24  30
BRANCH  25  33
ATOM     33  O   UNL     1     -12.109  -8.376  -0.595  1.00  0.00    -0.388 OA
ATOM     34  H   UNL     1     -12.944  -7.872  -0.784  1.00  0.00     0.211 HD
ENDBRANCH  25  33
ENDBRANCH  11  20
BRANCH  10  35
ATOM     35  O   UNL     1      -7.269  -9.254   3.828  1.00  0.00    -0.507 OA
ATOM     36  H   UNL     1      -6.761  -9.929   4.387  1.00  0.00     0.293 HD
ENDBRANCH  10  35
TORSDOF 9
ENDMDL
MODEL 4
REMARK VINA RESULT:    -5.537      2.801      5.200
REMARK INTER + INTRA:          -7.389
REMARK INTER:                  -7.724
REMARK INTRA:                   0.335
REMARK UNBOUND:                 0.091
REMARK SMILES O=c1c(-c2ccc(O)cc2)coc2c([C@@H]3O[C@H](CO)[C@@H](O)[C@@H](O)[C@H]3O)c(O)ccc12
REMARK SMILES IDX 3 1 11 2 12 3 13 4 30 5 2 6 1 7 29 8 28 9 26 10 14 11 4 12
REMARK SMILES IDX 5 13 6 14 7 15 10 16 9 17 8 18 15 20 24 21 16 22 22 23 17 24
REMARK SMILES IDX 20 25 25 26 23 28 18 30 19 31 21 33 27 35
REMARK H PARENT 8 19 25 27 23 29 19 32 21 34 27 36
REMARK Flexibility Score: inf
ROOT
ATOM      1  C   UNL     1      -9.781  -4.301   4.441  1.00  0.00     0.065 A 
ATOM      2  C   UNL     1     -10.314  -4.609   3.182  1.00  0.00     0.208 A 
ATOM      3  O   UNL     1     -10.053  -5.772   2.597  1.00  0.00    -0.463 OA
ATOM      4  C   UNL     1      -9.283  -6.708   3.147  1.00  0.00     0.147 A 
ATOM      5  C   UNL     1      -8.696  -6.475   4.412  1.00  0.00     0.066 A 
ATOM      6  C   UNL     1      -8.949  -5.252   5.059  1.00  0.00     0.200 A 
ATOM      7  O   UNL     1      -8.417  -4.999   6.177  1.00  0.00    -0.288 OA
ATOM      8  C   UNL     1      -7.869  -7.455   4.984  1.00  0.00     0.020 A 
ATOM      9  C   UNL     1      -7.622  -8.647   4.306  1.00  0.00     0.047 A 
ATOM     10  C   UNL     1      -8.197  -8.887   3.053  1.00  0.00     0.125 A 
ATOM     11  C   UNL     1      -9.053  -7.926   2.466  1.00  0.00     0.069 A 
ENDROOT
BRANCH   1  12
ATOM     12  C   UNL     1     -10.094  -2.997   5.079  1.00  0.00    -0.011 A 
ATOM     13  C   UNL     1      -9.816  -2.780   6.440  1.00  0.00     0.013 A 
ATOM     14  C   UNL     1     -10.122  -1.553   7.038  1.00  0.00     0.047 A 
ATOM     15  C   UNL     1     -10.712  -0.531   6.284  1.00  0.00     0.115 A 
ATOM     16  C   UNL     1     -10.693  -1.968   4.332  1.00  0.00     0.013 A 
ATOM     17  C   UNL     1     -10.997  -0.742   4.932  1.00  0.00     0.047 A 
BRANCH  15  18
ATOM     18  O   UNL     1     -11.020   0.696   6.869  1.00  0.00    -0.508 OA
ATOM     19  H   UNL     1     -11.018   1.555   6.331  1.00  0.00     0.293 HD
ENDBRANCH  15  18
ENDBRANCH   1  12
BRANCH  11  20
ATOM     20  C   UNL     1      -9.665  -8.169   1.093  1.00  0.00     0.188 C 
ATOM     21  C   UNL     1     -11.029  -8.881   1.236  1.00  0.00     0.179 C 
ATOM     22  O   UNL     1      -9.814  -6.929   0.420  1.00  0.00    -0.362 OA
ATOM     23  C   UNL     1     -11.668  -9.078  -0.150  1.00  0.00     0.177 C 
ATOM     24  C   UNL     1     -10.262  -7.118  -0.912  1.00  0.00     0.176 C 
ATOM     25  C   UNL     1     -11.681  -7.741  -0.914  1.00  0.00     0.177 C 
BRANCH  21  26
ATOM     26  O   UNL     1     -10.854 -10.125   1.867  1.00  0.00    -0.387 OA
ATOM     27  H   UNL     1     -11.544 -10.185   2.578  1.00  0.00     0.211 HD
ENDBRANCH  21  26
BRANCH  23  28
ATOM     28  O   UNL     1     -10.946 -10.049  -0.868  1.00  0.00    -0.387 OA
ATOM     29  H   UNL     1      -9.996  -9.763  -0.868  1.00  0.00     0.211 HD
ENDBRANCH  23  28
BRANCH  24  30
ATOM     30  C   UNL     1     -10.244  -5.749  -1.612  1.00  0.00     0.191 C 
BRANCH  30  31
ATOM     31  O   UNL     1      -9.874  -5.870  -2.959  1.00  0.00    -0.394 OA
ATOM     32  H   UNL     1      -8.891  -6.008  -2.974  1.00  0.00     0.210 HD
ENDBRANCH  30  31
ENDBRANCH  24  30
BRANCH  25  33
ATOM     33  O   UNL     1     -12.125  -7.965  -2.229  1.00  0.00    -0.388 OA
ATOM     34  H   UNL     1     -11.341  -7.851  -2.828  1.00  0.00     0.211 HD
ENDBRANCH  25  33
ENDBRANCH  11  20
BRANCH  10  35
ATOM     35  O   UNL     1      -7.915 -10.081   2.388  1.00  0.00    -0.507 OA
ATOM     36  H   UNL     1      -7.107 -10.645   2.625  1.00  0.00     0.293 HD
ENDBRANCH  10  35
TORSDOF 9
ENDMDL
MODEL 5
REMARK VINA RESULT:    -5.309      2.011      8.709
REMARK INTER + INTRA:          -7.080
REMARK INTER:                  -8.486
REMARK INTRA:                   1.406
REMARK UNBOUND:                 0.091
REMARK SMILES O=c1c(-c2ccc(O)cc2)coc2c([C@@H]3O[C@H](CO)[C@@H](O)[C@@H](O)[C@H]3O)c(O)ccc12
REMARK SMILES IDX 3 1 11 2 12 3 13 4 30 5 2 6 1 7 29 8 28 9 26 10 14 11 4 12
REMARK SMILES IDX 5 13 6 14 7 15 10 16 9 17 8 18 15 20 24 21 16 22 22 23 17 24
REMARK SMILES IDX 20 25 25 26 23 28 18 30 19 31 21 33 27 35
REMARK H PARENT 8 19 25 27 23 29 19 32 21 34 27 36
REMARK Flexibility Score: inf
ROOT
ATOM      1  C   UNL     1     -10.344  -6.568  -0.341  1.00  0.00     0.065 A 
ATOM      2  C   UNL     1     -10.198  -5.695   0.746  1.00  0.00     0.208 A 
ATOM      3  O   UNL     1      -9.776  -6.138   1.924  1.00  0.00    -0.463 OA
ATOM      4  C   UNL     1      -9.467  -7.412   2.156  1.00  0.00     0.147 A 
ATOM      5  C   UNL     1      -9.596  -8.363   1.116  1.00  0.00     0.066 A 
ATOM      6  C   UNL     1     -10.044  -7.928  -0.144  1.00  0.00     0.200 A 
ATOM      7  O   UNL     1     -10.198  -8.755  -1.086  1.00  0.00    -0.288 OA
ATOM      8  C   UNL     1      -9.287  -9.709   1.366  1.00  0.00     0.020 A 
ATOM      9  C   UNL     1      -8.866 -10.109   2.633  1.00  0.00     0.047 A 
ATOM     10  C   UNL     1      -8.737  -9.177   3.669  1.00  0.00     0.125 A 
ATOM     11  C   UNL     1      -9.018  -7.811   3.436  1.00  0.00     0.069 A 
ENDROOT
BRANCH   1  12
ATOM     12  C   UNL     1     -10.812  -6.048  -1.650  1.00  0.00    -0.011 A 
ATOM     13  C   UNL     1     -10.431  -6.678  -2.849  1.00  0.00     0.013 A 
ATOM     14  C   UNL     1     -10.867  -6.178  -4.081  1.00  0.00     0.047 A 
ATOM     15  C   UNL     1     -11.683  -5.040  -4.129  1.00  0.00     0.115 A 
ATOM     16  C   UNL     1     -11.625  -4.902  -1.709  1.00  0.00     0.013 A 
ATOM     17  C   UNL     1     -12.059  -4.405  -2.942  1.00  0.00     0.047 A 
BRANCH  15  18
ATOM     18  O   UNL     1     -12.123  -4.533  -5.350  1.00  0.00    -0.508 OA
ATOM     19  H   UNL     1     -11.477  -4.324  -6.101  1.00  0.00     0.293 HD
ENDBRANCH  15  18
ENDBRANCH   1  12
BRANCH  11  20
ATOM     20  C   UNL     1      -8.902  -6.793   4.564  1.00  0.00     0.188 C 
ATOM     21  C   UNL     1      -7.419  -6.597   4.953  1.00  0.00     0.179 C 
ATOM     22  O   UNL     1      -9.479  -5.565   4.148  1.00  0.00    -0.362 OA
ATOM     23  C   UNL     1      -7.303  -5.530   6.056  1.00  0.00     0.177 C 
ATOM     24  C   UNL     1      -9.509  -4.627   5.210  1.00  0.00     0.176 C 
ATOM     25  C   UNL     1      -8.065  -4.259   5.638  1.00  0.00     0.177 C 
BRANCH  21  26
ATOM     26  O   UNL     1      -6.879  -7.814   5.401  1.00  0.00    -0.387 OA
ATOM     27  H   UNL     1      -7.568  -8.240   5.974  1.00  0.00     0.211 HD
ENDBRANCH  21  26
BRANCH  23  28
ATOM     28  O   UNL     1      -7.819  -6.039   7.262  1.00  0.00    -0.387 OA
ATOM     29  H   UNL     1      -7.251  -5.684   7.994  1.00  0.00     0.211 HD
ENDBRANCH  23  28
BRANCH  24  30
ATOM     30  C   UNL     1     -10.286  -3.392   4.723  1.00  0.00     0.191 C 
BRANCH  30  31
ATOM     31  O   UNL     1     -10.446  -3.408   3.330  1.00  0.00    -0.394 OA
ATOM     32  H   UNL     1     -11.421  -3.355   3.154  1.00  0.00     0.210 HD
ENDBRANCH  30  31
ENDBRANCH  24  30
BRANCH  25  33
ATOM     33  O   UNL     1      -8.078  -3.354   6.713  1.00  0.00    -0.388 OA
ATOM     34  H   UNL     1      -7.395  -3.661   7.365  1.00  0.00     0.211 HD
ENDBRANCH  25  33
ENDBRANCH  11  20
BRANCH  10  35
ATOM     35  O   UNL     1      -8.333  -9.611   4.932  1.00  0.00    -0.507 OA
ATOM     36  H   UNL     1      -7.519  -9.223   5.394  1.00  0.00     0.293 HD
ENDBRANCH  10  35
TORSDOF 9
ENDMDL
MODEL 6
REMARK VINA RESULT:    -5.030      2.520      9.489
REMARK INTER + INTRA:          -6.704
REMARK INTER:                  -7.007
REMARK INTRA:                   0.304
REMARK UNBOUND:                 0.091
REMARK SMILES O=c1c(-c2ccc(O)cc2)coc2c([C@@H]3O[C@H](CO)[C@@H](O)[C@@H](O)[C@H]3O)c(O)ccc12
REMARK SMILES IDX 3 1 11 2 12 3 13 4 30 5 2 6 1 7 29 8 28 9 26 10 14 11 4 12
REMARK SMILES IDX 5 13 6 14 7 15 10 16 9 17 8 18 15 20 24 21 16 22 22 23 17 24
REMARK SMILES IDX 20 25 25 26 23 28 18 30 19 31 21 33 27 35
REMARK H PARENT 8 19 25 27 23 29 19 32 21 34 27 36
REMARK Flexibility Score: inf
ROOT
ATOM      1  C   UNL     1      -9.891  -6.710   1.813  1.00  0.00     0.065 A 
ATOM      2  C   UNL     1      -9.394  -7.233   3.015  1.00  0.00     0.208 A 
ATOM      3  O   UNL     1      -9.258  -6.465   4.089  1.00  0.00    -0.463 OA
ATOM      4  C   UNL     1      -9.575  -5.172   4.104  1.00  0.00     0.147 A 
ATOM      5  C   UNL     1     -10.075  -4.561   2.931  1.00  0.00     0.066 A 
ATOM      6  C   UNL     1     -10.228  -5.345   1.774  1.00  0.00     0.200 A 
ATOM      7  O   UNL     1     -10.645  -4.825   0.701  1.00  0.00    -0.288 OA
ATOM      8  C   UNL     1     -10.393  -3.193   2.944  1.00  0.00     0.020 A 
ATOM      9  C   UNL     1     -10.208  -2.441   4.102  1.00  0.00     0.047 A 
ATOM     10  C   UNL     1      -9.713  -3.035   5.268  1.00  0.00     0.125 A 
ATOM     11  C   UNL     1      -9.409  -4.417   5.288  1.00  0.00     0.069 A 
ENDROOT
BRANCH   1  12
ATOM     12  C   UNL     1     -10.041  -7.591   0.628  1.00  0.00    -0.011 A 
ATOM     13  C   UNL     1     -10.488  -7.071  -0.600  1.00  0.00     0.013 A 
ATOM     14  C   UNL     1     -10.636  -7.908  -1.711  1.00  0.00     0.047 A 
ATOM     15  C   UNL     1     -10.344  -9.274  -1.607  1.00  0.00     0.115 A 
ATOM     16  C   UNL     1      -9.758  -8.965   0.725  1.00  0.00     0.013 A 
ATOM     17  C   UNL     1      -9.906  -9.799  -0.388  1.00  0.00     0.047 A 
BRANCH  15  18
ATOM     18  O   UNL     1     -10.487 -10.117  -2.707  1.00  0.00    -0.508 OA
ATOM     19  H   UNL     1     -10.911 -11.033  -2.622  1.00  0.00     0.293 HD
ENDBRANCH  15  18
ENDBRANCH   1  12
BRANCH  11  20
ATOM     20  C   UNL     1      -8.848  -5.067   6.546  1.00  0.00     0.188 C 
ATOM     21  C   UNL     1      -7.312  -5.203   6.436  1.00  0.00     0.179 C 
ATOM     22  O   UNL     1      -9.203  -4.287   7.676  1.00  0.00    -0.362 OA
ATOM     23  C   UNL     1      -6.744  -5.812   7.729  1.00  0.00     0.177 C 
ATOM     24  C   UNL     1      -8.812  -4.921   8.882  1.00  0.00     0.176 C 
ATOM     25  C   UNL     1      -7.268  -5.032   8.949  1.00  0.00     0.177 C 
BRANCH  21  26
ATOM     26  O   UNL     1      -6.982  -6.014   5.336  1.00  0.00    -0.387 OA
ATOM     27  H   UNL     1      -7.481  -5.655   4.556  1.00  0.00     0.211 HD
ENDBRANCH  21  26
BRANCH  23  28
ATOM     28  O   UNL     1      -7.116  -7.167   7.816  1.00  0.00    -0.387 OA
ATOM     29  H   UNL     1      -6.313  -7.669   8.111  1.00  0.00     0.211 HD
ENDBRANCH  23  28
BRANCH  24  30
ATOM     30  C   UNL     1      -9.371  -4.092  10.051  1.00  0.00     0.191 C 
BRANCH  30  31
ATOM     31  O   UNL     1      -9.748  -2.808   9.630  1.00  0.00    -0.394 OA
ATOM     32  H   UNL     1     -10.189  -2.372  10.404  1.00  0.00     0.210 HD
ENDBRANCH  30  31
ENDBRANCH  24  30
BRANCH  25  33
ATOM     33  O   UNL     1      -6.865  -5.689  10.125  1.00  0.00    -0.388 OA
ATOM     34  H   UNL     1      -6.494  -6.570   9.858  1.00  0.00     0.211 HD
ENDBRANCH  25  33
ENDBRANCH  11  20
BRANCH  10  35
ATOM     35  O   UNL     1      -9.520  -2.252   6.406  1.00  0.00    -0.507 OA
ATOM     36  H   UNL     1      -9.309  -2.664   7.307  1.00  0.00     0.293 HD
ENDBRANCH  10  35
TORSDOF 9
ENDMDL
MODEL 7
REMARK VINA RESULT:    -4.483      1.883      3.717
REMARK INTER + INTRA:          -5.965
REMARK INTER:                  -7.459
REMARK INTRA:                   1.494
REMARK UNBOUND:                 0.091
REMARK SMILES O=c1c(-c2ccc(O)cc2)coc2c([C@@H]3O[C@H](CO)[C@@H](O)[C@@H](O)[C@H]3O)c(O)ccc12
REMARK SMILES IDX 3 1 11 2 12 3 13 4 30 5 2 6 1 7 29 8 28 9 26 10 14 11 4 12
REMARK SMILES IDX 5 13 6 14 7 15 10 16 9 17 8 18 15 20 24 21 16 22 22 23 17 24
REMARK SMILES IDX 20 25 25 26 23 28 18 30 19 31 21 33 27 35
REMARK H PARENT 8 19 25 27 23 29 19 32 21 34 27 36
REMARK Flexibility Score: inf
ROOT
ATOM      1  C   UNL     1      -9.233  -6.593   3.624  1.00  0.00     0.065 A 
ATOM      2  C   UNL     1      -9.373  -5.746   2.516  1.00  0.00     0.208 A 
ATOM      3  O   UNL     1      -9.950  -6.174   1.400  1.00  0.00    -0.463 OA
ATOM      4  C   UNL     1     -10.426  -7.408   1.252  1.00  0.00     0.147 A 
ATOM      5  C   UNL     1     -10.317  -8.331   2.318  1.00  0.00     0.066 A 
ATOM      6  C   UNL     1      -9.708  -7.912   3.514  1.00  0.00     0.200 A 
ATOM      7  O   UNL     1      -9.568  -8.719   4.476  1.00  0.00    -0.288 OA
ATOM      8  C   UNL     1     -10.803  -9.638   2.155  1.00  0.00     0.020 A 
ATOM      9  C   UNL     1     -11.381 -10.026   0.948  1.00  0.00     0.047 A 
ATOM     10  C   UNL     1     -11.493  -9.121  -0.113  1.00  0.00     0.125 A 
ATOM     11  C   UNL     1     -11.033  -7.792   0.034  1.00  0.00     0.069 A 
ENDROOT
BRANCH   1  12
ATOM     12  C   UNL     1      -8.591  -6.089   4.864  1.00  0.00    -0.011 A 
ATOM     13  C   UNL     1      -9.093  -4.949   5.519  1.00  0.00     0.013 A 
ATOM     14  C   UNL     1      -8.479  -4.474   6.682  1.00  0.00     0.047 A 
ATOM     15  C   UNL     1      -7.354  -5.127   7.201  1.00  0.00     0.115 A 
ATOM     16  C   UNL     1      -7.457  -6.734   5.389  1.00  0.00     0.013 A 
ATOM     17  C   UNL     1      -6.846  -6.256   6.552  1.00  0.00     0.047 A 
BRANCH  15  18
ATOM     18  O   UNL     1      -6.734  -4.662   8.360  1.00  0.00    -0.508 OA
ATOM     19  H   UNL     1      -5.771  -4.892   8.575  1.00  0.00     0.293 HD
ENDBRANCH  15  18
ENDBRANCH   1  12
BRANCH  11  20
ATOM     20  C   UNL     1     -11.130  -6.806  -1.124  1.00  0.00     0.188 C 
ATOM     21  C   UNL     1     -10.733  -5.389  -0.651  1.00  0.00     0.179 C 
ATOM     22  O   UNL     1     -10.286  -7.239  -2.179  1.00  0.00    -0.362 OA
ATOM     23  C   UNL     1     -10.781  -4.408  -1.835  1.00  0.00     0.177 C 
ATOM     24  C   UNL     1     -10.441  -6.422  -3.327  1.00  0.00     0.176 C 
ATOM     25  C   UNL     1      -9.977  -4.976  -3.019  1.00  0.00     0.177 C 
BRANCH  21  26
ATOM     26  O   UNL     1     -11.606  -4.963   0.365  1.00  0.00    -0.387 OA
ATOM     27  H   UNL     1     -11.039  -4.613   1.101  1.00  0.00     0.211 HD
ENDBRANCH  21  26
BRANCH  23  28
ATOM     28  O   UNL     1     -12.120  -4.187  -2.211  1.00  0.00    -0.387 OA
ATOM     29  H   UNL     1     -12.455  -3.434  -1.658  1.00  0.00     0.211 HD
ENDBRANCH  23  28
BRANCH  24  30
ATOM     30  C   UNL     1      -9.617  -7.050  -4.464  1.00  0.00     0.191 C 
BRANCH  30  31
ATOM     31  O   UNL     1      -9.845  -6.392  -5.682  1.00  0.00    -0.394 OA
ATOM     32  H   UNL     1     -10.694  -6.755  -6.047  1.00  0.00     0.210 HD
ENDBRANCH  30  31
ENDBRANCH  24  30
BRANCH  25  33
ATOM     33  O   UNL     1     -10.155  -4.145  -4.139  1.00  0.00    -0.388 OA
ATOM     34  H   UNL     1     -10.944  -4.485  -4.636  1.00  0.00     0.211 HD
ENDBRANCH  25  33
ENDBRANCH  11  20
BRANCH  10  35
ATOM     35  O   UNL     1     -12.058  -9.545  -1.317  1.00  0.00    -0.507 OA
ATOM     36  H   UNL     1     -12.177 -10.527  -1.533  1.00  0.00     0.293 HD
ENDBRANCH  10  35
TORSDOF 9
ENDMDL
