MODEL 1
REMARK VINA RESULT:    -2.934      0.000      0.000
REMARK INTER + INTRA:          -4.119
REMARK INTER:                  -3.791
REMARK INTRA:                  -0.328
REMARK UNBOUND:                -0.328
REMARK SMILES CCCCCCC(C)=O
REMARK SMILES IDX 4 1 3 2 2 3 1 4 5 5 6 6 7 7 9 8 8 9
REMARK H PARENT
REMARK Flexibility Score: inf
ROOT
ATOM      1  C   UNL     1     167.092 167.217 169.020  1.00  0.00     0.000 C 
ENDROOT
BRANCH   1   2
ATOM      2  C   UNL     1     166.014 167.585 167.984  1.00  0.00    -0.000 C 
BRANCH   2   3
ATOM      3  C   UNL     1     164.597 167.222 168.455  1.00  0.00    -0.003 C 
ATOM      4  C   UNL     1     164.595 166.429 169.762  1.00  0.00     0.004 C 
ENDBRANCH   2   3
ENDBRANCH   1   2
BRANCH   1   5
ATOM      5  C   UNL     1     168.245 166.402 168.411  1.00  0.00     0.008 C 
BRANCH   5   6
ATOM      6  C   UNL     1     167.783 165.036 167.875  1.00  0.00     0.075 C 
BRANCH   6   7
ATOM      7  C   UNL     1     168.377 163.849 168.601  1.00  0.00     0.129 C 
ATOM      8  O   UNL     1     168.338 162.757 168.055  1.00  0.00    -0.300 OA
ATOM      9  C   UNL     1     169.011 163.952 169.961  1.00  0.00     0.087 C 
ENDBRANCH   6   7
ENDBRANCH   5   6
ENDBRANCH   1   5
TORSDOF 5
ENDMDL
MODEL 2
REMARK VINA RESULT:    -2.921      3.634      4.867
REMARK INTER + INTRA:          -4.103
REMARK INTER:                  -3.562
REMARK INTRA:                  -0.541
REMARK UNBOUND:                -0.328
REMARK SMILES CCCCCCC(C)=O
REMARK SMILES IDX 4 1 3 2 2 3 1 4 5 5 6 6 7 7 9 8 8 9
REMARK H PARENT
REMARK Flexibility Score: inf
ROOT
ATOM      1  C   UNL     1     169.189 167.215 169.042  1.00  0.00     0.000 C 
ENDROOT
BRANCH   1   2
ATOM      2  C   UNL     1     168.160 166.847 167.960  1.00  0.00    -0.000 C 
BRANCH   2   3
ATOM      3  C   UNL     1     166.833 166.348 168.555  1.00  0.00    -0.003 C 
ATOM      4  C   UNL     1     165.631 167.169 168.090  1.00  0.00     0.004 C 
ENDBRANCH   2   3
ENDBRANCH   1   2
BRANCH   1   5
ATOM      5  C   UNL     1     169.565 168.706 169.020  1.00  0.00     0.008 C 
BRANCH   5   6
ATOM      6  C   UNL     1     168.738 169.508 167.999  1.00  0.00     0.075 C 
BRANCH   6   7
ATOM      7  C   UNL     1     167.756 170.479 168.617  1.00  0.00     0.129 C 
ATOM      8  O   UNL     1     167.568 171.548 168.057  1.00  0.00    -0.300 OA
ATOM      9  C   UNL     1     167.002 170.187 169.886  1.00  0.00     0.087 C 
ENDBRANCH   6   7
ENDBRANCH   5   6
ENDBRANCH   1   5
TORSDOF 5
ENDMDL
MODEL 3
REMARK VINA RESULT:    -2.900      4.676      6.460
REMARK INTER + INTRA:          -4.077
REMARK INTER:                  -3.792
REMARK INTRA:                  -0.284
REMARK UNBOUND:                -0.328
REMARK SMILES CCCCCCC(C)=O
REMARK SMILES IDX 4 1 3 2 2 3 1 4 5 5 6 6 7 7 9 8 8 9
REMARK H PARENT
REMARK Flexibility Score: inf
ROOT
ATOM      1  C   UNL     1     170.016 167.792 168.900  1.00  0.00     0.000 C 
ENDROOT
BRANCH   1   2
ATOM      2  C   UNL     1     170.685 168.772 169.879  1.00  0.00    -0.000 C 
BRANCH   2   3
ATOM      3  C   UNL     1     172.125 169.121 169.470  1.00  0.00    -0.003 C 
ATOM      4  C   UNL     1     172.881 169.879 170.560  1.00  0.00     0.004 C 
ENDBRANCH   2   3
ENDBRANCH   1   2
BRANCH   1   5
ATOM      5  C   UNL     1     168.624 168.264 168.448  1.00  0.00     0.008 C 
BRANCH   5   6
ATOM      6  C   UNL     1     168.629 169.717 167.941  1.00  0.00     0.075 C 
BRANCH   6   7
ATOM      7  C   UNL     1     167.608 170.614 168.605  1.00  0.00     0.129 C 
ATOM      8  O   UNL     1     167.347 171.684 168.078  1.00  0.00    -0.300 OA
ATOM      9  C   UNL     1     166.901 170.247 169.882  1.00  0.00     0.087 C 
ENDBRANCH   6   7
ENDBRANCH   5   6
ENDBRANCH   1   5
TORSDOF 5
ENDMDL
MODEL 4
REMARK VINA RESULT:    -2.877      3.124      4.838
REMARK INTER + INTRA:          -4.046
REMARK INTER:                  -3.597
REMARK INTRA:                  -0.449
REMARK UNBOUND:                -0.328
REMARK SMILES CCCCCCC(C)=O
REMARK SMILES IDX 4 1 3 2 2 3 1 4 5 5 6 6 7 7 9 8 8 9
REMARK H PARENT
REMARK Flexibility Score: inf
ROOT
ATOM      1  C   UNL     1     168.715 169.887 167.875  1.00  0.00     0.000 C 
ENDROOT
BRANCH   1   2
ATOM      2  C   UNL     1     169.448 168.849 168.742  1.00  0.00    -0.000 C 
BRANCH   2   3
ATOM      3  C   UNL     1     170.127 167.755 167.902  1.00  0.00    -0.003 C 
ATOM      4  C   UNL     1     169.550 166.365 168.166  1.00  0.00     0.004 C 
ENDBRANCH   2   3
ENDBRANCH   1   2
BRANCH   1   5
ATOM      5  C   UNL     1     167.258 170.105 168.318  1.00  0.00     0.008 C 
BRANCH   5   6
ATOM      6  C   UNL     1     166.738 168.969 169.216  1.00  0.00     0.075 C 
BRANCH   6   7
ATOM      7  C   UNL     1     165.659 168.118 168.584  1.00  0.00     0.129 C 
ATOM      8  O   UNL     1     164.630 168.665 168.218  1.00  0.00    -0.300 OA
ATOM      9  C   UNL     1     165.796 166.633 168.385  1.00  0.00     0.087 C 
ENDBRANCH   6   7
ENDBRANCH   5   6
ENDBRANCH   1   5
TORSDOF 5
ENDMDL
MODEL 5
REMARK VINA RESULT:    -2.857      3.630      5.185
REMARK INTER + INTRA:          -4.020
REMARK INTER:                  -3.559
REMARK INTRA:                  -0.461
REMARK UNBOUND:                -0.328
REMARK SMILES CCCCCCC(C)=O
REMARK SMILES IDX 4 1 3 2 2 3 1 4 5 5 6 6 7 7 9 8 8 9
REMARK H PARENT
REMARK Flexibility Score: inf
ROOT
ATOM      1  C   UNL     1     165.387 167.473 168.959  1.00  0.00     0.000 C 
ENDROOT
BRANCH   1   2
ATOM      2  C   UNL     1     166.323 167.308 170.169  1.00  0.00    -0.000 C 
BRANCH   2   3
ATOM      3  C   UNL     1     167.253 166.092 170.031  1.00  0.00    -0.003 C 
ATOM      4  C   UNL     1     168.478 166.381 169.165  1.00  0.00     0.004 C 
ENDBRANCH   2   3
ENDBRANCH   1   2
BRANCH   1   5
ATOM      5  C   UNL     1     165.672 168.756 168.161  1.00  0.00     0.008 C 
BRANCH   5   6
ATOM      6  C   UNL     1     166.251 169.880 169.038  1.00  0.00     0.075 C 
BRANCH   6   7
ATOM      7  C   UNL     1     167.432 170.603 168.428  1.00  0.00     0.129 C 
ATOM      8  O   UNL     1     167.316 171.792 168.175  1.00  0.00    -0.300 OA
ATOM      9  C   UNL     1     168.738 169.924 168.119  1.00  0.00     0.087 C 
ENDBRANCH   6   7
ENDBRANCH   5   6
ENDBRANCH   1   5
TORSDOF 5
ENDMDL
MODEL 6
REMARK VINA RESULT:    -2.825      2.638      4.515
REMARK INTER + INTRA:          -3.979
REMARK INTER:                  -3.538
REMARK INTRA:                  -0.441
REMARK UNBOUND:                -0.328
REMARK SMILES CCCCCCC(C)=O
REMARK SMILES IDX 4 1 3 2 2 3 1 4 5 5 6 6 7 7 9 8 8 9
REMARK H PARENT
REMARK Flexibility Score: inf
ROOT
ATOM      1  C   UNL     1     168.526 165.664 168.315  1.00  0.00     0.000 C 
ENDROOT
BRANCH   1   2
ATOM      2  C   UNL     1     169.639 166.726 168.358  1.00  0.00    -0.000 C 
BRANCH   2   3
ATOM      3  C   UNL     1     169.417 167.765 169.468  1.00  0.00    -0.003 C 
ATOM      4  C   UNL     1     169.568 169.202 168.970  1.00  0.00     0.004 C 
ENDBRANCH   2   3
ENDBRANCH   1   2
BRANCH   1   5
ATOM      5  C   UNL     1     167.213 166.157 168.945  1.00  0.00     0.008 C 
BRANCH   5   6
ATOM      6  C   UNL     1     166.061 166.231 167.927  1.00  0.00     0.075 C 
BRANCH   6   7
ATOM      7  C   UNL     1     165.264 167.515 167.979  1.00  0.00     0.129 C 
ATOM      8  O   UNL     1     164.049 167.448 167.876  1.00  0.00    -0.300 OA
ATOM      9  C   UNL     1     165.899 168.868 168.153  1.00  0.00     0.087 C 
ENDBRANCH   6   7
ENDBRANCH   5   6
ENDBRANCH   1   5
TORSDOF 5
ENDMDL
MODEL 7
REMARK VINA RESULT:    -2.825      2.676      3.538
REMARK INTER + INTRA:          -3.979
REMARK INTER:                  -3.455
REMARK INTRA:                  -0.523
REMARK UNBOUND:                -0.328
REMARK SMILES CCCCCCC(C)=O
REMARK SMILES IDX 4 1 3 2 2 3 1 4 5 5 6 6 7 7 9 8 8 9
REMARK H PARENT
REMARK Flexibility Score: inf
ROOT
ATOM      1  C   UNL     1     166.622 167.058 168.895  1.00  0.00     0.000 C 
ENDROOT
BRANCH   1   2
ATOM      2  C   UNL     1     166.426 168.531 169.294  1.00  0.00    -0.000 C 
BRANCH   2   3
ATOM      3  C   UNL     1     166.574 169.488 168.100  1.00  0.00    -0.003 C 
ATOM      4  C   UNL     1     167.664 170.537 168.316  1.00  0.00     0.004 C 
ENDBRANCH   2   3
ENDBRANCH   1   2
BRANCH   1   5
ATOM      5  C   UNL     1     167.973 166.493 169.364  1.00  0.00     0.008 C 
BRANCH   5   6
ATOM      6  C   UNL     1     169.055 166.567 168.272  1.00  0.00     0.075 C 
BRANCH   6   7
ATOM      7  C   UNL     1     170.245 167.430 168.630  1.00  0.00     0.129 C 
ATOM      8  O   UNL     1     171.230 167.386 167.910  1.00  0.00    -0.300 OA
ATOM      9  C   UNL     1     170.269 168.336 169.830  1.00  0.00     0.087 C 
ENDBRANCH   6   7
ENDBRANCH   5   6
ENDBRANCH   1   5
TORSDOF 5
ENDMDL
MODEL 8
REMARK VINA RESULT:    -2.807      1.572      2.767
REMARK INTER + INTRA:          -3.955
REMARK INTER:                  -3.527
REMARK INTRA:                  -0.428
REMARK UNBOUND:                -0.328
REMARK SMILES CCCCCCC(C)=O
REMARK SMILES IDX 4 1 3 2 2 3 1 4 5 5 6 6 7 7 9 8 8 9
REMARK H PARENT
REMARK Flexibility Score: inf
ROOT
ATOM      1  C   UNL     1     166.735 167.951 168.572  1.00  0.00     0.000 C 
ENDROOT
BRANCH   1   2
ATOM      2  C   UNL     1     168.047 168.352 167.876  1.00  0.00    -0.000 C 
BRANCH   2   3
ATOM      3  C   UNL     1     169.016 169.080 168.821  1.00  0.00    -0.003 C 
ATOM      4  C   UNL     1     170.251 168.244 169.158  1.00  0.00     0.004 C 
ENDBRANCH   2   3
ENDBRANCH   1   2
BRANCH   1   5
ATOM      5  C   UNL     1     166.535 166.427 168.625  1.00  0.00     0.008 C 
BRANCH   5   6
ATOM      6  C   UNL     1     167.638 165.661 167.875  1.00  0.00     0.075 C 
BRANCH   6   7
ATOM      7  C   UNL     1     168.145 164.432 168.597  1.00  0.00     0.129 C 
ATOM      8  O   UNL     1     168.017 163.346 168.053  1.00  0.00    -0.300 OA
ATOM      9  C   UNL     1     168.798 164.487 169.952  1.00  0.00     0.087 C 
ENDBRANCH   6   7
ENDBRANCH   5   6
ENDBRANCH   1   5
TORSDOF 5
ENDMDL
