MODEL 1
REMARK VINA RESULT:    -0.003      0.000      0.000
REMARK INTER + INTRA:          -0.250
REMARK INTER:                  -0.004
REMARK INTRA:                  -0.246
REMARK UNBOUND:                -0.246
REMARK SMILES C[C@@H]1[C@@H](C)CC[C@@]2(C(=O)[O-])CC[C@]3(C)C(=CC[C@@H]4[C@@]5(C)CC[C@H](O)C(C)(C)[C@@H]5CC[C@@]43C)[C@@H]12
REMARK SMILES IDX 7 1 6 2 11 3 33 4 5 5 12 6 15 7 2 8 3 9 13 10 16 11 1 12
REMARK SMILES IDX 4 13 14 14 31 15 17 16 18 17 30 18 32 19 19 20 29 21 28 22
REMARK SMILES IDX 21 23 20 24 25 25 22 26 23 27 26 28 27 29 8 30 9 31 10 32
REMARK SMILES IDX 24 33
REMARK H PARENT 24 34
REMARK Flexibility Score: inf
ROOT
ATOM      1  C   UNL     1       5.458  22.521  50.296  1.00  0.00     0.017 C 
ATOM      2  C   UNL     1       6.609  22.380  51.349  1.00  0.00     0.014 C 
ATOM      3  C   UNL     1       4.889  23.953  50.418  1.00  0.00     0.014 C 
ATOM      4  C   UNL     1       5.980  22.322  48.828  1.00  0.00     0.030 C 
ATOM      5  C   UNL     1       7.774  21.539  50.832  1.00  0.00     0.004 C 
ATOM      6  C   UNL     1       3.687  24.233  49.517  1.00  0.00     0.013 C 
ATOM      7  C   UNL     1       4.969  22.803  47.765  1.00  0.00    -0.063 C 
ATOM      8  C   UNL     1       7.421  22.947  48.680  1.00  0.00    -0.003 C 
ATOM      9  C   UNL     1       8.447  22.213  49.613  1.00  0.00    -0.011 C 
ATOM     10  C   UNL     1       3.696  23.610  48.062  1.00  0.00    -0.006 C 
ATOM     11  C   UNL     1       5.097  22.317  46.522  1.00  0.00    -0.027 C 
ATOM     12  C   UNL     1       7.971  22.965  47.240  1.00  0.00     0.008 C 
ATOM     13  C   UNL     1       9.560  23.170  50.079  1.00  0.00     0.008 C 
ATOM     14  C   UNL     1       2.517  22.579  48.002  1.00  0.00     0.017 C 
ATOM     15  C   UNL     1       3.493  24.748  46.943  1.00  0.00    -0.020 C 
ATOM     16  C   UNL     1       4.614  23.049  45.311  1.00  0.00     0.032 C 
ATOM     17  C   UNL     1       3.477  24.119  45.474  1.00  0.00     0.006 C 
ATOM     18  C   UNL     1       4.674  25.798  47.040  1.00  0.00     0.008 C 
ATOM     19  C   UNL     1       2.104  25.446  47.229  1.00  0.00     0.012 C 
ATOM     20  C   UNL     1       3.443  25.193  44.249  1.00  0.00    -0.025 C 
ATOM     21  C   UNL     1       5.125  26.444  45.703  1.00  0.00     0.005 C 
ATOM     22  C   UNL     1       3.928  26.599  44.749  1.00  0.00     0.003 C 
ATOM     23  C   UNL     1       1.992  25.402  43.719  1.00  0.00     0.010 C 
ATOM     24  C   UNL     1       4.286  24.665  43.034  1.00  0.00     0.012 C 
ATOM     25  C   UNL     1       3.937  27.775  43.698  1.00  0.00    -0.006 C 
ATOM     26  C   UNL     1       1.875  26.517  42.648  1.00  0.00     0.033 C 
ATOM     27  C   UNL     1       2.496  27.870  43.075  1.00  0.00     0.120 C 
ATOM     28  C   UNL     1       4.198  29.125  44.430  1.00  0.00     0.014 C 
ATOM     29  C   UNL     1       5.036  27.637  42.610  1.00  0.00     0.014 C 
ENDROOT
BRANCH   1  30
ATOM     30  C   UNL     1       4.402  21.480  50.648  1.00  0.00     0.048 C 
ATOM     31  O   UNL     1       3.633  21.658  51.632  1.00  0.00    -0.550 OA
ATOM     32  O   UNL     1       4.341  20.271  49.965  1.00  0.00    -0.550 OA
ENDBRANCH   1  30
BRANCH  27  33
ATOM     33  O   UNL     1       2.500  28.752  41.979  1.00  0.00    -0.393 OA
ATOM     34  H   UNL     1       2.514  29.674  42.347  1.00  0.00     0.210 HD
ENDBRANCH  27  33
TORSDOF 2
ENDMDL
MODEL 2
REMARK VINA RESULT:     0.000      9.097     14.166
REMARK INTER + INTRA:          -0.246
REMARK INTER:                   0.000
REMARK INTRA:                  -0.246
REMARK UNBOUND:                -0.246
REMARK SMILES C[C@@H]1[C@@H](C)CC[C@@]2(C(=O)[O-])CC[C@]3(C)C(=CC[C@@H]4[C@@]5(C)CC[C@H](O)C(C)(C)[C@@H]5CC[C@@]43C)[C@@H]12
REMARK SMILES IDX 7 1 6 2 11 3 33 4 5 5 12 6 15 7 2 8 3 9 13 10 16 11 1 12
REMARK SMILES IDX 4 13 14 14 31 15 17 16 18 17 30 18 32 19 19 20 29 21 28 22
REMARK SMILES IDX 21 23 20 24 25 25 22 26 23 27 26 28 27 29 8 30 9 31 10 32
REMARK SMILES IDX 24 33
REMARK H PARENT 24 34
REMARK Flexibility Score: inf
ROOT
ATOM      1  C   UNL     1       6.848  13.524  48.622  1.00  0.00     0.017 C 
ATOM      2  C   UNL     1       6.832  14.463  47.368  1.00  0.00     0.014 C 
ATOM      3  C   UNL     1       7.892  14.087  49.613  1.00  0.00     0.014 C 
ATOM      4  C   UNL     1       5.454  13.487  49.344  1.00  0.00     0.030 C 
ATOM      5  C   UNL     1       5.429  14.646  46.794  1.00  0.00     0.004 C 
ATOM      6  C   UNL     1       8.102  13.233  50.862  1.00  0.00     0.013 C 
ATOM      7  C   UNL     1       5.529  12.873  50.759  1.00  0.00    -0.063 C 
ATOM      8  C   UNL     1       4.784  14.915  49.293  1.00  0.00    -0.003 C 
ATOM      9  C   UNL     1       4.500  15.347  47.812  1.00  0.00    -0.011 C 
ATOM     10  C   UNL     1       6.830  12.547  51.507  1.00  0.00    -0.006 C 
ATOM     11  C   UNL     1       4.393  12.405  51.293  1.00  0.00    -0.027 C 
ATOM     12  C   UNL     1       3.488  15.049  50.116  1.00  0.00     0.008 C 
ATOM     13  C   UNL     1       4.587  16.876  47.651  1.00  0.00     0.008 C 
ATOM     14  C   UNL     1       7.026  10.998  51.362  1.00  0.00     0.017 C 
ATOM     15  C   UNL     1       6.683  12.942  53.060  1.00  0.00    -0.020 C 
ATOM     16  C   UNL     1       4.169  12.310  52.768  1.00  0.00     0.032 C 
ATOM     17  C   UNL     1       5.415  12.231  53.722  1.00  0.00     0.006 C 
ATOM     18  C   UNL     1       6.520  14.511  53.191  1.00  0.00     0.008 C 
ATOM     19  C   UNL     1       7.997  12.457  53.795  1.00  0.00     0.012 C 
ATOM     20  C   UNL     1       5.068  12.686  55.248  1.00  0.00    -0.025 C 
ATOM     21  C   UNL     1       5.627  15.011  54.358  1.00  0.00     0.005 C 
ATOM     22  C   UNL     1       5.743  14.066  55.566  1.00  0.00     0.003 C 
ATOM     23  C   UNL     1       5.646  11.675  56.284  1.00  0.00     0.010 C 
ATOM     24  C   UNL     1       3.515  12.711  55.473  1.00  0.00     0.012 C 
ATOM     25  C   UNL     1       5.536  14.653  57.016  1.00  0.00    -0.006 C 
ATOM     26  C   UNL     1       5.472  12.126  57.757  1.00  0.00     0.033 C 
ATOM     27  C   UNL     1       5.995  13.556  58.045  1.00  0.00     0.120 C 
ATOM     28  C   UNL     1       6.475  15.879  57.220  1.00  0.00     0.014 C 
ATOM     29  C   UNL     1       4.091  15.147  57.293  1.00  0.00     0.014 C 
ENDROOT
BRANCH   1  30
ATOM     30  C   UNL     1       7.249  12.136  48.135  1.00  0.00     0.048 C 
ATOM     31  O   UNL     1       8.448  11.888  47.832  1.00  0.00    -0.550 OA
ATOM     32  O   UNL     1       6.288  11.158  47.908  1.00  0.00    -0.550 OA
ENDBRANCH   1  30
BRANCH  27  33
ATOM     33  O   UNL     1       5.631  13.935  59.350  1.00  0.00    -0.393 OA
ATOM     34  H   UNL     1       4.675  13.692  59.468  1.00  0.00     0.210 HD
ENDBRANCH  27  33
TORSDOF 2
ENDMDL
MODEL 3
REMARK VINA RESULT:     0.000      9.549     14.236
REMARK INTER + INTRA:          -0.246
REMARK INTER:                   0.000
REMARK INTRA:                  -0.246
REMARK UNBOUND:                -0.246
REMARK SMILES C[C@@H]1[C@@H](C)CC[C@@]2(C(=O)[O-])CC[C@]3(C)C(=CC[C@@H]4[C@@]5(C)CC[C@H](O)C(C)(C)[C@@H]5CC[C@@]43C)[C@@H]12
REMARK SMILES IDX 7 1 6 2 11 3 33 4 5 5 12 6 15 7 2 8 3 9 13 10 16 11 1 12
REMARK SMILES IDX 4 13 14 14 31 15 17 16 18 17 30 18 32 19 19 20 29 21 28 22
REMARK SMILES IDX 21 23 20 24 25 25 22 26 23 27 26 28 27 29 8 30 9 31 10 32
REMARK SMILES IDX 24 33
REMARK H PARENT 24 34
REMARK Flexibility Score: inf
ROOT
ATOM      1  C   UNL     1      19.714  20.355  51.974  1.00  0.00     0.017 C 
ATOM      2  C   UNL     1      21.144  20.079  51.398  1.00  0.00     0.014 C 
ATOM      3  C   UNL     1      18.882  21.022  50.855  1.00  0.00     0.014 C 
ATOM      4  C   UNL     1      18.988  19.030  52.402  1.00  0.00     0.030 C 
ATOM      5  C   UNL     1      21.732  18.763  51.902  1.00  0.00     0.004 C 
ATOM      6  C   UNL     1      17.476  21.445  51.279  1.00  0.00     0.013 C 
ATOM      7  C   UNL     1      17.474  19.224  52.629  1.00  0.00    -0.063 C 
ATOM      8  C   UNL     1      19.348  17.870  51.394  1.00  0.00    -0.003 C 
ATOM      9  C   UNL     1      20.885  17.559  51.426  1.00  0.00    -0.011 C 
ATOM     10  C   UNL     1      16.683  20.487  52.258  1.00  0.00    -0.006 C 
ATOM     11  C   UNL     1      16.838  18.316  53.383  1.00  0.00    -0.027 C 
ATOM     12  C   UNL     1      18.563  16.561  51.611  1.00  0.00     0.008 C 
ATOM     13  C   UNL     1      21.382  17.065  50.053  1.00  0.00     0.008 C 
ATOM     14  C   UNL     1      16.483  21.272  53.600  1.00  0.00     0.017 C 
ATOM     15  C   UNL     1      15.255  20.079  51.638  1.00  0.00    -0.020 C 
ATOM     16  C   UNL     1      15.376  18.030  53.249  1.00  0.00     0.032 C 
ATOM     17  C   UNL     1      14.441  19.132  52.635  1.00  0.00     0.006 C 
ATOM     18  C   UNL     1      15.474  19.317  50.268  1.00  0.00     0.008 C 
ATOM     19  C   UNL     1      14.444  21.416  51.407  1.00  0.00     0.012 C 
ATOM     20  C   UNL     1      13.050  18.519  52.046  1.00  0.00    -0.025 C 
ATOM     21  C   UNL     1      14.439  18.212  49.928  1.00  0.00     0.005 C 
ATOM     22  C   UNL     1      13.052  18.586  50.479  1.00  0.00     0.003 C 
ATOM     23  C   UNL     1      11.821  19.358  52.512  1.00  0.00     0.010 C 
ATOM     24  C   UNL     1      12.822  17.063  52.584  1.00  0.00     0.012 C 
ATOM     25  C   UNL     1      11.767  18.057  49.733  1.00  0.00    -0.006 C 
ATOM     26  C   UNL     1      10.483  18.909  51.869  1.00  0.00     0.033 C 
ATOM     27  C   UNL     1      10.524  18.819  50.323  1.00  0.00     0.120 C 
ATOM     28  C   UNL     1      11.848  18.435  48.224  1.00  0.00     0.014 C 
ATOM     29  C   UNL     1      11.592  16.516  49.798  1.00  0.00     0.014 C 
ENDROOT
BRANCH   1  30
ATOM     30  C   UNL     1      19.885  21.294  53.162  1.00  0.00     0.048 C 
ATOM     31  O   UNL     1      20.136  22.517  52.978  1.00  0.00    -0.550 OA
ATOM     32  O   UNL     1      19.880  20.803  54.462  1.00  0.00    -0.550 OA
ENDBRANCH   1  30
BRANCH  27  33
ATOM     33  O   UNL     1       9.332  18.236  49.855  1.00  0.00    -0.393 OA
ATOM     34  H   UNL     1       8.585  18.806  50.174  1.00  0.00     0.210 HD
ENDBRANCH  27  33
TORSDOF 2
ENDMDL
MODEL 4
REMARK VINA RESULT:     0.000     13.067     15.955
REMARK INTER + INTRA:          -0.246
REMARK INTER:                   0.000
REMARK INTRA:                  -0.246
REMARK UNBOUND:                -0.246
REMARK SMILES C[C@@H]1[C@@H](C)CC[C@@]2(C(=O)[O-])CC[C@]3(C)C(=CC[C@@H]4[C@@]5(C)CC[C@H](O)C(C)(C)[C@@H]5CC[C@@]43C)[C@@H]12
REMARK SMILES IDX 7 1 6 2 11 3 33 4 5 5 12 6 15 7 2 8 3 9 13 10 16 11 1 12
REMARK SMILES IDX 4 13 14 14 31 15 17 16 18 17 30 18 32 19 19 20 29 21 28 22
REMARK SMILES IDX 21 23 20 24 25 25 22 26 23 27 26 28 27 29 8 30 9 31 10 32
REMARK SMILES IDX 24 33
REMARK H PARENT 24 34
REMARK Flexibility Score: inf
ROOT
ATOM      1  C   UNL     1      13.020  21.119  58.554  1.00  0.00     0.017 C 
ATOM      2  C   UNL     1      14.326  21.857  59.006  1.00  0.00     0.014 C 
ATOM      3  C   UNL     1      13.321  20.422  57.208  1.00  0.00     0.014 C 
ATOM      4  C   UNL     1      12.579  20.022  59.588  1.00  0.00     0.030 C 
ATOM      5  C   UNL     1      14.536  21.798  60.517  1.00  0.00     0.004 C 
ATOM      6  C   UNL     1      12.117  19.725  56.575  1.00  0.00     0.013 C 
ATOM      7  C   UNL     1      11.527  19.049  59.015  1.00  0.00    -0.063 C 
ATOM      8  C   UNL     1      13.851  19.315  60.198  1.00  0.00    -0.003 C 
ATOM      9  C   UNL     1      14.733  20.340  60.994  1.00  0.00    -0.011 C 
ATOM     10  C   UNL     1      11.112  18.973  57.538  1.00  0.00    -0.006 C 
ATOM     11  C   UNL     1      10.778  18.361  59.887  1.00  0.00    -0.027 C 
ATOM     12  C   UNL     1      13.545  18.104  61.100  1.00  0.00     0.008 C 
ATOM     13  C   UNL     1      16.223  19.955  60.937  1.00  0.00     0.008 C 
ATOM     14  C   UNL     1       9.741  19.728  57.444  1.00  0.00     0.017 C 
ATOM     15  C   UNL     1      10.927  17.436  57.098  1.00  0.00    -0.020 C 
ATOM     16  C   UNL     1      10.155  17.041  59.558  1.00  0.00     0.032 C 
ATOM     17  C   UNL     1       9.894  16.680  58.052  1.00  0.00     0.006 C 
ATOM     18  C   UNL     1      12.326  16.698  57.166  1.00  0.00     0.008 C 
ATOM     19  C   UNL     1      10.370  17.434  55.618  1.00  0.00     0.012 C 
ATOM     20  C   UNL     1       9.751  15.075  57.806  1.00  0.00    -0.025 C 
ATOM     21  C   UNL     1      12.288  15.196  57.560  1.00  0.00     0.005 C 
ATOM     22  C   UNL     1      11.003  14.535  57.032  1.00  0.00     0.003 C 
ATOM     23  C   UNL     1       8.516  14.748  56.913  1.00  0.00     0.010 C 
ATOM     24  C   UNL     1       9.521  14.331  59.169  1.00  0.00     0.012 C 
ATOM     25  C   UNL     1      11.026  12.997  56.681  1.00  0.00    -0.006 C 
ATOM     26  C   UNL     1       8.409  13.250  56.526  1.00  0.00     0.033 C 
ATOM     27  C   UNL     1       9.700  12.665  55.902  1.00  0.00     0.120 C 
ATOM     28  C   UNL     1      12.204  12.703  55.704  1.00  0.00     0.014 C 
ATOM     29  C   UNL     1      11.227  12.075  57.913  1.00  0.00     0.014 C 
ENDROOT
BRANCH   1  30
ATOM     30  C   UNL     1      11.941  22.183  58.390  1.00  0.00     0.048 C 
ATOM     31  O   UNL     1      11.950  22.953  57.391  1.00  0.00    -0.550 OA
ATOM     32  O   UNL     1      10.999  22.398  59.389  1.00  0.00    -0.550 OA
ENDBRANCH   1  30
BRANCH  27  33
ATOM     33  O   UNL     1       9.562  11.272  55.755  1.00  0.00    -0.393 OA
ATOM     34  H   UNL     1       8.589  11.079  55.714  1.00  0.00     0.210 HD
ENDBRANCH  27  33
TORSDOF 2
ENDMDL
MODEL 5
REMARK VINA RESULT:     0.000     11.041     13.731
REMARK INTER + INTRA:          -0.246
REMARK INTER:                   0.000
REMARK INTRA:                  -0.246
REMARK UNBOUND:                -0.246
REMARK SMILES C[C@@H]1[C@@H](C)CC[C@@]2(C(=O)[O-])CC[C@]3(C)C(=CC[C@@H]4[C@@]5(C)CC[C@H](O)C(C)(C)[C@@H]5CC[C@@]43C)[C@@H]12
REMARK SMILES IDX 7 1 6 2 11 3 33 4 5 5 12 6 15 7 2 8 3 9 13 10 16 11 1 12
REMARK SMILES IDX 4 13 14 14 31 15 17 16 18 17 30 18 32 19 19 20 29 21 28 22
REMARK SMILES IDX 21 23 20 24 25 25 22 26 23 27 26 28 27 29 8 30 9 31 10 32
REMARK SMILES IDX 24 33
REMARK H PARENT 24 34
REMARK Flexibility Score: inf
ROOT
ATOM      1  C   UNL     1      11.250  14.432  48.282  1.00  0.00     0.017 C 
ATOM      2  C   UNL     1      10.317  13.432  49.045  1.00  0.00     0.014 C 
ATOM      3  C   UNL     1      11.028  15.835  48.891  1.00  0.00     0.014 C 
ATOM      4  C   UNL     1      12.767  14.060  48.446  1.00  0.00     0.030 C 
ATOM      5  C   UNL     1      10.971  12.069  49.255  1.00  0.00     0.004 C 
ATOM      6  C   UNL     1      11.800  16.955  48.197  1.00  0.00     0.013 C 
ATOM      7  C   UNL     1      13.713  15.204  48.020  1.00  0.00    -0.063 C 
ATOM      8  C   UNL     1      13.032  13.509  49.900  1.00  0.00    -0.003 C 
ATOM      9  C   UNL     1      12.225  12.187  50.152  1.00  0.00    -0.011 C 
ATOM     10  C   UNL     1      13.268  16.639  47.700  1.00  0.00    -0.006 C 
ATOM     11  C   UNL     1      14.977  14.882  47.713  1.00  0.00    -0.027 C 
ATOM     12  C   UNL     1      14.516  13.268  50.238  1.00  0.00     0.008 C 
ATOM     13  C   UNL     1      11.837  12.045  51.636  1.00  0.00     0.008 C 
ATOM     14  C   UNL     1      13.250  16.738  46.136  1.00  0.00     0.017 C 
ATOM     15  C   UNL     1      14.325  17.690  48.307  1.00  0.00    -0.020 C 
ATOM     16  C   UNL     1      16.112  15.849  47.832  1.00  0.00     0.032 C 
ATOM     17  C   UNL     1      15.806  17.388  47.788  1.00  0.00     0.006 C 
ATOM     18  C   UNL     1      14.307  17.601  49.888  1.00  0.00     0.008 C 
ATOM     19  C   UNL     1      13.885  19.130  47.827  1.00  0.00     0.012 C 
ATOM     20  C   UNL     1      16.986  18.285  48.465  1.00  0.00    -0.025 C 
ATOM     21  C   UNL     1      15.659  17.864  50.603  1.00  0.00     0.005 C 
ATOM     22  C   UNL     1      16.489  18.897  49.821  1.00  0.00     0.003 C 
ATOM     23  C   UNL     1      17.368  19.495  47.559  1.00  0.00     0.010 C 
ATOM     24  C   UNL     1      18.292  17.431  48.636  1.00  0.00     0.012 C 
ATOM     25  C   UNL     1      17.496  19.820  50.608  1.00  0.00    -0.006 C 
ATOM     26  C   UNL     1      18.385  20.464  48.214  1.00  0.00     0.033 C 
ATOM     27  C   UNL     1      17.975  20.952  49.626  1.00  0.00     0.120 C 
ATOM     28  C   UNL     1      16.748  20.529  51.777  1.00  0.00     0.014 C 
ATOM     29  C   UNL     1      18.688  19.053  51.241  1.00  0.00     0.014 C 
ENDROOT
BRANCH   1  30
ATOM     30  C   UNL     1      10.834  14.401  46.816  1.00  0.00     0.048 C 
ATOM     31  O   UNL     1       9.775  14.975  46.441  1.00  0.00    -0.550 OA
ATOM     32  O   UNL     1      11.548  13.649  45.891  1.00  0.00    -0.550 OA
ENDBRANCH   1  30
BRANCH  27  33
ATOM     33  O   UNL     1      19.037  21.673  50.201  1.00  0.00    -0.393 OA
ATOM     34  H   UNL     1      18.698  22.064  51.049  1.00  0.00     0.210 HD
ENDBRANCH  27  33
TORSDOF 2
ENDMDL
MODEL 6
REMARK VINA RESULT:     0.000      4.730      7.620
REMARK INTER + INTRA:          -0.246
REMARK INTER:                   0.000
REMARK INTRA:                  -0.246
REMARK UNBOUND:                -0.246
REMARK SMILES C[C@@H]1[C@@H](C)CC[C@@]2(C(=O)[O-])CC[C@]3(C)C(=CC[C@@H]4[C@@]5(C)CC[C@H](O)C(C)(C)[C@@H]5CC[C@@]43C)[C@@H]12
REMARK SMILES IDX 7 1 6 2 11 3 33 4 5 5 12 6 15 7 2 8 3 9 13 10 16 11 1 12
REMARK SMILES IDX 4 13 14 14 31 15 17 16 18 17 30 18 32 19 19 20 29 21 28 22
REMARK SMILES IDX 21 23 20 24 25 25 22 26 23 27 26 28 27 29 8 30 9 31 10 32
REMARK SMILES IDX 24 33
REMARK H PARENT 24 34
REMARK Flexibility Score: inf
ROOT
ATOM      1  C   UNL     1      10.190  23.771  55.683  1.00  0.00     0.017 C 
ATOM      2  C   UNL     1       9.926  24.201  57.166  1.00  0.00     0.014 C 
ATOM      3  C   UNL     1       8.951  22.984  55.198  1.00  0.00     0.014 C 
ATOM      4  C   UNL     1      10.384  25.011  54.740  1.00  0.00     0.030 C 
ATOM      5  C   UNL     1      10.480  25.589  57.479  1.00  0.00     0.004 C 
ATOM      6  C   UNL     1       9.080  22.408  53.789  1.00  0.00     0.013 C 
ATOM      7  C   UNL     1      10.287  24.645  53.243  1.00  0.00    -0.063 C 
ATOM      8  C   UNL     1       9.423  26.181  55.183  1.00  0.00    -0.003 C 
ATOM      9  C   UNL     1       9.773  26.672  56.632  1.00  0.00    -0.011 C 
ATOM     10  C   UNL     1       9.815  23.288  52.699  1.00  0.00    -0.006 C 
ATOM     11  C   UNL     1      10.839  25.489  52.360  1.00  0.00    -0.027 C 
ATOM     12  C   UNL     1       9.400  27.393  54.231  1.00  0.00     0.008 C 
ATOM     13  C   UNL     1       8.518  27.189  57.362  1.00  0.00     0.008 C 
ATOM     14  C   UNL     1      11.118  22.517  52.294  1.00  0.00     0.017 C 
ATOM     15  C   UNL     1       8.881  23.510  51.407  1.00  0.00    -0.020 C 
ATOM     16  C   UNL     1      10.377  25.596  50.942  1.00  0.00     0.032 C 
ATOM     17  C   UNL     1       9.629  24.377  50.293  1.00  0.00     0.006 C 
ATOM     18  C   UNL     1       7.555  24.260  51.839  1.00  0.00     0.008 C 
ATOM     19  C   UNL     1       8.545  22.081  50.819  1.00  0.00     0.012 C 
ATOM     20  C   UNL     1       8.723  24.807  49.009  1.00  0.00    -0.025 C 
ATOM     21  C   UNL     1       6.944  25.226  50.789  1.00  0.00     0.005 C 
ATOM     22  C   UNL     1       7.198  24.704  49.365  1.00  0.00     0.003 C 
ATOM     23  C   UNL     1       8.951  23.840  47.807  1.00  0.00     0.010 C 
ATOM     24  C   UNL     1       9.126  26.238  48.508  1.00  0.00     0.012 C 
ATOM     25  C   UNL     1       6.166  25.059  48.226  1.00  0.00    -0.006 C 
ATOM     26  C   UNL     1       8.012  24.112  46.604  1.00  0.00     0.033 C 
ATOM     27  C   UNL     1       6.509  24.169  46.975  1.00  0.00     0.120 C 
ATOM     28  C   UNL     1       4.731  24.657  48.681  1.00  0.00     0.014 C 
ATOM     29  C   UNL     1       6.116  26.570  47.873  1.00  0.00     0.014 C 
ENDROOT
BRANCH   1  30
ATOM     30  C   UNL     1      11.431  22.887  55.689  1.00  0.00     0.048 C 
ATOM     31  O   UNL     1      11.367  21.699  56.109  1.00  0.00    -0.550 OA
ATOM     32  O   UNL     1      12.673  23.405  55.342  1.00  0.00    -0.550 OA
ENDBRANCH   1  30
BRANCH  27  33
ATOM     33  O   UNL     1       5.765  24.596  45.860  1.00  0.00    -0.393 OA
ATOM     34  H   UNL     1       4.883  24.900  46.198  1.00  0.00     0.210 HD
ENDBRANCH  27  33
TORSDOF 2
ENDMDL
MODEL 7
REMARK VINA RESULT:     0.000      7.729     12.240
REMARK INTER + INTRA:          -0.246
REMARK INTER:                   0.000
REMARK INTRA:                  -0.246
REMARK UNBOUND:                -0.246
REMARK SMILES C[C@@H]1[C@@H](C)CC[C@@]2(C(=O)[O-])CC[C@]3(C)C(=CC[C@@H]4[C@@]5(C)CC[C@H](O)C(C)(C)[C@@H]5CC[C@@]43C)[C@@H]12
REMARK SMILES IDX 7 1 6 2 11 3 33 4 5 5 12 6 15 7 2 8 3 9 13 10 16 11 1 12
REMARK SMILES IDX 4 13 14 14 31 15 17 16 18 17 30 18 32 19 19 20 29 21 28 22
REMARK SMILES IDX 21 23 20 24 25 25 22 26 23 27 26 28 27 29 8 30 9 31 10 32
REMARK SMILES IDX 24 33
REMARK H PARENT 24 34
REMARK Flexibility Score: inf
ROOT
ATOM      1  C   UNL     1      18.415  22.578  51.942  1.00  0.00     0.017 C 
ATOM      2  C   UNL     1      18.948  22.605  53.415  1.00  0.00     0.014 C 
ATOM      3  C   UNL     1      18.070  21.111  51.598  1.00  0.00     0.014 C 
ATOM      4  C   UNL     1      17.113  23.441  51.774  1.00  0.00     0.030 C 
ATOM      5  C   UNL     1      18.495  23.848  54.176  1.00  0.00     0.004 C 
ATOM      6  C   UNL     1      17.618  20.890  50.156  1.00  0.00     0.013 C 
ATOM      7  C   UNL     1      16.371  23.151  50.452  1.00  0.00    -0.063 C 
ATOM      8  C   UNL     1      16.212  23.312  53.063  1.00  0.00    -0.003 C 
ATOM      9  C   UNL     1      16.956  23.880  54.323  1.00  0.00    -0.011 C 
ATOM     10  C   UNL     1      16.695  21.993  49.497  1.00  0.00    -0.006 C 
ATOM     11  C   UNL     1      15.520  24.084  50.001  1.00  0.00    -0.027 C 
ATOM     12  C   UNL     1      14.827  23.979  52.952  1.00  0.00     0.008 C 
ATOM     13  C   UNL     1      16.526  23.140  55.604  1.00  0.00     0.008 C 
ATOM     14  C   UNL     1      17.514  22.629  48.322  1.00  0.00     0.017 C 
ATOM     15  C   UNL     1      15.332  21.348  48.934  1.00  0.00    -0.020 C 
ATOM     16  C   UNL     1      14.361  23.762  49.113  1.00  0.00     0.032 C 
ATOM     17  C   UNL     1      14.409  22.455  48.245  1.00  0.00     0.006 C 
ATOM     18  C   UNL     1      14.533  20.681  50.126  1.00  0.00     0.008 C 
ATOM     19  C   UNL     1      15.735  20.261  47.859  1.00  0.00     0.012 C 
ATOM     20  C   UNL     1      12.929  21.951  47.785  1.00  0.00    -0.025 C 
ATOM     21  C   UNL     1      12.985  20.725  50.021  1.00  0.00     0.005 C 
ATOM     22  C   UNL     1      12.543  20.637  48.550  1.00  0.00     0.003 C 
ATOM     23  C   UNL     1      12.901  21.590  46.268  1.00  0.00     0.010 C 
ATOM     24  C   UNL     1      11.873  23.095  47.987  1.00  0.00     0.012 C 
ATOM     25  C   UNL     1      11.147  19.987  48.210  1.00  0.00    -0.006 C 
ATOM     26  C   UNL     1      11.559  20.970  45.802  1.00  0.00     0.033 C 
ATOM     27  C   UNL     1      11.089  19.765  46.654  1.00  0.00     0.120 C 
ATOM     28  C   UNL     1      11.055  18.578  48.868  1.00  0.00     0.014 C 
ATOM     29  C   UNL     1       9.932  20.802  48.729  1.00  0.00     0.014 C 
ENDROOT
BRANCH   1  30
ATOM     30  C   UNL     1      19.536  23.099  51.052  1.00  0.00     0.048 C 
ATOM     31  O   UNL     1      20.534  22.373  50.791  1.00  0.00    -0.550 OA
ATOM     32  O   UNL     1      19.535  24.416  50.607  1.00  0.00    -0.550 OA
ENDBRANCH   1  30
BRANCH  27  33
ATOM     33  O   UNL     1       9.789  19.393  46.267  1.00  0.00    -0.393 OA
ATOM     34  H   UNL     1       9.610  18.503  46.668  1.00  0.00     0.210 HD
ENDBRANCH  27  33
TORSDOF 2
ENDMDL
MODEL 8
REMARK VINA RESULT:     0.000      5.152      8.436
REMARK INTER + INTRA:          -0.246
REMARK INTER:                   0.000
REMARK INTRA:                  -0.246
REMARK UNBOUND:                -0.246
REMARK SMILES C[C@@H]1[C@@H](C)CC[C@@]2(C(=O)[O-])CC[C@]3(C)C(=CC[C@@H]4[C@@]5(C)CC[C@H](O)C(C)(C)[C@@H]5CC[C@@]43C)[C@@H]12
REMARK SMILES IDX 7 1 6 2 11 3 33 4 5 5 12 6 15 7 2 8 3 9 13 10 16 11 1 12
REMARK SMILES IDX 4 13 14 14 31 15 17 16 18 17 30 18 32 19 19 20 29 21 28 22
REMARK SMILES IDX 21 23 20 24 25 25 22 26 23 27 26 28 27 29 8 30 9 31 10 32
REMARK SMILES IDX 24 33
REMARK H PARENT 24 34
REMARK Flexibility Score: inf
ROOT
ATOM      1  C   UNL     1      15.249  21.919  49.084  1.00  0.00     0.017 C 
ATOM      2  C   UNL     1      16.575  21.248  48.590  1.00  0.00     0.014 C 
ATOM      3  C   UNL     1      14.828  22.959  48.021  1.00  0.00     0.014 C 
ATOM      4  C   UNL     1      14.086  20.874  49.237  1.00  0.00     0.030 C 
ATOM      5  C   UNL     1      16.637  19.760  48.926  1.00  0.00     0.004 C 
ATOM      6  C   UNL     1      13.592  23.776  48.392  1.00  0.00     0.013 C 
ATOM      7  C   UNL     1      12.698  21.539  49.368  1.00  0.00    -0.063 C 
ATOM      8  C   UNL     1      14.179  19.794  48.091  1.00  0.00    -0.003 C 
ATOM      9  C   UNL     1      15.517  18.981  48.198  1.00  0.00    -0.011 C 
ATOM     10  C   UNL     1      12.413  23.031  49.138  1.00  0.00    -0.006 C 
ATOM     11  C   UNL     1      11.712  20.814  49.914  1.00  0.00    -0.027 C 
ATOM     12  C   UNL     1      12.994  18.811  48.033  1.00  0.00     0.008 C 
ATOM     13  C   UNL     1      16.001  18.520  46.810  1.00  0.00     0.008 C 
ATOM     14  C   UNL     1      12.305  23.667  50.567  1.00  0.00     0.017 C 
ATOM     15  C   UNL     1      11.022  23.208  48.348  1.00  0.00    -0.020 C 
ATOM     16  C   UNL     1      10.267  21.058  49.618  1.00  0.00     0.032 C 
ATOM     17  C   UNL     1       9.825  22.477  49.112  1.00  0.00     0.006 C 
ATOM     18  C   UNL     1      11.159  22.590  46.897  1.00  0.00     0.008 C 
ATOM     19  C   UNL     1      10.722  24.758  48.266  1.00  0.00     0.012 C 
ATOM     20  C   UNL     1       8.399  22.447  48.323  1.00  0.00    -0.025 C 
ATOM     21  C   UNL     1       9.876  21.950  46.303  1.00  0.00     0.005 C 
ATOM     22  C   UNL     1       8.625  22.700  46.791  1.00  0.00     0.003 C 
ATOM     23  C   UNL     1       7.456  23.588  48.814  1.00  0.00     0.010 C 
ATOM     24  C   UNL     1       7.646  21.099  48.604  1.00  0.00     0.012 C 
ATOM     25  C   UNL     1       7.345  22.732  45.869  1.00  0.00    -0.006 C 
ATOM     26  C   UNL     1       6.141  23.699  48.002  1.00  0.00     0.033 C 
ATOM     27  C   UNL     1       6.349  23.791  46.470  1.00  0.00     0.120 C 
ATOM     28  C   UNL     1       7.739  23.242  44.451  1.00  0.00     0.014 C 
ATOM     29  C   UNL     1       6.677  21.345  45.675  1.00  0.00     0.014 C 
ENDROOT
BRANCH   1  30
ATOM     30  C   UNL     1      15.558  22.593  50.416  1.00  0.00     0.048 C 
ATOM     31  O   UNL     1      16.212  23.671  50.449  1.00  0.00    -0.550 OA
ATOM     32  O   UNL     1      15.227  21.977  51.617  1.00  0.00    -0.550 OA
ENDBRANCH   1  30
BRANCH  27  33
ATOM     33  O   UNL     1       5.105  23.706  45.820  1.00  0.00    -0.393 OA
ATOM     34  H   UNL     1       5.281  23.397  44.893  1.00  0.00     0.210 HD
ENDBRANCH  27  33
TORSDOF 2
ENDMDL
MODEL 9
REMARK VINA RESULT:     0.001     10.709     14.561
REMARK INTER + INTRA:          -0.245
REMARK INTER:                   0.000
REMARK INTRA:                  -0.245
REMARK UNBOUND:                -0.246
REMARK SMILES C[C@@H]1[C@@H](C)CC[C@@]2(C(=O)[O-])CC[C@]3(C)C(=CC[C@@H]4[C@@]5(C)CC[C@H](O)C(C)(C)[C@@H]5CC[C@@]43C)[C@@H]12
REMARK SMILES IDX 7 1 6 2 11 3 33 4 5 5 12 6 15 7 2 8 3 9 13 10 16 11 1 12
REMARK SMILES IDX 4 13 14 14 31 15 17 16 18 17 30 18 32 19 19 20 29 21 28 22
REMARK SMILES IDX 21 23 20 24 25 25 22 26 23 27 26 28 27 29 8 30 9 31 10 32
REMARK SMILES IDX 24 33
REMARK H PARENT 24 34
REMARK Flexibility Score: inf
ROOT
ATOM      1  C   UNL     1      16.356  12.273  49.986  1.00  0.00     0.017 C 
ATOM      2  C   UNL     1      17.459  11.214  50.331  1.00  0.00     0.014 C 
ATOM      3  C   UNL     1      16.261  13.252  51.178  1.00  0.00     0.014 C 
ATOM      4  C   UNL     1      16.719  13.098  48.700  1.00  0.00     0.030 C 
ATOM      5  C   UNL     1      18.281  10.809  49.111  1.00  0.00     0.004 C 
ATOM      6  C   UNL     1      15.161  14.304  51.045  1.00  0.00     0.013 C 
ATOM      7  C   UNL     1      15.854  14.367  48.540  1.00  0.00    -0.063 C 
ATOM      8  C   UNL     1      18.273  13.364  48.652  1.00  0.00    -0.003 C 
ATOM      9  C   UNL     1      19.068  12.015  48.547  1.00  0.00    -0.011 C 
ATOM     10  C   UNL     1      14.907  14.926  49.612  1.00  0.00    -0.006 C 
ATOM     11  C   UNL     1      15.765  14.907  47.317  1.00  0.00    -0.027 C 
ATOM     12  C   UNL     1      18.731  14.309  47.524  1.00  0.00     0.008 C 
ATOM     13  C   UNL     1      20.443  12.125  49.232  1.00  0.00     0.008 C 
ATOM     14  C   UNL     1      13.466  14.489  49.176  1.00  0.00     0.017 C 
ATOM     15  C   UNL     1      15.009  16.531  49.651  1.00  0.00    -0.020 C 
ATOM     16  C   UNL     1      15.472  16.356  47.090  1.00  0.00     0.032 C 
ATOM     17  C   UNL     1      14.728  17.165  48.212  1.00  0.00     0.006 C 
ATOM     18  C   UNL     1      16.458  16.956  50.126  1.00  0.00     0.008 C 
ATOM     19  C   UNL     1      13.917  17.047  50.672  1.00  0.00     0.012 C 
ATOM     20  C   UNL     1      14.966  18.772  48.090  1.00  0.00    -0.025 C 
ATOM     21  C   UNL     1      17.020  18.268  49.517  1.00  0.00     0.005 C 
ATOM     22  C   UNL     1      15.883  19.272  49.260  1.00  0.00     0.003 C 
ATOM     23  C   UNL     1      13.624  19.555  48.230  1.00  0.00     0.010 C 
ATOM     24  C   UNL     1      15.545  19.136  46.677  1.00  0.00     0.012 C 
ATOM     25  C   UNL     1      16.201  20.816  49.319  1.00  0.00    -0.006 C 
ATOM     26  C   UNL     1      13.804  21.094  48.265  1.00  0.00     0.033 C 
ATOM     27  C   UNL     1      14.831  21.587  49.315  1.00  0.00     0.120 C 
ATOM     28  C   UNL     1      16.901  21.152  50.670  1.00  0.00     0.014 C 
ATOM     29  C   UNL     1      17.150  21.305  48.192  1.00  0.00     0.014 C 
ENDROOT
BRANCH   1  30
ATOM     30  C   UNL     1      15.050  11.511  49.798  1.00  0.00     0.048 C 
ATOM     31  O   UNL     1      14.423  11.063  50.797  1.00  0.00    -0.550 OA
ATOM     32  O   UNL     1      14.586  11.199  48.526  1.00  0.00    -0.550 OA
ENDBRANCH   1  30
BRANCH  27  33
ATOM     33  O   UNL     1      15.052  22.966  49.145  1.00  0.00    -0.393 OA
ATOM     34  H   UNL     1      14.635  23.223  48.282  1.00  0.00     0.210 HD
ENDBRANCH  27  33
TORSDOF 2
ENDMDL
