MODEL 1
REMARK VINA RESULT:    98.910      0.000      0.000
REMARK INTER + INTRA:         104.692
REMARK INTER:                 104.692
REMARK INTRA:                   0.000
REMARK UNBOUND:                 0.000
REMARK SMILES C[C@H]1CC[C@H]2[N@H+](C1)C[C@@H]1[C@H]3C[C@H]4[C@H](CC(=O)[C@H]5C[C@H](O)CC[C@@]54C)[C@H]3CC[C@H]1[C@@]2(C)O
REMARK SMILES IDX 5 1 6 2 8 3 7 4 4 5 29 6 3 7 28 8 30 9 2 10 27 11 9 12 1 13
REMARK SMILES IDX 26 14 10 15 25 16 11 17 13 18 12 19 14 20 23 21 15 22 17 23
REMARK SMILES IDX 22 24 24 25 16 26 18 27 21 28 19 29 31 31 20 33
REMARK H PARENT 6 30 31 32 20 34
REMARK Flexibility Score: inf
ROOT
ATOM      1  C   UNL     1      12.165  78.477   3.465  1.00  0.00     0.216 C 
ATOM      2  N   UNL     1      11.691  77.570   2.380  1.00  0.00    -0.330 N 
ATOM      3  C   UNL     1      10.405  76.936   2.728  1.00  0.00     0.266 C 
ATOM      4  C   UNL     1      11.518  78.315   1.107  1.00  0.00     0.265 C 
ATOM      5  C   UNL     1      13.527  79.105   3.051  1.00  0.00     0.069 C 
ATOM      6  C   UNL     1      12.256  77.760   4.872  1.00  0.00     0.117 C 
ATOM      7  C   UNL     1      13.402  79.861   1.730  1.00  0.00     0.015 C 
ATOM      8  C   UNL     1      10.966  76.907   5.167  1.00  0.00     0.036 C 
ATOM      9  C   UNL     1      12.391  78.849   5.970  1.00  0.00     0.049 C 
ATOM     10  C   UNL     1      12.841  78.945   0.634  1.00  0.00     0.041 C 
ATOM     11  C   UNL     1      11.119  76.008   6.415  1.00  0.00     0.007 C 
ATOM     12  C   UNL     1      10.552  76.028   3.963  1.00  0.00     0.054 C 
ATOM     13  C   UNL     1      12.635  79.735  -0.668  1.00  0.00     0.013 C 
ATOM     14  C   UNL     1       9.793  75.336   6.764  1.00  0.00     0.004 C 
ATOM     15  C   UNL     1       9.219  75.254   4.243  1.00  0.00     0.002 C 
ATOM     16  C   UNL     1       9.204  74.524   5.595  1.00  0.00    -0.004 C 
ATOM     17  C   UNL     1       8.986  74.103   3.250  1.00  0.00     0.009 C 
ATOM     18  C   UNL     1       9.896  73.167   5.354  1.00  0.00     0.003 C 
ATOM     19  C   UNL     1       9.715  72.880   3.838  1.00  0.00    -0.000 C 
ATOM     20  C   UNL     1       9.409  72.073   6.338  1.00  0.00     0.080 C 
ATOM     21  C   UNL     1       9.129  71.469   3.456  1.00  0.00    -0.020 C 
ATOM     22  C   UNL     1       9.633  70.674   5.824  1.00  0.00     0.136 C 
ATOM     23  C   UNL     1       9.877  70.421   4.351  1.00  0.00     0.065 C 
ATOM     24  C   UNL     1       9.401  71.186   1.928  1.00  0.00     0.010 C 
ATOM     25  C   UNL     1       7.588  71.392   3.698  1.00  0.00     0.012 C 
ATOM     26  O   UNL     1       9.669  69.750   6.624  1.00  0.00    -0.299 OA
ATOM     27  C   UNL     1       9.581  68.953   3.952  1.00  0.00     0.043 C 
ATOM     28  C   UNL     1      10.192  69.896   1.651  1.00  0.00     0.032 C 
ATOM     29  C   UNL     1       9.591  68.710   2.421  1.00  0.00     0.115 C 
ATOM     30  H   UNL     1      12.399  76.814   2.214  1.00  0.00     0.348 HD
ENDROOT
BRANCH   6  31
ATOM     31  O   UNL     1      13.410  76.952   4.947  1.00  0.00    -0.384 OA
ATOM     32  H   UNL     1      14.040  77.360   5.591  1.00  0.00     0.211 HD
ENDBRANCH   6  31
BRANCH  29  33
ATOM     33  O   UNL     1      10.324  67.541   2.134  1.00  0.00    -0.393 OA
ATOM     34  H   UNL     1       9.820  66.781   2.535  1.00  0.00     0.210 HD
ENDBRANCH  29  33
TORSDOF 2
ENDMDL
