MODEL 1
REMARK VINA RESULT:    -5.214      0.000      0.000
REMARK INTER + INTRA:          -6.594
REMARK INTER:                  -6.280
REMARK INTRA:                  -0.314
REMARK UNBOUND:                -0.314
REMARK SMILES O=c1c(O)c(-c2ccc(O)cc2O)oc2cc(O)cc(O)c12
REMARK SMILES IDX 5 1 3 2 2 3 1 4 22 5 20 6 19 7 17 8 16 9 15 10 14 11 6 12
REMARK SMILES IDX 8 13 7 14 9 15 11 16 12 17 10 18 13 20 4 22 21 24 18 26
REMARK H PARENT 10 19 13 21 4 23 21 25 18 27
REMARK Flexibility Score: inf
ROOT
ATOM      1  C   UNL     1      -2.549  -4.557  -5.542  1.00  0.00     0.184 A 
ATOM      2  C   UNL     1      -2.828  -4.890  -4.208  1.00  0.00     0.208 A 
ATOM      3  C   UNL     1      -2.717  -6.230  -3.803  1.00  0.00     0.238 A 
ATOM      4  O   UNL     1      -2.909  -6.512  -2.592  1.00  0.00    -0.285 OA
ATOM      5  C   UNL     1      -2.353  -7.222  -4.747  1.00  0.00     0.111 A 
ATOM      6  C   UNL     1      -2.249  -8.616  -4.457  1.00  0.00     0.134 A 
ATOM      7  C   UNL     1      -1.763  -9.489  -5.438  1.00  0.00     0.093 A 
ATOM      8  C   UNL     1      -1.442  -9.032  -6.716  1.00  0.00     0.123 A 
ATOM      9  C   UNL     1      -1.596  -7.681  -7.027  1.00  0.00     0.094 A 
ATOM     10  C   UNL     1      -2.042  -6.779  -6.059  1.00  0.00     0.146 A 
ATOM     11  O   UNL     1      -2.162  -5.499  -6.393  1.00  0.00    -0.451 OA
ENDROOT
BRANCH   1  12
ATOM     12  C   UNL     1      -2.672  -3.167  -6.030  1.00  0.00     0.063 A 
ATOM     13  C   UNL     1      -3.753  -1.567  -7.512  1.00  0.00     0.047 A 
ATOM     14  C   UNL     1      -3.651  -2.859  -6.991  1.00  0.00     0.020 A 
ATOM     15  C   UNL     1      -2.877  -0.566  -7.087  1.00  0.00     0.119 A 
ATOM     16  C   UNL     1      -1.896  -0.862  -6.131  1.00  0.00     0.093 A 
ATOM     17  C   UNL     1      -1.790  -2.151  -5.595  1.00  0.00     0.130 A 
BRANCH  15  18
ATOM     18  O   UNL     1      -2.987   0.716  -7.618  1.00  0.00    -0.508 OA
ATOM     19  H   UNL     1      -2.181   1.210  -7.983  1.00  0.00     0.293 HD
ENDBRANCH  15  18
BRANCH  17  20
ATOM     20  O   UNL     1      -0.818  -2.380  -4.618  1.00  0.00    -0.507 OA
ATOM     21  H   UNL     1      -0.278  -3.234  -4.566  1.00  0.00     0.293 HD
ENDBRANCH  17  20
ENDBRANCH   1  12
BRANCH   2  22
ATOM     22  O   UNL     1      -3.187  -3.890  -3.299  1.00  0.00    -0.502 OA
ATOM     23  H   UNL     1      -3.850  -4.050  -2.551  1.00  0.00     0.293 HD
ENDBRANCH   2  22
BRANCH   6  24
ATOM     24  O   UNL     1      -2.630  -9.192  -3.241  1.00  0.00    -0.507 OA
ATOM     25  H   UNL     1      -3.575  -9.229  -2.893  1.00  0.00     0.293 HD
ENDBRANCH   6  24
BRANCH   8  26
ATOM     26  O   UNL     1      -0.977  -9.934  -7.671  1.00  0.00    -0.508 OA
ATOM     27  H   UNL     1      -1.337 -10.880  -7.725  1.00  0.00     0.293 HD
ENDBRANCH   8  26
TORSDOF 6
ENDMDL
MODEL 2
REMARK VINA RESULT:    -4.670      2.903      8.067
REMARK INTER + INTRA:          -5.940
REMARK INTER:                  -5.573
REMARK INTRA:                  -0.366
REMARK UNBOUND:                -0.314
REMARK SMILES O=c1c(O)c(-c2ccc(O)cc2O)oc2cc(O)cc(O)c12
REMARK SMILES IDX 5 1 3 2 2 3 1 4 22 5 20 6 19 7 17 8 16 9 15 10 14 11 6 12
REMARK SMILES IDX 8 13 7 14 9 15 11 16 12 17 10 18 13 20 4 22 21 24 18 26
REMARK H PARENT 10 19 13 21 4 23 21 25 18 27
REMARK Flexibility Score: inf
ROOT
ATOM      1  C   UNL     1      -2.346  -0.616  -6.262  1.00  0.00     0.184 A 
ATOM      2  C   UNL     1      -3.173   0.218  -5.496  1.00  0.00     0.208 A 
ATOM      3  C   UNL     1      -2.903   1.595  -5.457  1.00  0.00     0.238 A 
ATOM      4  O   UNL     1      -3.685   2.346  -4.818  1.00  0.00    -0.285 OA
ATOM      5  C   UNL     1      -1.790   2.114  -6.165  1.00  0.00     0.111 A 
ATOM      6  C   UNL     1      -1.399   3.487  -6.165  1.00  0.00     0.134 A 
ATOM      7  C   UNL     1      -0.354   3.906  -6.998  1.00  0.00     0.093 A 
ATOM      8  C   UNL     1       0.354   2.995  -7.781  1.00  0.00     0.123 A 
ATOM      9  C   UNL     1       0.017   1.641  -7.743  1.00  0.00     0.094 A 
ATOM     10  C   UNL     1      -1.043   1.198  -6.951  1.00  0.00     0.146 A 
ATOM     11  O   UNL     1      -1.340  -0.097  -6.956  1.00  0.00    -0.451 OA
ENDROOT
BRANCH   1  12
ATOM     12  C   UNL     1      -2.568  -2.077  -6.322  1.00  0.00     0.063 A 
ATOM     13  C   UNL     1      -3.808  -3.959  -7.241  1.00  0.00     0.047 A 
ATOM     14  C   UNL     1      -3.537  -2.590  -7.203  1.00  0.00     0.020 A 
ATOM     15  C   UNL     1      -3.123  -4.835  -6.396  1.00  0.00     0.119 A 
ATOM     16  C   UNL     1      -2.157  -4.335  -5.512  1.00  0.00     0.093 A 
ATOM     17  C   UNL     1      -1.870  -2.966  -5.473  1.00  0.00     0.130 A 
BRANCH  15  18
ATOM     18  O   UNL     1      -3.407  -6.198  -6.441  1.00  0.00    -0.508 OA
ATOM     19  H   UNL     1      -4.154  -6.603  -5.889  1.00  0.00     0.293 HD
ENDBRANCH  15  18
BRANCH  17  20
ATOM     20  O   UNL     1      -0.871  -2.527  -4.599  1.00  0.00    -0.507 OA
ATOM     21  H   UNL     1      -1.070  -2.113  -3.698  1.00  0.00     0.293 HD
ENDBRANCH  17  20
ENDBRANCH   1  12
BRANCH   2  22
ATOM     22  O   UNL     1      -4.262  -0.323  -4.806  1.00  0.00    -0.502 OA
ATOM     23  H   UNL     1      -4.220  -1.225  -4.348  1.00  0.00     0.293 HD
ENDBRANCH   2  22
BRANCH   6  24
ATOM     24  O   UNL     1      -1.980   4.465  -5.352  1.00  0.00    -0.507 OA
ATOM     25  H   UNL     1      -2.925   4.803  -5.445  1.00  0.00     0.293 HD
ENDBRANCH   6  24
BRANCH   8  26
ATOM     26  O   UNL     1       1.398   3.446  -8.585  1.00  0.00    -0.508 OA
ATOM     27  H   UNL     1       2.264   3.790  -8.185  1.00  0.00     0.293 HD
ENDBRANCH   8  26
TORSDOF 6
ENDMDL
MODEL 3
REMARK VINA RESULT:    -4.467      3.652      9.239
REMARK INTER + INTRA:          -5.694
REMARK INTER:                  -5.362
REMARK INTRA:                  -0.333
REMARK UNBOUND:                -0.314
REMARK SMILES O=c1c(O)c(-c2ccc(O)cc2O)oc2cc(O)cc(O)c12
REMARK SMILES IDX 5 1 3 2 2 3 1 4 22 5 20 6 19 7 17 8 16 9 15 10 14 11 6 12
REMARK SMILES IDX 8 13 7 14 9 15 11 16 12 17 10 18 13 20 4 22 21 24 18 26
REMARK H PARENT 10 19 13 21 4 23 21 25 18 27
REMARK Flexibility Score: inf
ROOT
ATOM      1  C   UNL     1      -2.467   0.641  -5.865  1.00  0.00     0.184 A 
ATOM      2  C   UNL     1      -1.452   1.425  -6.434  1.00  0.00     0.208 A 
ATOM      3  C   UNL     1      -1.520   2.822  -6.309  1.00  0.00     0.238 A 
ATOM      4  O   UNL     1      -0.576   3.516  -6.767  1.00  0.00    -0.285 OA
ATOM      5  C   UNL     1      -2.620   3.416  -5.640  1.00  0.00     0.111 A 
ATOM      6  C   UNL     1      -2.812   4.822  -5.489  1.00  0.00     0.134 A 
ATOM      7  C   UNL     1      -3.873   5.292  -4.704  1.00  0.00     0.093 A 
ATOM      8  C   UNL     1      -4.783   4.412  -4.120  1.00  0.00     0.123 A 
ATOM      9  C   UNL     1      -4.637   3.038  -4.310  1.00  0.00     0.094 A 
ATOM     10  C   UNL     1      -3.569   2.536  -5.057  1.00  0.00     0.146 A 
ATOM     11  O   UNL     1      -3.459   1.220  -5.201  1.00  0.00    -0.451 OA
ENDROOT
BRANCH   1  12
ATOM     12  C   UNL     1      -2.459  -0.833  -5.985  1.00  0.00     0.063 A 
ATOM     13  C   UNL     1      -3.501  -2.859  -6.841  1.00  0.00     0.047 A 
ATOM     14  C   UNL     1      -3.450  -1.466  -6.755  1.00  0.00     0.020 A 
ATOM     15  C   UNL     1      -2.569  -3.640  -6.153  1.00  0.00     0.119 A 
ATOM     16  C   UNL     1      -1.578  -3.020  -5.381  1.00  0.00     0.093 A 
ATOM     17  C   UNL     1      -1.511  -1.624  -5.296  1.00  0.00     0.130 A 
BRANCH  15  18
ATOM     18  O   UNL     1      -2.634  -5.028  -6.243  1.00  0.00    -0.508 OA
ATOM     19  H   UNL     1      -2.639  -5.503  -7.138  1.00  0.00     0.293 HD
ENDBRANCH  15  18
BRANCH  17  20
ATOM     20  O   UNL     1      -0.480  -1.059  -4.541  1.00  0.00    -0.507 OA
ATOM     21  H   UNL     1      -0.506  -0.108  -4.196  1.00  0.00     0.293 HD
ENDBRANCH  17  20
ENDBRANCH   1  12
BRANCH   2  22
ATOM     22  O   UNL     1      -0.380   0.812  -7.090  1.00  0.00    -0.502 OA
ATOM     23  H   UNL     1      -0.379  -0.174  -7.320  1.00  0.00     0.293 HD
ENDBRANCH   2  22
BRANCH   6  24
ATOM     24  O   UNL     1      -2.015   5.791  -6.106  1.00  0.00    -0.507 OA
ATOM     25  H   UNL     1      -1.524   6.526  -5.621  1.00  0.00     0.293 HD
ENDBRANCH   6  24
BRANCH   8  26
ATOM     26  O   UNL     1      -5.835   4.917  -3.359  1.00  0.00    -0.508 OA
ATOM     27  H   UNL     1      -5.683   5.625  -2.650  1.00  0.00     0.293 HD
ENDBRANCH   8  26
TORSDOF 6
ENDMDL
MODEL 4
REMARK VINA RESULT:    -4.351      9.028      9.644
REMARK INTER + INTRA:          -5.555
REMARK INTER:                  -5.170
REMARK INTRA:                  -0.385
REMARK UNBOUND:                -0.314
REMARK SMILES O=c1c(O)c(-c2ccc(O)cc2O)oc2cc(O)cc(O)c12
REMARK SMILES IDX 5 1 3 2 2 3 1 4 22 5 20 6 19 7 17 8 16 9 15 10 14 11 6 12
REMARK SMILES IDX 8 13 7 14 9 15 11 16 12 17 10 18 13 20 4 22 21 24 18 26
REMARK H PARENT 10 19 13 21 4 23 21 25 18 27
REMARK Flexibility Score: inf
ROOT
ATOM      1  C   UNL     1       5.404  -3.888   0.115  1.00  0.00     0.184 A 
ATOM      2  C   UNL     1       5.324  -4.389   1.423  1.00  0.00     0.208 A 
ATOM      3  C   UNL     1       5.333  -5.779   1.621  1.00  0.00     0.238 A 
ATOM      4  O   UNL     1       5.323  -6.221   2.799  1.00  0.00    -0.285 OA
ATOM      5  C   UNL     1       5.395  -6.648   0.504  1.00  0.00     0.111 A 
ATOM      6  C   UNL     1       5.370  -8.073   0.584  1.00  0.00     0.134 A 
ATOM      7  C   UNL     1       5.559  -8.833  -0.577  1.00  0.00     0.093 A 
ATOM      8  C   UNL     1       5.707  -8.222  -1.822  1.00  0.00     0.123 A 
ATOM      9  C   UNL     1       5.674  -6.831  -1.919  1.00  0.00     0.094 A 
ATOM     10  C   UNL     1       5.524  -6.045  -0.775  1.00  0.00     0.146 A 
ATOM     11  O   UNL     1       5.512  -4.724  -0.910  1.00  0.00    -0.451 OA
ENDROOT
BRANCH   1  12
ATOM     12  C   UNL     1       5.376  -2.434  -0.155  1.00  0.00     0.063 A 
ATOM     13  C   UNL     1       4.120  -0.350  -0.214  1.00  0.00     0.047 A 
ATOM     14  C   UNL     1       4.193  -1.713   0.084  1.00  0.00     0.020 A 
ATOM     15  C   UNL     1       5.221   0.310  -0.762  1.00  0.00     0.119 A 
ATOM     16  C   UNL     1       6.405  -0.400  -1.008  1.00  0.00     0.093 A 
ATOM     17  C   UNL     1       6.493  -1.763  -0.703  1.00  0.00     0.130 A 
BRANCH  15  18
ATOM     18  O   UNL     1       5.133   1.667  -1.060  1.00  0.00    -0.508 OA
ATOM     19  H   UNL     1       4.607   2.002  -1.859  1.00  0.00     0.293 HD
ENDBRANCH  15  18
BRANCH  17  20
ATOM     20  O   UNL     1       7.709  -2.412  -0.934  1.00  0.00    -0.507 OA
ATOM     21  H   UNL     1       8.082  -2.571  -1.860  1.00  0.00     0.293 HD
ENDBRANCH  17  20
ENDBRANCH   1  12
BRANCH   2  22
ATOM     22  O   UNL     1       5.261  -3.507   2.506  1.00  0.00    -0.502 OA
ATOM     23  H   UNL     1       6.026  -3.398   3.161  1.00  0.00     0.293 HD
ENDBRANCH   2  22
BRANCH   6  24
ATOM     24  O   UNL     1       5.139  -8.786   1.765  1.00  0.00    -0.507 OA
ATOM     25  H   UNL     1       4.958  -8.367   2.664  1.00  0.00     0.293 HD
ENDBRANCH   6  24
BRANCH   8  26
ATOM     26  O   UNL     1       5.877  -9.011  -2.958  1.00  0.00    -0.508 OA
ATOM     27  H   UNL     1       6.460  -8.708  -3.730  1.00  0.00     0.293 HD
ENDBRANCH   8  26
TORSDOF 6
ENDMDL
MODEL 5
REMARK VINA RESULT:    -4.283      1.769      6.502
REMARK INTER + INTRA:          -5.473
REMARK INTER:                  -5.165
REMARK INTRA:                  -0.308
REMARK UNBOUND:                -0.314
REMARK SMILES O=c1c(O)c(-c2ccc(O)cc2O)oc2cc(O)cc(O)c12
REMARK SMILES IDX 5 1 3 2 2 3 1 4 22 5 20 6 19 7 17 8 16 9 15 10 14 11 6 12
REMARK SMILES IDX 8 13 7 14 9 15 11 16 12 17 10 18 13 20 4 22 21 24 18 26
REMARK H PARENT 10 19 13 21 4 23 21 25 18 27
REMARK Flexibility Score: inf
ROOT
ATOM      1  C   UNL     1      -2.857  -5.529  -5.675  1.00  0.00     0.184 A 
ATOM      2  C   UNL     1      -4.194  -5.390  -5.275  1.00  0.00     0.208 A 
ATOM      3  C   UNL     1      -4.695  -4.106  -5.010  1.00  0.00     0.238 A 
ATOM      4  O   UNL     1      -5.911  -3.983  -4.711  1.00  0.00    -0.285 OA
ATOM      5  C   UNL     1      -3.842  -2.980  -5.122  1.00  0.00     0.111 A 
ATOM      6  C   UNL     1      -4.232  -1.636  -4.840  1.00  0.00     0.134 A 
ATOM      7  C   UNL     1      -3.340  -0.590  -5.103  1.00  0.00     0.093 A 
ATOM      8  C   UNL     1      -2.052  -0.841  -5.576  1.00  0.00     0.123 A 
ATOM      9  C   UNL     1      -1.641  -2.155  -5.800  1.00  0.00     0.094 A 
ATOM     10  C   UNL     1      -2.520  -3.218  -5.582  1.00  0.00     0.146 A 
ATOM     11  O   UNL     1      -2.093  -4.453  -5.821  1.00  0.00    -0.451 OA
ENDROOT
BRANCH   1  12
ATOM     12  C   UNL     1      -2.268  -6.858  -5.945  1.00  0.00     0.063 A 
ATOM     13  C   UNL     1      -1.574  -8.539  -7.563  1.00  0.00     0.047 A 
ATOM     14  C   UNL     1      -2.076  -7.268  -7.277  1.00  0.00     0.020 A 
ATOM     15  C   UNL     1      -1.264  -9.422  -6.527  1.00  0.00     0.119 A 
ATOM     16  C   UNL     1      -1.453  -9.026  -5.196  1.00  0.00     0.093 A 
ATOM     17  C   UNL     1      -1.945  -7.750  -4.897  1.00  0.00     0.130 A 
BRANCH  15  18
ATOM     18  O   UNL     1      -0.769 -10.689  -6.826  1.00  0.00    -0.508 OA
ATOM     19  H   UNL     1      -1.191 -11.528  -6.445  1.00  0.00     0.293 HD
ENDBRANCH  15  18
BRANCH  17  20
ATOM     20  O   UNL     1      -2.079  -7.394  -3.552  1.00  0.00    -0.507 OA
ATOM     21  H   UNL     1      -2.614  -6.592  -3.244  1.00  0.00     0.293 HD
ENDBRANCH  17  20
ENDBRANCH   1  12
BRANCH   2  22
ATOM     22  O   UNL     1      -5.012  -6.519  -5.169  1.00  0.00    -0.502 OA
ATOM     23  H   UNL     1      -5.510  -6.750  -4.318  1.00  0.00     0.293 HD
ENDBRANCH   2  22
BRANCH   6  24
ATOM     24  O   UNL     1      -5.463  -1.281  -4.280  1.00  0.00    -0.507 OA
ATOM     25  H   UNL     1      -5.581  -0.655  -3.500  1.00  0.00     0.293 HD
ENDBRANCH   6  24
BRANCH   8  26
ATOM     26  O   UNL     1      -1.186   0.225  -5.811  1.00  0.00    -0.508 OA
ATOM     27  H   UNL     1      -0.955   0.890  -5.081  1.00  0.00     0.293 HD
ENDBRANCH   8  26
TORSDOF 6
ENDMDL
MODEL 6
REMARK VINA RESULT:    -4.238      1.709      2.524
REMARK INTER + INTRA:          -5.418
REMARK INTER:                  -5.030
REMARK INTRA:                  -0.389
REMARK UNBOUND:                -0.314
REMARK SMILES O=c1c(O)c(-c2ccc(O)cc2O)oc2cc(O)cc(O)c12
REMARK SMILES IDX 5 1 3 2 2 3 1 4 22 5 20 6 19 7 17 8 16 9 15 10 14 11 6 12
REMARK SMILES IDX 8 13 7 14 9 15 11 16 12 17 10 18 13 20 4 22 21 24 18 26
REMARK H PARENT 10 19 13 21 4 23 21 25 18 27
REMARK Flexibility Score: inf
ROOT
ATOM      1  C   UNL     1      -2.827  -2.492  -5.494  1.00  0.00     0.184 A 
ATOM      2  C   UNL     1      -3.816  -2.476  -4.499  1.00  0.00     0.208 A 
ATOM      3  C   UNL     1      -4.250  -3.694  -3.952  1.00  0.00     0.238 A 
ATOM      4  O   UNL     1      -5.092  -3.668  -3.017  1.00  0.00    -0.285 OA
ATOM      5  C   UNL     1      -3.707  -4.913  -4.428  1.00  0.00     0.111 A 
ATOM      6  C   UNL     1      -4.101  -6.207  -3.973  1.00  0.00     0.134 A 
ATOM      7  C   UNL     1      -3.410  -7.337  -4.427  1.00  0.00     0.093 A 
ATOM      8  C   UNL     1      -2.386  -7.227  -5.366  1.00  0.00     0.123 A 
ATOM      9  C   UNL     1      -2.032  -5.972  -5.861  1.00  0.00     0.094 A 
ATOM     10  C   UNL     1      -2.677  -4.822  -5.400  1.00  0.00     0.146 A 
ATOM     11  O   UNL     1      -2.300  -3.645  -5.886  1.00  0.00    -0.451 OA
ENDROOT
BRANCH   1  12
ATOM     12  C   UNL     1      -2.348  -1.243  -6.124  1.00  0.00     0.063 A 
ATOM     13  C   UNL     1      -2.622   0.466  -7.835  1.00  0.00     0.047 A 
ATOM     14  C   UNL     1      -3.080  -0.682  -7.185  1.00  0.00     0.020 A 
ATOM     15  C   UNL     1      -1.425   1.066  -7.441  1.00  0.00     0.119 A 
ATOM     16  C   UNL     1      -0.685   0.515  -6.386  1.00  0.00     0.093 A 
ATOM     17  C   UNL     1      -1.140  -0.629  -5.721  1.00  0.00     0.130 A 
BRANCH  15  18
ATOM     18  O   UNL     1      -0.977   2.208  -8.101  1.00  0.00    -0.508 OA
ATOM     19  H   UNL     1      -0.084   2.228  -8.580  1.00  0.00     0.293 HD
ENDBRANCH  15  18
BRANCH  17  20
ATOM     20  O   UNL     1      -0.381  -1.115  -4.652  1.00  0.00    -0.507 OA
ATOM     21  H   UNL     1      -0.790  -1.581  -3.853  1.00  0.00     0.293 HD
ENDBRANCH  17  20
ENDBRANCH   1  12
BRANCH   2  22
ATOM     22  O   UNL     1      -4.335  -1.258  -4.051  1.00  0.00    -0.502 OA
ATOM     23  H   UNL     1      -4.826  -0.619  -4.665  1.00  0.00     0.293 HD
ENDBRANCH   2  22
BRANCH   6  24
ATOM     24  O   UNL     1      -5.172  -6.438  -3.104  1.00  0.00    -0.507 OA
ATOM     25  H   UNL     1      -5.087  -6.575  -2.109  1.00  0.00     0.293 HD
ENDBRANCH   6  24
BRANCH   8  26
ATOM     26  O   UNL     1      -1.732  -8.375  -5.807  1.00  0.00    -0.508 OA
ATOM     27  H   UNL     1      -1.886  -8.748  -6.737  1.00  0.00     0.293 HD
ENDBRANCH   8  26
TORSDOF 6
ENDMDL
MODEL 7
REMARK VINA RESULT:    -4.161      1.653      2.099
REMARK INTER + INTRA:          -5.326
REMARK INTER:                  -4.925
REMARK INTRA:                  -0.402
REMARK UNBOUND:                -0.314
REMARK SMILES O=c1c(O)c(-c2ccc(O)cc2O)oc2cc(O)cc(O)c12
REMARK SMILES IDX 5 1 3 2 2 3 1 4 22 5 20 6 19 7 17 8 16 9 15 10 14 11 6 12
REMARK SMILES IDX 8 13 7 14 9 15 11 16 12 17 10 18 13 20 4 22 21 24 18 26
REMARK H PARENT 10 19 13 21 4 23 21 25 18 27
REMARK Flexibility Score: inf
ROOT
ATOM      1  C   UNL     1      -2.708  -4.592  -5.689  1.00  0.00     0.184 A 
ATOM      2  C   UNL     1      -2.582  -5.386  -4.539  1.00  0.00     0.208 A 
ATOM      3  C   UNL     1      -2.601  -6.783  -4.672  1.00  0.00     0.238 A 
ATOM      4  O   UNL     1      -2.426  -7.489  -3.644  1.00  0.00    -0.285 OA
ATOM      5  C   UNL     1      -2.775  -7.367  -5.951  1.00  0.00     0.111 A 
ATOM      6  C   UNL     1      -2.850  -8.771  -6.197  1.00  0.00     0.134 A 
ATOM      7  C   UNL     1      -2.902  -9.237  -7.517  1.00  0.00     0.093 A 
ATOM      8  C   UNL     1      -2.946  -8.352  -8.594  1.00  0.00     0.123 A 
ATOM      9  C   UNL     1      -2.932  -6.977  -8.360  1.00  0.00     0.094 A 
ATOM     10  C   UNL     1      -2.844  -6.481  -7.058  1.00  0.00     0.146 A 
ATOM     11  O   UNL     1      -2.819  -5.165  -6.881  1.00  0.00    -0.451 OA
ENDROOT
BRANCH   1  12
ATOM     12  C   UNL     1      -2.717  -3.115  -5.608  1.00  0.00     0.063 A 
ATOM     13  C   UNL     1      -1.477  -1.021  -5.612  1.00  0.00     0.047 A 
ATOM     14  C   UNL     1      -1.507  -2.412  -5.739  1.00  0.00     0.020 A 
ATOM     15  C   UNL     1      -2.651  -0.314  -5.345  1.00  0.00     0.119 A 
ATOM     16  C   UNL     1      -3.863  -1.005  -5.210  1.00  0.00     0.093 A 
ATOM     17  C   UNL     1      -3.907  -2.398  -5.346  1.00  0.00     0.130 A 
BRANCH  15  18
ATOM     18  O   UNL     1      -2.606   1.072  -5.215  1.00  0.00    -0.508 OA
ATOM     19  H   UNL     1      -3.205   1.676  -5.765  1.00  0.00     0.293 HD
ENDBRANCH  15  18
BRANCH  17  20
ATOM     20  O   UNL     1      -5.148  -3.031  -5.239  1.00  0.00    -0.507 OA
ATOM     21  H   UNL     1      -5.272  -4.026  -5.371  1.00  0.00     0.293 HD
ENDBRANCH  17  20
ENDBRANCH   1  12
BRANCH   2  22
ATOM     22  O   UNL     1      -2.414  -4.782  -3.290  1.00  0.00    -0.502 OA
ATOM     23  H   UNL     1      -2.142  -5.306  -2.467  1.00  0.00     0.293 HD
ENDBRANCH   2  22
BRANCH   6  24
ATOM     24  O   UNL     1      -2.904  -9.739  -5.190  1.00  0.00    -0.507 OA
ATOM     25  H   UNL     1      -2.668  -9.578  -4.224  1.00  0.00     0.293 HD
ENDBRANCH   6  24
BRANCH   8  26
ATOM     26  O   UNL     1      -3.013  -8.853  -9.892  1.00  0.00    -0.508 OA
ATOM     27  H   UNL     1      -3.781  -9.442 -10.193  1.00  0.00     0.293 HD
ENDBRANCH   8  26
TORSDOF 6
ENDMDL
MODEL 8
REMARK VINA RESULT:    -4.156      3.189      5.065
REMARK INTER + INTRA:          -5.320
REMARK INTER:                  -4.926
REMARK INTRA:                  -0.394
REMARK UNBOUND:                -0.314
REMARK SMILES O=c1c(O)c(-c2ccc(O)cc2O)oc2cc(O)cc(O)c12
REMARK SMILES IDX 5 1 3 2 2 3 1 4 22 5 20 6 19 7 17 8 16 9 15 10 14 11 6 12
REMARK SMILES IDX 8 13 7 14 9 15 11 16 12 17 10 18 13 20 4 22 21 24 18 26
REMARK H PARENT 10 19 13 21 4 23 21 25 18 27
REMARK Flexibility Score: inf
ROOT
ATOM      1  C   UNL     1      -2.232  -0.514  -6.539  1.00  0.00     0.184 A 
ATOM      2  C   UNL     1      -1.703  -1.479  -5.669  1.00  0.00     0.208 A 
ATOM      3  C   UNL     1      -2.172  -2.800  -5.751  1.00  0.00     0.238 A 
ATOM      4  O   UNL     1      -1.649  -3.673  -5.011  1.00  0.00    -0.285 OA
ATOM      5  C   UNL     1      -3.185  -3.131  -6.685  1.00  0.00     0.111 A 
ATOM      6  C   UNL     1      -3.762  -4.428  -6.828  1.00  0.00     0.134 A 
ATOM      7  C   UNL     1      -4.670  -4.667  -7.868  1.00  0.00     0.093 A 
ATOM      8  C   UNL     1      -5.070  -3.645  -8.727  1.00  0.00     0.123 A 
ATOM      9  C   UNL     1      -4.555  -2.359  -8.558  1.00  0.00     0.094 A 
ATOM     10  C   UNL     1      -3.620  -2.096  -7.555  1.00  0.00     0.146 A 
ATOM     11  O   UNL     1      -3.144  -0.862  -7.439  1.00  0.00    -0.451 OA
ENDROOT
BRANCH   1  12
ATOM     12  C   UNL     1      -1.793   0.897  -6.483  1.00  0.00     0.063 A 
ATOM     13  C   UNL     1      -0.194   2.609  -7.143  1.00  0.00     0.047 A 
ATOM     14  C   UNL     1      -0.665   1.296  -7.220  1.00  0.00     0.020 A 
ATOM     15  C   UNL     1      -0.838   3.539  -6.323  1.00  0.00     0.119 A 
ATOM     16  C   UNL     1      -1.962   3.152  -5.582  1.00  0.00     0.093 A 
ATOM     17  C   UNL     1      -2.449   1.841  -5.660  1.00  0.00     0.130 A 
BRANCH  15  18
ATOM     18  O   UNL     1      -0.355   4.843  -6.251  1.00  0.00    -0.508 OA
ATOM     19  H   UNL     1      -0.329   5.445  -7.066  1.00  0.00     0.293 HD
ENDBRANCH  15  18
BRANCH  17  20
ATOM     20  O   UNL     1      -3.595   1.520  -4.928  1.00  0.00    -0.507 OA
ATOM     21  H   UNL     1      -4.532   1.701  -5.263  1.00  0.00     0.293 HD
ENDBRANCH  17  20
ENDBRANCH   1  12
BRANCH   2  22
ATOM     22  O   UNL     1      -0.706  -1.124  -4.756  1.00  0.00    -0.502 OA
ATOM     23  H   UNL     1      -0.592  -1.595  -3.867  1.00  0.00     0.293 HD
ENDBRANCH   2  22
BRANCH   6  24
ATOM     24  O   UNL     1      -3.502  -5.499  -5.968  1.00  0.00    -0.507 OA
ATOM     25  H   UNL     1      -2.608  -5.692  -5.544  1.00  0.00     0.293 HD
ENDBRANCH   6  24
BRANCH   8  26
ATOM     26  O   UNL     1      -5.987  -3.916  -9.739  1.00  0.00    -0.508 OA
ATOM     27  H   UNL     1      -5.732  -3.847 -10.718  1.00  0.00     0.293 HD
ENDBRANCH   8  26
TORSDOF 6
ENDMDL
MODEL 9
REMARK VINA RESULT:    -4.072      2.163      3.691
REMARK INTER + INTRA:          -5.218
REMARK INTER:                  -4.821
REMARK INTRA:                  -0.397
REMARK UNBOUND:                -0.314
REMARK SMILES O=c1c(O)c(-c2ccc(O)cc2O)oc2cc(O)cc(O)c12
REMARK SMILES IDX 5 1 3 2 2 3 1 4 22 5 20 6 19 7 17 8 16 9 15 10 14 11 6 12
REMARK SMILES IDX 8 13 7 14 9 15 11 16 12 17 10 18 13 20 4 22 21 24 18 26
REMARK H PARENT 10 19 13 21 4 23 21 25 18 27
REMARK Flexibility Score: inf
ROOT
ATOM      1  C   UNL     1      -2.916  -2.586  -4.805  1.00  0.00     0.184 A 
ATOM      2  C   UNL     1      -2.930  -3.482  -5.885  1.00  0.00     0.208 A 
ATOM      3  C   UNL     1      -2.876  -4.860  -5.627  1.00  0.00     0.238 A 
ATOM      4  O   UNL     1      -2.951  -5.659  -6.596  1.00  0.00    -0.285 OA
ATOM      5  C   UNL     1      -2.780  -5.323  -4.291  1.00  0.00     0.111 A 
ATOM      6  C   UNL     1      -2.680  -6.696  -3.914  1.00  0.00     0.134 A 
ATOM      7  C   UNL     1      -2.713  -7.043  -2.558  1.00  0.00     0.093 A 
ATOM      8  C   UNL     1      -2.778  -6.066  -1.565  1.00  0.00     0.123 A 
ATOM      9  C   UNL     1      -2.818  -4.718  -1.921  1.00  0.00     0.094 A 
ATOM     10  C   UNL     1      -2.823  -4.341  -3.265  1.00  0.00     0.146 A 
ATOM     11  O   UNL     1      -2.877  -3.048  -3.562  1.00  0.00    -0.451 OA
ENDROOT
BRANCH   1  12
ATOM     12  C   UNL     1      -2.948  -1.123  -5.018  1.00  0.00     0.063 A 
ATOM     13  C   UNL     1      -4.249   0.902  -5.379  1.00  0.00     0.047 A 
ATOM     14  C   UNL     1      -4.189  -0.470  -5.123  1.00  0.00     0.020 A 
ATOM     15  C   UNL     1      -3.075   1.639  -5.541  1.00  0.00     0.119 A 
ATOM     16  C   UNL     1      -1.833   0.999  -5.441  1.00  0.00     0.093 A 
ATOM     17  C   UNL     1      -1.759  -0.374  -5.174  1.00  0.00     0.130 A 
BRANCH  15  18
ATOM     18  O   UNL     1      -3.150   3.005  -5.802  1.00  0.00    -0.508 OA
ATOM     19  H   UNL     1      -3.907   3.574  -5.440  1.00  0.00     0.293 HD
ENDBRANCH  15  18
BRANCH  17  20
ATOM     20  O   UNL     1      -0.494  -0.953  -5.048  1.00  0.00    -0.507 OA
ATOM     21  H   UNL     1      -0.068  -1.160  -4.154  1.00  0.00     0.293 HD
ENDBRANCH  17  20
ENDBRANCH   1  12
BRANCH   2  22
ATOM     22  O   UNL     1      -3.023  -2.996  -7.193  1.00  0.00    -0.502 OA
ATOM     23  H   UNL     1      -2.351  -2.343  -7.577  1.00  0.00     0.293 HD
ENDBRANCH   2  22
BRANCH   6  24
ATOM     24  O   UNL     1      -2.519  -7.746  -4.823  1.00  0.00    -0.507 OA
ATOM     25  H   UNL     1      -2.842  -8.689  -4.676  1.00  0.00     0.293 HD
ENDBRANCH   6  24
BRANCH   8  26
ATOM     26  O   UNL     1      -2.793  -6.449  -0.225  1.00  0.00    -0.508 OA
ATOM     27  H   UNL     1      -2.979  -7.406   0.050  1.00  0.00     0.293 HD
ENDBRANCH   8  26
TORSDOF 6
ENDMDL
