MODEL 1
REMARK VINA RESULT:    -3.696      0.000      0.000
REMARK INTER + INTRA:          -4.735
REMARK INTER:                  -4.560
REMARK INTRA:                  -0.175
REMARK UNBOUND:                -0.175
REMARK SMILES CCCCCC(=O)[O-]
REMARK SMILES IDX 4 1 5 2 6 3 7 4 8 5 3 6 2 7 1 8
REMARK H PARENT
REMARK Flexibility Score: inf
ROOT
ATOM      1  C   UNL     1      53.281  46.729  12.410  1.00  0.00     0.006 C 
ENDROOT
BRANCH   1   2
ATOM      2  C   UNL     1      54.552  46.096  11.814  1.00  0.00     0.053 C 
BRANCH   2   3
ATOM      3  C   UNL     1      54.622  44.617  12.037  1.00  0.00     0.041 C 
ATOM      4  O   UNL     1      54.588  43.823  11.059  1.00  0.00    -0.550 OA
ATOM      5  O   UNL     1      54.765  44.112  13.324  1.00  0.00    -0.550 OA
ENDBRANCH   2   3
ENDBRANCH   1   2
BRANCH   1   6
ATOM      6  C   UNL     1      51.969  46.215  11.782  1.00  0.00     0.000 C 
BRANCH   6   7
ATOM      7  C   UNL     1      51.716  46.672  10.336  1.00  0.00    -0.003 C 
ATOM      8  C   UNL     1      51.014  48.027  10.250  1.00  0.00     0.004 C 
ENDBRANCH   6   7
ENDBRANCH   1   6
TORSDOF 4
ENDMDL
MODEL 2
REMARK VINA RESULT:    -3.679      1.280      1.867
REMARK INTER + INTRA:          -4.715
REMARK INTER:                  -4.495
REMARK INTRA:                  -0.220
REMARK UNBOUND:                -0.175
REMARK SMILES CCCCCC(=O)[O-]
REMARK SMILES IDX 4 1 5 2 6 3 7 4 8 5 3 6 2 7 1 8
REMARK H PARENT
REMARK Flexibility Score: inf
ROOT
ATOM      1  C   UNL     1      54.276  46.198  11.932  1.00  0.00     0.006 C 
ENDROOT
BRANCH   1   2
ATOM      2  C   UNL     1      54.397  44.666  12.034  1.00  0.00     0.053 C 
BRANCH   2   3
ATOM      3  C   UNL     1      54.275  43.986  10.705  1.00  0.00     0.041 C 
ATOM      4  O   UNL     1      54.125  42.737  10.641  1.00  0.00    -0.550 OA
ATOM      5  O   UNL     1      54.286  44.736   9.535  1.00  0.00    -0.550 OA
ENDBRANCH   2   3
ENDBRANCH   1   2
BRANCH   1   6
ATOM      6  C   UNL     1      52.966  46.766  12.511  1.00  0.00     0.000 C 
BRANCH   6   7
ATOM      7  C   UNL     1      51.693  46.391  11.734  1.00  0.00    -0.003 C 
ATOM      8  C   UNL     1      51.669  46.960  10.315  1.00  0.00     0.004 C 
ENDBRANCH   6   7
ENDBRANCH   1   6
TORSDOF 4
ENDMDL
MODEL 3
REMARK VINA RESULT:    -3.633     14.071     15.017
REMARK INTER + INTRA:          -4.657
REMARK INTER:                  -4.547
REMARK INTRA:                  -0.110
REMARK UNBOUND:                -0.175
REMARK SMILES CCCCCC(=O)[O-]
REMARK SMILES IDX 4 1 5 2 6 3 7 4 8 5 3 6 2 7 1 8
REMARK H PARENT
REMARK Flexibility Score: inf
ROOT
ATOM      1  C   UNL     1      51.027  32.617   4.623  1.00  0.00     0.006 C 
ENDROOT
BRANCH   1   2
ATOM      2  C   UNL     1      50.409  33.759   3.795  1.00  0.00     0.053 C 
BRANCH   2   3
ATOM      3  C   UNL     1      50.716  33.646   2.333  1.00  0.00     0.041 C 
ATOM      4  O   UNL     1      51.882  33.365   1.948  1.00  0.00    -0.550 OA
ATOM      5  O   UNL     1      49.705  33.810   1.395  1.00  0.00    -0.550 OA
ENDBRANCH   2   3
ENDBRANCH   1   2
BRANCH   1   6
ATOM      6  C   UNL     1      50.535  32.560   6.083  1.00  0.00     0.000 C 
BRANCH   6   7
ATOM      7  C   UNL     1      49.429  33.568   6.437  1.00  0.00    -0.003 C 
ATOM      8  C   UNL     1      49.879  34.617   7.454  1.00  0.00     0.004 C 
ENDBRANCH   6   7
ENDBRANCH   1   6
TORSDOF 4
ENDMDL
MODEL 4
REMARK VINA RESULT:    -3.623     13.820     14.649
REMARK INTER + INTRA:          -4.645
REMARK INTER:                  -4.487
REMARK INTRA:                  -0.158
REMARK UNBOUND:                -0.175
REMARK SMILES CCCCCC(=O)[O-]
REMARK SMILES IDX 4 1 5 2 6 3 7 4 8 5 3 6 2 7 1 8
REMARK H PARENT
REMARK Flexibility Score: inf
ROOT
ATOM      1  C   UNL     1      50.884  32.220   5.832  1.00  0.00     0.006 C 
ENDROOT
BRANCH   1   2
ATOM      2  C   UNL     1      49.391  32.390   6.170  1.00  0.00     0.053 C 
BRANCH   2   3
ATOM      3  C   UNL     1      49.155  33.397   7.255  1.00  0.00     0.041 C 
ATOM      4  O   UNL     1      48.429  33.108   8.243  1.00  0.00    -0.550 OA
ATOM      5  O   UNL     1      49.768  34.641   7.195  1.00  0.00    -0.550 OA
ENDBRANCH   2   3
ENDBRANCH   1   2
BRANCH   1   6
ATOM      6  C   UNL     1      51.253  32.628   4.392  1.00  0.00     0.000 C 
BRANCH   6   7
ATOM      7  C   UNL     1      50.338  33.691   3.761  1.00  0.00    -0.003 C 
ATOM      8  C   UNL     1      50.529  33.825   2.251  1.00  0.00     0.004 C 
ENDBRANCH   6   7
ENDBRANCH   1   6
TORSDOF 4
ENDMDL
MODEL 5
REMARK VINA RESULT:    -3.597      2.529      3.981
REMARK INTER + INTRA:          -4.613
REMARK INTER:                  -4.428
REMARK INTRA:                  -0.184
REMARK UNBOUND:                -0.175
REMARK SMILES CCCCCC(=O)[O-]
REMARK SMILES IDX 4 1 5 2 6 3 7 4 8 5 3 6 2 7 1 8
REMARK H PARENT
REMARK Flexibility Score: inf
ROOT
ATOM      1  C   UNL     1      53.522  46.705  12.442  1.00  0.00     0.006 C 
ENDROOT
BRANCH   1   2
ATOM      2  C   UNL     1      52.108  46.120  12.271  1.00  0.00     0.053 C 
BRANCH   2   3
ATOM      3  C   UNL     1      51.406  46.647  11.057  1.00  0.00     0.041 C 
ATOM      4  O   UNL     1      51.870  46.423   9.907  1.00  0.00    -0.550 OA
ATOM      5  O   UNL     1      50.217  47.352  11.191  1.00  0.00    -0.550 OA
ENDBRANCH   2   3
ENDBRANCH   1   2
BRANCH   1   6
ATOM      6  C   UNL     1      54.643  45.823  11.857  1.00  0.00     0.000 C 
BRANCH   6   7
ATOM      7  C   UNL     1      54.444  44.309  12.042  1.00  0.00    -0.003 C 
ATOM      8  C   UNL     1      54.258  43.564  10.720  1.00  0.00     0.004 C 
ENDBRANCH   6   7
ENDBRANCH   1   6
TORSDOF 4
ENDMDL
MODEL 6
REMARK VINA RESULT:    -3.425     11.990     13.512
REMARK INTER + INTRA:          -4.401
REMARK INTER:                  -4.300
REMARK INTRA:                  -0.101
REMARK UNBOUND:                -0.175
REMARK SMILES CCCCCC(=O)[O-]
REMARK SMILES IDX 4 1 5 2 6 3 7 4 8 5 3 6 2 7 1 8
REMARK H PARENT
REMARK Flexibility Score: inf
ROOT
ATOM      1  C   UNL     1      47.830  51.027   1.530  1.00  0.00     0.006 C 
ENDROOT
BRANCH   1   2
ATOM      2  C   UNL     1      46.589  51.917   1.730  1.00  0.00     0.053 C 
BRANCH   2   3
ATOM      3  C   UNL     1      45.308  51.142   1.673  1.00  0.00     0.041 C 
ATOM      4  O   UNL     1      45.292  49.971   1.209  1.00  0.00    -0.550 OA
ATOM      5  O   UNL     1      44.136  51.698   2.170  1.00  0.00    -0.550 OA
ENDBRANCH   2   3
ENDBRANCH   1   2
BRANCH   1   6
ATOM      6  C   UNL     1      48.920  51.659   0.641  1.00  0.00     0.000 C 
BRANCH   6   7
ATOM      7  C   UNL     1      50.363  51.265   0.999  1.00  0.00    -0.003 C 
ATOM      8  C   UNL     1      50.530  50.876   2.468  1.00  0.00     0.004 C 
ENDBRANCH   6   7
ENDBRANCH   1   6
TORSDOF 4
ENDMDL
MODEL 7
REMARK VINA RESULT:    -3.413      1.068      2.102
REMARK INTER + INTRA:          -4.387
REMARK INTER:                  -4.133
REMARK INTRA:                  -0.254
REMARK UNBOUND:                -0.175
REMARK SMILES CCCCCC(=O)[O-]
REMARK SMILES IDX 4 1 5 2 6 3 7 4 8 5 3 6 2 7 1 8
REMARK H PARENT
REMARK Flexibility Score: inf
ROOT
ATOM      1  C   UNL     1      53.611  46.770  11.852  1.00  0.00     0.006 C 
ENDROOT
BRANCH   1   2
ATOM      2  C   UNL     1      54.681  45.820  11.284  1.00  0.00     0.053 C 
BRANCH   2   3
ATOM      3  C   UNL     1      54.513  44.409  11.757  1.00  0.00     0.041 C 
ATOM      4  O   UNL     1      54.595  44.135  12.984  1.00  0.00    -0.550 OA
ATOM      5  O   UNL     1      54.224  43.400  10.847  1.00  0.00    -0.550 OA
ENDBRANCH   2   3
ENDBRANCH   1   2
BRANCH   1   6
ATOM      6  C   UNL     1      52.162  46.343  11.541  1.00  0.00     0.000 C 
BRANCH   6   7
ATOM      7  C   UNL     1      51.253  46.177  12.770  1.00  0.00    -0.003 C 
ATOM      8  C   UNL     1      51.900  46.669  14.064  1.00  0.00     0.004 C 
ENDBRANCH   6   7
ENDBRANCH   1   6
TORSDOF 4
ENDMDL
MODEL 8
REMARK VINA RESULT:    -3.402      2.454      3.962
REMARK INTER + INTRA:          -4.373
REMARK INTER:                  -4.167
REMARK INTRA:                  -0.206
REMARK UNBOUND:                -0.175
REMARK SMILES CCCCCC(=O)[O-]
REMARK SMILES IDX 4 1 5 2 6 3 7 4 8 5 3 6 2 7 1 8
REMARK H PARENT
REMARK Flexibility Score: inf
ROOT
ATOM      1  C   UNL     1      52.375  45.369  10.719  1.00  0.00     0.006 C 
ENDROOT
BRANCH   1   2
ATOM      2  C   UNL     1      52.049  46.853  10.969  1.00  0.00     0.053 C 
BRANCH   2   3
ATOM      3  C   UNL     1      52.068  47.212  12.423  1.00  0.00     0.041 C 
ATOM      4  O   UNL     1      53.141  47.573  12.976  1.00  0.00    -0.550 OA
ATOM      5  O   UNL     1      50.892  47.189  13.162  1.00  0.00    -0.550 OA
ENDBRANCH   2   3
ENDBRANCH   1   2
BRANCH   1   6
ATOM      6  C   UNL     1      53.859  45.096  10.403  1.00  0.00     0.000 C 
BRANCH   6   7
ATOM      7  C   UNL     1      54.521  44.012  11.270  1.00  0.00    -0.003 C 
ATOM      8  C   UNL     1      54.580  44.383  12.751  1.00  0.00     0.004 C 
ENDBRANCH   6   7
ENDBRANCH   1   6
TORSDOF 4
ENDMDL
MODEL 9
REMARK VINA RESULT:    -3.382     12.363     13.197
REMARK INTER + INTRA:          -4.347
REMARK INTER:                  -4.289
REMARK INTRA:                  -0.058
REMARK UNBOUND:                -0.175
REMARK SMILES CCCCCC(=O)[O-]
REMARK SMILES IDX 4 1 5 2 6 3 7 4 8 5 3 6 2 7 1 8
REMARK H PARENT
REMARK Flexibility Score: inf
ROOT
ATOM      1  C   UNL     1      47.326  51.385   1.650  1.00  0.00     0.006 C 
ENDROOT
BRANCH   1   2
ATOM      2  C   UNL     1      48.378  51.803   0.606  1.00  0.00     0.053 C 
BRANCH   2   3
ATOM      3  C   UNL     1      49.767  51.388   0.985  1.00  0.00     0.041 C 
ATOM      4  O   UNL     1      50.743  51.682   0.245  1.00  0.00    -0.550 OA
ATOM      5  O   UNL     1      49.990  50.711   2.177  1.00  0.00    -0.550 OA
ENDBRANCH   2   3
ENDBRANCH   1   2
BRANCH   1   6
ATOM      6  C   UNL     1      45.872  51.461   1.144  1.00  0.00     0.000 C 
BRANCH   6   7
ATOM      7  C   UNL     1      44.911  50.435   1.767  1.00  0.00    -0.003 C 
ATOM      8  C   UNL     1      44.350  49.444   0.747  1.00  0.00     0.004 C 
ENDBRANCH   6   7
ENDBRANCH   1   6
TORSDOF 4
ENDMDL
