MODEL 1
REMARK VINA RESULT:    -4.520      0.000      0.000
REMARK INTER + INTRA:          -6.279
REMARK INTER:                  -5.577
REMARK INTRA:                  -0.702
REMARK UNBOUND:                -0.702
REMARK SMILES CC(C)=CCC[C@@H](C)c1ccc(C)cc1
REMARK SMILES IDX 6 1 7 2 8 3 9 4 13 5 12 6 11 7 14 8 10 9 15 10 5 11 4 12
REMARK SMILES IDX 2 13 1 14 3 15
REMARK H PARENT
REMARK Flexibility Score: inf
ROOT
ATOM      1  C   UNL     1      14.380  27.602  15.593  1.00  0.00     0.012 C 
ENDROOT
BRANCH   1   2
ATOM      2  C   UNL     1      14.618  26.522  16.677  1.00  0.00     0.016 C 
ATOM      3  C   UNL     1      15.798  25.598  16.335  1.00  0.00     0.013 C 
BRANCH   2   4
ATOM      4  C   UNL     1      14.834  27.177  18.030  1.00  0.00    -0.045 A 
ATOM      5  C   UNL     1      15.473  29.064  21.863  1.00  0.00     0.044 C 
ATOM      6  C   UNL     1      15.275  28.389  20.538  1.00  0.00    -0.051 A 
ATOM      7  C   UNL     1      15.946  28.855  19.399  1.00  0.00     0.004 A 
ATOM      8  C   UNL     1      14.366  27.329  20.415  1.00  0.00     0.004 A 
ATOM      9  C   UNL     1      15.734  28.251  18.157  1.00  0.00     0.004 A 
ATOM     10  C   UNL     1      14.153  26.722  19.174  1.00  0.00     0.004 A 
ENDBRANCH   2   4
ENDBRANCH   1   2
BRANCH   1  11
ATOM     11  C   UNL     1      13.507  27.133  14.415  1.00  0.00     0.028 C 
BRANCH  11  12
ATOM     12  C   UNL     1      14.330  26.628  13.254  1.00  0.00    -0.028 C 
ATOM     13  C   UNL     1      14.479  25.326  12.925  1.00  0.00    -0.080 C 
ATOM     14  C   UNL     1      13.768  24.223  13.675  1.00  0.00     0.039 C 
ATOM     15  C   UNL     1      15.366  24.978  11.758  1.00  0.00     0.039 C 
ENDBRANCH  11  12
ENDBRANCH   1  11
TORSDOF 4
ENDMDL
MODEL 2
REMARK VINA RESULT:    -4.498      2.961      4.515
REMARK INTER + INTRA:          -6.252
REMARK INTER:                  -5.439
REMARK INTRA:                  -0.813
REMARK UNBOUND:                -0.702
REMARK SMILES CC(C)=CCC[C@@H](C)c1ccc(C)cc1
REMARK SMILES IDX 6 1 7 2 8 3 9 4 13 5 12 6 11 7 14 8 10 9 15 10 5 11 4 12
REMARK SMILES IDX 2 13 1 14 3 15
REMARK H PARENT
REMARK Flexibility Score: inf
ROOT
ATOM      1  C   UNL     1      15.302  24.942  12.149  1.00  0.00     0.012 C 
ENDROOT
BRANCH   1   2
ATOM      2  C   UNL     1      14.758  26.071  13.058  1.00  0.00     0.016 C 
ATOM      3  C   UNL     1      13.477  26.709  12.498  1.00  0.00     0.013 C 
BRANCH   2   4
ATOM      4  C   UNL     1      14.517  25.543  14.461  1.00  0.00    -0.045 A 
ATOM      5  C   UNL     1      13.860  24.057  18.463  1.00  0.00     0.044 C 
ATOM      6  C   UNL     1      14.106  24.547  17.067  1.00  0.00    -0.051 A 
ATOM      7  C   UNL     1      15.186  25.399  16.797  1.00  0.00     0.004 A 
ATOM      8  C   UNL     1      13.219  24.212  16.034  1.00  0.00     0.004 A 
ATOM      9  C   UNL     1      15.395  25.887  15.504  1.00  0.00     0.004 A 
ATOM     10  C   UNL     1      13.426  24.698  14.741  1.00  0.00     0.004 A 
ENDBRANCH   2   4
ENDBRANCH   1   2
BRANCH   1  11
ATOM     11  C   UNL     1      14.289  24.420  11.114  1.00  0.00     0.028 C 
BRANCH  11  12
ATOM     12  C   UNL     1      14.660  23.055  10.583  1.00  0.00    -0.028 C 
ATOM     13  C   UNL     1      14.359  21.886  11.191  1.00  0.00    -0.080 C 
ATOM     14  C   UNL     1      13.549  21.830  12.466  1.00  0.00     0.039 C 
ATOM     15  C   UNL     1      14.832  20.605  10.555  1.00  0.00     0.039 C 
ENDBRANCH  11  12
ENDBRANCH   1  11
TORSDOF 4
ENDMDL
MODEL 3
REMARK VINA RESULT:    -4.479      0.991      1.571
REMARK INTER + INTRA:          -6.228
REMARK INTER:                  -5.684
REMARK INTRA:                  -0.544
REMARK UNBOUND:                -0.702
REMARK SMILES CC(C)=CCC[C@@H](C)c1ccc(C)cc1
REMARK SMILES IDX 6 1 7 2 8 3 9 4 13 5 12 6 11 7 14 8 10 9 15 10 5 11 4 12
REMARK SMILES IDX 2 13 1 14 3 15
REMARK H PARENT
REMARK Flexibility Score: inf
ROOT
ATOM      1  C   UNL     1      15.513  26.079  16.379  1.00  0.00     0.012 C 
ENDROOT
BRANCH   1   2
ATOM      2  C   UNL     1      14.341  26.338  17.358  1.00  0.00     0.016 C 
ATOM      3  C   UNL     1      13.718  25.035  17.884  1.00  0.00     0.013 C 
BRANCH   2   4
ATOM      4  C   UNL     1      14.807  27.206  18.514  1.00  0.00    -0.045 A 
ATOM      5  C   UNL     1      16.153  29.694  21.779  1.00  0.00     0.044 C 
ATOM      6  C   UNL     1      15.710  28.810  20.651  1.00  0.00    -0.051 A 
ATOM      7  C   UNL     1      16.185  29.031  19.350  1.00  0.00     0.004 A 
ATOM      8  C   UNL     1      14.765  27.799  20.875  1.00  0.00     0.004 A 
ATOM      9  C   UNL     1      15.744  28.232  18.292  1.00  0.00     0.004 A 
ATOM     10  C   UNL     1      14.323  26.998  19.819  1.00  0.00     0.004 A 
ENDBRANCH   2   4
ENDBRANCH   1   2
BRANCH   1  11
ATOM     11  C   UNL     1      15.129  25.256  15.137  1.00  0.00     0.028 C 
BRANCH  11  12
ATOM     12  C   UNL     1      14.274  26.039  14.169  1.00  0.00    -0.028 C 
ATOM     13  C   UNL     1      14.479  26.099  12.835  1.00  0.00    -0.080 C 
ATOM     14  C   UNL     1      15.581  25.317  12.157  1.00  0.00     0.039 C 
ATOM     15  C   UNL     1      13.559  26.956  12.006  1.00  0.00     0.039 C 
ENDBRANCH  11  12
ENDBRANCH   1  11
TORSDOF 4
ENDMDL
MODEL 4
REMARK VINA RESULT:    -4.350      2.280      4.475
REMARK INTER + INTRA:          -6.070
REMARK INTER:                  -5.435
REMARK INTRA:                  -0.635
REMARK UNBOUND:                -0.702
REMARK SMILES CC(C)=CCC[C@@H](C)c1ccc(C)cc1
REMARK SMILES IDX 6 1 7 2 8 3 9 4 13 5 12 6 11 7 14 8 10 9 15 10 5 11 4 12
REMARK SMILES IDX 2 13 1 14 3 15
REMARK H PARENT
REMARK Flexibility Score: inf
ROOT
ATOM      1  C   UNL     1      13.308  24.176  12.994  1.00  0.00     0.012 C 
ENDROOT
BRANCH   1   2
ATOM      2  C   UNL     1      14.771  24.592  13.283  1.00  0.00     0.016 C 
ATOM      3  C   UNL     1      15.469  25.179  12.045  1.00  0.00     0.013 C 
BRANCH   2   4
ATOM      4  C   UNL     1      14.816  25.582  14.434  1.00  0.00    -0.045 A 
ATOM      5  C   UNL     1      14.926  28.419  17.689  1.00  0.00     0.044 C 
ATOM      6  C   UNL     1      14.915  27.446  16.547  1.00  0.00    -0.051 A 
ATOM      7  C   UNL     1      14.235  27.757  15.361  1.00  0.00     0.004 A 
ATOM      8  C   UNL     1      15.527  26.192  16.682  1.00  0.00     0.004 A 
ATOM      9  C   UNL     1      14.192  26.836  14.311  1.00  0.00     0.004 A 
ATOM     10  C   UNL     1      15.486  25.271  15.632  1.00  0.00     0.004 A 
ENDBRANCH   2   4
ENDBRANCH   1   2
BRANCH   1  11
ATOM     11  C   UNL     1      13.167  23.014  11.994  1.00  0.00     0.028 C 
BRANCH  11  12
ATOM     12  C   UNL     1      13.607  21.694  12.581  1.00  0.00    -0.028 C 
ATOM     13  C   UNL     1      14.313  20.754  11.915  1.00  0.00    -0.080 C 
ATOM     14  C   UNL     1      14.795  20.966  10.498  1.00  0.00     0.039 C 
ATOM     15  C   UNL     1      14.646  19.469  12.627  1.00  0.00     0.039 C 
ENDBRANCH  11  12
ENDBRANCH   1  11
TORSDOF 4
ENDMDL
MODEL 5
REMARK VINA RESULT:    -4.348      2.273      4.527
REMARK INTER + INTRA:          -6.067
REMARK INTER:                  -5.430
REMARK INTRA:                  -0.637
REMARK UNBOUND:                -0.702
REMARK SMILES CC(C)=CCC[C@@H](C)c1ccc(C)cc1
REMARK SMILES IDX 6 1 7 2 8 3 9 4 13 5 12 6 11 7 14 8 10 9 15 10 5 11 4 12
REMARK SMILES IDX 2 13 1 14 3 15
REMARK H PARENT
REMARK Flexibility Score: inf
ROOT
ATOM      1  C   UNL     1      13.293  24.160  13.004  1.00  0.00     0.012 C 
ENDROOT
BRANCH   1   2
ATOM      2  C   UNL     1      14.758  24.590  13.260  1.00  0.00     0.016 C 
ATOM      3  C   UNL     1      15.419  25.192  12.009  1.00  0.00     0.013 C 
BRANCH   2   4
ATOM      4  C   UNL     1      14.821  25.573  14.416  1.00  0.00    -0.045 A 
ATOM      5  C   UNL     1      15.018  28.343  17.724  1.00  0.00     0.044 C 
ATOM      6  C   UNL     1      14.923  27.369  16.588  1.00  0.00    -0.051 A 
ATOM      7  C   UNL     1      15.575  26.130  16.663  1.00  0.00     0.004 A 
ATOM      8  C   UNL     1      14.238  27.716  15.415  1.00  0.00     0.004 A 
ATOM      9  C   UNL     1      15.519  25.236  15.590  1.00  0.00     0.004 A 
ATOM     10  C   UNL     1      14.180  26.823  14.342  1.00  0.00     0.004 A 
ENDBRANCH   2   4
ENDBRANCH   1   2
BRANCH   1  11
ATOM     11  C   UNL     1      13.139  23.001  12.003  1.00  0.00     0.028 C 
BRANCH  11  12
ATOM     12  C   UNL     1      13.596  21.680  12.577  1.00  0.00    -0.028 C 
ATOM     13  C   UNL     1      14.315  20.756  11.904  1.00  0.00    -0.080 C 
ATOM     14  C   UNL     1      14.794  20.987  10.489  1.00  0.00     0.039 C 
ATOM     15  C   UNL     1      14.663  19.469  12.604  1.00  0.00     0.039 C 
ENDBRANCH  11  12
ENDBRANCH   1  11
TORSDOF 4
ENDMDL
MODEL 6
REMARK VINA RESULT:    -4.332      2.204      7.121
REMARK INTER + INTRA:          -6.047
REMARK INTER:                  -5.490
REMARK INTRA:                  -0.557
REMARK UNBOUND:                -0.702
REMARK SMILES CC(C)=CCC[C@@H](C)c1ccc(C)cc1
REMARK SMILES IDX 6 1 7 2 8 3 9 4 13 5 12 6 11 7 14 8 10 9 15 10 5 11 4 12
REMARK SMILES IDX 2 13 1 14 3 15
REMARK H PARENT
REMARK Flexibility Score: inf
ROOT
ATOM      1  C   UNL     1      15.284  25.606  15.933  1.00  0.00     0.012 C 
ENDROOT
BRANCH   1   2
ATOM      2  C   UNL     1      14.174  25.987  14.923  1.00  0.00     0.016 C 
ATOM      3  C   UNL     1      14.214  27.475  14.541  1.00  0.00     0.013 C 
BRANCH   2   4
ATOM      4  C   UNL     1      14.276  25.119  13.681  1.00  0.00    -0.045 A 
ATOM      5  C   UNL     1      14.585  22.677  10.131  1.00  0.00     0.044 C 
ATOM      6  C   UNL     1      14.451  23.538  11.352  1.00  0.00    -0.051 A 
ATOM      7  C   UNL     1      15.052  24.804  11.395  1.00  0.00     0.004 A 
ATOM      8  C   UNL     1      13.781  23.056  12.485  1.00  0.00     0.004 A 
ATOM      9  C   UNL     1      14.959  25.591  12.545  1.00  0.00     0.004 A 
ATOM     10  C   UNL     1      13.687  23.842  13.637  1.00  0.00     0.004 A 
ENDBRANCH   2   4
ENDBRANCH   1   2
BRANCH   1  11
ATOM     11  C   UNL     1      14.847  25.674  17.408  1.00  0.00     0.028 C 
BRANCH  11  12
ATOM     12  C   UNL     1      14.134  24.419  17.854  1.00  0.00    -0.028 C 
ATOM     13  C   UNL     1      13.635  24.218  19.093  1.00  0.00    -0.080 C 
ATOM     14  C   UNL     1      13.693  25.284  20.164  1.00  0.00     0.039 C 
ATOM     15  C   UNL     1      12.981  22.896  19.397  1.00  0.00     0.039 C 
ENDBRANCH  11  12
ENDBRANCH   1  11
TORSDOF 4
ENDMDL
MODEL 7
REMARK VINA RESULT:    -4.184     12.632     14.549
REMARK INTER + INTRA:          -5.864
REMARK INTER:                  -4.708
REMARK INTRA:                  -1.157
REMARK UNBOUND:                -0.702
REMARK SMILES CC(C)=CCC[C@@H](C)c1ccc(C)cc1
REMARK SMILES IDX 6 1 7 2 8 3 9 4 13 5 12 6 11 7 14 8 10 9 15 10 5 11 4 12
REMARK SMILES IDX 2 13 1 14 3 15
REMARK H PARENT
REMARK Flexibility Score: inf
ROOT
ATOM      1  C   UNL     1      19.951  17.884   9.014  1.00  0.00     0.012 C 
ENDROOT
BRANCH   1   2
ATOM      2  C   UNL     1      18.516  17.426   9.374  1.00  0.00     0.016 C 
ATOM      3  C   UNL     1      17.685  17.070   8.131  1.00  0.00     0.013 C 
BRANCH   2   4
ATOM      4  C   UNL     1      18.568  16.247  10.330  1.00  0.00    -0.045 A 
ATOM      5  C   UNL     1      18.698  12.915  13.076  1.00  0.00     0.044 C 
ATOM      6  C   UNL     1      18.680  14.083  12.135  1.00  0.00    -0.051 A 
ATOM      7  C   UNL     1      18.037  15.274  12.498  1.00  0.00     0.004 A 
ATOM      8  C   UNL     1      19.248  13.969  10.858  1.00  0.00     0.004 A 
ATOM      9  C   UNL     1      17.987  16.350  11.607  1.00  0.00     0.004 A 
ATOM     10  C   UNL     1      19.200  15.044   9.966  1.00  0.00     0.004 A 
ENDBRANCH   2   4
ENDBRANCH   1   2
BRANCH   1  11
ATOM     11  C   UNL     1      20.348  17.628   7.549  1.00  0.00     0.028 C 
BRANCH  11  12
ATOM     12  C   UNL     1      21.466  16.620   7.424  1.00  0.00    -0.028 C 
ATOM     13  C   UNL     1      21.332  15.385   6.894  1.00  0.00    -0.080 C 
ATOM     14  C   UNL     1      20.027  14.902   6.305  1.00  0.00     0.039 C 
ATOM     15  C   UNL     1      22.536  14.479   6.874  1.00  0.00     0.039 C 
ENDBRANCH  11  12
ENDBRANCH   1  11
TORSDOF 4
ENDMDL
MODEL 8
REMARK VINA RESULT:    -4.181      2.380      3.583
REMARK INTER + INTRA:          -5.860
REMARK INTER:                  -4.811
REMARK INTRA:                  -1.050
REMARK UNBOUND:                -0.702
REMARK SMILES CC(C)=CCC[C@@H](C)c1ccc(C)cc1
REMARK SMILES IDX 6 1 7 2 8 3 9 4 13 5 12 6 11 7 14 8 10 9 15 10 5 11 4 12
REMARK SMILES IDX 2 13 1 14 3 15
REMARK H PARENT
REMARK Flexibility Score: inf
ROOT
ATOM      1  C   UNL     1      12.974  27.453  13.110  1.00  0.00     0.012 C 
ENDROOT
BRANCH   1   2
ATOM      2  C   UNL     1      14.164  27.712  14.065  1.00  0.00     0.016 C 
ATOM      3  C   UNL     1      14.212  29.166  14.562  1.00  0.00     0.013 C 
BRANCH   2   4
ATOM      4  C   UNL     1      14.109  26.753  15.242  1.00  0.00    -0.045 A 
ATOM      5  C   UNL     1      13.969  24.049  18.608  1.00  0.00     0.044 C 
ATOM      6  C   UNL     1      14.045  24.976  17.431  1.00  0.00    -0.051 A 
ATOM      7  C   UNL     1      14.604  26.254  17.573  1.00  0.00     0.004 A 
ATOM      8  C   UNL     1      13.499  24.597  16.197  1.00  0.00     0.004 A 
ATOM      9  C   UNL     1      14.642  27.132  16.486  1.00  0.00     0.004 A 
ATOM     10  C   UNL     1      13.537  25.474  15.109  1.00  0.00     0.004 A 
ENDBRANCH   2   4
ENDBRANCH   1   2
BRANCH   1  11
ATOM     11  C   UNL     1      13.385  27.064  11.678  1.00  0.00     0.028 C 
BRANCH  11  12
ATOM     12  C   UNL     1      13.361  25.570  11.458  1.00  0.00    -0.028 C 
ATOM     13  C   UNL     1      14.425  24.752  11.616  1.00  0.00    -0.080 C 
ATOM     14  C   UNL     1      15.764  25.262  12.098  1.00  0.00     0.039 C 
ATOM     15  C   UNL     1      14.251  23.285  11.322  1.00  0.00     0.039 C 
ENDBRANCH  11  12
ENDBRANCH   1  11
TORSDOF 4
ENDMDL
MODEL 9
REMARK VINA RESULT:    -1.909      1.421      6.941
REMARK INTER + INTRA:          -3.057
REMARK INTER:                  -2.236
REMARK INTRA:                  -0.822
REMARK UNBOUND:                -0.702
REMARK SMILES CC(C)=CCC[C@@H](C)c1ccc(C)cc1
REMARK SMILES IDX 6 1 7 2 8 3 9 4 13 5 12 6 11 7 14 8 10 9 15 10 5 11 4 12
REMARK SMILES IDX 2 13 1 14 3 15
REMARK H PARENT
REMARK Flexibility Score: inf
ROOT
ATOM      1  C   UNL     1      13.745  24.813  16.535  1.00  0.00     0.012 C 
ENDROOT
BRANCH   1   2
ATOM      2  C   UNL     1      14.718  25.502  15.547  1.00  0.00     0.016 C 
ATOM      3  C   UNL     1      16.177  25.451  16.029  1.00  0.00     0.013 C 
BRANCH   2   4
ATOM      4  C   UNL     1      14.593  24.877  14.169  1.00  0.00    -0.045 A 
ATOM      5  C   UNL     1      14.261  23.125  10.234  1.00  0.00     0.044 C 
ATOM      6  C   UNL     1      14.352  23.753  11.594  1.00  0.00    -0.051 A 
ATOM      7  C   UNL     1      15.198  24.849  11.811  1.00  0.00     0.004 A 
ATOM      8  C   UNL     1      13.644  23.206  12.673  1.00  0.00     0.004 A 
ATOM      9  C   UNL     1      15.313  25.412  13.085  1.00  0.00     0.004 A 
ATOM     10  C   UNL     1      13.756  23.768  13.948  1.00  0.00     0.004 A 
ENDBRANCH   2   4
ENDBRANCH   1   2
BRANCH   1  11
ATOM     11  C   UNL     1      12.875  25.788  17.350  1.00  0.00     0.028 C 
BRANCH  11  12
ATOM     12  C   UNL     1      13.497  26.140  18.680  1.00  0.00    -0.028 C 
ATOM     13  C   UNL     1      14.230  27.250  18.917  1.00  0.00    -0.080 C 
ATOM     14  C   UNL     1      14.455  28.304  17.857  1.00  0.00     0.039 C 
ATOM     15  C   UNL     1      14.817  27.442  20.291  1.00  0.00     0.039 C 
ENDBRANCH  11  12
ENDBRANCH   1  11
TORSDOF 4
ENDMDL
