MODEL 1
REMARK VINA RESULT:    -1.836      0.000      0.000
REMARK INTER + INTRA:          -2.373
REMARK INTER:                  -2.212
REMARK INTRA:                  -0.161
REMARK UNBOUND:                -0.161
REMARK SMILES OCC(O)CO
REMARK SMILES IDX 3 1 5 2 6 3 2 5 1 6 4 8
REMARK H PARENT 6 4 1 7 4 9
REMARK Flexibility Score: inf
ROOT
ATOM      1  C   UNL     1      35.060  30.767  19.274  1.00  0.00     0.165 C 
ENDROOT
BRANCH   1   2
ATOM      2  C   UNL     1      34.823  31.125  20.750  1.00  0.00     0.190 C 
BRANCH   2   3
ATOM      3  O   UNL     1      34.981  29.995  21.563  1.00  0.00    -0.394 OA
ATOM      4  H   UNL     1      35.223  30.336  22.464  1.00  0.00     0.210 HD
ENDBRANCH   2   3
ENDBRANCH   1   2
BRANCH   1   5
ATOM      5  C   UNL     1      36.552  30.753  18.917  1.00  0.00     0.190 C 
BRANCH   5   6
ATOM      6  O   UNL     1      37.121  29.510  19.223  1.00  0.00    -0.394 OA
ATOM      7  H   UNL     1      36.660  28.846  18.646  1.00  0.00     0.210 HD
ENDBRANCH   5   6
ENDBRANCH   1   5
BRANCH   1   8
ATOM      8  O   UNL     1      34.493  29.516  18.976  1.00  0.00    -0.388 OA
ATOM      9  H   UNL     1      35.248  28.880  18.866  1.00  0.00     0.211 HD
ENDBRANCH   1   8
TORSDOF 5
ENDMDL
MODEL 2
REMARK VINA RESULT:    -1.677      1.129      2.061
REMARK INTER + INTRA:          -2.181
REMARK INTER:                  -2.163
REMARK INTRA:                  -0.018
REMARK UNBOUND:                -0.161
REMARK SMILES OCC(O)CO
REMARK SMILES IDX 3 1 5 2 6 3 2 5 1 6 4 8
REMARK H PARENT 6 4 1 7 4 9
REMARK Flexibility Score: inf
ROOT
ATOM      1  C   UNL     1      35.442  30.131  20.057  1.00  0.00     0.165 C 
ENDROOT
BRANCH   1   2
ATOM      2  C   UNL     1      34.874  30.943  21.232  1.00  0.00     0.190 C 
BRANCH   2   3
ATOM      3  O   UNL     1      34.748  30.140  22.373  1.00  0.00    -0.394 OA
ATOM      4  H   UNL     1      35.302  30.570  23.076  1.00  0.00     0.210 HD
ENDBRANCH   2   3
ENDBRANCH   1   2
BRANCH   1   5
ATOM      5  C   UNL     1      34.465  30.070  18.875  1.00  0.00     0.190 C 
BRANCH   5   6
ATOM      6  O   UNL     1      33.728  28.879  18.903  1.00  0.00    -0.394 OA
ATOM      7  H   UNL     1      32.773  29.148  18.922  1.00  0.00     0.210 HD
ENDBRANCH   5   6
ENDBRANCH   1   5
BRANCH   1   8
ATOM      8  O   UNL     1      36.664  30.675  19.630  1.00  0.00    -0.388 OA
ATOM      9  H   UNL     1      36.902  30.215  18.782  1.00  0.00     0.211 HD
ENDBRANCH   1   8
TORSDOF 5
ENDMDL
MODEL 3
REMARK VINA RESULT:    -1.576      0.912      2.591
REMARK INTER + INTRA:          -2.059
REMARK INTER:                  -1.841
REMARK INTRA:                  -0.219
REMARK UNBOUND:                -0.161
REMARK SMILES OCC(O)CO
REMARK SMILES IDX 3 1 5 2 6 3 2 5 1 6 4 8
REMARK H PARENT 6 4 1 7 4 9
REMARK Flexibility Score: inf
ROOT
ATOM      1  C   UNL     1      35.547  30.870  19.506  1.00  0.00     0.165 C 
ENDROOT
BRANCH   1   2
ATOM      2  C   UNL     1      35.175  29.518  18.875  1.00  0.00     0.190 C 
BRANCH   2   3
ATOM      3  O   UNL     1      33.840  29.195  19.153  1.00  0.00    -0.394 OA
ATOM      4  H   UNL     1      33.820  28.894  20.099  1.00  0.00     0.210 HD
ENDBRANCH   2   3
ENDBRANCH   1   2
BRANCH   1   5
ATOM      5  C   UNL     1      34.862  31.079  20.863  1.00  0.00     0.190 C 
BRANCH   5   6
ATOM      6  O   UNL     1      34.982  29.933  21.659  1.00  0.00    -0.394 OA
ATOM      7  H   UNL     1      35.089  29.171  21.031  1.00  0.00     0.210 HD
ENDBRANCH   5   6
ENDBRANCH   1   5
BRANCH   1   8
ATOM      8  O   UNL     1      36.939  30.972  19.661  1.00  0.00    -0.388 OA
ATOM      9  H   UNL     1      37.230  30.168  20.167  1.00  0.00     0.211 HD
ENDBRANCH   1   8
TORSDOF 5
ENDMDL
MODEL 4
REMARK VINA RESULT:    -1.533     14.460     15.378
REMARK INTER + INTRA:          -2.008
REMARK INTER:                  -2.003
REMARK INTRA:                  -0.004
REMARK UNBOUND:                -0.161
REMARK SMILES OCC(O)CO
REMARK SMILES IDX 3 1 5 2 6 3 2 5 1 6 4 8
REMARK H PARENT 6 4 1 7 4 9
REMARK Flexibility Score: inf
ROOT
ATOM      1  C   UNL     1      25.641  20.971  26.484  1.00  0.00     0.165 C 
ENDROOT
BRANCH   1   2
ATOM      2  C   UNL     1      26.214  22.239  25.831  1.00  0.00     0.190 C 
BRANCH   2   3
ATOM      3  O   UNL     1      25.363  22.701  24.818  1.00  0.00    -0.394 OA
ATOM      4  H   UNL     1      25.652  22.244  23.985  1.00  0.00     0.210 HD
ENDBRANCH   2   3
ENDBRANCH   1   2
BRANCH   1   5
ATOM      5  C   UNL     1      25.668  21.050  28.016  1.00  0.00     0.190 C 
BRANCH   5   6
ATOM      6  O   UNL     1      24.368  21.029  28.535  1.00  0.00    -0.394 OA
ATOM      7  H   UNL     1      24.378  20.367  29.275  1.00  0.00     0.210 HD
ENDBRANCH   5   6
ENDBRANCH   1   5
BRANCH   1   8
ATOM      8  O   UNL     1      24.324  20.747  26.048  1.00  0.00    -0.388 OA
ATOM      9  H   UNL     1      24.241  19.773  25.876  1.00  0.00     0.211 HD
ENDBRANCH   1   8
TORSDOF 5
ENDMDL
MODEL 5
REMARK VINA RESULT:    -1.406      0.675      2.518
REMARK INTER + INTRA:          -1.854
REMARK INTER:                  -1.693
REMARK INTRA:                  -0.161
REMARK UNBOUND:                -0.161
REMARK SMILES OCC(O)CO
REMARK SMILES IDX 3 1 5 2 6 3 2 5 1 6 4 8
REMARK H PARENT 6 4 1 7 4 9
REMARK Flexibility Score: inf
ROOT
ATOM      1  C   UNL     1      35.218  30.927  19.891  1.00  0.00     0.165 C 
ENDROOT
BRANCH   1   2
ATOM      2  C   UNL     1      36.639  31.034  19.314  1.00  0.00     0.190 C 
BRANCH   2   3
ATOM      3  O   UNL     1      37.117  29.771  18.941  1.00  0.00    -0.394 OA
ATOM      4  H   UNL     1      37.526  29.885  18.044  1.00  0.00     0.210 HD
ENDBRANCH   2   3
ENDBRANCH   1   2
BRANCH   1   5
ATOM      5  C   UNL     1      34.228  30.341  18.875  1.00  0.00     0.190 C 
BRANCH   5   6
ATOM      6  O   UNL     1      34.014  28.980  19.122  1.00  0.00    -0.394 OA
ATOM      7  H   UNL     1      34.781  28.676  19.674  1.00  0.00     0.210 HD
ENDBRANCH   5   6
ENDBRANCH   1   5
BRANCH   1   8
ATOM      8  O   UNL     1      35.218  30.139  21.054  1.00  0.00    -0.388 OA
ATOM      9  H   UNL     1      35.860  30.560  21.684  1.00  0.00     0.211 HD
ENDBRANCH   1   8
TORSDOF 5
ENDMDL
MODEL 6
REMARK VINA RESULT:    -1.393     20.858     21.714
REMARK INTER + INTRA:          -1.839
REMARK INTER:                  -1.830
REMARK INTRA:                  -0.009
REMARK UNBOUND:                -0.161
REMARK SMILES OCC(O)CO
REMARK SMILES IDX 3 1 5 2 6 3 2 5 1 6 4 8
REMARK H PARENT 6 4 1 7 4 9
REMARK Flexibility Score: inf
ROOT
ATOM      1  C   UNL     1      26.572  15.463  33.105  1.00  0.00     0.165 C 
ENDROOT
BRANCH   1   2
ATOM      2  C   UNL     1      27.033  14.292  32.222  1.00  0.00     0.190 C 
BRANCH   2   3
ATOM      3  O   UNL     1      26.602  13.071  32.758  1.00  0.00    -0.394 OA
ATOM      4  H   UNL     1      27.406  12.647  33.157  1.00  0.00     0.210 HD
ENDBRANCH   2   3
ENDBRANCH   1   2
BRANCH   1   5
ATOM      5  C   UNL     1      26.853  16.822  32.450  1.00  0.00     0.190 C 
BRANCH   5   6
ATOM      6  O   UNL     1      26.943  16.692  31.059  1.00  0.00    -0.394 OA
ATOM      7  H   UNL     1      26.820  17.605  30.688  1.00  0.00     0.210 HD
ENDBRANCH   5   6
ENDBRANCH   1   5
BRANCH   1   8
ATOM      8  O   UNL     1      25.201  15.353  33.390  1.00  0.00    -0.388 OA
ATOM      9  H   UNL     1      24.807  16.255  33.254  1.00  0.00     0.211 HD
ENDBRANCH   1   8
TORSDOF 5
ENDMDL
MODEL 7
REMARK VINA RESULT:    -1.136     14.947     15.833
REMARK INTER + INTRA:          -1.529
REMARK INTER:                  -1.346
REMARK INTRA:                  -0.183
REMARK UNBOUND:                -0.161
REMARK SMILES OCC(O)CO
REMARK SMILES IDX 3 1 5 2 6 3 2 5 1 6 4 8
REMARK H PARENT 6 4 1 7 4 9
REMARK Flexibility Score: inf
ROOT
ATOM      1  C   UNL     1      26.098  21.095  27.519  1.00  0.00     0.165 C 
ENDROOT
BRANCH   1   2
ATOM      2  C   UNL     1      25.082  20.508  28.512  1.00  0.00     0.190 C 
BRANCH   2   3
ATOM      3  O   UNL     1      23.947  21.325  28.599  1.00  0.00    -0.394 OA
ATOM      4  H   UNL     1      23.503  21.091  29.455  1.00  0.00     0.210 HD
ENDBRANCH   2   3
ENDBRANCH   1   2
BRANCH   1   5
ATOM      5  C   UNL     1      25.464  21.387  26.153  1.00  0.00     0.190 C 
BRANCH   5   6
ATOM      6  O   UNL     1      24.278  20.660  25.993  1.00  0.00    -0.394 OA
ATOM      7  H   UNL     1      23.548  21.331  25.942  1.00  0.00     0.210 HD
ENDBRANCH   5   6
ENDBRANCH   1   5
BRANCH   1   8
ATOM      8  O   UNL     1      26.665  22.272  28.035  1.00  0.00    -0.388 OA
ATOM      9  H   UNL     1      26.919  22.833  27.256  1.00  0.00     0.211 HD
ENDBRANCH   1   8
TORSDOF 5
ENDMDL
MODEL 8
REMARK VINA RESULT:    -0.951     20.769     21.657
REMARK INTER + INTRA:          -1.307
REMARK INTER:                  -1.304
REMARK INTRA:                  -0.003
REMARK UNBOUND:                -0.161
REMARK SMILES OCC(O)CO
REMARK SMILES IDX 3 1 5 2 6 3 2 5 1 6 4 8
REMARK H PARENT 6 4 1 7 4 9
REMARK Flexibility Score: inf
ROOT
ATOM      1  C   UNL     1      26.335  15.526  32.805  1.00  0.00     0.165 C 
ENDROOT
BRANCH   1   2
ATOM      2  C   UNL     1      27.021  16.845  32.413  1.00  0.00     0.190 C 
BRANCH   2   3
ATOM      3  O   UNL     1      26.994  17.020  31.023  1.00  0.00    -0.394 OA
ATOM      4  H   UNL     1      26.149  16.604  30.709  1.00  0.00     0.210 HD
ENDBRANCH   2   3
ENDBRANCH   1   2
BRANCH   1   5
ATOM      5  C   UNL     1      27.061  14.305  32.223  1.00  0.00     0.190 C 
BRANCH   5   6
ATOM      6  O   UNL     1      26.571  13.122  32.791  1.00  0.00    -0.394 OA
ATOM      7  H   UNL     1      27.093  12.980  33.624  1.00  0.00     0.210 HD
ENDBRANCH   5   6
ENDBRANCH   1   5
BRANCH   1   8
ATOM      8  O   UNL     1      26.263  15.407  34.203  1.00  0.00    -0.388 OA
ATOM      9  H   UNL     1      25.520  15.994  34.502  1.00  0.00     0.211 HD
ENDBRANCH   1   8
TORSDOF 5
ENDMDL
MODEL 9
REMARK VINA RESULT:    -0.777     21.073     21.891
REMARK INTER + INTRA:          -1.097
REMARK INTER:                  -0.914
REMARK INTRA:                  -0.183
REMARK UNBOUND:                -0.161
REMARK SMILES OCC(O)CO
REMARK SMILES IDX 3 1 5 2 6 3 2 5 1 6 4 8
REMARK H PARENT 6 4 1 7 4 9
REMARK Flexibility Score: inf
ROOT
ATOM      1  C   UNL     1      27.197  15.520  32.461  1.00  0.00     0.165 C 
ENDROOT
BRANCH   1   2
ATOM      2  C   UNL     1      26.198  15.742  33.608  1.00  0.00     0.190 C 
BRANCH   2   3
ATOM      3  O   UNL     1      24.928  15.268  33.254  1.00  0.00    -0.394 OA
ATOM      4  H   UNL     1      24.317  16.049  33.309  1.00  0.00     0.210 HD
ENDBRANCH   2   3
ENDBRANCH   1   2
BRANCH   1   5
ATOM      5  C   UNL     1      27.067  14.120  31.848  1.00  0.00     0.190 C 
BRANCH   5   6
ATOM      6  O   UNL     1      26.617  13.201  32.804  1.00  0.00    -0.394 OA
ATOM      7  H   UNL     1      25.883  12.691  32.372  1.00  0.00     0.210 HD
ENDBRANCH   5   6
ENDBRANCH   1   5
BRANCH   1   8
ATOM      8  O   UNL     1      27.018  16.490  31.460  1.00  0.00    -0.388 OA
ATOM      9  H   UNL     1      26.828  15.999  30.617  1.00  0.00     0.211 HD
ENDBRANCH   1   8
TORSDOF 5
ENDMDL
