MODEL 1
REMARK VINA RESULT:    -5.408      0.000      0.000
REMARK INTER + INTRA:          -7.818
REMARK INTER:                  -7.305
REMARK INTRA:                  -0.513
REMARK UNBOUND:                -0.513
REMARK SMILES CC(=O)CCC=C(C)CCC=C(C)C
REMARK SMILES IDX 7 1 6 2 8 3 9 4 10 5 11 6 13 7 12 8 14 9 5 10 4 11 2 12 3 13
REMARK SMILES IDX 1 14
REMARK H PARENT
REMARK Flexibility Score: inf
ROOT
ATOM      1  C   UNL     1     100.016 117.870 125.226  1.00  0.00    -0.077 C 
ATOM      2  C   UNL     1     100.109 116.522 125.277  1.00  0.00    -0.028 C 
ATOM      3  C   UNL     1      99.871 118.709 126.474  1.00  0.00     0.039 C 
ENDROOT
BRANCH   1   4
ATOM      4  C   UNL     1     100.063 118.555 123.877  1.00  0.00     0.034 C 
BRANCH   4   5
ATOM      5  C   UNL     1      98.787 118.273 123.076  1.00  0.00     0.032 C 
BRANCH   5   6
ATOM      6  C   UNL     1      99.103 117.498 121.821  1.00  0.00    -0.028 C 
ATOM      7  C   UNL     1      97.269 118.583 120.501  1.00  0.00     0.039 C 
ATOM      8  C   UNL     1      98.449 117.652 120.646  1.00  0.00    -0.080 C 
ATOM      9  C   UNL     1      98.864 116.842 119.446  1.00  0.00     0.039 C 
ENDBRANCH   5   6
ENDBRANCH   4   5
ENDBRANCH   1   4
BRANCH   2  10
ATOM     10  C   UNL     1     100.019 115.703 126.544  1.00  0.00     0.035 C 
BRANCH  10  11
ATOM     11  C   UNL     1     101.273 114.844 126.751  1.00  0.00     0.079 C 
BRANCH  11  12
ATOM     12  C   UNL     1     100.957 113.373 126.667  1.00  0.00     0.130 C 
ATOM     13  O   UNL     1     101.799 112.555 127.005  1.00  0.00    -0.300 OA
ATOM     14  C   UNL     1      99.625 112.888 126.175  1.00  0.00     0.087 C 
ENDBRANCH  11  12
ENDBRANCH  10  11
ENDBRANCH   2  10
TORSDOF 6
ENDMDL
MODEL 2
REMARK VINA RESULT:    -5.378      3.331      5.899
REMARK INTER + INTRA:          -7.778
REMARK INTER:                  -6.783
REMARK INTRA:                  -0.995
REMARK UNBOUND:                -0.513
REMARK SMILES CC(=O)CCC=C(C)CCC=C(C)C
REMARK SMILES IDX 7 1 6 2 8 3 9 4 10 5 11 6 13 7 12 8 14 9 5 10 4 11 2 12 3 13
REMARK SMILES IDX 1 14
REMARK H PARENT
REMARK Flexibility Score: inf
ROOT
ATOM      1  C   UNL     1     100.949 113.327 126.515  1.00  0.00    -0.077 C 
ATOM      2  C   UNL     1     101.221 114.652 126.536  1.00  0.00    -0.028 C 
ATOM      3  C   UNL     1      99.535 112.804 126.421  1.00  0.00     0.039 C 
ENDROOT
BRANCH   1   4
ATOM      4  C   UNL     1     102.097 112.345 126.583  1.00  0.00     0.034 C 
BRANCH   4   5
ATOM      5  C   UNL     1     102.832 112.268 125.240  1.00  0.00     0.032 C 
BRANCH   5   6
ATOM      6  C   UNL     1     102.143 111.304 124.307  1.00  0.00    -0.028 C 
ATOM      7  C   UNL     1     101.138 113.127 122.913  1.00  0.00     0.039 C 
ATOM      8  C   UNL     1     101.405 111.677 123.237  1.00  0.00    -0.080 C 
ATOM      9  C   UNL     1     100.780 110.627 122.355  1.00  0.00     0.039 C 
ENDBRANCH   5   6
ENDBRANCH   4   5
ENDBRANCH   1   4
BRANCH   2  10
ATOM     10  C   UNL     1     100.175 115.743 126.532  1.00  0.00     0.035 C 
BRANCH  10  11
ATOM     11  C   UNL     1     100.072 116.422 125.161  1.00  0.00     0.079 C 
BRANCH  11  12
ATOM     12  C   UNL     1     100.074 117.924 125.285  1.00  0.00     0.130 C 
ATOM     13  O   UNL     1     100.244 118.611 124.289  1.00  0.00    -0.300 OA
ATOM     14  C   UNL     1      99.869 118.599 126.610  1.00  0.00     0.087 C 
ENDBRANCH  11  12
ENDBRANCH  10  11
ENDBRANCH   2  10
TORSDOF 6
ENDMDL
MODEL 3
REMARK VINA RESULT:    -5.362      3.428      7.126
REMARK INTER + INTRA:          -7.756
REMARK INTER:                  -7.267
REMARK INTRA:                  -0.489
REMARK UNBOUND:                -0.513
REMARK SMILES CC(=O)CCC=C(C)CCC=C(C)C
REMARK SMILES IDX 7 1 6 2 8 3 9 4 10 5 11 6 13 7 12 8 14 9 5 10 4 11 2 12 3 13
REMARK SMILES IDX 1 14
REMARK H PARENT
REMARK Flexibility Score: inf
ROOT
ATOM      1  C   UNL     1     100.904 113.393 126.631  1.00  0.00    -0.077 C 
ATOM      2  C   UNL     1     101.123 114.711 126.844  1.00  0.00    -0.028 C 
ATOM      3  C   UNL     1      99.589 112.879 126.091  1.00  0.00     0.039 C 
ENDROOT
BRANCH   1   4
ATOM      4  C   UNL     1     102.011 112.409 126.939  1.00  0.00     0.034 C 
BRANCH   4   5
ATOM      5  C   UNL     1     102.762 112.014 125.662  1.00  0.00     0.032 C 
BRANCH   5   6
ATOM      6  C   UNL     1     103.319 110.617 125.780  1.00  0.00    -0.028 C 
ATOM      7  C   UNL     1     102.488 109.925 123.519  1.00  0.00     0.039 C 
ATOM      8  C   UNL     1     103.232 109.678 124.810  1.00  0.00    -0.080 C 
ATOM      9  C   UNL     1     103.847 108.320 125.024  1.00  0.00     0.039 C 
ENDBRANCH   5   6
ENDBRANCH   4   5
ENDBRANCH   1   4
BRANCH   2  10
ATOM     10  C   UNL     1     100.093 115.797 126.636  1.00  0.00     0.035 C 
BRANCH  10  11
ATOM     11  C   UNL     1     100.262 116.483 125.275  1.00  0.00     0.079 C 
BRANCH  11  12
ATOM     12  C   UNL     1     100.106 117.978 125.384  1.00  0.00     0.130 C 
ATOM     13  O   UNL     1     100.146 118.663 124.374  1.00  0.00    -0.300 OA
ATOM     14  C   UNL     1      99.901 118.646 126.712  1.00  0.00     0.087 C 
ENDBRANCH  11  12
ENDBRANCH  10  11
ENDBRANCH   2  10
TORSDOF 6
ENDMDL
MODEL 4
REMARK VINA RESULT:    -5.328      3.360      5.553
REMARK INTER + INTRA:          -7.710
REMARK INTER:                  -6.672
REMARK INTRA:                  -1.038
REMARK UNBOUND:                -0.513
REMARK SMILES CC(=O)CCC=C(C)CCC=C(C)C
REMARK SMILES IDX 7 1 6 2 8 3 9 4 10 5 11 6 13 7 12 8 14 9 5 10 4 11 2 12 3 13
REMARK SMILES IDX 1 14
REMARK H PARENT
REMARK Flexibility Score: inf
ROOT
ATOM      1  C   UNL     1     100.909 114.752 126.742  1.00  0.00    -0.077 C 
ATOM      2  C   UNL     1      99.986 115.713 126.512  1.00  0.00    -0.028 C 
ATOM      3  C   UNL     1     102.364 115.083 126.980  1.00  0.00     0.039 C 
ENDROOT
BRANCH   1   4
ATOM      4  C   UNL     1     100.467 113.305 126.765  1.00  0.00     0.034 C 
BRANCH   4   5
ATOM      5  C   UNL     1      99.914 112.880 125.400  1.00  0.00     0.032 C 
BRANCH   5   6
ATOM      6  C   UNL     1     101.026 112.422 124.490  1.00  0.00    -0.028 C 
ATOM      7  C   UNL     1     100.944 114.496 123.086  1.00  0.00     0.039 C 
ATOM      8  C   UNL     1     101.521 113.154 123.466  1.00  0.00    -0.080 C 
ATOM      9  C   UNL     1     102.653 112.608 122.634  1.00  0.00     0.039 C 
ENDBRANCH   5   6
ENDBRANCH   4   5
ENDBRANCH   1   4
BRANCH   2  10
ATOM     10  C   UNL     1     100.292 117.189 126.403  1.00  0.00     0.035 C 
BRANCH  10  11
ATOM     11  C   UNL     1      99.955 117.735 125.010  1.00  0.00     0.079 C 
BRANCH  11  12
ATOM     12  C   UNL     1      99.345 119.111 125.087  1.00  0.00     0.130 C 
ATOM     13  O   UNL     1      98.358 119.371 124.415  1.00  0.00    -0.300 OA
ATOM     14  C   UNL     1      99.925 120.173 125.974  1.00  0.00     0.087 C 
ENDBRANCH  11  12
ENDBRANCH  10  11
ENDBRANCH   2  10
TORSDOF 6
ENDMDL
MODEL 5
REMARK VINA RESULT:    -5.245      2.721      6.235
REMARK INTER + INTRA:          -7.598
REMARK INTER:                  -6.934
REMARK INTRA:                  -0.664
REMARK UNBOUND:                -0.513
REMARK SMILES CC(=O)CCC=C(C)CCC=C(C)C
REMARK SMILES IDX 7 1 6 2 8 3 9 4 10 5 11 6 13 7 12 8 14 9 5 10 4 11 2 12 3 13
REMARK SMILES IDX 1 14
REMARK H PARENT
REMARK Flexibility Score: inf
ROOT
ATOM      1  C   UNL     1     100.104 116.299 125.722  1.00  0.00    -0.077 C 
ATOM      2  C   UNL     1      99.981 115.960 124.419  1.00  0.00    -0.028 C 
ATOM      3  C   UNL     1     100.160 117.741 126.170  1.00  0.00     0.039 C 
ENDROOT
BRANCH   1   4
ATOM      4  C   UNL     1     100.183 115.200 126.759  1.00  0.00     0.034 C 
BRANCH   4   5
ATOM      5  C   UNL     1      99.884 113.834 126.132  1.00  0.00     0.032 C 
BRANCH   5   6
ATOM      6  C   UNL     1     101.024 112.875 126.367  1.00  0.00    -0.028 C 
ATOM      7  C   UNL     1     101.202 112.247 123.948  1.00  0.00     0.039 C 
ATOM      8  C   UNL     1     101.648 112.180 125.388  1.00  0.00    -0.080 C 
ATOM      9  C   UNL     1     102.796 111.266 125.734  1.00  0.00     0.039 C 
ENDBRANCH   5   6
ENDBRANCH   4   5
ENDBRANCH   1   4
BRANCH   2  10
ATOM     10  C   UNL     1      99.949 116.946 123.275  1.00  0.00     0.035 C 
BRANCH  10  11
ATOM     11  C   UNL     1      99.500 116.280 121.968  1.00  0.00     0.079 C 
BRANCH  11  12
ATOM     12  C   UNL     1      98.774 117.250 121.072  1.00  0.00     0.130 C 
ATOM     13  O   UNL     1      98.210 118.217 121.562  1.00  0.00    -0.300 OA
ATOM     14  C   UNL     1      98.728 117.055 119.585  1.00  0.00     0.087 C 
ENDBRANCH  11  12
ENDBRANCH  10  11
ENDBRANCH   2  10
TORSDOF 6
ENDMDL
MODEL 6
REMARK VINA RESULT:    -5.229      2.304      4.232
REMARK INTER + INTRA:          -7.576
REMARK INTER:                  -6.290
REMARK INTRA:                  -1.285
REMARK UNBOUND:                -0.513
REMARK SMILES CC(=O)CCC=C(C)CCC=C(C)C
REMARK SMILES IDX 7 1 6 2 8 3 9 4 10 5 11 6 13 7 12 8 14 9 5 10 4 11 2 12 3 13
REMARK SMILES IDX 1 14
REMARK H PARENT
REMARK Flexibility Score: inf
ROOT
ATOM      1  C   UNL     1     100.591 113.829 126.502  1.00  0.00    -0.077 C 
ATOM      2  C   UNL     1     101.894 113.466 126.533  1.00  0.00    -0.028 C 
ATOM      3  C   UNL     1      99.501 112.857 126.113  1.00  0.00     0.039 C 
ENDROOT
BRANCH   1   4
ATOM      4  C   UNL     1     100.218 115.247 126.874  1.00  0.00     0.034 C 
BRANCH   4   5
ATOM      5  C   UNL     1     100.923 116.255 125.960  1.00  0.00     0.032 C 
BRANCH   5   6
ATOM      6  C   UNL     1     100.023 116.667 124.821  1.00  0.00    -0.028 C 
ATOM      7  C   UNL     1     101.190 115.199 123.160  1.00  0.00     0.039 C 
ATOM      8  C   UNL     1     100.112 116.174 123.564  1.00  0.00    -0.080 C 
ATOM      9  C   UNL     1      99.142 116.638 122.508  1.00  0.00     0.039 C 
ENDBRANCH   5   6
ENDBRANCH   4   5
ENDBRANCH   1   4
BRANCH   2  10
ATOM     10  C   UNL     1     102.416 112.106 126.133  1.00  0.00     0.035 C 
BRANCH  10  11
ATOM     11  C   UNL     1     102.904 112.093 124.679  1.00  0.00     0.079 C 
BRANCH  11  12
ATOM     12  C   UNL     1     102.172 111.063 123.857  1.00  0.00     0.130 C 
ATOM     13  O   UNL     1     102.525 109.894 123.903  1.00  0.00    -0.300 OA
ATOM     14  C   UNL     1     101.014 111.442 122.982  1.00  0.00     0.087 C 
ENDBRANCH  11  12
ENDBRANCH  10  11
ENDBRANCH   2  10
TORSDOF 6
ENDMDL
MODEL 7
REMARK VINA RESULT:    -5.193      1.819      3.403
REMARK INTER + INTRA:          -7.527
REMARK INTER:                  -6.923
REMARK INTRA:                  -0.604
REMARK UNBOUND:                -0.513
REMARK SMILES CC(=O)CCC=C(C)CCC=C(C)C
REMARK SMILES IDX 7 1 6 2 8 3 9 4 10 5 11 6 13 7 12 8 14 9 5 10 4 11 2 12 3 13
REMARK SMILES IDX 1 14
REMARK H PARENT
REMARK Flexibility Score: inf
ROOT
ATOM      1  C   UNL     1     100.718 115.445 126.474  1.00  0.00    -0.077 C 
ATOM      2  C   UNL     1      99.850 114.479 126.096  1.00  0.00    -0.028 C 
ATOM      3  C   UNL     1     102.138 115.128 126.880  1.00  0.00     0.039 C 
ENDROOT
BRANCH   1   4
ATOM      4  C   UNL     1     100.250 116.884 126.485  1.00  0.00     0.034 C 
BRANCH   4   5
ATOM      5  C   UNL     1     100.229 117.463 125.066  1.00  0.00     0.032 C 
BRANCH   5   6
ATOM      6  C   UNL     1      99.464 118.763 125.030  1.00  0.00    -0.028 C 
ATOM      7  C   UNL     1      98.686 118.420 122.673  1.00  0.00     0.039 C 
ATOM      8  C   UNL     1      98.739 119.189 123.971  1.00  0.00    -0.080 C 
ATOM      9  C   UNL     1      97.992 120.496 124.052  1.00  0.00     0.039 C 
ENDBRANCH   5   6
ENDBRANCH   4   5
ENDBRANCH   1   4
BRANCH   2  10
ATOM     10  C   UNL     1     100.160 113.000 126.092  1.00  0.00     0.035 C 
BRANCH  10  11
ATOM     11  C   UNL     1     100.632 112.526 124.712  1.00  0.00     0.079 C 
BRANCH  11  12
ATOM     12  C   UNL     1     102.014 111.926 124.775  1.00  0.00     0.130 C 
ATOM     13  O   UNL     1     102.627 111.716 123.740  1.00  0.00    -0.300 OA
ATOM     14  C   UNL     1     102.655 111.580 126.086  1.00  0.00     0.087 C 
ENDBRANCH  11  12
ENDBRANCH  10  11
ENDBRANCH   2  10
TORSDOF 6
ENDMDL
MODEL 8
REMARK VINA RESULT:    -5.173      2.965      6.181
REMARK INTER + INTRA:          -7.501
REMARK INTER:                  -6.706
REMARK INTRA:                  -0.795
REMARK UNBOUND:                -0.513
REMARK SMILES CC(=O)CCC=C(C)CCC=C(C)C
REMARK SMILES IDX 7 1 6 2 8 3 9 4 10 5 11 6 13 7 12 8 14 9 5 10 4 11 2 12 3 13
REMARK SMILES IDX 1 14
REMARK H PARENT
REMARK Flexibility Score: inf
ROOT
ATOM      1  C   UNL     1     100.404 116.359 125.894  1.00  0.00    -0.077 C 
ATOM      2  C   UNL     1     100.062 116.073 124.617  1.00  0.00    -0.028 C 
ATOM      3  C   UNL     1      99.917 117.607 126.592  1.00  0.00     0.039 C 
ENDROOT
BRANCH   1   4
ATOM      4  C   UNL     1     101.298 115.395 126.644  1.00  0.00     0.034 C 
BRANCH   4   5
ATOM      5  C   UNL     1     100.608 114.038 126.826  1.00  0.00     0.032 C 
BRANCH   5   6
ATOM      6  C   UNL     1     101.599 112.910 126.687  1.00  0.00    -0.028 C 
ATOM      7  C   UNL     1     100.963 112.434 124.311  1.00  0.00     0.039 C 
ATOM      8  C   UNL     1     101.792 112.202 125.551  1.00  0.00    -0.080 C 
ATOM      9  C   UNL     1     102.830 111.109 125.516  1.00  0.00     0.039 C 
ENDBRANCH   5   6
ENDBRANCH   4   5
ENDBRANCH   1   4
BRANCH   2  10
ATOM     10  C   UNL     1      99.227 116.968 123.732  1.00  0.00     0.035 C 
BRANCH  10  11
ATOM     11  C   UNL     1     100.088 118.018 123.018  1.00  0.00     0.079 C 
BRANCH  11  12
ATOM     12  C   UNL     1      99.823 119.405 123.547  1.00  0.00     0.130 C 
ATOM     13  O   UNL     1     100.747 120.198 123.650  1.00  0.00    -0.300 OA
ATOM     14  C   UNL     1      98.443 119.836 123.951  1.00  0.00     0.087 C 
ENDBRANCH  11  12
ENDBRANCH  10  11
ENDBRANCH   2  10
TORSDOF 6
ENDMDL
MODEL 9
REMARK VINA RESULT:    -5.109      1.967      3.518
REMARK INTER + INTRA:          -7.413
REMARK INTER:                  -6.403
REMARK INTRA:                  -1.010
REMARK UNBOUND:                -0.513
REMARK SMILES CC(=O)CCC=C(C)CCC=C(C)C
REMARK SMILES IDX 7 1 6 2 8 3 9 4 10 5 11 6 13 7 12 8 14 9 5 10 4 11 2 12 3 13
REMARK SMILES IDX 1 14
REMARK H PARENT
REMARK Flexibility Score: inf
ROOT
ATOM      1  C   UNL     1     100.739 114.942 126.502  1.00  0.00    -0.077 C 
ATOM      2  C   UNL     1     100.171 113.814 126.018  1.00  0.00    -0.028 C 
ATOM      3  C   UNL     1     102.230 115.057 126.715  1.00  0.00     0.039 C 
ENDROOT
BRANCH   1   4
ATOM      4  C   UNL     1      99.853 116.123 126.833  1.00  0.00     0.034 C 
BRANCH   4   5
ATOM      5  C   UNL     1     100.222 117.341 125.978  1.00  0.00     0.032 C 
BRANCH   5   6
ATOM      6  C   UNL     1      99.957 117.069 124.517  1.00  0.00    -0.028 C 
ATOM      7  C   UNL     1      98.572 119.136 124.223  1.00  0.00     0.039 C 
ATOM      8  C   UNL     1      99.243 117.886 123.709  1.00  0.00    -0.080 C 
ATOM      9  C   UNL     1      99.061 117.529 122.256  1.00  0.00     0.039 C 
ENDBRANCH   5   6
ENDBRANCH   4   5
ENDBRANCH   1   4
BRANCH   2  10
ATOM     10  C   UNL     1     100.922 112.543 125.700  1.00  0.00     0.035 C 
BRANCH  10  11
ATOM     11  C   UNL     1     100.935 112.257 124.193  1.00  0.00     0.079 C 
BRANCH  11  12
ATOM     12  C   UNL     1     101.761 113.269 123.442  1.00  0.00     0.130 C 
ATOM     13  O   UNL     1     102.959 113.352 123.663  1.00  0.00    -0.300 OA
ATOM     14  C   UNL     1     101.141 114.182 122.425  1.00  0.00     0.087 C 
ENDBRANCH  11  12
ENDBRANCH  10  11
ENDBRANCH   2  10
TORSDOF 6
ENDMDL
