MODEL 1
REMARK VINA RESULT:    -3.846      0.000      0.000
REMARK INTER + INTRA:          -4.327
REMARK INTER:                  -4.745
REMARK INTRA:                   0.418
REMARK UNBOUND:                 0.418
REMARK SMILES C=C1CC[C@H]2[C@H]1[C@@H]1[C@@H](CC[C@@H]2C)C1(C)C
REMARK SMILES IDX 6 1 5 2 4 3 3 4 2 5 1 6 11 7 12 8 10 9 7 11 8 12 13 13 14 14
REMARK SMILES IDX 15 15 9 16
REMARK H PARENT
REMARK Flexibility Score: 80.00
ROOT
ATOM      1  C   UNL     1     137.430 139.372 137.110  1.00  0.00     0.022 C 
ATOM      2  C   UNL     1     137.559 139.413 135.576  1.00  0.00    -0.000 C 
ATOM      3  C   UNL     1     139.072 139.546 135.358  1.00  0.00     0.009 C 
ATOM      4  C   UNL     1     139.693 138.660 136.444  1.00  0.00     0.031 C 
ATOM      5  C   UNL     1     138.641 138.598 137.504  1.00  0.00    -0.074 C 
ATOM      6  C   UNL     1     138.823 138.011 138.693  1.00  0.00     0.008 C 
ENDROOT
BRANCH   2   7
ATOM      7  C   UNL     1     136.623 140.473 134.896  1.00  0.00    -0.011 C 
ATOM      8  C   UNL     1     137.158 140.876 133.511  1.00  0.00     0.008 C 
BRANCH   7   9
ATOM      9  C   UNL     1     135.156 139.931 134.721  1.00  0.00     0.004 CG0
ATOM     10  G   UNL     1     134.290 139.666 135.995  1.00  0.00     0.000 G0
ENDBRANCH   7   9
ENDBRANCH   2   7
BRANCH   1  11
ATOM     11  C   UNL     1     136.084 138.726 137.451  1.00  0.00     0.006 C 
ATOM     12  C   UNL     1     135.069 139.890 137.300  1.00  0.00    -0.001 C 
ATOM     13  C   UNL     1     135.089 139.050 138.566  1.00  0.00    -0.029 C 
ATOM     14  C   UNL     1     135.644 139.738 139.819  1.00  0.00     0.012 C 
ATOM     15  C   UNL     1     133.917 138.083 138.763  1.00  0.00     0.012 C 
BRANCH  12  16
ATOM     16  C   UNL     1     134.289 139.672 136.005  1.00  0.00     0.005 CG0
ATOM     17  G   UNL     1     135.159 139.918 134.730  1.00  0.00     0.000 G0
ENDBRANCH  12  16
ENDBRANCH   1  11
TORSDOF 0
ENDMDL
MODEL 2
REMARK VINA RESULT:    -3.832      4.574      6.715
REMARK INTER + INTRA:          -4.310
REMARK INTER:                  -4.714
REMARK INTRA:                   0.405
REMARK UNBOUND:                 0.418
REMARK SMILES C=C1CC[C@H]2[C@H]1[C@@H]1[C@@H](CC[C@@H]2C)C1(C)C
REMARK SMILES IDX 6 1 5 2 4 3 3 4 2 5 1 6 11 7 12 8 10 9 7 11 8 12 13 13 14 14
REMARK SMILES IDX 15 15 9 16
REMARK H PARENT
REMARK Flexibility Score: 80.00
ROOT
ATOM      1  C   UNL     1     138.463 134.549 136.184  1.00  0.00     0.022 C 
ATOM      2  C   UNL     1     138.498 133.544 137.350  1.00  0.00    -0.000 C 
ATOM      3  C   UNL     1     137.843 132.293 136.750  1.00  0.00     0.009 C 
ATOM      4  C   UNL     1     138.355 132.249 135.306  1.00  0.00     0.031 C 
ATOM      5  C   UNL     1     138.711 133.670 135.006  1.00  0.00    -0.074 C 
ATOM      6  C   UNL     1     139.096 134.097 133.798  1.00  0.00     0.008 C 
ENDROOT
BRANCH   2   7
ATOM      7  C   UNL     1     137.907 134.113 138.687  1.00  0.00    -0.011 C 
ATOM      8  C   UNL     1     137.464 132.977 139.625  1.00  0.00     0.008 C 
BRANCH   7   9
ATOM      9  C   UNL     1     138.950 135.008 139.453  1.00  0.00     0.004 CG0
ATOM     10  G   UNL     1     139.389 136.369 138.821  1.00  0.00     0.000 G0
ENDBRANCH   7   9
ENDBRANCH   2   7
BRANCH   1  11
ATOM     11  C   UNL     1     139.524 135.620 136.454  1.00  0.00     0.006 C 
ATOM     12  C   UNL     1     138.815 136.604 137.421  1.00  0.00    -0.001 C 
ATOM     13  C   UNL     1     139.504 137.122 136.169  1.00  0.00    -0.029 C 
ATOM     14  C   UNL     1     138.579 137.608 135.046  1.00  0.00     0.012 C 
ATOM     15  C   UNL     1     140.811 137.893 136.379  1.00  0.00     0.012 C 
BRANCH  12  16
ATOM     16  C   UNL     1     139.386 136.385 138.821  1.00  0.00     0.005 CG0
ATOM     17  G   UNL     1     138.937 135.025 139.447  1.00  0.00     0.000 G0
ENDBRANCH  12  16
ENDBRANCH   1  11
TORSDOF 0
ENDMDL
MODEL 3
REMARK VINA RESULT:    -3.814      5.564      7.427
REMARK INTER + INTRA:          -4.287
REMARK INTER:                  -4.702
REMARK INTRA:                   0.414
REMARK UNBOUND:                 0.418
REMARK SMILES C=C1CC[C@H]2[C@H]1[C@@H]1[C@@H](CC[C@@H]2C)C1(C)C
REMARK SMILES IDX 6 1 5 2 4 3 3 4 2 5 1 6 11 7 12 8 10 9 7 11 8 12 13 13 14 14
REMARK SMILES IDX 15 15 9 16
REMARK H PARENT
REMARK Flexibility Score: 80.00
ROOT
ATOM      1  C   UNL     1     134.520 134.297 136.290  1.00  0.00     0.022 C 
ATOM      2  C   UNL     1     133.509 134.234 137.449  1.00  0.00    -0.000 C 
ATOM      3  C   UNL     1     132.253 134.883 136.852  1.00  0.00     0.009 C 
ATOM      4  C   UNL     1     132.224 134.392 135.400  1.00  0.00     0.031 C 
ATOM      5  C   UNL     1     133.650 134.057 135.103  1.00  0.00    -0.074 C 
ATOM      6  C   UNL     1     134.088 133.693 133.892  1.00  0.00     0.008 C 
ENDROOT
BRANCH   2   7
ATOM      7  C   UNL     1     134.063 134.812 138.798  1.00  0.00    -0.011 C 
ATOM      8  C   UNL     1     132.917 135.240 139.730  1.00  0.00     0.008 C 
BRANCH   7   9
ATOM      9  C   UNL     1     134.956 133.764 139.560  1.00  0.00     0.004 CG0
ATOM     10  G   UNL     1     136.323 133.337 138.934  1.00  0.00     0.000 G0
ENDBRANCH   7   9
ENDBRANCH   2   7
BRANCH   1  11
ATOM     11  C   UNL     1     135.601 133.245 136.551  1.00  0.00     0.006 C 
ATOM     12  C   UNL     1     136.564 133.945 137.545  1.00  0.00    -0.001 C 
ATOM     13  C   UNL     1     137.107 133.291 136.285  1.00  0.00    -0.029 C 
ATOM     14  C   UNL     1     137.594 134.245 135.189  1.00  0.00     0.012 C 
ATOM     15  C   UNL     1     137.892 131.989 136.477  1.00  0.00     0.012 C 
BRANCH  12  16
ATOM     16  C   UNL     1     136.335 133.343 138.929  1.00  0.00     0.005 CG0
ATOM     17  G   UNL     1     134.964 133.765 139.550  1.00  0.00     0.000 G0
ENDBRANCH  12  16
ENDBRANCH   1  11
TORSDOF 0
ENDMDL
MODEL 4
REMARK VINA RESULT:    -3.807      3.135      5.054
REMARK INTER + INTRA:          -4.279
REMARK INTER:                  -4.699
REMARK INTRA:                   0.420
REMARK UNBOUND:                 0.418
REMARK SMILES C=C1CC[C@H]2[C@H]1[C@@H]1[C@@H](CC[C@@H]2C)C1(C)C
REMARK SMILES IDX 6 1 5 2 4 3 3 4 2 5 1 6 11 7 12 8 10 9 7 11 8 12 13 13 14 14
REMARK SMILES IDX 15 15 9 16
REMARK H PARENT
REMARK Flexibility Score: 80.00
ROOT
ATOM      1  C   UNL     1     134.319 138.172 136.258  1.00  0.00     0.022 C 
ATOM      2  C   UNL     1     134.244 139.173 137.425  1.00  0.00    -0.000 C 
ATOM      3  C   UNL     1     134.891 140.437 136.842  1.00  0.00     0.009 C 
ATOM      4  C   UNL     1     134.408 140.476 135.388  1.00  0.00     0.031 C 
ATOM      5  C   UNL     1     134.081 139.051 135.077  1.00  0.00    -0.074 C 
ATOM      6  C   UNL     1     133.727 138.622 133.861  1.00  0.00     0.008 C 
ENDROOT
BRANCH   2   7
ATOM      7  C   UNL     1     134.817 138.610 138.772  1.00  0.00    -0.011 C 
ATOM      8  C   UNL     1     135.227 139.751 139.720  1.00  0.00     0.008 C 
BRANCH   7   9
ATOM      9  C   UNL     1     133.771 137.701 139.517  1.00  0.00     0.004 CG0
ATOM     10  G   UNL     1     133.366 136.332 138.879  1.00  0.00     0.000 G0
ENDBRANCH   7   9
ENDBRANCH   2   7
BRANCH   1  11
ATOM     11  C   UNL     1     133.269 137.084 136.503  1.00  0.00     0.006 C 
ATOM     12  C   UNL     1     133.969 136.115 137.492  1.00  0.00    -0.001 C 
ATOM     13  C   UNL     1     133.323 135.582 136.224  1.00  0.00    -0.029 C 
ATOM     14  C   UNL     1     134.285 135.109 135.127  1.00  0.00     0.012 C 
ATOM     15  C   UNL     1     132.024 134.789 136.402  1.00  0.00     0.012 C 
BRANCH  12  16
ATOM     16  C   UNL     1     133.359 136.328 138.875  1.00  0.00     0.005 CG0
ATOM     17  G   UNL     1     133.782 137.689 139.516  1.00  0.00     0.000 G0
ENDBRANCH  12  16
ENDBRANCH   1  11
TORSDOF 0
ENDMDL
MODEL 5
REMARK VINA RESULT:    -3.799      1.720      3.333
REMARK INTER + INTRA:          -4.269
REMARK INTER:                  -4.687
REMARK INTRA:                   0.418
REMARK UNBOUND:                 0.418
REMARK SMILES C=C1CC[C@H]2[C@H]1[C@@H]1[C@@H](CC[C@@H]2C)C1(C)C
REMARK SMILES IDX 6 1 5 2 4 3 3 4 2 5 1 6 11 7 12 8 10 9 7 11 8 12 13 13 14 14
REMARK SMILES IDX 15 15 9 16
REMARK H PARENT
REMARK Flexibility Score: 80.00
ROOT
ATOM      1  C   UNL     1     138.623 138.580 137.200  1.00  0.00     0.022 C 
ATOM      2  C   UNL     1     137.394 138.958 136.353  1.00  0.00    -0.000 C 
ATOM      3  C   UNL     1     137.973 139.920 135.308  1.00  0.00     0.009 C 
ATOM      4  C   UNL     1     139.347 139.332 134.967  1.00  0.00     0.031 C 
ATOM      5  C   UNL     1     139.704 138.525 136.174  1.00  0.00    -0.074 C 
ATOM      6  C   UNL     1     140.889 137.927 136.341  1.00  0.00     0.008 C 
ENDROOT
BRANCH   2   7
ATOM      7  C   UNL     1     136.172 139.447 137.205  1.00  0.00    -0.011 C 
ATOM      8  C   UNL     1     135.218 140.310 136.360  1.00  0.00     0.008 C 
BRANCH   7   9
ATOM      9  C   UNL     1     135.352 138.242 137.799  1.00  0.00     0.004 CG0
ATOM     10  G   UNL     1     136.015 137.342 138.892  1.00  0.00     0.000 G0
ENDBRANCH   7   9
ENDBRANCH   2   7
BRANCH   1  11
ATOM     11  C   UNL     1     138.314 137.262 137.916  1.00  0.00     0.006 C 
ATOM     12  C   UNL     1     137.482 137.702 139.151  1.00  0.00    -0.001 C 
ATOM     13  C   UNL     1     138.689 136.794 139.323  1.00  0.00    -0.029 C 
ATOM     14  C   UNL     1     139.925 137.433 139.967  1.00  0.00     0.012 C 
ATOM     15  C   UNL     1     138.397 135.331 139.676  1.00  0.00     0.012 C 
BRANCH  12  16
ATOM     16  C   UNL     1     136.022 137.335 138.892  1.00  0.00     0.005 CG0
ATOM     17  G   UNL     1     135.358 138.244 137.807  1.00  0.00     0.000 G0
ENDBRANCH  12  16
ENDBRANCH   1  11
TORSDOF 0
ENDMDL
MODEL 6
REMARK VINA RESULT:    -3.794      3.514      5.014
REMARK INTER + INTRA:          -4.263
REMARK INTER:                  -4.679
REMARK INTRA:                   0.416
REMARK UNBOUND:                 0.418
REMARK SMILES C=C1CC[C@H]2[C@H]1[C@@H]1[C@@H](CC[C@@H]2C)C1(C)C
REMARK SMILES IDX 6 1 5 2 4 3 3 4 2 5 1 6 11 7 12 8 10 9 7 11 8 12 13 13 14 14
REMARK SMILES IDX 15 15 9 16
REMARK H PARENT
REMARK Flexibility Score: 80.00
ROOT
ATOM      1  C   UNL     1     139.365 135.276 137.008  1.00  0.00     0.022 C 
ATOM      2  C   UNL     1     139.399 135.139 135.474  1.00  0.00    -0.000 C 
ATOM      3  C   UNL     1     139.624 133.636 135.264  1.00  0.00     0.009 C 
ATOM      4  C   UNL     1     138.791 132.967 136.364  1.00  0.00     0.031 C 
ATOM      5  C   UNL     1     138.673 134.021 137.418  1.00  0.00    -0.074 C 
ATOM      6  C   UNL     1     138.111 133.811 138.614  1.00  0.00     0.008 C 
ENDROOT
BRANCH   2   7
ATOM      7  C   UNL     1     140.391 136.134 134.777  1.00  0.00    -0.011 C 
ATOM      8  C   UNL     1     140.817 135.613 133.393  1.00  0.00     0.008 C 
BRANCH   7   9
ATOM      9  C   UNL     1     139.754 137.561 134.593  1.00  0.00     0.004 CG0
ATOM     10  G   UNL     1     139.447 138.423 135.861  1.00  0.00     0.000 G0
ENDBRANCH   7   9
ENDBRANCH   2   7
BRANCH   1  11
ATOM     11  C   UNL     1     138.640 136.581 137.347  1.00  0.00     0.006 C 
ATOM     12  C   UNL     1     139.734 137.667 137.169  1.00  0.00    -0.001 C 
ATOM     13  C   UNL     1     138.916 137.605 138.449  1.00  0.00    -0.029 C 
ATOM     14  C   UNL     1     139.656 137.106 139.696  1.00  0.00     0.012 C 
ATOM     15  C   UNL     1     137.879 138.715 138.650  1.00  0.00     0.012 C 
BRANCH  12  16
ATOM     16  C   UNL     1     139.448 138.419 135.871  1.00  0.00     0.005 CG0
ATOM     17  G   UNL     1     139.743 137.558 134.601  1.00  0.00     0.000 G0
ENDBRANCH  12  16
ENDBRANCH   1  11
TORSDOF 0
ENDMDL
MODEL 7
REMARK VINA RESULT:    -3.787      3.693      5.180
REMARK INTER + INTRA:          -4.254
REMARK INTER:                  -4.676
REMARK INTRA:                   0.422
REMARK UNBOUND:                 0.418
REMARK SMILES C=C1CC[C@H]2[C@H]1[C@@H]1[C@@H](CC[C@@H]2C)C1(C)C
REMARK SMILES IDX 6 1 5 2 4 3 3 4 2 5 1 6 11 7 12 8 10 9 7 11 8 12 13 13 14 14
REMARK SMILES IDX 15 15 9 16
REMARK H PARENT
REMARK Flexibility Score: 80.00
ROOT
ATOM      1  C   UNL     1     133.189 137.416 136.998  1.00  0.00     0.022 C 
ATOM      2  C   UNL     1     133.186 137.579 135.467  1.00  0.00    -0.000 C 
ATOM      3  C   UNL     1     132.941 139.081 135.278  1.00  0.00     0.009 C 
ATOM      4  C   UNL     1     133.739 139.744 136.406  1.00  0.00     0.031 C 
ATOM      5  C   UNL     1     133.852 138.675 137.445  1.00  0.00    -0.074 C 
ATOM      6  C   UNL     1     134.385 138.872 138.656  1.00  0.00     0.008 C 
ENDROOT
BRANCH   2   7
ATOM      7  C   UNL     1     132.226 136.580 134.732  1.00  0.00    -0.011 C 
ATOM      8  C   UNL     1     131.825 137.115 133.346  1.00  0.00     0.008 C 
BRANCH   7   9
ATOM      9  C   UNL     1     132.888 135.165 134.543  1.00  0.00     0.004 CG0
ATOM     10  G   UNL     1     133.183 134.292 135.806  1.00  0.00     0.000 G0
ENDBRANCH   7   9
ENDBRANCH   2   7
BRANCH   1  11
ATOM     11  C   UNL     1     133.929 136.117 137.331  1.00  0.00     0.006 C 
ATOM     12  C   UNL     1     132.856 135.017 137.114  1.00  0.00    -0.001 C 
ATOM     13  C   UNL     1     133.647 135.071 138.410  1.00  0.00    -0.029 C 
ATOM     14  C   UNL     1     132.875 135.537 139.650  1.00  0.00     0.012 C 
ATOM     15  C   UNL     1     134.698 133.974 138.615  1.00  0.00     0.012 C 
BRANCH  12  16
ATOM     16  C   UNL     1     133.180 134.291 135.810  1.00  0.00     0.005 CG0
ATOM     17  G   UNL     1     132.894 135.167 134.547  1.00  0.00     0.000 G0
ENDBRANCH  12  16
ENDBRANCH   1  11
TORSDOF 0
ENDMDL
MODEL 8
REMARK VINA RESULT:    -3.716      4.597      5.508
REMARK INTER + INTRA:          -4.167
REMARK INTER:                  -4.590
REMARK INTRA:                   0.423
REMARK UNBOUND:                 0.418
REMARK SMILES C=C1CC[C@H]2[C@H]1[C@@H]1[C@@H](CC[C@@H]2C)C1(C)C
REMARK SMILES IDX 6 1 5 2 4 3 3 4 2 5 1 6 11 7 12 8 10 9 7 11 8 12 13 13 14 14
REMARK SMILES IDX 15 15 9 16
REMARK H PARENT
REMARK Flexibility Score: 80.00
ROOT
ATOM      1  C   UNL     1     138.786 135.954 136.565  1.00  0.00     0.022 C 
ATOM      2  C   UNL     1     139.821 136.486 135.556  1.00  0.00    -0.000 C 
ATOM      3  C   UNL     1     140.129 137.893 136.083  1.00  0.00     0.009 C 
ATOM      4  C   UNL     1     140.126 137.740 137.608  1.00  0.00     0.031 C 
ATOM      5  C   UNL     1     139.272 136.536 137.848  1.00  0.00    -0.074 C 
ATOM      6  C   UNL     1     138.913 136.115 139.066  1.00  0.00     0.008 C 
ENDROOT
BRANCH   2   7
ATOM      7  C   UNL     1     139.371 136.343 134.061  1.00  0.00    -0.011 C 
ATOM      8  C   UNL     1     140.125 137.335 133.158  1.00  0.00     0.008 C 
BRANCH   7   9
ATOM      9  C   UNL     1     139.619 134.889 133.512  1.00  0.00     0.004 CG0
ATOM     10  G   UNL     1     138.785 133.705 134.101  1.00  0.00     0.000 G0
ENDBRANCH   7   9
ENDBRANCH   2   7
BRANCH   1  11
ATOM     11  C   UNL     1     138.789 134.425 136.480  1.00  0.00     0.006 C 
ATOM     12  C   UNL     1     137.888 134.123 135.253  1.00  0.00    -0.001 C 
ATOM     13  C   UNL     1     137.632 133.430 136.581  1.00  0.00    -0.029 C 
ATOM     14  C   UNL     1     136.384 133.885 137.347  1.00  0.00     0.012 C 
ATOM     15  C   UNL     1     137.992 131.942 136.655  1.00  0.00     0.012 C 
BRANCH  12  16
ATOM     16  C   UNL     1     138.791 133.699 134.097  1.00  0.00     0.005 CG0
ATOM     17  G   UNL     1     139.613 134.891 133.508  1.00  0.00     0.000 G0
ENDBRANCH  12  16
ENDBRANCH   1  11
TORSDOF 0
ENDMDL
MODEL 9
REMARK VINA RESULT:    -3.659      5.598      7.048
REMARK INTER + INTRA:          -4.096
REMARK INTER:                  -4.519
REMARK INTRA:                   0.422
REMARK UNBOUND:                 0.418
REMARK SMILES C=C1CC[C@H]2[C@H]1[C@@H]1[C@@H](CC[C@@H]2C)C1(C)C
REMARK SMILES IDX 6 1 5 2 4 3 3 4 2 5 1 6 11 7 12 8 10 9 7 11 8 12 13 13 14 14
REMARK SMILES IDX 15 15 9 16
REMARK H PARENT
REMARK Flexibility Score: 80.00
ROOT
ATOM      1  C   UNL     1     134.788 133.624 137.102  1.00  0.00     0.022 C 
ATOM      2  C   UNL     1     134.758 133.496 135.568  1.00  0.00    -0.000 C 
ATOM      3  C   UNL     1     133.260 133.381 135.258  1.00  0.00     0.009 C 
ATOM      4  C   UNL     1     132.590 134.341 136.249  1.00  0.00     0.031 C 
ATOM      5  C   UNL     1     133.572 134.444 137.371  1.00  0.00    -0.074 C 
ATOM      6  C   UNL     1     133.328 135.103 138.510  1.00  0.00     0.008 C 
ENDROOT
BRANCH   2   7
ATOM      7  C   UNL     1     135.710 132.380 135.013  1.00  0.00    -0.011 C 
ATOM      8  C   UNL     1     135.253 131.903 133.623  1.00  0.00     0.008 C 
BRANCH   7   9
ATOM      9  C   UNL     1     137.197 132.883 134.899  1.00  0.00     0.004 CG0
ATOM     10  G   UNL     1     137.992 133.199 136.207  1.00  0.00     0.000 G0
ENDBRANCH   7   9
ENDBRANCH   2   7
BRANCH   1  11
ATOM     11  C   UNL     1     136.124 134.262 137.494  1.00  0.00     0.006 C 
ATOM     12  C   UNL     1     137.121 133.073 137.468  1.00  0.00    -0.001 C 
ATOM     13  C   UNL     1     137.040 133.979 138.686  1.00  0.00    -0.029 C 
ATOM     14  C   UNL     1     136.393 133.369 139.935  1.00  0.00     0.012 C 
ATOM     15  C   UNL     1     138.219 134.932 138.906  1.00  0.00     0.012 C 
BRANCH  12  16
ATOM     16  C   UNL     1     137.985 133.207 136.216  1.00  0.00     0.005 CG0
ATOM     17  G   UNL     1     137.198 132.881 134.905  1.00  0.00     0.000 G0
ENDBRANCH  12  16
ENDBRANCH   1  11
TORSDOF 0
ENDMDL
