MODEL 1
REMARK VINA RESULT:    55.664      0.000      0.000
REMARK INTER + INTRA:          83.038
REMARK INTER:                  81.696
REMARK INTRA:                   1.341
REMARK UNBOUND:                 1.341
REMARK SMILES Cc1cc2c(C(C)C)c(O)c(O)c(C=O)c2c(O)c1-c1c(C)cc2c(C(C)C)c(O)c(O)c(C=O)c2c1O
REMARK SMILES IDX 1 1 2 2 3 3 4 4 16 5 13 6 11 7 9 8 5 9 17 10 19 11 20 12
REMARK SMILES IDX 37 13 21 14 36 15 23 16 22 17 24 18 33 19 25 20 31 21 29 22
REMARK SMILES IDX 38 23 34 25 35 26 26 27 27 28 28 29 32 30 30 32 18 34 6 36
REMARK SMILES IDX 7 37 8 38 14 39 15 40 10 41 12 43
REMARK H PARENT 38 24 32 31 30 33 18 35 10 42 12 44
REMARK Flexibility Score: inf
ROOT
ATOM      1  C   UNL     1      11.938  14.086  -6.764  1.00  0.00     0.045 C 
ATOM      2  C   UNL     1      10.845  13.236  -6.161  1.00  0.00    -0.039 A 
ATOM      3  C   UNL     1      10.600  13.313  -4.789  1.00  0.00     0.013 A 
ATOM      4  C   UNL     1       9.613  12.521  -4.161  1.00  0.00    -0.006 A 
ATOM      5  C   UNL     1       8.780  11.692  -4.973  1.00  0.00     0.039 A 
ATOM      6  C   UNL     1       7.746  10.932  -4.349  1.00  0.00     0.072 A 
ATOM      7  C   UNL     1       7.448  11.142  -2.989  1.00  0.00     0.169 A 
ATOM      8  C   UNL     1       8.251  11.980  -2.209  1.00  0.00     0.162 A 
ATOM      9  C   UNL     1       9.415  12.569  -2.747  1.00  0.00     0.008 A 
ATOM     10  C   UNL     1       8.973  11.692  -6.387  1.00  0.00     0.132 A 
ATOM     11  C   UNL     1      10.029  12.425  -6.965  1.00  0.00     0.031 A 
ENDROOT
BRANCH  11  12
ATOM     12  C   UNL     1      10.262  12.370  -8.434  1.00  0.00     0.031 A 
ATOM     13  C   UNL     1      10.149  13.540  -9.217  1.00  0.00     0.132 A 
ATOM     14  C   UNL     1      10.609  11.151  -9.036  1.00  0.00    -0.039 A 
ATOM     15  C   UNL     1      10.419  13.497 -10.618  1.00  0.00     0.039 A 
ATOM     16  C   UNL     1      10.766  11.088 -10.422  1.00  0.00     0.013 A 
ATOM     17  C   UNL     1      10.785   9.899  -8.212  1.00  0.00     0.045 C 
ATOM     18  C   UNL     1      10.613  12.228 -11.240  1.00  0.00    -0.006 A 
ATOM     19  C   UNL     1      10.486  14.676 -11.421  1.00  0.00     0.072 A 
ATOM     20  C   UNL     1      10.678  12.128 -12.662  1.00  0.00     0.008 A 
ATOM     21  C   UNL     1      10.746  14.567 -12.803  1.00  0.00     0.169 A 
ATOM     22  C   UNL     1      10.832  13.311 -13.414  1.00  0.00     0.162 A 
BRANCH  13  23
ATOM     23  O   UNL     1       9.741  14.733  -8.611  1.00  0.00    -0.507 OA
ATOM     24  H   UNL     1       9.722  14.880  -7.609  1.00  0.00     0.293 HD
ENDBRANCH  13  23
BRANCH  19  25
ATOM     25  C   UNL     1      10.388  16.027 -10.832  1.00  0.00     0.264 C 
ATOM     26  O   UNL     1      11.128  16.363  -9.869  1.00  0.00    -0.298 OA
ENDBRANCH  19  25
BRANCH  20  27
ATOM     27  C   UNL     1      10.597  10.770 -13.381  1.00  0.00     0.017 C 
ATOM     28  C   UNL     1       9.496   9.895 -12.777  1.00  0.00     0.012 C 
ATOM     29  C   UNL     1      11.941  10.018 -13.436  1.00  0.00     0.012 C 
ENDBRANCH  20  27
BRANCH  21  30
ATOM     30  O   UNL     1      10.950  15.698 -13.603  1.00  0.00    -0.504 OA
ATOM     31  H   UNL     1      11.030  16.640 -13.243  1.00  0.00     0.293 HD
ENDBRANCH  21  30
BRANCH  22  32
ATOM     32  O   UNL     1      11.102  13.235 -14.784  1.00  0.00    -0.504 OA
ATOM     33  H   UNL     1      11.854  12.678 -15.168  1.00  0.00     0.293 HD
ENDBRANCH  22  32
ENDBRANCH  11  12
BRANCH  10  34
ATOM     34  O   UNL     1       8.087  11.000  -7.221  1.00  0.00    -0.507 OA
ATOM     35  H   UNL     1       7.228  10.570  -6.901  1.00  0.00     0.293 HD
ENDBRANCH  10  34
BRANCH   9  36
ATOM     36  C   UNL     1      10.415  13.272  -1.810  1.00  0.00     0.017 C 
ATOM     37  C   UNL     1       9.726  14.383  -1.011  1.00  0.00     0.012 C 
ATOM     38  C   UNL     1      11.183  12.311  -0.882  1.00  0.00     0.012 C 
ENDBRANCH   9  36
BRANCH   6  39
ATOM     39  C   UNL     1       6.989   9.886  -5.067  1.00  0.00     0.264 C 
ATOM     40  O   UNL     1       5.959  10.185  -5.727  1.00  0.00    -0.298 OA
ENDBRANCH   6  39
BRANCH   8  41
ATOM     41  O   UNL     1       7.894  12.226  -0.881  1.00  0.00    -0.504 OA
ATOM     42  H   UNL     1       6.934  12.243  -0.562  1.00  0.00     0.293 HD
ENDBRANCH   8  41
BRANCH   7  43
ATOM     43  O   UNL     1       6.370  10.501  -2.366  1.00  0.00    -0.504 OA
ATOM     44  H   UNL     1       5.893  10.859  -1.548  1.00  0.00     0.293 HD
ENDBRANCH   7  43
TORSDOF 11
ENDMDL
