MODEL 1
REMARK VINA RESULT:    -5.408      0.000      0.000
REMARK INTER + INTRA:          -6.082
REMARK INTER:                  -5.882
REMARK INTRA:                  -0.200
REMARK UNBOUND:                -0.200
REMARK SMILES Cc1ccc(C(C)C)c(O)c1
REMARK SMILES IDX 1 1 2 2 11 3 9 4 5 5 4 6 3 7 10 8 6 10 7 11 8 12
REMARK H PARENT 10 9
REMARK Flexibility Score: inf
ROOT
ATOM      1  C   UNL     1      17.512  42.856   8.854  1.00  0.00     0.044 C 
ATOM      2  C   UNL     1      16.834  43.140   7.546  1.00  0.00    -0.047 A 
ATOM      3  C   UNL     1      17.582  43.196   6.362  1.00  0.00     0.049 A 
ATOM      4  C   UNL     1      16.952  43.424   5.129  1.00  0.00     0.119 A 
ATOM      5  C   UNL     1      15.549  43.587   5.071  1.00  0.00    -0.004 A 
ATOM      6  C   UNL     1      14.808  43.509   6.266  1.00  0.00     0.008 A 
ATOM      7  C   UNL     1      15.443  43.281   7.488  1.00  0.00     0.004 A 
ENDROOT
BRANCH   4   8
ATOM      8  O   UNL     1      17.719  43.484   3.965  1.00  0.00    -0.508 OA
ATOM      9  H   UNL     1      17.357  43.168   3.072  1.00  0.00     0.293 HD
ENDBRANCH   4   8
BRANCH   5  10
ATOM     10  C   UNL     1      14.842  43.835   3.747  1.00  0.00     0.017 C 
ATOM     11  C   UNL     1      14.579  45.330   3.531  1.00  0.00     0.012 C 
ATOM     12  C   UNL     1      13.541  43.029   3.656  1.00  0.00     0.012 C 
ENDBRANCH   5  10
TORSDOF 2
ENDMDL
MODEL 2
REMARK VINA RESULT:    -5.340      1.836      2.275
REMARK INTER + INTRA:          -6.008
REMARK INTER:                  -5.808
REMARK INTRA:                  -0.200
REMARK UNBOUND:                -0.200
REMARK SMILES Cc1ccc(C(C)C)c(O)c1
REMARK SMILES IDX 1 1 2 2 11 3 9 4 5 5 4 6 3 7 10 8 6 10 7 11 8 12
REMARK H PARENT 10 9
REMARK Flexibility Score: inf
ROOT
ATOM      1  C   UNL     1      17.869  42.641   8.873  1.00  0.00     0.044 C 
ATOM      2  C   UNL     1      16.955  43.263   7.859  1.00  0.00    -0.047 A 
ATOM      3  C   UNL     1      15.963  42.493   7.237  1.00  0.00     0.049 A 
ATOM      4  C   UNL     1      15.080  43.075   6.315  1.00  0.00     0.119 A 
ATOM      5  C   UNL     1      15.177  44.452   6.015  1.00  0.00    -0.004 A 
ATOM      6  C   UNL     1      16.165  45.219   6.663  1.00  0.00     0.008 A 
ATOM      7  C   UNL     1      17.039  44.632   7.579  1.00  0.00     0.004 A 
ENDROOT
BRANCH   4   8
ATOM      8  O   UNL     1      14.107  42.284   5.703  1.00  0.00    -0.508 OA
ATOM      9  H   UNL     1      13.169  42.207   6.081  1.00  0.00     0.293 HD
ENDBRANCH   4   8
BRANCH   5  10
ATOM     10  C   UNL     1      14.230  45.107   5.019  1.00  0.00     0.017 C 
ATOM     11  C   UNL     1      14.877  45.220   3.634  1.00  0.00     0.012 C 
ATOM     12  C   UNL     1      13.761  46.477   5.522  1.00  0.00     0.012 C 
ENDBRANCH   5  10
TORSDOF 2
ENDMDL
MODEL 3
REMARK VINA RESULT:    -5.307      1.650      4.380
REMARK INTER + INTRA:          -5.973
REMARK INTER:                  -5.793
REMARK INTRA:                  -0.180
REMARK UNBOUND:                -0.200
REMARK SMILES Cc1ccc(C(C)C)c(O)c1
REMARK SMILES IDX 1 1 2 2 11 3 9 4 5 5 4 6 3 7 10 8 6 10 7 11 8 12
REMARK H PARENT 10 9
REMARK Flexibility Score: inf
ROOT
ATOM      1  C   UNL     1      12.254  46.383   3.631  1.00  0.00     0.044 C 
ATOM      2  C   UNL     1      13.387  45.705   4.344  1.00  0.00    -0.047 A 
ATOM      3  C   UNL     1      14.082  44.656   3.728  1.00  0.00     0.049 A 
ATOM      4  C   UNL     1      15.166  44.040   4.371  1.00  0.00     0.119 A 
ATOM      5  C   UNL     1      15.574  44.485   5.649  1.00  0.00    -0.004 A 
ATOM      6  C   UNL     1      14.880  45.554   6.249  1.00  0.00     0.008 A 
ATOM      7  C   UNL     1      13.803  46.160   5.601  1.00  0.00     0.004 A 
ENDROOT
BRANCH   4   8
ATOM      8  O   UNL     1      15.835  42.992   3.740  1.00  0.00    -0.508 OA
ATOM      9  H   UNL     1      15.834  42.053   4.123  1.00  0.00     0.293 HD
ENDBRANCH   4   8
BRANCH   5  10
ATOM     10  C   UNL     1      16.748  43.835   6.368  1.00  0.00     0.017 C 
ATOM     11  C   UNL     1      16.299  42.592   7.146  1.00  0.00     0.012 C 
ATOM     12  C   UNL     1      17.455  44.836   7.289  1.00  0.00     0.012 C 
ENDBRANCH   5  10
TORSDOF 2
ENDMDL
MODEL 4
REMARK VINA RESULT:    -5.275      2.278      4.647
REMARK INTER + INTRA:          -5.938
REMARK INTER:                  -5.738
REMARK INTRA:                  -0.201
REMARK UNBOUND:                -0.200
REMARK SMILES Cc1ccc(C(C)C)c(O)c1
REMARK SMILES IDX 1 1 2 2 11 3 9 4 5 5 4 6 3 7 10 8 6 10 7 11 8 12
REMARK H PARENT 10 9
REMARK Flexibility Score: inf
ROOT
ATOM      1  C   UNL     1      12.375  46.380   3.726  1.00  0.00     0.044 C 
ATOM      2  C   UNL     1      13.434  45.740   4.576  1.00  0.00    -0.047 A 
ATOM      3  C   UNL     1      13.485  45.998   5.953  1.00  0.00     0.049 A 
ATOM      4  C   UNL     1      14.448  45.375   6.761  1.00  0.00     0.119 A 
ATOM      5  C   UNL     1      15.370  44.469   6.191  1.00  0.00    -0.004 A 
ATOM      6  C   UNL     1      15.295  44.203   4.810  1.00  0.00     0.008 A 
ATOM      7  C   UNL     1      14.333  44.826   4.014  1.00  0.00     0.004 A 
ENDROOT
BRANCH   4   8
ATOM      8  O   UNL     1      14.484  45.656   8.127  1.00  0.00    -0.508 OA
ATOM      9  H   UNL     1      15.359  45.706   8.637  1.00  0.00     0.293 HD
ENDBRANCH   4   8
BRANCH   5  10
ATOM     10  C   UNL     1      16.424  43.780   7.047  1.00  0.00     0.017 C 
ATOM     11  C   UNL     1      17.785  43.765   6.342  1.00  0.00     0.012 C 
ATOM     12  C   UNL     1      15.985  42.361   7.427  1.00  0.00     0.012 C 
ENDBRANCH   5  10
TORSDOF 2
ENDMDL
MODEL 5
REMARK VINA RESULT:    -5.247      1.981      4.497
REMARK INTER + INTRA:          -5.907
REMARK INTER:                  -5.708
REMARK INTRA:                  -0.199
REMARK UNBOUND:                -0.200
REMARK SMILES Cc1ccc(C(C)C)c(O)c1
REMARK SMILES IDX 1 1 2 2 11 3 9 4 5 5 4 6 3 7 10 8 6 10 7 11 8 12
REMARK H PARENT 10 9
REMARK Flexibility Score: inf
ROOT
ATOM      1  C   UNL     1      12.390  42.644   2.852  1.00  0.00     0.044 C 
ATOM      2  C   UNL     1      13.419  42.978   3.893  1.00  0.00    -0.047 A 
ATOM      3  C   UNL     1      13.225  42.593   5.226  1.00  0.00     0.049 A 
ATOM      4  C   UNL     1      14.198  42.869   6.198  1.00  0.00     0.119 A 
ATOM      5  C   UNL     1      15.393  43.530   5.835  1.00  0.00    -0.004 A 
ATOM      6  C   UNL     1      15.584  43.894   4.488  1.00  0.00     0.008 A 
ATOM      7  C   UNL     1      14.611  43.615   3.527  1.00  0.00     0.004 A 
ENDROOT
BRANCH   4   8
ATOM      8  O   UNL     1      13.977  42.484   7.521  1.00  0.00    -0.508 OA
ATOM      9  H   UNL     1      14.742  42.364   8.175  1.00  0.00     0.293 HD
ENDBRANCH   4   8
BRANCH   5  10
ATOM     10  C   UNL     1      16.464  43.840   6.871  1.00  0.00     0.017 C 
ATOM     11  C   UNL     1      16.261  45.235   7.475  1.00  0.00     0.012 C 
ATOM     12  C   UNL     1      17.868  43.698   6.273  1.00  0.00     0.012 C 
ENDBRANCH   5  10
TORSDOF 2
ENDMDL
MODEL 6
REMARK VINA RESULT:    -5.212      2.870      3.943
REMARK INTER + INTRA:          -5.870
REMARK INTER:                  -5.691
REMARK INTRA:                  -0.179
REMARK UNBOUND:                -0.200
REMARK SMILES Cc1ccc(C(C)C)c(O)c1
REMARK SMILES IDX 1 1 2 2 11 3 9 4 5 5 4 6 3 7 10 8 6 10 7 11 8 12
REMARK H PARENT 10 9
REMARK Flexibility Score: inf
ROOT
ATOM      1  C   UNL     1      17.086  43.354   4.353  1.00  0.00     0.044 C 
ATOM      2  C   UNL     1      16.037  44.099   5.126  1.00  0.00    -0.047 A 
ATOM      3  C   UNL     1      16.274  44.478   6.454  1.00  0.00     0.049 A 
ATOM      4  C   UNL     1      15.314  45.206   7.171  1.00  0.00     0.119 A 
ATOM      5  C   UNL     1      14.099  45.576   6.552  1.00  0.00    -0.004 A 
ATOM      6  C   UNL     1      13.881  45.206   5.210  1.00  0.00     0.008 A 
ATOM      7  C   UNL     1      14.842  44.482   4.504  1.00  0.00     0.004 A 
ENDROOT
BRANCH   4   8
ATOM      8  O   UNL     1      15.570  45.564   8.495  1.00  0.00    -0.508 OA
ATOM      9  H   UNL     1      15.004  46.252   8.980  1.00  0.00     0.293 HD
ENDBRANCH   4   8
BRANCH   5  10
ATOM     10  C   UNL     1      13.041  46.367   7.309  1.00  0.00     0.017 C 
ATOM     11  C   UNL     1      12.135  45.438   8.126  1.00  0.00     0.012 C 
ATOM     12  C   UNL     1      12.218  47.241   6.356  1.00  0.00     0.012 C 
ENDBRANCH   5  10
TORSDOF 2
ENDMDL
MODEL 7
REMARK VINA RESULT:    -5.175      1.523      4.122
REMARK INTER + INTRA:          -5.829
REMARK INTER:                  -5.629
REMARK INTRA:                  -0.200
REMARK UNBOUND:                -0.200
REMARK SMILES Cc1ccc(C(C)C)c(O)c1
REMARK SMILES IDX 1 1 2 2 11 3 9 4 5 5 4 6 3 7 10 8 6 10 7 11 8 12
REMARK H PARENT 10 9
REMARK Flexibility Score: inf
ROOT
ATOM      1  C   UNL     1      12.249  42.533   3.268  1.00  0.00     0.044 C 
ATOM      2  C   UNL     1      13.356  43.086   4.117  1.00  0.00    -0.047 A 
ATOM      3  C   UNL     1      14.193  44.092   3.618  1.00  0.00     0.049 A 
ATOM      4  C   UNL     1      15.206  44.641   4.417  1.00  0.00     0.119 A 
ATOM      5  C   UNL     1      15.384  44.188   5.744  1.00  0.00    -0.004 A 
ATOM      6  C   UNL     1      14.523  43.190   6.241  1.00  0.00     0.008 A 
ATOM      7  C   UNL     1      13.517  42.650   5.438  1.00  0.00     0.004 A 
ENDROOT
BRANCH   4   8
ATOM      8  O   UNL     1      16.032  45.636   3.894  1.00  0.00    -0.508 OA
ATOM      9  H   UNL     1      15.910  46.612   4.139  1.00  0.00     0.293 HD
ENDBRANCH   4   8
BRANCH   5  10
ATOM     10  C   UNL     1      16.476  44.767   6.632  1.00  0.00     0.017 C 
ATOM     11  C   UNL     1      17.742  43.904   6.585  1.00  0.00     0.012 C 
ATOM     12  C   UNL     1      15.981  44.943   8.072  1.00  0.00     0.012 C 
ENDBRANCH   5  10
TORSDOF 2
ENDMDL
MODEL 8
REMARK VINA RESULT:    -5.135      1.809      2.190
REMARK INTER + INTRA:          -5.785
REMARK INTER:                  -5.585
REMARK INTRA:                  -0.200
REMARK UNBOUND:                -0.200
REMARK SMILES Cc1ccc(C(C)C)c(O)c1
REMARK SMILES IDX 1 1 2 2 11 3 9 4 5 5 4 6 3 7 10 8 6 10 7 11 8 12
REMARK H PARENT 10 9
REMARK Flexibility Score: inf
ROOT
ATOM      1  C   UNL     1      17.506  43.746   9.251  1.00  0.00     0.044 C 
ATOM      2  C   UNL     1      16.582  43.774   8.068  1.00  0.00    -0.047 A 
ATOM      3  C   UNL     1      16.133  44.997   7.552  1.00  0.00     0.049 A 
ATOM      4  C   UNL     1      15.299  45.034   6.425  1.00  0.00     0.119 A 
ATOM      5  C   UNL     1      14.913  43.831   5.791  1.00  0.00    -0.004 A 
ATOM      6  C   UNL     1      15.388  42.610   6.308  1.00  0.00     0.008 A 
ATOM      7  C   UNL     1      16.217  42.583   7.429  1.00  0.00     0.004 A 
ENDROOT
BRANCH   4   8
ATOM      8  O   UNL     1      14.858  46.264   5.935  1.00  0.00    -0.508 OA
ATOM      9  H   UNL     1      14.108  46.328   5.256  1.00  0.00     0.293 HD
ENDBRANCH   4   8
BRANCH   5  10
ATOM     10  C   UNL     1      14.010  43.844   4.566  1.00  0.00     0.017 C 
ATOM     11  C   UNL     1      12.961  42.728   4.640  1.00  0.00     0.012 C 
ATOM     12  C   UNL     1      14.829  43.746   3.274  1.00  0.00     0.012 C 
ENDBRANCH   5  10
TORSDOF 2
ENDMDL
MODEL 9
REMARK VINA RESULT:    -5.041      3.261      4.911
REMARK INTER + INTRA:          -5.684
REMARK INTER:                  -5.483
REMARK INTRA:                  -0.200
REMARK UNBOUND:                -0.200
REMARK SMILES Cc1ccc(C(C)C)c(O)c1
REMARK SMILES IDX 1 1 2 2 11 3 9 4 5 5 4 6 3 7 10 8 6 10 7 11 8 12
REMARK H PARENT 10 9
REMARK Flexibility Score: inf
ROOT
ATOM      1  C   UNL     1      11.333  47.125   6.624  1.00  0.00     0.044 C 
ATOM      2  C   UNL     1      12.594  46.346   6.862  1.00  0.00    -0.047 A 
ATOM      3  C   UNL     1      12.700  45.498   7.972  1.00  0.00     0.049 A 
ATOM      4  C   UNL     1      13.860  44.738   8.182  1.00  0.00     0.119 A 
ATOM      5  C   UNL     1      14.932  44.815   7.264  1.00  0.00    -0.004 A 
ATOM      6  C   UNL     1      14.804  45.657   6.142  1.00  0.00     0.008 A 
ATOM      7  C   UNL     1      13.646  46.408   5.941  1.00  0.00     0.004 A 
ENDROOT
BRANCH   4   8
ATOM      8  O   UNL     1      13.944  43.907   9.300  1.00  0.00    -0.508 OA
ATOM      9  H   UNL     1      13.455  44.122  10.162  1.00  0.00     0.293 HD
ENDBRANCH   4   8
BRANCH   5  10
ATOM     10  C   UNL     1      16.201  44.000   7.470  1.00  0.00     0.017 C 
ATOM     11  C   UNL     1      17.450  44.834   7.160  1.00  0.00     0.012 C 
ATOM     12  C   UNL     1      16.174  42.716   6.633  1.00  0.00     0.012 C 
ENDBRANCH   5  10
TORSDOF 2
ENDMDL
