MODEL 1
REMARK VINA RESULT:    -5.508      0.000      0.000
REMARK INTER + INTRA:          -6.406
REMARK INTER:                  -6.313
REMARK INTRA:                  -0.093
REMARK UNBOUND:                -0.093
REMARK SMILES COc1cc(C(=O)[O-])ccc1O
REMARK SMILES IDX 5 1 9 2 4 3 10 4 3 5 11 6 6 7 7 8 8 9 2 10 1 11 12 12
REMARK H PARENT 12 13
REMARK Flexibility Score: inf
ROOT
ATOM      1  C   UNL     1       3.344  -7.541   1.172  1.00  0.00     0.001 A 
ATOM      2  C   UNL     1       3.424  -8.939   1.079  1.00  0.00     0.014 A 
ATOM      3  C   UNL     1       4.182  -6.866   2.080  1.00  0.00     0.060 A 
ATOM      4  C   UNL     1       4.323  -9.650   1.876  1.00  0.00     0.051 A 
ATOM      5  C   UNL     1       5.091  -7.580   2.887  1.00  0.00     0.161 A 
ATOM      6  C   UNL     1       5.154  -8.981   2.777  1.00  0.00     0.157 A 
ENDROOT
BRANCH   1   7
ATOM      7  C   UNL     1       2.389  -6.791   0.325  1.00  0.00     0.072 C 
ATOM      8  O   UNL     1       2.800  -5.924  -0.491  1.00  0.00    -0.545 OA
ATOM      9  O   UNL     1       1.023  -7.033   0.420  1.00  0.00    -0.545 OA
ENDBRANCH   1   7
BRANCH   5  10
ATOM     10  O   UNL     1       5.940  -6.934   3.801  1.00  0.00    -0.493 OA
ATOM     11  C   UNL     1       7.215  -6.393   3.477  1.00  0.00     0.278 C 
ENDBRANCH   5  10
BRANCH   6  12
ATOM     12  O   UNL     1       6.039  -9.725   3.556  1.00  0.00    -0.504 OA
ATOM     13  H   UNL     1       6.943 -10.026   3.209  1.00  0.00     0.293 HD
ENDBRANCH   6  12
TORSDOF 3
ENDMDL
MODEL 2
REMARK VINA RESULT:    -5.273      7.208      8.616
REMARK INTER + INTRA:          -6.136
REMARK INTER:                  -6.058
REMARK INTRA:                  -0.079
REMARK UNBOUND:                -0.093
REMARK SMILES COc1cc(C(=O)[O-])ccc1O
REMARK SMILES IDX 5 1 9 2 4 3 10 4 3 5 11 6 6 7 7 8 8 9 2 10 1 11 12 12
REMARK H PARENT 12 13
REMARK Flexibility Score: inf
ROOT
ATOM      1  C   UNL     1      -3.197  -7.799   2.900  1.00  0.00     0.001 A 
ATOM      2  C   UNL     1      -2.532  -8.967   3.307  1.00  0.00     0.014 A 
ATOM      3  C   UNL     1      -4.162  -7.230   3.751  1.00  0.00     0.060 A 
ATOM      4  C   UNL     1      -2.824  -9.554   4.539  1.00  0.00     0.051 A 
ATOM      5  C   UNL     1      -4.461  -7.819   4.997  1.00  0.00     0.161 A 
ATOM      6  C   UNL     1      -3.782  -8.989   5.384  1.00  0.00     0.157 A 
ENDROOT
BRANCH   1   7
ATOM      7  C   UNL     1      -2.883  -7.180   1.592  1.00  0.00     0.072 C 
ATOM      8  O   UNL     1      -3.791  -6.645   0.902  1.00  0.00    -0.545 OA
ATOM      9  O   UNL     1      -1.580  -7.182   1.107  1.00  0.00    -0.545 OA
ENDBRANCH   1   7
BRANCH   5  10
ATOM     10  O   UNL     1      -5.419  -7.273   5.867  1.00  0.00    -0.493 OA
ATOM     11  C   UNL     1      -5.132  -6.344   6.906  1.00  0.00     0.278 C 
ENDBRANCH   5  10
BRANCH   6  12
ATOM     12  O   UNL     1      -4.047  -9.604   6.607  1.00  0.00    -0.504 OA
ATOM     13  H   UNL     1      -3.978  -9.108   7.488  1.00  0.00     0.293 HD
ENDBRANCH   6  12
TORSDOF 3
ENDMDL
MODEL 3
REMARK VINA RESULT:    -5.014      2.192      2.964
REMARK INTER + INTRA:          -5.839
REMARK INTER:                  -5.742
REMARK INTRA:                  -0.097
REMARK UNBOUND:                -0.093
REMARK SMILES COc1cc(C(=O)[O-])ccc1O
REMARK SMILES IDX 5 1 9 2 4 3 10 4 3 5 11 6 6 7 7 8 8 9 2 10 1 11 12 12
REMARK H PARENT 12 13
REMARK Flexibility Score: inf
ROOT
ATOM      1  C   UNL     1       5.009  -7.059   3.060  1.00  0.00     0.001 A 
ATOM      2  C   UNL     1       4.615  -7.661   4.266  1.00  0.00     0.014 A 
ATOM      3  C   UNL     1       6.318  -6.557   2.942  1.00  0.00     0.060 A 
ATOM      4  C   UNL     1       5.511  -7.762   5.331  1.00  0.00     0.051 A 
ATOM      5  C   UNL     1       7.227  -6.656   4.015  1.00  0.00     0.161 A 
ATOM      6  C   UNL     1       6.811  -7.263   5.214  1.00  0.00     0.157 A 
ENDROOT
BRANCH   1   7
ATOM      7  C   UNL     1       4.055  -6.955   1.933  1.00  0.00     0.072 C 
ATOM      8  O   UNL     1       4.191  -6.059   1.057  1.00  0.00    -0.545 OA
ATOM      9  O   UNL     1       2.993  -7.846   1.825  1.00  0.00    -0.545 OA
ENDBRANCH   1   7
BRANCH   5  10
ATOM     10  O   UNL     1       8.539  -6.164   3.925  1.00  0.00    -0.493 OA
ATOM     11  C   UNL     1       9.537  -6.676   3.048  1.00  0.00     0.278 C 
ENDBRANCH   5  10
BRANCH   6  12
ATOM     12  O   UNL     1       7.677  -7.382   6.299  1.00  0.00    -0.504 OA
ATOM     13  H   UNL     1       7.544  -6.858   7.157  1.00  0.00     0.293 HD
ENDBRANCH   6  12
TORSDOF 3
ENDMDL
MODEL 4
REMARK VINA RESULT:    -4.938      7.245      9.427
REMARK INTER + INTRA:          -5.752
REMARK INTER:                  -5.661
REMARK INTRA:                  -0.092
REMARK UNBOUND:                -0.093
REMARK SMILES COc1cc(C(=O)[O-])ccc1O
REMARK SMILES IDX 5 1 9 2 4 3 10 4 3 5 11 6 6 7 7 8 8 9 2 10 1 11 12 12
REMARK H PARENT 12 13
REMARK Flexibility Score: inf
ROOT
ATOM      1  C   UNL     1      -4.569  -7.833   4.272  1.00  0.00     0.001 A 
ATOM      2  C   UNL     1      -5.781  -7.377   3.729  1.00  0.00     0.014 A 
ATOM      3  C   UNL     1      -3.401  -7.762   3.490  1.00  0.00     0.060 A 
ATOM      4  C   UNL     1      -5.826  -6.861   2.433  1.00  0.00     0.051 A 
ATOM      5  C   UNL     1      -3.441  -7.241   2.181  1.00  0.00     0.161 A 
ATOM      6  C   UNL     1      -4.667  -6.791   1.657  1.00  0.00     0.157 A 
ENDROOT
BRANCH   1   7
ATOM      7  C   UNL     1      -4.526  -8.379   5.647  1.00  0.00     0.072 C 
ATOM      8  O   UNL     1      -3.841  -9.403   5.909  1.00  0.00    -0.545 OA
ATOM      9  O   UNL     1      -5.244  -7.769   6.669  1.00  0.00    -0.545 OA
ENDBRANCH   1   7
BRANCH   5  10
ATOM     10  O   UNL     1      -2.291  -7.159   1.378  1.00  0.00    -0.493 OA
ATOM     11  C   UNL     1      -1.499  -8.273   0.983  1.00  0.00     0.278 C 
ENDBRANCH   5  10
BRANCH   6  12
ATOM     12  O   UNL     1      -4.751  -6.270   0.367  1.00  0.00    -0.504 OA
ATOM     13  H   UNL     1      -4.088  -5.589   0.015  1.00  0.00     0.293 HD
ENDBRANCH   6  12
TORSDOF 3
ENDMDL
MODEL 5
REMARK VINA RESULT:    -4.902      1.520      4.256
REMARK INTER + INTRA:          -5.712
REMARK INTER:                  -5.617
REMARK INTRA:                  -0.095
REMARK UNBOUND:                -0.093
REMARK SMILES COc1cc(C(=O)[O-])ccc1O
REMARK SMILES IDX 5 1 9 2 4 3 10 4 3 5 11 6 6 7 7 8 8 9 2 10 1 11 12 12
REMARK H PARENT 12 13
REMARK Flexibility Score: inf
ROOT
ATOM      1  C   UNL     1       5.805  -7.301   3.065  1.00  0.00     0.001 A 
ATOM      2  C   UNL     1       5.933  -8.698   3.134  1.00  0.00     0.014 A 
ATOM      3  C   UNL     1       4.690  -6.748   2.410  1.00  0.00     0.060 A 
ATOM      4  C   UNL     1       4.966  -9.525   2.561  1.00  0.00     0.051 A 
ATOM      5  C   UNL     1       3.710  -7.579   1.829  1.00  0.00     0.161 A 
ATOM      6  C   UNL     1       3.859  -8.976   1.910  1.00  0.00     0.157 A 
ENDROOT
BRANCH   1   7
ATOM      7  C   UNL     1       6.834  -6.428   3.675  1.00  0.00     0.072 C 
ATOM      8  O   UNL     1       7.431  -5.561   2.984  1.00  0.00    -0.545 OA
ATOM      9  O   UNL     1       7.154  -6.553   5.022  1.00  0.00    -0.545 OA
ENDBRANCH   1   7
BRANCH   5  10
ATOM     10  O   UNL     1       2.587  -7.055   1.169  1.00  0.00    -0.493 OA
ATOM     11  C   UNL     1       2.628  -6.374  -0.080  1.00  0.00     0.278 C 
ENDBRANCH   5  10
BRANCH   6  12
ATOM     12  O   UNL     1       2.914  -9.834   1.349  1.00  0.00    -0.504 OA
ATOM     13  H   UNL     1       3.125 -10.425   0.553  1.00  0.00     0.293 HD
ENDBRANCH   6  12
TORSDOF 3
ENDMDL
MODEL 6
REMARK VINA RESULT:    -4.772      2.334      5.184
REMARK INTER + INTRA:          -5.562
REMARK INTER:                  -5.486
REMARK INTRA:                  -0.076
REMARK UNBOUND:                -0.093
REMARK SMILES COc1cc(C(=O)[O-])ccc1O
REMARK SMILES IDX 5 1 9 2 4 3 10 4 3 5 11 6 6 7 7 8 8 9 2 10 1 11 12 12
REMARK H PARENT 12 13
REMARK Flexibility Score: inf
ROOT
ATOM      1  C   UNL     1       5.935  -8.079   5.107  1.00  0.00     0.001 A 
ATOM      2  C   UNL     1       7.250  -7.612   5.259  1.00  0.00     0.014 A 
ATOM      3  C   UNL     1       5.192  -7.676   3.983  1.00  0.00     0.060 A 
ATOM      4  C   UNL     1       7.812  -6.759   4.307  1.00  0.00     0.051 A 
ATOM      5  C   UNL     1       5.754  -6.816   3.018  1.00  0.00     0.161 A 
ATOM      6  C   UNL     1       7.074  -6.359   3.191  1.00  0.00     0.157 A 
ENDROOT
BRANCH   1   7
ATOM      7  C   UNL     1       5.344  -8.984   6.120  1.00  0.00     0.072 C 
ATOM      8  O   UNL     1       4.207  -8.744   6.608  1.00  0.00    -0.545 OA
ATOM      9  O   UNL     1       6.037 -10.110   6.548  1.00  0.00    -0.545 OA
ENDBRANCH   1   7
BRANCH   5  10
ATOM     10  O   UNL     1       5.036  -6.398   1.886  1.00  0.00    -0.493 OA
ATOM     11  C   UNL     1       3.724  -6.836   1.553  1.00  0.00     0.278 C 
ENDBRANCH   5  10
BRANCH   6  12
ATOM     12  O   UNL     1       7.669  -5.507   2.262  1.00  0.00    -0.504 OA
ATOM     13  H   UNL     1       7.739  -4.508   2.412  1.00  0.00     0.293 HD
ENDBRANCH   6  12
TORSDOF 3
ENDMDL
MODEL 7
REMARK VINA RESULT:    -4.765     14.079     15.999
REMARK INTER + INTRA:          -5.554
REMARK INTER:                  -5.465
REMARK INTRA:                  -0.089
REMARK UNBOUND:                -0.093
REMARK SMILES COc1cc(C(=O)[O-])ccc1O
REMARK SMILES IDX 5 1 9 2 4 3 10 4 3 5 11 6 6 7 7 8 8 9 2 10 1 11 12 12
REMARK H PARENT 12 13
REMARK Flexibility Score: inf
ROOT
ATOM      1  C   UNL     1      -1.584   0.449  -9.161  1.00  0.00     0.001 A 
ATOM      2  C   UNL     1      -0.875   1.480  -9.798  1.00  0.00     0.014 A 
ATOM      3  C   UNL     1      -2.668   0.779  -8.326  1.00  0.00     0.060 A 
ATOM      4  C   UNL     1      -1.241   2.814  -9.605  1.00  0.00     0.051 A 
ATOM      5  C   UNL     1      -3.042   2.124  -8.129  1.00  0.00     0.161 A 
ATOM      6  C   UNL     1      -2.317   3.141  -8.776  1.00  0.00     0.157 A 
ENDROOT
BRANCH   1   7
ATOM      7  C   UNL     1      -1.192  -0.963  -9.369  1.00  0.00     0.072 C 
ATOM      8  O   UNL     1      -1.869  -1.713 -10.122  1.00  0.00    -0.545 OA
ATOM      9  O   UNL     1      -0.071  -1.483  -8.733  1.00  0.00    -0.545 OA
ENDBRANCH   1   7
BRANCH   5  10
ATOM     10  O   UNL     1      -4.119   2.482  -7.302  1.00  0.00    -0.493 OA
ATOM     11  C   UNL     1      -5.472   2.102  -7.526  1.00  0.00     0.278 C 
ENDBRANCH   5  10
BRANCH   6  12
ATOM     12  O   UNL     1      -2.653   4.483  -8.609  1.00  0.00    -0.504 OA
ATOM     13  H   UNL     1      -3.407   4.780  -8.000  1.00  0.00     0.293 HD
ENDBRANCH   6  12
TORSDOF 3
ENDMDL
MODEL 8
REMARK VINA RESULT:    -4.724     11.205     12.196
REMARK INTER + INTRA:          -5.507
REMARK INTER:                  -5.427
REMARK INTRA:                  -0.081
REMARK UNBOUND:                -0.093
REMARK SMILES COc1cc(C(=O)[O-])ccc1O
REMARK SMILES IDX 5 1 9 2 4 3 10 4 3 5 11 6 6 7 7 8 8 9 2 10 1 11 12 12
REMARK H PARENT 12 13
REMARK Flexibility Score: inf
ROOT
ATOM      1  C   UNL     1       7.575   1.133   8.459  1.00  0.00     0.001 A 
ATOM      2  C   UNL     1       6.416   0.601   9.045  1.00  0.00     0.014 A 
ATOM      3  C   UNL     1       7.447   2.068   7.415  1.00  0.00     0.060 A 
ATOM      4  C   UNL     1       5.153   0.995   8.598  1.00  0.00     0.051 A 
ATOM      5  C   UNL     1       6.175   2.469   6.961  1.00  0.00     0.161 A 
ATOM      6  C   UNL     1       5.026   1.923   7.562  1.00  0.00     0.157 A 
ENDROOT
BRANCH   1   7
ATOM      7  C   UNL     1       8.912   0.712   8.937  1.00  0.00     0.072 C 
ATOM      8  O   UNL     1       9.957   1.211   8.440  1.00  0.00    -0.545 OA
ATOM      9  O   UNL     1       9.032  -0.241   9.942  1.00  0.00    -0.545 OA
ENDBRANCH   1   7
BRANCH   5  10
ATOM     10  O   UNL     1       6.016   3.400   5.921  1.00  0.00    -0.493 OA
ATOM     11  C   UNL     1       7.058   3.825   5.050  1.00  0.00     0.278 C 
ENDBRANCH   5  10
BRANCH   6  12
ATOM     12  O   UNL     1       3.749   2.291   7.142  1.00  0.00    -0.504 OA
ATOM     13  H   UNL     1       3.528   2.463   6.168  1.00  0.00     0.293 HD
ENDBRANCH   6  12
TORSDOF 3
ENDMDL
MODEL 9
REMARK VINA RESULT:    -4.685     14.653     16.513
REMARK INTER + INTRA:          -5.463
REMARK INTER:                  -5.368
REMARK INTRA:                  -0.095
REMARK UNBOUND:                -0.093
REMARK SMILES COc1cc(C(=O)[O-])ccc1O
REMARK SMILES IDX 5 1 9 2 4 3 10 4 3 5 11 6 6 7 7 8 8 9 2 10 1 11 12 12
REMARK H PARENT 12 13
REMARK Flexibility Score: inf
ROOT
ATOM      1  C   UNL     1      -3.762   2.984  -8.223  1.00  0.00     0.001 A 
ATOM      2  C   UNL     1      -3.109   3.977  -8.970  1.00  0.00     0.014 A 
ATOM      3  C   UNL     1      -3.171   1.711  -8.113  1.00  0.00     0.060 A 
ATOM      4  C   UNL     1      -1.891   3.705  -9.595  1.00  0.00     0.051 A 
ATOM      5  C   UNL     1      -1.941   1.432  -8.742  1.00  0.00     0.161 A 
ATOM      6  C   UNL     1      -1.305   2.442  -9.487  1.00  0.00     0.157 A 
ENDROOT
BRANCH   1   7
ATOM      7  C   UNL     1      -5.054   3.277  -7.562  1.00  0.00     0.072 C 
ATOM      8  O   UNL     1      -6.018   2.472  -7.653  1.00  0.00    -0.545 OA
ATOM      9  O   UNL     1      -5.220   4.448  -6.830  1.00  0.00    -0.545 OA
ENDBRANCH   1   7
BRANCH   5  10
ATOM     10  O   UNL     1      -1.328   0.171  -8.650  1.00  0.00    -0.493 OA
ATOM     11  C   UNL     1      -1.601  -0.925  -9.515  1.00  0.00     0.278 C 
ENDBRANCH   5  10
BRANCH   6  12
ATOM     12  O   UNL     1      -0.088   2.208 -10.125  1.00  0.00    -0.504 OA
ATOM     13  H   UNL     1       0.735   2.772  -9.943  1.00  0.00     0.293 HD
ENDBRANCH   6  12
TORSDOF 3
ENDMDL
