MODEL 1
REMARK VINA RESULT:    99.631      0.000      0.000
REMARK INTER + INTRA:         108.867
REMARK INTER:                 108.368
REMARK INTRA:                   0.500
REMARK UNBOUND:                 0.500
REMARK SMILES C[C@@H]1[C@@H](C)CC[C@@]2(C(=O)[O-])CC[C@@]3(C)C(=CC[C@@H]4[C@@]5(C)CC[C@H](O)C(C)(C)[C@H]5CC[C@]43C)[C@@H]12
REMARK SMILES IDX 7 1 6 2 11 3 33 4 5 5 12 6 15 7 2 8 3 9 13 10 16 11 1 12
REMARK SMILES IDX 4 13 14 14 31 15 17 16 18 17 30 18 32 19 19 20 29 21 28 22
REMARK SMILES IDX 21 23 20 24 25 25 22 26 23 27 26 28 27 29 8 30 9 31 10 32
REMARK SMILES IDX 24 33
REMARK H PARENT 24 34
REMARK Flexibility Score: inf
ROOT
ATOM      1  C   UNL     1      15.014  -0.973  25.040  1.00  0.00     0.017 C 
ATOM      2  C   UNL     1      14.245  -2.125  24.303  1.00  0.00     0.014 C 
ATOM      3  C   UNL     1      16.267  -0.627  24.195  1.00  0.00     0.014 C 
ATOM      4  C   UNL     1      14.119   0.310  25.187  1.00  0.00     0.030 C 
ATOM      5  C   UNL     1      12.727  -1.995  24.434  1.00  0.00     0.004 C 
ATOM      6  C   UNL     1      17.145   0.427  24.868  1.00  0.00     0.013 C 
ATOM      7  C   UNL     1      14.931   1.553  25.606  1.00  0.00    -0.063 C 
ATOM      8  C   UNL     1      13.220   0.498  23.910  1.00  0.00    -0.003 C 
ATOM      9  C   UNL     1      12.215  -0.697  23.764  1.00  0.00    -0.011 C 
ATOM     10  C   UNL     1      16.410   1.779  25.200  1.00  0.00    -0.006 C 
ATOM     11  C   UNL     1      14.263   2.560  26.217  1.00  0.00    -0.027 C 
ATOM     12  C   UNL     1      12.446   1.830  23.876  1.00  0.00     0.008 C 
ATOM     13  C   UNL     1      11.871  -0.958  22.286  1.00  0.00     0.008 C 
ATOM     14  C   UNL     1      16.289   2.529  23.826  1.00  0.00     0.017 C 
ATOM     15  C   UNL     1      17.239   2.653  26.338  1.00  0.00    -0.020 C 
ATOM     16  C   UNL     1      14.961   3.820  26.636  1.00  0.00     0.032 C 
ATOM     17  C   UNL     1      16.267   3.408  27.325  1.00  0.00     0.006 C 
ATOM     18  C   UNL     1      18.105   1.772  27.310  1.00  0.00     0.008 C 
ATOM     19  C   UNL     1      18.213   3.613  25.583  1.00  0.00     0.012 C 
ATOM     20  C   UNL     1      16.918   4.456  28.338  1.00  0.00    -0.025 C 
ATOM     21  C   UNL     1      18.442   2.374  28.712  1.00  0.00     0.005 C 
ATOM     22  C   UNL     1      18.344   3.927  28.846  1.00  0.00     0.003 C 
ATOM     23  C   UNL     1      15.912   4.607  29.535  1.00  0.00     0.010 C 
ATOM     24  C   UNL     1      17.065   5.846  27.646  1.00  0.00     0.012 C 
ATOM     25  C   UNL     1      18.842   4.479  30.263  1.00  0.00    -0.006 C 
ATOM     26  C   UNL     1      16.478   5.266  30.786  1.00  0.00     0.033 C 
ATOM     27  C   UNL     1      17.685   4.493  31.301  1.00  0.00     0.120 C 
ATOM     28  C   UNL     1      19.993   3.610  30.847  1.00  0.00     0.014 C 
ATOM     29  C   UNL     1      19.457   5.901  30.103  1.00  0.00     0.014 C 
ENDROOT
BRANCH   1  30
ATOM     30  C   UNL     1      15.445  -1.490  26.412  1.00  0.00     0.048 C 
ATOM     31  O   UNL     1      16.634  -1.332  26.800  1.00  0.00    -0.550 OA
ATOM     32  O   UNL     1      14.545  -2.123  27.263  1.00  0.00    -0.550 OA
ENDBRANCH   1  30
BRANCH  27  33
ATOM     33  O   UNL     1      18.099   5.074  32.514  1.00  0.00    -0.393 OA
ATOM     34  H   UNL     1      19.091   5.099  32.509  1.00  0.00     0.210 HD
ENDBRANCH  27  33
TORSDOF 2
ENDMDL
MODEL 2
REMARK VINA RESULT:   101.103      1.496      2.293
REMARK INTER + INTRA:         110.469
REMARK INTER:                 110.616
REMARK INTRA:                  -0.148
REMARK UNBOUND:                 0.500
REMARK SMILES C[C@@H]1[C@@H](C)CC[C@@]2(C(=O)[O-])CC[C@@]3(C)C(=CC[C@@H]4[C@@]5(C)CC[C@H](O)C(C)(C)[C@H]5CC[C@]43C)[C@@H]12
REMARK SMILES IDX 7 1 6 2 11 3 33 4 5 5 12 6 15 7 2 8 3 9 13 10 16 11 1 12
REMARK SMILES IDX 4 13 14 14 31 15 17 16 18 17 30 18 32 19 19 20 29 21 28 22
REMARK SMILES IDX 21 23 20 24 25 25 22 26 23 27 26 28 27 29 8 30 9 31 10 32
REMARK SMILES IDX 24 33
REMARK H PARENT 24 34
REMARK Flexibility Score: inf
ROOT
ATOM      1  C   UNL     1      14.735   0.809  24.765  1.00  0.00     0.017 C 
ATOM      2  C   UNL     1      13.566   0.347  23.827  1.00  0.00     0.014 C 
ATOM      3  C   UNL     1      16.059   0.678  23.967  1.00  0.00     0.014 C 
ATOM      4  C   UNL     1      14.550   2.302  25.218  1.00  0.00     0.030 C 
ATOM      5  C   UNL     1      12.287   1.158  24.041  1.00  0.00     0.004 C 
ATOM      6  C   UNL     1      17.282   1.017  24.817  1.00  0.00     0.013 C 
ATOM      7  C   UNL     1      15.824   2.886  25.864  1.00  0.00    -0.063 C 
ATOM      8  C   UNL     1      13.942   3.157  24.046  1.00  0.00    -0.003 C 
ATOM      9  C   UNL     1      12.503   2.649  23.685  1.00  0.00    -0.011 C 
ATOM     10  C   UNL     1      17.257   2.454  25.460  1.00  0.00    -0.006 C 
ATOM     11  C   UNL     1      15.674   3.940  26.701  1.00  0.00    -0.027 C 
ATOM     12  C   UNL     1      13.900   4.671  24.328  1.00  0.00     0.008 C 
ATOM     13  C   UNL     1      12.182   2.896  22.200  1.00  0.00     0.008 C 
ATOM     14  C   UNL     1      17.605   3.436  24.285  1.00  0.00     0.017 C 
ATOM     15  C   UNL     1      18.319   2.568  26.727  1.00  0.00    -0.020 C 
ATOM     16  C   UNL     1      16.855   4.594  27.355  1.00  0.00     0.032 C 
ATOM     17  C   UNL     1      17.756   3.474  27.889  1.00  0.00     0.006 C 
ATOM     18  C   UNL     1      18.590   1.201  27.453  1.00  0.00     0.008 C 
ATOM     19  C   UNL     1      19.683   3.076  26.159  1.00  0.00     0.012 C 
ATOM     20  C   UNL     1      18.754   3.847  29.079  1.00  0.00    -0.025 C 
ATOM     21  C   UNL     1      19.074   1.264  28.938  1.00  0.00     0.005 C 
ATOM     22  C   UNL     1      19.716   2.607  29.407  1.00  0.00     0.003 C 
ATOM     23  C   UNL     1      17.858   4.211  30.318  1.00  0.00     0.010 C 
ATOM     24  C   UNL     1      19.592   5.105  28.696  1.00  0.00     0.012 C 
ATOM     25  C   UNL     1      20.315   2.547  30.889  1.00  0.00    -0.006 C 
ATOM     26  C   UNL     1      18.579   4.244  31.658  1.00  0.00     0.033 C 
ATOM     27  C   UNL     1      19.234   2.900  31.949  1.00  0.00     0.120 C 
ATOM     28  C   UNL     1      20.870   1.134  31.229  1.00  0.00     0.014 C 
ATOM     29  C   UNL     1      21.542   3.499  31.016  1.00  0.00     0.014 C 
ENDROOT
BRANCH   1  30
ATOM     30  C   UNL     1      14.771  -0.121  25.977  1.00  0.00     0.048 C 
ATOM     31  O   UNL     1      14.302   0.264  27.082  1.00  0.00    -0.550 OA
ATOM     32  O   UNL     1      15.299  -1.405  25.889  1.00  0.00    -0.550 OA
ENDBRANCH   1  30
BRANCH  27  33
ATOM     33  O   UNL     1      19.788   2.946  33.242  1.00  0.00    -0.393 OA
ATOM     34  H   UNL     1      20.624   2.413  33.227  1.00  0.00     0.210 HD
ENDBRANCH  27  33
TORSDOF 2
ENDMDL
