MODEL 1
REMARK VINA RESULT:    -2.741      0.000      0.000
REMARK INTER + INTRA:          -3.276
REMARK INTER:                  -3.222
REMARK INTRA:                  -0.053
REMARK UNBOUND:                -0.053
REMARK SMILES O=C([O-])CCC(=O)[O-]
REMARK SMILES IDX 4 1 2 2 1 3 3 4 5 5 6 6 7 7 8 8
REMARK H PARENT
REMARK Flexibility Score: inf
ROOT
ATOM      1  C   UNL     1     -10.689 -18.960  22.853  1.00  0.00     0.059 C 
ENDROOT
BRANCH   1   2
ATOM      2  C   UNL     1      -9.761 -17.870  22.412  1.00  0.00     0.042 C 
ATOM      3  O   UNL     1      -9.766 -17.477  21.215  1.00  0.00    -0.550 OA
ATOM      4  O   UNL     1      -8.919 -17.259  23.333  1.00  0.00    -0.550 OA
ENDBRANCH   1   2
BRANCH   1   5
ATOM      5  C   UNL     1     -10.320 -20.305  22.219  1.00  0.00     0.059 C 
BRANCH   5   6
ATOM      6  C   UNL     1      -9.854 -21.290  23.247  1.00  0.00     0.042 C 
ATOM      7  O   UNL     1     -10.689 -21.905  23.961  1.00  0.00    -0.550 OA
ATOM      8  O   UNL     1      -8.498 -21.556  23.389  1.00  0.00    -0.550 OA
ENDBRANCH   5   6
ENDBRANCH   1   5
TORSDOF 3
ENDMDL
MODEL 2
REMARK VINA RESULT:    -2.733      0.038      3.909
REMARK INTER + INTRA:          -3.266
REMARK INTER:                  -3.208
REMARK INTRA:                  -0.058
REMARK UNBOUND:                -0.053
REMARK SMILES O=C([O-])CCC(=O)[O-]
REMARK SMILES IDX 4 1 2 2 1 3 3 4 5 5 6 6 7 7 8 8
REMARK H PARENT
REMARK Flexibility Score: inf
ROOT
ATOM      1  C   UNL     1     -10.318 -20.336  22.204  1.00  0.00     0.059 C 
ENDROOT
BRANCH   1   2
ATOM      2  C   UNL     1      -9.827 -21.304  23.237  1.00  0.00     0.042 C 
ATOM      3  O   UNL     1     -10.645 -21.920  23.969  1.00  0.00    -0.550 OA
ATOM      4  O   UNL     1      -8.466 -21.554  23.363  1.00  0.00    -0.550 OA
ENDBRANCH   1   2
BRANCH   1   5
ATOM      5  C   UNL     1     -10.702 -18.990  22.829  1.00  0.00     0.059 C 
BRANCH   5   6
ATOM      6  C   UNL     1      -9.763 -17.901  22.411  1.00  0.00     0.042 C 
ATOM      7  O   UNL     1      -9.749 -17.498  21.218  1.00  0.00    -0.550 OA
ATOM      8  O   UNL     1      -8.930 -17.304  23.349  1.00  0.00    -0.550 OA
ENDBRANCH   5   6
ENDBRANCH   1   5
TORSDOF 3
ENDMDL
MODEL 3
REMARK VINA RESULT:    -2.693      2.184      3.699
REMARK INTER + INTRA:          -3.219
REMARK INTER:                  -3.104
REMARK INTRA:                  -0.115
REMARK UNBOUND:                -0.053
REMARK SMILES O=C([O-])CCC(=O)[O-]
REMARK SMILES IDX 4 1 2 2 1 3 3 4 5 5 6 6 7 7 8 8
REMARK H PARENT
REMARK Flexibility Score: inf
ROOT
ATOM      1  C   UNL     1     -10.984 -18.887  20.491  1.00  0.00     0.059 C 
ENDROOT
BRANCH   1   2
ATOM      2  C   UNL     1     -10.337 -20.218  20.261  1.00  0.00     0.042 C 
ATOM      3  O   UNL     1      -9.808 -20.484  19.150  1.00  0.00    -0.550 OA
ATOM      4  O   UNL     1     -10.283 -21.151  21.289  1.00  0.00    -0.550 OA
ENDBRANCH   1   2
BRANCH   1   5
ATOM      5  C   UNL     1      -9.991 -17.867  21.058  1.00  0.00     0.059 C 
BRANCH   5   6
ATOM      6  C   UNL     1      -9.948 -17.913  22.555  1.00  0.00     0.042 C 
ATOM      7  O   UNL     1      -8.980 -17.402  23.177  1.00  0.00    -0.550 OA
ATOM      8  O   UNL     1     -10.997 -18.486  23.262  1.00  0.00    -0.550 OA
ENDBRANCH   5   6
ENDBRANCH   1   5
TORSDOF 3
ENDMDL
MODEL 4
REMARK VINA RESULT:    -2.690      2.199      2.732
REMARK INTER + INTRA:          -3.215
REMARK INTER:                  -3.098
REMARK INTRA:                  -0.118
REMARK UNBOUND:                -0.053
REMARK SMILES O=C([O-])CCC(=O)[O-]
REMARK SMILES IDX 4 1 2 2 1 3 3 4 5 5 6 6 7 7 8 8
REMARK H PARENT
REMARK Flexibility Score: inf
ROOT
ATOM      1  C   UNL     1      -9.985 -17.887  21.072  1.00  0.00     0.059 C 
ENDROOT
BRANCH   1   2
ATOM      2  C   UNL     1      -9.929 -17.905  22.569  1.00  0.00     0.042 C 
ATOM      3  O   UNL     1      -8.949 -17.396  23.174  1.00  0.00    -0.550 OA
ATOM      4  O   UNL     1     -10.980 -18.449  23.297  1.00  0.00    -0.550 OA
ENDBRANCH   1   2
BRANCH   1   5
ATOM      5  C   UNL     1     -10.991 -18.909  20.532  1.00  0.00     0.059 C 
BRANCH   5   6
ATOM      6  C   UNL     1     -10.352 -20.246  20.310  1.00  0.00     0.042 C 
ATOM      7  O   UNL     1     -10.367 -21.115  21.220  1.00  0.00    -0.550 OA
ATOM      8  O   UNL     1      -9.775 -20.544  19.082  1.00  0.00    -0.550 OA
ENDBRANCH   5   6
ENDBRANCH   1   5
TORSDOF 3
ENDMDL
MODEL 5
REMARK VINA RESULT:    -2.675      0.283      3.896
REMARK INTER + INTRA:          -3.197
REMARK INTER:                  -3.101
REMARK INTRA:                  -0.097
REMARK UNBOUND:                -0.053
REMARK SMILES O=C([O-])CCC(=O)[O-]
REMARK SMILES IDX 4 1 2 2 1 3 3 4 5 5 6 6 7 7 8 8
REMARK H PARENT
REMARK Flexibility Score: inf
ROOT
ATOM      1  C   UNL     1     -10.718 -20.291  22.398  1.00  0.00     0.059 C 
ENDROOT
BRANCH   1   2
ATOM      2  C   UNL     1      -9.966 -21.238  23.282  1.00  0.00     0.042 C 
ATOM      3  O   UNL     1      -8.709 -21.197  23.333  1.00  0.00    -0.550 OA
ATOM      4  O   UNL     1     -10.658 -22.141  24.080  1.00  0.00    -0.550 OA
ENDBRANCH   1   2
BRANCH   1   5
ATOM      5  C   UNL     1     -10.836 -18.900  23.032  1.00  0.00     0.059 C 
BRANCH   5   6
ATOM      6  C   UNL     1      -9.837 -17.945  22.452  1.00  0.00     0.042 C 
ATOM      7  O   UNL     1      -9.004 -17.368  23.199  1.00  0.00    -0.550 OA
ATOM      8  O   UNL     1      -9.803 -17.723  21.081  1.00  0.00    -0.550 OA
ENDBRANCH   5   6
ENDBRANCH   1   5
TORSDOF 3
ENDMDL
MODEL 6
REMARK VINA RESULT:    -2.570      1.252      1.814
REMARK INTER + INTRA:          -3.075
REMARK INTER:                  -3.033
REMARK INTRA:                  -0.042
REMARK UNBOUND:                -0.053
REMARK SMILES O=C([O-])CCC(=O)[O-]
REMARK SMILES IDX 4 1 2 2 1 3 3 4 5 5 6 6 7 7 8 8
REMARK H PARENT
REMARK Flexibility Score: inf
ROOT
ATOM      1  C   UNL     1     -10.706 -19.361  21.334  1.00  0.00     0.059 C 
ENDROOT
BRANCH   1   2
ATOM      2  C   UNL     1     -10.417 -17.949  20.928  1.00  0.00     0.042 C 
ATOM      3  O   UNL     1      -9.510 -17.294  21.507  1.00  0.00    -0.550 OA
ATOM      4  O   UNL     1     -11.123 -17.368  19.882  1.00  0.00    -0.550 OA
ENDBRANCH   1   2
BRANCH   1   5
ATOM      5  C   UNL     1     -10.049 -19.709  22.674  1.00  0.00     0.059 C 
BRANCH   5   6
ATOM      6  C   UNL     1      -9.777 -21.178  22.789  1.00  0.00     0.042 C 
ATOM      7  O   UNL     1     -10.485 -22.006  22.157  1.00  0.00    -0.550 OA
ATOM      8  O   UNL     1      -8.715 -21.629  23.562  1.00  0.00    -0.550 OA
ENDBRANCH   5   6
ENDBRANCH   1   5
TORSDOF 3
ENDMDL
MODEL 7
REMARK VINA RESULT:    -2.557     19.543     20.275
REMARK INTER + INTRA:          -3.059
REMARK INTER:                  -2.959
REMARK INTRA:                  -0.100
REMARK UNBOUND:                -0.053
REMARK SMILES O=C([O-])CCC(=O)[O-]
REMARK SMILES IDX 4 1 2 2 1 3 3 4 5 5 6 6 7 7 8 8
REMARK H PARENT
REMARK Flexibility Score: inf
ROOT
ATOM      1  C   UNL     1       8.733 -21.215  14.492  1.00  0.00     0.059 C 
ENDROOT
BRANCH   1   2
ATOM      2  C   UNL     1       7.502 -21.598  15.255  1.00  0.00     0.042 C 
ATOM      3  O   UNL     1       6.630 -22.336  14.727  1.00  0.00    -0.550 OA
ATOM      4  O   UNL     1       7.338 -21.170  16.567  1.00  0.00    -0.550 OA
ENDBRANCH   1   2
BRANCH   1   5
ATOM      5  C   UNL     1       8.735 -19.725  14.134  1.00  0.00     0.059 C 
BRANCH   5   6
ATOM      6  C   UNL     1       8.474 -19.508  12.675  1.00  0.00     0.042 C 
ATOM      7  O   UNL     1       9.044 -18.568  12.061  1.00  0.00    -0.550 OA
ATOM      8  O   UNL     1       7.630 -20.369  11.985  1.00  0.00    -0.550 OA
ENDBRANCH   5   6
ENDBRANCH   1   5
TORSDOF 3
ENDMDL
MODEL 8
REMARK VINA RESULT:    -2.512     19.610     20.096
REMARK INTER + INTRA:          -3.006
REMARK INTER:                  -2.899
REMARK INTRA:                  -0.107
REMARK UNBOUND:                -0.053
REMARK SMILES O=C([O-])CCC(=O)[O-]
REMARK SMILES IDX 4 1 2 2 1 3 3 4 5 5 6 6 7 7 8 8
REMARK H PARENT
REMARK Flexibility Score: inf
ROOT
ATOM      1  C   UNL     1       8.748 -19.755  14.094  1.00  0.00     0.059 C 
ENDROOT
BRANCH   1   2
ATOM      2  C   UNL     1       8.507 -19.619  12.622  1.00  0.00     0.042 C 
ATOM      3  O   UNL     1       9.125 -18.748  11.955  1.00  0.00    -0.550 OA
ATOM      4  O   UNL     1       7.629 -20.483  11.979  1.00  0.00    -0.550 OA
ENDBRANCH   1   2
BRANCH   1   5
ATOM      5  C   UNL     1       8.822 -21.226  14.520  1.00  0.00     0.059 C 
BRANCH   5   6
ATOM      6  C   UNL     1       7.621 -21.628  15.320  1.00  0.00     0.042 C 
ATOM      7  O   UNL     1       7.502 -21.256  16.517  1.00  0.00    -0.550 OA
ATOM      8  O   UNL     1       6.614 -22.381  14.729  1.00  0.00    -0.550 OA
ENDBRANCH   5   6
ENDBRANCH   1   5
TORSDOF 3
ENDMDL
MODEL 9
REMARK VINA RESULT:    -2.441      1.553      3.937
REMARK INTER + INTRA:          -2.922
REMARK INTER:                  -2.811
REMARK INTRA:                  -0.111
REMARK UNBOUND:                -0.053
REMARK SMILES O=C([O-])CCC(=O)[O-]
REMARK SMILES IDX 4 1 2 2 1 3 3 4 5 5 6 6 7 7 8 8
REMARK H PARENT
REMARK Flexibility Score: inf
ROOT
ATOM      1  C   UNL     1      -9.936 -20.387  22.784  1.00  0.00     0.059 C 
ENDROOT
BRANCH   1   2
ATOM      2  C   UNL     1     -10.395 -21.223  21.629  1.00  0.00     0.042 C 
ATOM      3  O   UNL     1     -10.278 -22.476  21.666  1.00  0.00    -0.550 OA
ATOM      4  O   UNL     1     -10.988 -20.619  20.527  1.00  0.00    -0.550 OA
ENDBRANCH   1   2
BRANCH   1   5
ATOM      5  C   UNL     1     -10.671 -19.043  22.836  1.00  0.00     0.059 C 
BRANCH   5   6
ATOM      6  C   UNL     1      -9.784 -17.914  22.408  1.00  0.00     0.042 C 
ATOM      7  O   UNL     1      -9.824 -17.491  21.222  1.00  0.00    -0.550 OA
ATOM      8  O   UNL     1      -8.943 -17.304  23.329  1.00  0.00    -0.550 OA
ENDBRANCH   5   6
ENDBRANCH   1   5
TORSDOF 3
ENDMDL
