MODEL 1
REMARK VINA RESULT:    -4.982      0.000      0.000
REMARK INTER + INTRA:          -6.806
REMARK INTER:                  -6.438
REMARK INTRA:                  -0.368
REMARK UNBOUND:                -0.368
REMARK SMILES CCO[C@H]1O[C@H](CO)[C@@H](O)[C@H](O)[C@@H]1O
REMARK SMILES IDX 4 1 13 2 11 3 9 4 6 5 5 6 3 7 2 8 1 9 14 10 12 12 7 14 8 15
REMARK SMILES IDX 10 17
REMARK H PARENT 14 11 12 13 8 16 10 18
REMARK Flexibility Score: inf
ROOT
ATOM      1  C   UNL     1      35.632   4.664  43.664  1.00  0.00     0.281 C 
ATOM      2  C   UNL     1      35.271   6.016  44.311  1.00  0.00     0.202 C 
ATOM      3  C   UNL     1      36.258   7.102  43.856  1.00  0.00     0.179 C 
ATOM      4  C   UNL     1      37.707   6.633  44.074  1.00  0.00     0.177 C 
ATOM      5  C   UNL     1      37.903   5.238  43.434  1.00  0.00     0.178 C 
ATOM      6  O   UNL     1      36.974   4.305  43.967  1.00  0.00    -0.341 OA
ENDROOT
BRANCH   1   7
ATOM      7  O   UNL     1      35.407   4.722  42.265  1.00  0.00    -0.350 OA
BRANCH   7   8
ATOM      8  C   UNL     1      35.128   3.432  41.761  1.00  0.00     0.160 C 
ATOM      9  C   UNL     1      36.230   3.027  40.793  1.00  0.00     0.035 C 
ENDBRANCH   7   8
ENDBRANCH   1   7
BRANCH   2  10
ATOM     10  O   UNL     1      35.306   5.901  45.711  1.00  0.00    -0.385 OA
ATOM     11  H   UNL     1      36.240   6.087  45.992  1.00  0.00     0.211 HD
ENDBRANCH   2  10
BRANCH   3  12
ATOM     12  O   UNL     1      36.015   8.284  44.576  1.00  0.00    -0.387 OA
ATOM     13  H   UNL     1      36.855   8.507  45.056  1.00  0.00     0.211 HD
ENDBRANCH   3  12
BRANCH   5  14
ATOM     14  C   UNL     1      39.318   4.709  43.695  1.00  0.00     0.191 C 
BRANCH  14  15
ATOM     15  O   UNL     1      39.962   5.529  44.630  1.00  0.00    -0.394 OA
ATOM     16  H   UNL     1      40.305   6.310  44.122  1.00  0.00     0.210 HD
ENDBRANCH  14  15
ENDBRANCH   5  14
BRANCH   4  17
ATOM     17  O   UNL     1      38.579   7.563  43.483  1.00  0.00    -0.387 OA
ATOM     18  H   UNL     1      39.503   7.302  43.736  1.00  0.00     0.211 HD
ENDBRANCH   4  17
TORSDOF 7
ENDMDL
MODEL 2
REMARK VINA RESULT:    -4.803      1.281      3.684
REMARK INTER + INTRA:          -6.575
REMARK INTER:                  -6.207
REMARK INTRA:                  -0.368
REMARK UNBOUND:                -0.368
REMARK SMILES CCO[C@H]1O[C@H](CO)[C@@H](O)[C@H](O)[C@@H]1O
REMARK SMILES IDX 4 1 13 2 11 3 9 4 6 5 5 6 3 7 2 8 1 9 14 10 12 12 7 14 8 15
REMARK SMILES IDX 10 17
REMARK H PARENT 14 11 12 13 8 16 10 18
REMARK Flexibility Score: inf
ROOT
ATOM      1  C   UNL     1      38.719   5.853  43.065  1.00  0.00     0.281 C 
ATOM      2  C   UNL     1      38.226   7.204  43.621  1.00  0.00     0.202 C 
ATOM      3  C   UNL     1      37.015   6.989  44.540  1.00  0.00     0.179 C 
ATOM      4  C   UNL     1      35.947   6.140  43.830  1.00  0.00     0.177 C 
ATOM      5  C   UNL     1      36.598   4.853  43.266  1.00  0.00     0.178 C 
ATOM      6  O   UNL     1      37.668   5.174  42.390  1.00  0.00    -0.341 OA
ENDROOT
BRANCH   1   7
ATOM      7  O   UNL     1      39.262   5.068  44.115  1.00  0.00    -0.350 OA
BRANCH   7   8
ATOM      8  C   UNL     1      40.125   4.080  43.591  1.00  0.00     0.160 C 
ATOM      9  C   UNL     1      39.697   2.717  44.113  1.00  0.00     0.035 C 
ENDBRANCH   7   8
ENDBRANCH   1   7
BRANCH   2  10
ATOM     10  O   UNL     1      37.870   8.055  42.561  1.00  0.00    -0.385 OA
ATOM     11  H   UNL     1      36.891   7.954  42.427  1.00  0.00     0.211 HD
ENDBRANCH   2  10
BRANCH   3  12
ATOM     12  O   UNL     1      36.480   8.236  44.907  1.00  0.00    -0.387 OA
ATOM     13  H   UNL     1      36.642   8.854  44.148  1.00  0.00     0.211 HD
ENDBRANCH   3  12
BRANCH   5  14
ATOM     14  C   UNL     1      35.575   4.017  42.489  1.00  0.00     0.191 C 
BRANCH  14  15
ATOM     15  O   UNL     1      34.981   3.083  43.347  1.00  0.00    -0.394 OA
ATOM     16  H   UNL     1      35.527   3.084  44.176  1.00  0.00     0.210 HD
ENDBRANCH  14  15
ENDBRANCH   5  14
BRANCH   4  17
ATOM     17  O   UNL     1      34.941   5.808  44.754  1.00  0.00    -0.387 OA
ATOM     18  H   UNL     1      35.386   5.385  45.535  1.00  0.00     0.211 HD
ENDBRANCH   4  17
TORSDOF 7
ENDMDL
MODEL 3
REMARK VINA RESULT:    -4.757      1.951      3.619
REMARK INTER + INTRA:          -6.516
REMARK INTER:                  -6.139
REMARK INTRA:                  -0.376
REMARK UNBOUND:                -0.368
REMARK SMILES CCO[C@H]1O[C@H](CO)[C@@H](O)[C@H](O)[C@@H]1O
REMARK SMILES IDX 4 1 13 2 11 3 9 4 6 5 5 6 3 7 2 8 1 9 14 10 12 12 7 14 8 15
REMARK SMILES IDX 10 17
REMARK H PARENT 14 11 12 13 8 16 10 18
REMARK Flexibility Score: inf
ROOT
ATOM      1  C   UNL     1      38.320   3.296  43.552  1.00  0.00     0.281 C 
ATOM      2  C   UNL     1      36.899   2.698  43.560  1.00  0.00     0.202 C 
ATOM      3  C   UNL     1      35.924   3.636  42.832  1.00  0.00     0.179 C 
ATOM      4  C   UNL     1      36.041   5.065  43.387  1.00  0.00     0.177 C 
ATOM      5  C   UNL     1      37.525   5.505  43.381  1.00  0.00     0.178 C 
ATOM      6  O   UNL     1      38.322   4.596  44.127  1.00  0.00    -0.341 OA
ENDROOT
BRANCH   1   7
ATOM      7  O   UNL     1      38.831   3.307  42.228  1.00  0.00    -0.350 OA
BRANCH   7   8
ATOM      8  C   UNL     1      40.125   2.741  42.199  1.00  0.00     0.160 C 
ATOM      9  C   UNL     1      40.003   1.228  42.108  1.00  0.00     0.035 C 
ENDBRANCH   7   8
ENDBRANCH   1   7
BRANCH   2  10
ATOM     10  O   UNL     1      36.469   2.506  44.885  1.00  0.00    -0.385 OA
ATOM     11  H   UNL     1      35.735   3.155  45.046  1.00  0.00     0.211 HD
ENDBRANCH   2  10
BRANCH   3  12
ATOM     12  O   UNL     1      34.612   3.158  42.989  1.00  0.00    -0.387 OA
ATOM     13  H   UNL     1      34.049   3.938  43.233  1.00  0.00     0.211 HD
ENDBRANCH   3  12
BRANCH   5  14
ATOM     14  C   UNL     1      37.686   6.900  43.995  1.00  0.00     0.191 C 
BRANCH  14  15
ATOM     15  O   UNL     1      37.497   7.874  43.007  1.00  0.00    -0.394 OA
ATOM     16  H   UNL     1      37.070   7.409  42.240  1.00  0.00     0.210 HD
ENDBRANCH  14  15
ENDBRANCH   5  14
BRANCH   4  17
ATOM     17  O   UNL     1      35.278   5.929  42.582  1.00  0.00    -0.387 OA
ATOM     18  H   UNL     1      35.265   6.815  43.031  1.00  0.00     0.211 HD
ENDBRANCH   4  17
TORSDOF 7
ENDMDL
MODEL 4
REMARK VINA RESULT:    -4.599      2.085      2.802
REMARK INTER + INTRA:          -6.311
REMARK INTER:                  -5.925
REMARK INTRA:                  -0.386
REMARK UNBOUND:                -0.368
REMARK SMILES CCO[C@H]1O[C@H](CO)[C@@H](O)[C@H](O)[C@@H]1O
REMARK SMILES IDX 4 1 13 2 11 3 9 4 6 5 5 6 3 7 2 8 1 9 14 10 12 12 7 14 8 15
REMARK SMILES IDX 10 17
REMARK H PARENT 14 11 12 13 8 16 10 18
REMARK Flexibility Score: inf
ROOT
ATOM      1  C   UNL     1      38.016   4.018  42.295  1.00  0.00     0.281 C 
ATOM      2  C   UNL     1      37.735   4.574  43.705  1.00  0.00     0.202 C 
ATOM      3  C   UNL     1      37.344   6.057  43.622  1.00  0.00     0.179 C 
ATOM      4  C   UNL     1      38.381   6.839  42.799  1.00  0.00     0.177 C 
ATOM      5  C   UNL     1      38.611   6.130  41.443  1.00  0.00     0.178 C 
ATOM      6  O   UNL     1      39.020   4.784  41.642  1.00  0.00    -0.341 OA
ENDROOT
BRANCH   1   7
ATOM      7  O   UNL     1      36.813   3.979  41.542  1.00  0.00    -0.350 OA
BRANCH   7   8
ATOM      8  C   UNL     1      36.185   2.722  41.688  1.00  0.00     0.160 C 
ATOM      9  C   UNL     1      34.784   2.928  42.242  1.00  0.00     0.035 C 
ENDBRANCH   7   8
ENDBRANCH   1   7
BRANCH   2  10
ATOM     10  O   UNL     1      38.878   4.431  44.511  1.00  0.00    -0.385 OA
ATOM     11  H   UNL     1      39.395   3.667  44.145  1.00  0.00     0.211 HD
ENDBRANCH   2  10
BRANCH   3  12
ATOM     12  O   UNL     1      37.250   6.589  44.919  1.00  0.00    -0.387 OA
ATOM     13  H   UNL     1      36.558   6.063  45.397  1.00  0.00     0.211 HD
ENDBRANCH   3  12
BRANCH   5  14
ATOM     14  C   UNL     1      39.693   6.845  40.626  1.00  0.00     0.191 C 
BRANCH  14  15
ATOM     15  O   UNL     1      39.129   7.933  39.948  1.00  0.00    -0.394 OA
ATOM     16  H   UNL     1      39.888   8.426  39.538  1.00  0.00     0.210 HD
ENDBRANCH  14  15
ENDBRANCH   5  14
BRANCH   4  17
ATOM     17  O   UNL     1      37.902   8.144  42.586  1.00  0.00    -0.387 OA
ATOM     18  H   UNL     1      37.988   8.633  43.447  1.00  0.00     0.211 HD
ENDBRANCH   4  17
TORSDOF 7
ENDMDL
MODEL 5
REMARK VINA RESULT:    -4.587     14.164     15.576
REMARK INTER + INTRA:          -6.296
REMARK INTER:                  -5.950
REMARK INTRA:                  -0.346
REMARK UNBOUND:                -0.368
REMARK SMILES CCO[C@H]1O[C@H](CO)[C@@H](O)[C@H](O)[C@@H]1O
REMARK SMILES IDX 4 1 13 2 11 3 9 4 6 5 5 6 3 7 2 8 1 9 14 10 12 12 7 14 8 15
REMARK SMILES IDX 10 17
REMARK H PARENT 14 11 12 13 8 16 10 18
REMARK Flexibility Score: inf
ROOT
ATOM      1  C   UNL     1      20.542   3.021  41.771  1.00  0.00     0.281 C 
ATOM      2  C   UNL     1      20.834   3.729  40.433  1.00  0.00     0.202 C 
ATOM      3  C   UNL     1      22.238   4.352  40.458  1.00  0.00     0.179 C 
ATOM      4  C   UNL     1      22.417   5.218  41.716  1.00  0.00     0.177 C 
ATOM      5  C   UNL     1      22.024   4.401  42.970  1.00  0.00     0.178 C 
ATOM      6  O   UNL     1      20.692   3.922  42.861  1.00  0.00    -0.341 OA
ENDROOT
BRANCH   1   7
ATOM      7  O   UNL     1      21.382   1.886  41.910  1.00  0.00    -0.350 OA
BRANCH   7   8
ATOM      8  C   UNL     1      20.634   0.776  42.363  1.00  0.00     0.160 C 
ATOM      9  C   UNL     1      20.955  -0.429  41.493  1.00  0.00     0.035 C 
ENDBRANCH   7   8
ENDBRANCH   1   7
BRANCH   2  10
ATOM     10  O   UNL     1      19.876   4.733  40.205  1.00  0.00    -0.385 OA
ATOM     11  H   UNL     1      18.991   4.283  40.169  1.00  0.00     0.211 HD
ENDBRANCH   2  10
BRANCH   3  12
ATOM     12  O   UNL     1      22.425   5.128  39.301  1.00  0.00    -0.387 OA
ATOM     13  H   UNL     1      22.007   4.632  38.551  1.00  0.00     0.211 HD
ENDBRANCH   3  12
BRANCH   5  14
ATOM     14  C   UNL     1      22.123   5.259  44.237  1.00  0.00     0.191 C 
BRANCH  14  15
ATOM     15  O   UNL     1      23.397   5.118  44.802  1.00  0.00    -0.394 OA
ATOM     16  H   UNL     1      24.036   5.105  44.042  1.00  0.00     0.210 HD
ENDBRANCH  14  15
ENDBRANCH   5  14
BRANCH   4  17
ATOM     17  O   UNL     1      23.762   5.620  41.803  1.00  0.00    -0.387 OA
ATOM     18  H   UNL     1      24.257   5.151  41.082  1.00  0.00     0.211 HD
ENDBRANCH   4  17
TORSDOF 7
ENDMDL
MODEL 6
REMARK VINA RESULT:    -4.572      2.518      3.840
REMARK INTER + INTRA:          -6.276
REMARK INTER:                  -5.896
REMARK INTRA:                  -0.380
REMARK UNBOUND:                -0.368
REMARK SMILES CCO[C@H]1O[C@H](CO)[C@@H](O)[C@H](O)[C@@H]1O
REMARK SMILES IDX 4 1 13 2 11 3 9 4 6 5 5 6 3 7 2 8 1 9 14 10 12 12 7 14 8 15
REMARK SMILES IDX 10 17
REMARK H PARENT 14 11 12 13 8 16 10 18
REMARK Flexibility Score: inf
ROOT
ATOM      1  C   UNL     1      38.253   6.093  41.176  1.00  0.00     0.281 C 
ATOM      2  C   UNL     1      38.802   6.941  42.341  1.00  0.00     0.202 C 
ATOM      3  C   UNL     1      39.314   6.029  43.466  1.00  0.00     0.179 C 
ATOM      4  C   UNL     1      38.240   4.998  43.850  1.00  0.00     0.177 C 
ATOM      5  C   UNL     1      37.735   4.275  42.579  1.00  0.00     0.178 C 
ATOM      6  O   UNL     1      37.236   5.210  41.633  1.00  0.00    -0.341 OA
ENDROOT
BRANCH   1   7
ATOM      7  O   UNL     1      39.314   5.391  40.548  1.00  0.00    -0.350 OA
BRANCH   7   8
ATOM      8  C   UNL     1      39.160   5.428  39.144  1.00  0.00     0.160 C 
ATOM      9  C   UNL     1      39.705   6.747  38.619  1.00  0.00     0.035 C 
ENDBRANCH   7   8
ENDBRANCH   1   7
BRANCH   2  10
ATOM     10  O   UNL     1      37.791   7.782  42.837  1.00  0.00    -0.385 OA
ATOM     11  H   UNL     1      37.258   7.243  43.480  1.00  0.00     0.211 HD
ENDBRANCH   2  10
BRANCH   3  12
ATOM     12  O   UNL     1      39.659   6.812  44.581  1.00  0.00    -0.387 OA
ATOM     13  H   UNL     1      40.608   7.077  44.464  1.00  0.00     0.211 HD
ENDBRANCH   3  12
BRANCH   5  14
ATOM     14  C   UNL     1      36.611   3.290  42.918  1.00  0.00     0.191 C 
BRANCH  14  15
ATOM     15  O   UNL     1      36.112   3.568  44.197  1.00  0.00    -0.394 OA
ATOM     16  H   UNL     1      36.822   3.296  44.836  1.00  0.00     0.210 HD
ENDBRANCH  14  15
ENDBRANCH   5  14
BRANCH   4  17
ATOM     17  O   UNL     1      38.801   4.069  44.745  1.00  0.00    -0.387 OA
ATOM     18  H   UNL     1      39.011   4.558  45.583  1.00  0.00     0.211 HD
ENDBRANCH   4  17
TORSDOF 7
ENDMDL
MODEL 7
REMARK VINA RESULT:    -4.568      2.043      4.323
REMARK INTER + INTRA:          -6.271
REMARK INTER:                  -6.103
REMARK INTRA:                  -0.168
REMARK UNBOUND:                -0.368
REMARK SMILES CCO[C@H]1O[C@H](CO)[C@@H](O)[C@H](O)[C@@H]1O
REMARK SMILES IDX 4 1 13 2 11 3 9 4 6 5 5 6 3 7 2 8 1 9 14 10 12 12 7 14 8 15
REMARK SMILES IDX 10 17
REMARK H PARENT 14 11 12 13 8 16 10 18
REMARK Flexibility Score: inf
ROOT
ATOM      1  C   UNL     1      38.934   6.513  42.720  1.00  0.00     0.281 C 
ATOM      2  C   UNL     1      39.510   5.318  43.504  1.00  0.00     0.202 C 
ATOM      3  C   UNL     1      38.439   4.230  43.675  1.00  0.00     0.179 C 
ATOM      4  C   UNL     1      37.148   4.835  44.250  1.00  0.00     0.177 C 
ATOM      5  C   UNL     1      36.728   6.062  43.405  1.00  0.00     0.178 C 
ATOM      6  O   UNL     1      37.772   7.023  43.362  1.00  0.00    -0.341 OA
ENDROOT
BRANCH   1   7
ATOM      7  O   UNL     1      38.667   6.129  41.380  1.00  0.00    -0.350 OA
BRANCH   7   8
ATOM      8  C   UNL     1      39.654   6.652  40.516  1.00  0.00     0.160 C 
ATOM      9  C   UNL     1      39.032   7.739  39.652  1.00  0.00     0.035 C 
ENDBRANCH   7   8
ENDBRANCH   1   7
BRANCH   2  10
ATOM     10  O   UNL     1      39.955   5.745  44.768  1.00  0.00    -0.385 OA
ATOM     11  H   UNL     1      40.258   6.685  44.663  1.00  0.00     0.211 HD
ENDBRANCH   2  10
BRANCH   3  12
ATOM     12  O   UNL     1      38.928   3.224  44.526  1.00  0.00    -0.387 OA
ATOM     13  H   UNL     1      39.916   3.233  44.446  1.00  0.00     0.211 HD
ENDBRANCH   3  12
BRANCH   5  14
ATOM     14  C   UNL     1      35.482   6.732  43.995  1.00  0.00     0.191 C 
BRANCH  14  15
ATOM     15  O   UNL     1      35.506   8.103  43.709  1.00  0.00    -0.394 OA
ATOM     16  H   UNL     1      34.642   8.468  44.037  1.00  0.00     0.210 HD
ENDBRANCH  14  15
ENDBRANCH   5  14
BRANCH   4  17
ATOM     17  O   UNL     1      36.136   3.858  44.221  1.00  0.00    -0.387 OA
ATOM     18  H   UNL     1      36.212   3.381  43.353  1.00  0.00     0.211 HD
ENDBRANCH   4  17
TORSDOF 7
ENDMDL
MODEL 8
REMARK VINA RESULT:    -4.546      1.593      3.306
REMARK INTER + INTRA:          -6.243
REMARK INTER:                  -6.115
REMARK INTRA:                  -0.128
REMARK UNBOUND:                -0.368
REMARK SMILES CCO[C@H]1O[C@H](CO)[C@@H](O)[C@H](O)[C@@H]1O
REMARK SMILES IDX 4 1 13 2 11 3 9 4 6 5 5 6 3 7 2 8 1 9 14 10 12 12 7 14 8 15
REMARK SMILES IDX 10 17
REMARK H PARENT 14 11 12 13 8 16 10 18
REMARK Flexibility Score: inf
ROOT
ATOM      1  C   UNL     1      36.798   4.593  42.519  1.00  0.00     0.281 C 
ATOM      2  C   UNL     1      38.089   5.031  41.799  1.00  0.00     0.202 C 
ATOM      3  C   UNL     1      39.031   5.740  42.784  1.00  0.00     0.179 C 
ATOM      4  C   UNL     1      38.282   6.856  43.531  1.00  0.00     0.177 C 
ATOM      5  C   UNL     1      36.979   6.288  44.142  1.00  0.00     0.178 C 
ATOM      6  O   UNL     1      36.163   5.707  43.135  1.00  0.00    -0.341 OA
ENDROOT
BRANCH   1   7
ATOM      7  O   UNL     1      37.092   3.571  43.459  1.00  0.00    -0.350 OA
BRANCH   7   8
ATOM      8  C   UNL     1      36.451   2.368  43.088  1.00  0.00     0.160 C 
ATOM      9  C   UNL     1      35.238   2.694  42.231  1.00  0.00     0.035 C 
ENDBRANCH   7   8
ENDBRANCH   1   7
BRANCH   2  10
ATOM     10  O   UNL     1      37.773   5.898  40.739  1.00  0.00    -0.385 OA
ATOM     11  H   UNL     1      38.428   6.644  40.772  1.00  0.00     0.211 HD
ENDBRANCH   2  10
BRANCH   3  12
ATOM     12  O   UNL     1      40.125   6.274  42.081  1.00  0.00    -0.387 OA
ATOM     13  H   UNL     1      40.227   7.215  42.377  1.00  0.00     0.211 HD
ENDBRANCH   3  12
BRANCH   5  14
ATOM     14  C   UNL     1      36.172   7.392  44.835  1.00  0.00     0.191 C 
BRANCH  14  15
ATOM     15  O   UNL     1      35.625   8.250  43.872  1.00  0.00    -0.394 OA
ATOM     16  H   UNL     1      35.056   7.682  43.289  1.00  0.00     0.210 HD
ENDBRANCH  14  15
ENDBRANCH   5  14
BRANCH   4  17
ATOM     17  O   UNL     1      39.114   7.359  44.548  1.00  0.00    -0.387 OA
ATOM     18  H   UNL     1      38.601   8.060  45.028  1.00  0.00     0.211 HD
ENDBRANCH   4  17
TORSDOF 7
ENDMDL
MODEL 9
REMARK VINA RESULT:    -4.506      1.940      2.603
REMARK INTER + INTRA:          -6.192
REMARK INTER:                  -5.812
REMARK INTRA:                  -0.380
REMARK UNBOUND:                -0.368
REMARK SMILES CCO[C@H]1O[C@H](CO)[C@@H](O)[C@H](O)[C@@H]1O
REMARK SMILES IDX 4 1 13 2 11 3 9 4 6 5 5 6 3 7 2 8 1 9 14 10 12 12 7 14 8 15
REMARK SMILES IDX 10 17
REMARK H PARENT 14 11 12 13 8 16 10 18
REMARK Flexibility Score: inf
ROOT
ATOM      1  C   UNL     1      38.038   3.491  43.373  1.00  0.00     0.281 C 
ATOM      2  C   UNL     1      36.611   4.061  43.251  1.00  0.00     0.202 C 
ATOM      3  C   UNL     1      36.654   5.478  42.659  1.00  0.00     0.179 C 
ATOM      4  C   UNL     1      37.649   6.354  43.439  1.00  0.00     0.177 C 
ATOM      5  C   UNL     1      39.012   5.627  43.541  1.00  0.00     0.178 C 
ATOM      6  O   UNL     1      38.859   4.354  44.150  1.00  0.00    -0.341 OA
ENDROOT
BRANCH   1   7
ATOM      7  O   UNL     1      38.583   3.271  42.082  1.00  0.00    -0.350 OA
BRANCH   7   8
ATOM      8  C   UNL     1      39.518   2.213  42.120  1.00  0.00     0.160 C 
ATOM      9  C   UNL     1      38.834   0.964  42.655  1.00  0.00     0.035 C 
ENDBRANCH   7   8
ENDBRANCH   1   7
BRANCH   2  10
ATOM     10  O   UNL     1      36.000   4.096  44.517  1.00  0.00    -0.385 OA
ATOM     11  H   UNL     1      36.731   4.109  45.188  1.00  0.00     0.211 HD
ENDBRANCH   2  10
BRANCH   3  12
ATOM     12  O   UNL     1      35.368   6.043  42.705  1.00  0.00    -0.387 OA
ATOM     13  H   UNL     1      35.479   7.021  42.582  1.00  0.00     0.211 HD
ENDBRANCH   3  12
BRANCH   5  14
ATOM     14  C   UNL     1      40.007   6.442  44.375  1.00  0.00     0.191 C 
BRANCH  14  15
ATOM     15  O   UNL     1      39.337   7.498  45.006  1.00  0.00    -0.394 OA
ATOM     16  H   UNL     1      38.517   7.664  44.472  1.00  0.00     0.210 HD
ENDBRANCH  14  15
ENDBRANCH   5  14
BRANCH   4  17
ATOM     17  O   UNL     1      37.803   7.578  42.765  1.00  0.00    -0.387 OA
ATOM     18  H   UNL     1      38.500   8.095  43.248  1.00  0.00     0.211 HD
ENDBRANCH   4  17
TORSDOF 7
ENDMDL
