MODEL 1
REMARK VINA RESULT:    -5.094      0.000      0.000
REMARK INTER + INTRA:          -9.516
REMARK INTER:                  -8.817
REMARK INTRA:                  -0.699
REMARK UNBOUND:                -0.699
REMARK SMILES CCCCCCCCCCCCCCO
REMARK SMILES IDX 8 1 7 2 6 3 5 4 4 5 3 6 2 7 1 8 9 9 10 10 11 11 12 12 13 13
REMARK SMILES IDX 14 14 15 15
REMARK H PARENT 15 16
REMARK Flexibility Score: inf
ROOT
ATOM      1  C   UNL     1       5.722   4.229  11.773  1.00  0.00     0.000 C 
ENDROOT
BRANCH   1   2
ATOM      2  C   UNL     1       5.510   5.077  13.043  1.00  0.00    -0.000 C 
BRANCH   2   3
ATOM      3  C   UNL     1       6.136   4.493  14.323  1.00  0.00    -0.000 C 
BRANCH   3   4
ATOM      4  C   UNL     1       6.445   5.570  15.377  1.00  0.00    -0.000 C 
BRANCH   4   5
ATOM      5  C   UNL     1       7.794   6.265  15.128  1.00  0.00    -0.000 C 
BRANCH   5   6
ATOM      6  C   UNL     1       7.637   7.616  14.408  1.00  0.00    -0.000 C 
BRANCH   6   7
ATOM      7  C   UNL     1       8.148   7.573  12.960  1.00  0.00    -0.003 C 
ATOM      8  C   UNL     1       9.672   7.645  12.870  1.00  0.00     0.004 C 
ENDBRANCH   6   7
ENDBRANCH   5   6
ENDBRANCH   4   5
ENDBRANCH   3   4
ENDBRANCH   2   3
ENDBRANCH   1   2
BRANCH   1   9
ATOM      9  C   UNL     1       4.772   3.024  11.624  1.00  0.00     0.000 C 
BRANCH   9  10
ATOM     10  C   UNL     1       4.057   2.925  10.263  1.00  0.00     0.000 C 
BRANCH  10  11
ATOM     11  C   UNL     1       2.783   2.070  10.320  1.00  0.00     0.000 C 
BRANCH  11  12
ATOM     12  C   UNL     1       1.888   2.499  11.492  1.00  0.00     0.002 C 
BRANCH  12  13
ATOM     13  C   UNL     1       1.370   1.306  12.313  1.00  0.00     0.028 C 
BRANCH  13  14
ATOM     14  C   UNL     1       1.943  -0.047  11.872  1.00  0.00     0.156 C 
BRANCH  14  15
ATOM     15  O   UNL     1       1.955  -0.956  12.941  1.00  0.00    -0.396 OA
ATOM     16  H   UNL     1       1.598  -0.476  13.732  1.00  0.00     0.210 HD
ENDBRANCH  14  15
ENDBRANCH  13  14
ENDBRANCH  12  13
ENDBRANCH  11  12
ENDBRANCH  10  11
ENDBRANCH   9  10
ENDBRANCH   1   9
TORSDOF 13
ENDMDL
MODEL 2
REMARK VINA RESULT:    -5.008      1.272      1.415
REMARK INTER + INTRA:          -9.366
REMARK INTER:                  -8.587
REMARK INTRA:                  -0.779
REMARK UNBOUND:                -0.699
REMARK SMILES CCCCCCCCCCCCCCO
REMARK SMILES IDX 8 1 7 2 6 3 5 4 4 5 3 6 2 7 1 8 9 9 10 10 11 11 12 12 13 13
REMARK SMILES IDX 14 14 15 15
REMARK H PARENT 15 16
REMARK Flexibility Score: inf
ROOT
ATOM      1  C   UNL     1       5.661   4.676  12.019  1.00  0.00     0.000 C 
ENDROOT
BRANCH   1   2
ATOM      2  C   UNL     1       5.215   4.877  13.481  1.00  0.00    -0.000 C 
BRANCH   2   3
ATOM      3  C   UNL     1       6.336   4.723  14.525  1.00  0.00    -0.000 C 
BRANCH   3   4
ATOM      4  C   UNL     1       6.602   6.021  15.307  1.00  0.00    -0.000 C 
BRANCH   4   5
ATOM      5  C   UNL     1       7.970   6.638  14.975  1.00  0.00    -0.000 C 
BRANCH   5   6
ATOM      6  C   UNL     1       7.868   7.778  13.946  1.00  0.00    -0.000 C 
BRANCH   6   7
ATOM      7  C   UNL     1       8.185   7.312  12.517  1.00  0.00    -0.003 C 
ATOM      8  C   UNL     1       9.625   7.615  12.105  1.00  0.00     0.004 C 
ENDBRANCH   6   7
ENDBRANCH   5   6
ENDBRANCH   4   5
ENDBRANCH   3   4
ENDBRANCH   2   3
ENDBRANCH   1   2
BRANCH   1   9
ATOM      9  C   UNL     1       5.563   3.229  11.496  1.00  0.00     0.000 C 
BRANCH   9  10
ATOM     10  C   UNL     1       4.282   2.910  10.703  1.00  0.00     0.000 C 
BRANCH  10  11
ATOM     11  C   UNL     1       3.053   2.729  11.604  1.00  0.00     0.000 C 
BRANCH  11  12
ATOM     12  C   UNL     1       2.782   1.240  11.868  1.00  0.00     0.002 C 
BRANCH  12  13
ATOM     13  C   UNL     1       1.342   0.826  11.523  1.00  0.00     0.028 C 
BRANCH  13  14
ATOM     14  C   UNL     1       0.344   1.992  11.522  1.00  0.00     0.156 C 
BRANCH  14  15
ATOM     15  O   UNL     1      -0.375   2.035  12.726  1.00  0.00    -0.396 OA
ATOM     16  H   UNL     1      -1.237   2.487  12.531  1.00  0.00     0.210 HD
ENDBRANCH  14  15
ENDBRANCH  13  14
ENDBRANCH  12  13
ENDBRANCH  11  12
ENDBRANCH  10  11
ENDBRANCH   9  10
ENDBRANCH   1   9
TORSDOF 13
ENDMDL
MODEL 3
REMARK VINA RESULT:    -4.888      1.586      2.441
REMARK INTER + INTRA:          -9.159
REMARK INTER:                  -8.610
REMARK INTRA:                  -0.549
REMARK UNBOUND:                -0.699
REMARK SMILES CCCCCCCCCCCCCCO
REMARK SMILES IDX 8 1 7 2 6 3 5 4 4 5 3 6 2 7 1 8 9 9 10 10 11 11 12 12 13 13
REMARK SMILES IDX 14 14 15 15
REMARK H PARENT 15 16
REMARK Flexibility Score: inf
ROOT
ATOM      1  C   UNL     1       5.359   4.850  12.880  1.00  0.00     0.000 C 
ENDROOT
BRANCH   1   2
ATOM      2  C   UNL     1       5.970   4.429  14.231  1.00  0.00    -0.000 C 
BRANCH   2   3
ATOM      3  C   UNL     1       6.337   5.596  15.166  1.00  0.00    -0.000 C 
BRANCH   3   4
ATOM      4  C   UNL     1       7.305   6.598  14.513  1.00  0.00    -0.000 C 
BRANCH   4   5
ATOM      5  C   UNL     1       8.647   6.690  15.259  1.00  0.00    -0.000 C 
BRANCH   5   6
ATOM      6  C   UNL     1       8.470   6.732  16.787  1.00  0.00    -0.000 C 
BRANCH   6   7
ATOM      7  C   UNL     1       9.808   6.648  17.536  1.00  0.00    -0.003 C 
ATOM      8  C   UNL     1       9.643   6.757  19.052  1.00  0.00     0.004 C 
ENDBRANCH   6   7
ENDBRANCH   5   6
ENDBRANCH   4   5
ENDBRANCH   3   4
ENDBRANCH   2   3
ENDBRANCH   1   2
BRANCH   1   9
ATOM      9  C   UNL     1       5.877   4.071  11.655  1.00  0.00     0.000 C 
BRANCH   9  10
ATOM     10  C   UNL     1       5.195   2.712  11.412  1.00  0.00     0.000 C 
BRANCH  10  11
ATOM     11  C   UNL     1       3.799   2.849  10.788  1.00  0.00     0.000 C 
BRANCH  11  12
ATOM     12  C   UNL     1       2.707   2.475  11.800  1.00  0.00     0.002 C 
BRANCH  12  13
ATOM     13  C   UNL     1       2.029   1.133  11.476  1.00  0.00     0.028 C 
BRANCH  13  14
ATOM     14  C   UNL     1       2.686  -0.076  12.156  1.00  0.00     0.156 C 
BRANCH  14  15
ATOM     15  O   UNL     1       1.728  -0.860  12.816  1.00  0.00    -0.396 OA
ATOM     16  H   UNL     1       1.961  -1.808  12.640  1.00  0.00     0.210 HD
ENDBRANCH  14  15
ENDBRANCH  13  14
ENDBRANCH  12  13
ENDBRANCH  11  12
ENDBRANCH  10  11
ENDBRANCH   9  10
ENDBRANCH   1   9
TORSDOF 13
ENDMDL
MODEL 4
REMARK VINA RESULT:    -4.881      3.872      8.370
REMARK INTER + INTRA:          -9.146
REMARK INTER:                  -8.623
REMARK INTRA:                  -0.523
REMARK UNBOUND:                -0.699
REMARK SMILES CCCCCCCCCCCCCCO
REMARK SMILES IDX 8 1 7 2 6 3 5 4 4 5 3 6 2 7 1 8 9 9 10 10 11 11 12 12 13 13
REMARK SMILES IDX 14 14 15 15
REMARK H PARENT 15 16
REMARK Flexibility Score: inf
ROOT
ATOM      1  C   UNL     1       6.333   5.174  14.575  1.00  0.00     0.000 C 
ENDROOT
BRANCH   1   2
ATOM      2  C   UNL     1       5.642   4.201  13.599  1.00  0.00    -0.000 C 
BRANCH   2   3
ATOM      3  C   UNL     1       5.482   4.731  12.162  1.00  0.00    -0.000 C 
BRANCH   3   4
ATOM      4  C   UNL     1       4.836   3.702  11.219  1.00  0.00    -0.000 C 
BRANCH   4   5
ATOM      5  C   UNL     1       3.991   2.662  11.973  1.00  0.00    -0.000 C 
BRANCH   5   6
ATOM      6  C   UNL     1       2.550   2.574  11.440  1.00  0.00    -0.000 C 
BRANCH   6   7
ATOM      7  C   UNL     1       1.719   1.504  12.165  1.00  0.00    -0.003 C 
ATOM      8  C   UNL     1       2.376   0.125  12.131  1.00  0.00     0.004 C 
ENDBRANCH   6   7
ENDBRANCH   5   6
ENDBRANCH   4   5
ENDBRANCH   3   4
ENDBRANCH   2   3
ENDBRANCH   1   2
BRANCH   1   9
ATOM      9  C   UNL     1       6.740   6.532  13.969  1.00  0.00     0.000 C 
BRANCH   9  10
ATOM     10  C   UNL     1       7.597   7.423  14.888  1.00  0.00     0.000 C 
BRANCH  10  11
ATOM     11  C   UNL     1       8.671   6.634  15.650  1.00  0.00     0.000 C 
BRANCH  11  12
ATOM     12  C   UNL     1       8.448   6.730  17.166  1.00  0.00     0.002 C 
BRANCH  12  13
ATOM     13  C   UNL     1       9.761   6.695  17.965  1.00  0.00     0.028 C 
BRANCH  13  14
ATOM     14  C   UNL     1       9.571   6.849  19.480  1.00  0.00     0.156 C 
BRANCH  14  15
ATOM     15  O   UNL     1       8.966   8.077  19.786  1.00  0.00    -0.396 OA
ATOM     16  H   UNL     1       9.539   8.786  19.394  1.00  0.00     0.210 HD
ENDBRANCH  14  15
ENDBRANCH  13  14
ENDBRANCH  12  13
ENDBRANCH  11  12
ENDBRANCH  10  11
ENDBRANCH   9  10
ENDBRANCH   1   9
TORSDOF 13
ENDMDL
MODEL 5
REMARK VINA RESULT:    -4.812      2.899      7.601
REMARK INTER + INTRA:          -9.026
REMARK INTER:                  -8.241
REMARK INTRA:                  -0.786
REMARK UNBOUND:                -0.699
REMARK SMILES CCCCCCCCCCCCCCO
REMARK SMILES IDX 8 1 7 2 6 3 5 4 4 5 3 6 2 7 1 8 9 9 10 10 11 11 12 12 13 13
REMARK SMILES IDX 14 14 15 15
REMARK H PARENT 15 16
REMARK Flexibility Score: inf
ROOT
ATOM      1  C   UNL     1       4.542   3.231  12.054  1.00  0.00     0.000 C 
ENDROOT
BRANCH   1   2
ATOM      2  C   UNL     1       4.244   2.926  10.573  1.00  0.00    -0.000 C 
BRANCH   2   3
ATOM      3  C   UNL     1       2.800   2.478  10.282  1.00  0.00    -0.000 C 
BRANCH   3   4
ATOM      4  C   UNL     1       1.808   2.935  11.366  1.00  0.00    -0.000 C 
BRANCH   4   5
ATOM      5  C   UNL     1       0.972   1.773  11.924  1.00  0.00    -0.000 C 
BRANCH   5   6
ATOM      6  C   UNL     1       1.449   0.403  11.410  1.00  0.00    -0.000 C 
BRANCH   6   7
ATOM      7  C   UNL     1       2.132  -0.431  12.505  1.00  0.00    -0.003 C 
ATOM      8  C   UNL     1       3.652  -0.273  12.505  1.00  0.00     0.004 C 
ENDBRANCH   6   7
ENDBRANCH   5   6
ENDBRANCH   4   5
ENDBRANCH   3   4
ENDBRANCH   2   3
ENDBRANCH   1   2
BRANCH   1   9
ATOM      9  C   UNL     1       4.701   4.726  12.397  1.00  0.00     0.000 C 
BRANCH   9  10
ATOM     10  C   UNL     1       6.034   5.100  13.071  1.00  0.00     0.000 C 
BRANCH  10  11
ATOM     11  C   UNL     1       6.054   4.775  14.572  1.00  0.00     0.000 C 
BRANCH  11  12
ATOM     12  C   UNL     1       6.605   5.958  15.381  1.00  0.00     0.002 C 
BRANCH  12  13
ATOM     13  C   UNL     1       8.027   6.361  14.953  1.00  0.00     0.028 C 
BRANCH  13  14
ATOM     14  C   UNL     1       8.080   7.627  14.087  1.00  0.00     0.156 C 
BRANCH  14  15
ATOM     15  O   UNL     1       6.990   8.467  14.363  1.00  0.00    -0.396 OA
ATOM     16  H   UNL     1       7.010   8.653  15.337  1.00  0.00     0.210 HD
ENDBRANCH  14  15
ENDBRANCH  13  14
ENDBRANCH  12  13
ENDBRANCH  11  12
ENDBRANCH  10  11
ENDBRANCH   9  10
ENDBRANCH   1   9
TORSDOF 13
ENDMDL
MODEL 6
REMARK VINA RESULT:    -4.752      4.226      8.560
REMARK INTER + INTRA:          -8.923
REMARK INTER:                  -8.396
REMARK INTRA:                  -0.527
REMARK UNBOUND:                -0.699
REMARK SMILES CCCCCCCCCCCCCCO
REMARK SMILES IDX 8 1 7 2 6 3 5 4 4 5 3 6 2 7 1 8 9 9 10 10 11 11 12 12 13 13
REMARK SMILES IDX 14 14 15 15
REMARK H PARENT 15 16
REMARK Flexibility Score: inf
ROOT
ATOM      1  C   UNL     1       6.384   5.223  15.135  1.00  0.00     0.000 C 
ENDROOT
BRANCH   1   2
ATOM      2  C   UNL     1       6.011   4.275  13.978  1.00  0.00    -0.000 C 
BRANCH   2   3
ATOM      3  C   UNL     1       5.133   4.905  12.882  1.00  0.00    -0.000 C 
BRANCH   3   4
ATOM      4  C   UNL     1       5.623   4.572  11.463  1.00  0.00    -0.000 C 
BRANCH   4   5
ATOM      5  C   UNL     1       5.408   3.094  11.099  1.00  0.00    -0.000 C 
BRANCH   5   6
ATOM      6  C   UNL     1       3.978   2.811  10.604  1.00  0.00    -0.000 C 
BRANCH   6   7
ATOM      7  C   UNL     1       3.107   2.137  11.676  1.00  0.00    -0.003 C 
ATOM      8  C   UNL     1       1.615   2.398  11.473  1.00  0.00     0.004 C 
ENDBRANCH   6   7
ENDBRANCH   5   6
ENDBRANCH   4   5
ENDBRANCH   3   4
ENDBRANCH   2   3
ENDBRANCH   1   2
BRANCH   1   9
ATOM      9  C   UNL     1       7.187   6.474  14.725  1.00  0.00     0.000 C 
BRANCH   9  10
ATOM     10  C   UNL     1       8.455   6.734  15.559  1.00  0.00     0.000 C 
BRANCH  10  11
ATOM     11  C   UNL     1       8.199   6.657  17.071  1.00  0.00     0.000 C 
BRANCH  11  12
ATOM     12  C   UNL     1       9.516   6.761  17.855  1.00  0.00     0.002 C 
BRANCH  12  13
ATOM     13  C   UNL     1       9.325   6.569  19.369  1.00  0.00     0.028 C 
BRANCH  13  14
ATOM     14  C   UNL     1       9.728   7.789  20.207  1.00  0.00     0.156 C 
BRANCH  14  15
ATOM     15  O   UNL     1       8.791   8.029  21.223  1.00  0.00    -0.396 OA
ATOM     16  H   UNL     1       8.220   8.781  20.917  1.00  0.00     0.210 HD
ENDBRANCH  14  15
ENDBRANCH  13  14
ENDBRANCH  12  13
ENDBRANCH  11  12
ENDBRANCH  10  11
ENDBRANCH   9  10
ENDBRANCH   1   9
TORSDOF 13
ENDMDL
MODEL 7
REMARK VINA RESULT:    -4.700      2.800      7.598
REMARK INTER + INTRA:          -8.833
REMARK INTER:                  -7.980
REMARK INTRA:                  -0.854
REMARK UNBOUND:                -0.699
REMARK SMILES CCCCCCCCCCCCCCO
REMARK SMILES IDX 8 1 7 2 6 3 5 4 4 5 3 6 2 7 1 8 9 9 10 10 11 11 12 12 13 13
REMARK SMILES IDX 14 14 15 15
REMARK H PARENT 15 16
REMARK Flexibility Score: inf
ROOT
ATOM      1  C   UNL     1       5.800   4.696  11.727  1.00  0.00     0.000 C 
ENDROOT
BRANCH   1   2
ATOM      2  C   UNL     1       5.637   3.263  11.182  1.00  0.00    -0.000 C 
BRANCH   2   3
ATOM      3  C   UNL     1       4.779   3.149   9.909  1.00  0.00    -0.000 C 
BRANCH   3   4
ATOM      4  C   UNL     1       3.421   2.473  10.167  1.00  0.00    -0.000 C 
BRANCH   4   5
ATOM      5  C   UNL     1       3.308   1.905  11.591  1.00  0.00    -0.000 C 
BRANCH   5   6
ATOM      6  C   UNL     1       1.848   1.677  12.020  1.00  0.00    -0.000 C 
BRANCH   6   7
ATOM      7  C   UNL     1       0.846   2.028  10.909  1.00  0.00    -0.003 C 
ATOM      8  C   UNL     1       0.064   0.812  10.415  1.00  0.00     0.004 C 
ENDBRANCH   6   7
ENDBRANCH   5   6
ENDBRANCH   4   5
ENDBRANCH   3   4
ENDBRANCH   2   3
ENDBRANCH   1   2
BRANCH   1   9
ATOM      9  C   UNL     1       5.234   4.928  13.143  1.00  0.00     0.000 C 
BRANCH   9  10
ATOM     10  C   UNL     1       6.140   4.447  14.292  1.00  0.00     0.000 C 
BRANCH  10  11
ATOM     11  C   UNL     1       6.325   5.507  15.387  1.00  0.00     0.000 C 
BRANCH  11  12
ATOM     12  C   UNL     1       7.637   6.280  15.184  1.00  0.00     0.002 C 
BRANCH  12  13
ATOM     13  C   UNL     1       7.478   7.484  14.240  1.00  0.00     0.028 C 
BRANCH  13  14
ATOM     14  C   UNL     1       8.650   7.668  13.266  1.00  0.00     0.156 C 
BRANCH  14  15
ATOM     15  O   UNL     1       8.449   6.919  12.096  1.00  0.00    -0.396 OA
ATOM     16  H   UNL     1       8.491   7.555  11.336  1.00  0.00     0.210 HD
ENDBRANCH  14  15
ENDBRANCH  13  14
ENDBRANCH  12  13
ENDBRANCH  11  12
ENDBRANCH  10  11
ENDBRANCH   9  10
ENDBRANCH   1   9
TORSDOF 13
ENDMDL
MODEL 8
REMARK VINA RESULT:    -4.649      2.740      3.960
REMARK INTER + INTRA:          -8.744
REMARK INTER:                  -8.290
REMARK INTRA:                  -0.454
REMARK UNBOUND:                -0.699
REMARK SMILES CCCCCCCCCCCCCCO
REMARK SMILES IDX 8 1 7 2 6 3 5 4 4 5 3 6 2 7 1 8 9 9 10 10 11 11 12 12 13 13
REMARK SMILES IDX 14 14 15 15
REMARK H PARENT 15 16
REMARK Flexibility Score: inf
ROOT
ATOM      1  C   UNL     1       6.040   4.749  14.858  1.00  0.00     0.000 C 
ENDROOT
BRANCH   1   2
ATOM      2  C   UNL     1       6.655   6.161  14.800  1.00  0.00    -0.000 C 
BRANCH   2   3
ATOM      3  C   UNL     1       8.095   6.262  15.335  1.00  0.00    -0.000 C 
BRANCH   3   4
ATOM      4  C   UNL     1       8.169   6.945  16.712  1.00  0.00    -0.000 C 
BRANCH   4   5
ATOM      5  C   UNL     1       9.464   6.604  17.467  1.00  0.00    -0.000 C 
BRANCH   5   6
ATOM      6  C   UNL     1       9.513   7.238  18.869  1.00  0.00    -0.000 C 
BRANCH   6   7
ATOM      7  C   UNL     1      10.080   6.280  19.928  1.00  0.00    -0.003 C 
ATOM      8  C   UNL     1       9.644   6.646  21.347  1.00  0.00     0.004 C 
ENDBRANCH   6   7
ENDBRANCH   5   6
ENDBRANCH   4   5
ENDBRANCH   3   4
ENDBRANCH   2   3
ENDBRANCH   1   2
BRANCH   1   9
ATOM      9  C   UNL     1       6.027   3.982  13.521  1.00  0.00     0.000 C 
BRANCH   9  10
ATOM     10  C   UNL     1       5.773   4.853  12.276  1.00  0.00     0.000 C 
BRANCH  10  11
ATOM     11  C   UNL     1       4.977   4.117  11.187  1.00  0.00     0.000 C 
BRANCH  11  12
ATOM     12  C   UNL     1       4.651   2.681  11.624  1.00  0.00     0.002 C 
BRANCH  12  13
ATOM     13  C   UNL     1       3.142   2.385  11.617  1.00  0.00     0.028 C 
BRANCH  13  14
ATOM     14  C   UNL     1       2.803   0.888  11.607  1.00  0.00     0.156 C 
BRANCH  14  15
ATOM     15  O   UNL     1       3.886   0.128  12.072  1.00  0.00    -0.396 OA
ATOM     16  H   UNL     1       4.366  -0.210  11.272  1.00  0.00     0.210 HD
ENDBRANCH  14  15
ENDBRANCH  13  14
ENDBRANCH  12  13
ENDBRANCH  11  12
ENDBRANCH  10  11
ENDBRANCH   9  10
ENDBRANCH   1   9
TORSDOF 13
ENDMDL
MODEL 9
REMARK VINA RESULT:    -4.624      3.799      8.326
REMARK INTER + INTRA:          -8.701
REMARK INTER:                  -8.202
REMARK INTRA:                  -0.500
REMARK UNBOUND:                -0.699
REMARK SMILES CCCCCCCCCCCCCCO
REMARK SMILES IDX 8 1 7 2 6 3 5 4 4 5 3 6 2 7 1 8 9 9 10 10 11 11 12 12 13 13
REMARK SMILES IDX 14 14 15 15
REMARK H PARENT 15 16
REMARK Flexibility Score: inf
ROOT
ATOM      1  C   UNL     1       6.002   4.384  14.092  1.00  0.00     0.000 C 
ENDROOT
BRANCH   1   2
ATOM      2  C   UNL     1       5.135   4.762  12.875  1.00  0.00    -0.000 C 
BRANCH   2   3
ATOM      3  C   UNL     1       5.513   4.047  11.565  1.00  0.00    -0.000 C 
BRANCH   3   4
ATOM      4  C   UNL     1       5.058   2.578  11.537  1.00  0.00    -0.000 C 
BRANCH   4   5
ATOM      5  C   UNL     1       3.595   2.424  11.090  1.00  0.00    -0.000 C 
BRANCH   5   6
ATOM      6  C   UNL     1       2.842   1.354  11.900  1.00  0.00    -0.000 C 
BRANCH   6   7
ATOM      7  C   UNL     1       1.405   1.141  11.400  1.00  0.00    -0.003 C 
ATOM      8  C   UNL     1       0.470   2.286  11.788  1.00  0.00     0.004 C 
ENDBRANCH   6   7
ENDBRANCH   5   6
ENDBRANCH   4   5
ENDBRANCH   3   4
ENDBRANCH   2   3
ENDBRANCH   1   2
BRANCH   1   9
ATOM      9  C   UNL     1       6.340   5.549  15.044  1.00  0.00     0.000 C 
BRANCH   9  10
ATOM     10  C   UNL     1       7.135   6.701  14.403  1.00  0.00     0.000 C 
BRANCH  10  11
ATOM     11  C   UNL     1       8.355   7.119  15.238  1.00  0.00     0.000 C 
BRANCH  11  12
ATOM     12  C   UNL     1       8.206   6.656  16.694  1.00  0.00     0.002 C 
BRANCH  12  13
ATOM     13  C   UNL     1       9.536   6.677  17.465  1.00  0.00     0.028 C 
BRANCH  13  14
ATOM     14  C   UNL     1       9.371   6.804  18.986  1.00  0.00     0.156 C 
BRANCH  14  15
ATOM     15  O   UNL     1       9.282   8.151  19.368  1.00  0.00    -0.396 OA
ATOM     16  H   UNL     1      10.210   8.495  19.433  1.00  0.00     0.210 HD
ENDBRANCH  14  15
ENDBRANCH  13  14
ENDBRANCH  12  13
ENDBRANCH  11  12
ENDBRANCH  10  11
ENDBRANCH   9  10
ENDBRANCH   1   9
TORSDOF 13
ENDMDL
