MODEL 1
REMARK VINA RESULT:    -4.489      0.000      0.000
REMARK INTER + INTRA:          -6.860
REMARK INTER:                  -6.326
REMARK INTRA:                  -0.534
REMARK UNBOUND:                -0.534
REMARK SMILES CC(=O)OCC[C@@H](C)CCC=C(C)C
REMARK SMILES IDX 8 1 7 2 9 3 10 4 11 5 12 6 13 7 14 8 6 9 5 10 4 11 2 12 3 13
REMARK SMILES IDX 1 14
REMARK H PARENT
REMARK Flexibility Score: inf
ROOT
ATOM      1  C   UNL     1      16.320  -4.904 -18.413  1.00  0.00     0.008 C 
ATOM      2  C   UNL     1      17.241  -6.128 -18.569  1.00  0.00    -0.011 C 
ENDROOT
BRANCH   2   3
ATOM      3  C   UNL     1      16.441  -7.294 -19.199  1.00  0.00     0.007 C 
BRANCH   3   4
ATOM      4  C   UNL     1      16.342  -8.522 -18.279  1.00  0.00     0.027 C 
BRANCH   4   5
ATOM      5  C   UNL     1      16.927  -8.222 -16.921  1.00  0.00    -0.028 C 
ATOM      6  C   UNL     1      16.320  -8.518 -15.748  1.00  0.00    -0.080 C 
ATOM      7  C   UNL     1      14.939  -9.125 -15.692  1.00  0.00     0.039 C 
ATOM      8  C   UNL     1      17.009  -8.201 -14.446  1.00  0.00     0.039 C 
ENDBRANCH   4   5
ENDBRANCH   3   4
ENDBRANCH   2   3
BRANCH   2   9
ATOM      9  C   UNL     1      18.496  -5.785 -19.414  1.00  0.00     0.045 C 
BRANCH   9  10
ATOM     10  C   UNL     1      18.773  -4.282 -19.535  1.00  0.00     0.233 C 
BRANCH  10  11
ATOM     11  O   UNL     1      19.615  -4.023 -20.653  1.00  0.00    -0.466 OA
BRANCH  11  12
ATOM     12  C   UNL     1      19.369  -2.988 -21.560  1.00  0.00     0.302 C 
ATOM     13  O   UNL     1      18.918  -1.879 -21.166  1.00  0.00    -0.253 OA
ATOM     14  C   UNL     1      19.597  -3.218 -23.015  1.00  0.00     0.139 C 
ENDBRANCH  11  12
ENDBRANCH  10  11
ENDBRANCH   9  10
ENDBRANCH   2   9
TORSDOF 7
ENDMDL
MODEL 2
REMARK VINA RESULT:    -3.748     20.056     21.624
REMARK INTER + INTRA:          -5.816
REMARK INTER:                  -5.205
REMARK INTRA:                  -0.611
REMARK UNBOUND:                -0.534
REMARK SMILES CC(=O)OCC[C@@H](C)CCC=C(C)C
REMARK SMILES IDX 8 1 7 2 9 3 10 4 11 5 12 6 13 7 14 8 6 9 5 10 4 11 2 12 3 13
REMARK SMILES IDX 1 14
REMARK H PARENT
REMARK Flexibility Score: inf
ROOT
ATOM      1  C   UNL     1       2.989   4.642 -11.697  1.00  0.00     0.008 C 
ATOM      2  C   UNL     1       1.483   4.509 -11.984  1.00  0.00    -0.011 C 
ENDROOT
BRANCH   2   3
ATOM      3  C   UNL     1       0.769   5.825 -11.592  1.00  0.00     0.007 C 
BRANCH   3   4
ATOM      4  C   UNL     1       1.737   7.007 -11.422  1.00  0.00     0.027 C 
BRANCH   4   5
ATOM      5  C   UNL     1       1.376   7.826 -10.208  1.00  0.00    -0.028 C 
ATOM      6  C   UNL     1       2.013   7.745  -9.017  1.00  0.00    -0.080 C 
ATOM      7  C   UNL     1       3.124   6.754  -8.769  1.00  0.00     0.039 C 
ATOM      8  C   UNL     1       1.588   8.634  -7.877  1.00  0.00     0.039 C 
ENDBRANCH   4   5
ENDBRANCH   3   4
ENDBRANCH   2   3
BRANCH   2   9
ATOM      9  C   UNL     1       1.222   4.149 -13.471  1.00  0.00     0.045 C 
BRANCH   9  10
ATOM     10  C   UNL     1       0.024   4.881 -14.087  1.00  0.00     0.233 C 
BRANCH  10  11
ATOM     11  O   UNL     1       0.469   5.855 -15.026  1.00  0.00    -0.466 OA
BRANCH  11  12
ATOM     12  C   UNL     1       0.262   5.725 -16.402  1.00  0.00     0.302 C 
ATOM     13  O   UNL     1       0.399   4.609 -16.973  1.00  0.00    -0.253 OA
ATOM     14  C   UNL     1      -0.076   6.931 -17.211  1.00  0.00     0.139 C 
ENDBRANCH  11  12
ENDBRANCH  10  11
ENDBRANCH   9  10
ENDBRANCH   2   9
TORSDOF 7
ENDMDL
MODEL 3
REMARK VINA RESULT:    -3.655     20.369     22.202
REMARK INTER + INTRA:          -5.684
REMARK INTER:                  -4.840
REMARK INTRA:                  -0.844
REMARK UNBOUND:                -0.534
REMARK SMILES CC(=O)OCC[C@@H](C)CCC=C(C)C
REMARK SMILES IDX 8 1 7 2 9 3 10 4 11 5 12 6 13 7 14 8 6 9 5 10 4 11 2 12 3 13
REMARK SMILES IDX 1 14
REMARK H PARENT
REMARK Flexibility Score: inf
ROOT
ATOM      1  C   UNL     1       3.430   4.730 -11.268  1.00  0.00     0.008 C 
ATOM      2  C   UNL     1       2.071   5.176 -11.836  1.00  0.00    -0.011 C 
ENDROOT
BRANCH   2   3
ATOM      3  C   UNL     1       1.746   4.342 -13.100  1.00  0.00     0.007 C 
BRANCH   3   4
ATOM      4  C   UNL     1       0.277   4.464 -13.538  1.00  0.00     0.027 C 
BRANCH   4   5
ATOM      5  C   UNL     1       0.179   5.051 -14.925  1.00  0.00    -0.028 C 
ATOM      6  C   UNL     1       0.030   6.371 -15.184  1.00  0.00    -0.080 C 
ATOM      7  C   UNL     1      -0.125   7.391 -14.082  1.00  0.00     0.039 C 
ATOM      8  C   UNL     1      -0.027   6.854 -16.610  1.00  0.00     0.039 C 
ENDBRANCH   4   5
ENDBRANCH   3   4
ENDBRANCH   2   3
BRANCH   2   9
ATOM      9  C   UNL     1       0.947   5.050 -10.774  1.00  0.00     0.045 C 
BRANCH   9  10
ATOM     10  C   UNL     1       0.417   6.395 -10.267  1.00  0.00     0.233 C 
BRANCH  10  11
ATOM     11  O   UNL     1       0.909   6.659  -8.957  1.00  0.00    -0.466 OA
BRANCH  11  12
ATOM     12  C   UNL     1       1.887   7.623  -8.698  1.00  0.00     0.302 C 
ATOM     13  O   UNL     1       1.610   8.852  -8.745  1.00  0.00    -0.253 OA
ATOM     14  C   UNL     1       3.285   7.191  -8.411  1.00  0.00     0.139 C 
ENDBRANCH  11  12
ENDBRANCH  10  11
ENDBRANCH   9  10
ENDBRANCH   2   9
TORSDOF 7
ENDMDL
MODEL 4
REMARK VINA RESULT:    -3.640      1.526      2.814
REMARK INTER + INTRA:          -5.663
REMARK INTER:                  -5.111
REMARK INTRA:                  -0.551
REMARK UNBOUND:                -0.534
REMARK SMILES CC(=O)OCC[C@@H](C)CCC=C(C)C
REMARK SMILES IDX 8 1 7 2 9 3 10 4 11 5 12 6 13 7 14 8 6 9 5 10 4 11 2 12 3 13
REMARK SMILES IDX 1 14
REMARK H PARENT
REMARK Flexibility Score: inf
ROOT
ATOM      1  C   UNL     1      18.546  -3.597 -19.151  1.00  0.00     0.008 C 
ATOM      2  C   UNL     1      19.512  -4.671 -19.682  1.00  0.00    -0.011 C 
ENDROOT
BRANCH   2   3
ATOM      3  C   UNL     1      18.875  -6.070 -19.497  1.00  0.00     0.007 C 
BRANCH   3   4
ATOM      4  C   UNL     1      17.393  -6.007 -19.094  1.00  0.00     0.027 C 
BRANCH   4   5
ATOM      5  C   UNL     1      17.082  -7.035 -18.035  1.00  0.00    -0.028 C 
ATOM      6  C   UNL     1      16.318  -8.133 -18.240  1.00  0.00    -0.080 C 
ATOM      7  C   UNL     1      15.635  -8.398 -19.559  1.00  0.00     0.039 C 
ATOM      8  C   UNL     1      16.096  -9.113 -17.118  1.00  0.00     0.039 C 
ENDBRANCH   4   5
ENDBRANCH   3   4
ENDBRANCH   2   3
BRANCH   2   9
ATOM      9  C   UNL     1      19.881  -4.413 -21.167  1.00  0.00     0.045 C 
BRANCH   9  10
ATOM     10  C   UNL     1      19.171  -3.202 -21.783  1.00  0.00     0.233 C 
BRANCH  10  11
ATOM     11  O   UNL     1      20.124  -2.245 -22.233  1.00  0.00    -0.466 OA
BRANCH  11  12
ATOM     12  C   UNL     1      20.008  -0.879 -21.964  1.00  0.00     0.302 C 
ATOM     13  O   UNL     1      19.877  -0.046 -22.901  1.00  0.00    -0.253 OA
ATOM     14  C   UNL     1      20.087  -0.398 -20.555  1.00  0.00     0.139 C 
ENDBRANCH  11  12
ENDBRANCH  10  11
ENDBRANCH   9  10
ENDBRANCH   2   9
TORSDOF 7
ENDMDL
MODEL 5
REMARK VINA RESULT:    -3.489     20.970     23.127
REMARK INTER + INTRA:          -5.451
REMARK INTER:                  -4.831
REMARK INTRA:                  -0.620
REMARK UNBOUND:                -0.534
REMARK SMILES CC(=O)OCC[C@@H](C)CCC=C(C)C
REMARK SMILES IDX 8 1 7 2 9 3 10 4 11 5 12 6 13 7 14 8 6 9 5 10 4 11 2 12 3 13
REMARK SMILES IDX 1 14
REMARK H PARENT
REMARK Flexibility Score: inf
ROOT
ATOM      1  C   UNL     1       2.774   7.509 -21.505  1.00  0.00     0.008 C 
ATOM      2  C   UNL     1       2.355   8.912 -21.032  1.00  0.00    -0.011 C 
ENDROOT
BRANCH   2   3
ATOM      3  C   UNL     1       2.356   9.882 -22.239  1.00  0.00     0.007 C 
BRANCH   3   4
ATOM      4  C   UNL     1       0.941  10.285 -22.688  1.00  0.00     0.027 C 
BRANCH   4   5
ATOM      5  C   UNL     1       0.872  10.414 -24.189  1.00  0.00    -0.028 C 
ATOM      6  C   UNL     1       0.364   9.467 -25.013  1.00  0.00    -0.080 C 
ATOM      7  C   UNL     1      -0.124   8.136 -24.497  1.00  0.00     0.039 C 
ATOM      8  C   UNL     1       0.316   9.713 -26.498  1.00  0.00     0.039 C 
ENDBRANCH   4   5
ENDBRANCH   3   4
ENDBRANCH   2   3
BRANCH   2   9
ATOM      9  C   UNL     1       0.968   8.882 -20.336  1.00  0.00     0.045 C 
BRANCH   9  10
ATOM     10  C   UNL     1       1.034   8.611 -18.829  1.00  0.00     0.233 C 
BRANCH  10  11
ATOM     11  O   UNL     1       0.946   7.213 -18.573  1.00  0.00    -0.466 OA
BRANCH  11  12
ATOM     12  C   UNL     1       0.524   6.696 -17.345  1.00  0.00     0.302 C 
ATOM     13  O   UNL     1       0.645   5.468 -17.087  1.00  0.00    -0.253 OA
ATOM     14  C   UNL     1      -0.120   7.600 -16.349  1.00  0.00     0.139 C 
ENDBRANCH  11  12
ENDBRANCH  10  11
ENDBRANCH   9  10
ENDBRANCH   2   9
TORSDOF 7
ENDMDL
MODEL 6
REMARK VINA RESULT:    -3.282     11.568     13.957
REMARK INTER + INTRA:          -5.159
REMARK INTER:                  -4.780
REMARK INTRA:                  -0.380
REMARK UNBOUND:                -0.534
REMARK SMILES CC(=O)OCC[C@@H](C)CCC=C(C)C
REMARK SMILES IDX 8 1 7 2 9 3 10 4 11 5 12 6 13 7 14 8 6 9 5 10 4 11 2 12 3 13
REMARK SMILES IDX 1 14
REMARK H PARENT
REMARK Flexibility Score: inf
ROOT
ATOM      1  C   UNL     1       8.613  -3.368 -13.872  1.00  0.00     0.008 C 
ATOM      2  C   UNL     1       8.252  -1.872 -13.887  1.00  0.00    -0.011 C 
ENDROOT
BRANCH   2   3
ATOM      3  C   UNL     1       8.898  -1.201 -15.123  1.00  0.00     0.007 C 
BRANCH   3   4
ATOM      4  C   UNL     1       8.200   0.107 -15.530  1.00  0.00     0.027 C 
BRANCH   4   5
ATOM      5  C   UNL     1       9.071   0.910 -16.465  1.00  0.00    -0.028 C 
ATOM      6  C   UNL     1       8.761   1.174 -17.756  1.00  0.00    -0.080 C 
ATOM      7  C   UNL     1       7.522   0.617 -18.412  1.00  0.00     0.039 C 
ATOM      8  C   UNL     1       9.690   2.014 -18.593  1.00  0.00     0.039 C 
ENDBRANCH   4   5
ENDBRANCH   3   4
ENDBRANCH   2   3
BRANCH   2   9
ATOM      9  C   UNL     1       6.714  -1.663 -13.872  1.00  0.00     0.045 C 
BRANCH   9  10
ATOM     10  C   UNL     1       5.921  -2.911 -13.471  1.00  0.00     0.233 C 
BRANCH  10  11
ATOM     11  O   UNL     1       4.525  -2.630 -13.466  1.00  0.00    -0.466 OA
BRANCH  11  12
ATOM     12  C   UNL     1       3.572  -3.525 -13.961  1.00  0.00     0.302 C 
ATOM     13  O   UNL     1       2.520  -3.106 -14.514  1.00  0.00    -0.253 OA
ATOM     14  C   UNL     1       3.782  -4.990 -13.788  1.00  0.00     0.139 C 
ENDBRANCH  11  12
ENDBRANCH  10  11
ENDBRANCH   9  10
ENDBRANCH   2   9
TORSDOF 7
ENDMDL
MODEL 7
REMARK VINA RESULT:    -3.188     21.008     23.149
REMARK INTER + INTRA:          -5.027
REMARK INTER:                  -4.448
REMARK INTRA:                  -0.579
REMARK UNBOUND:                -0.534
REMARK SMILES CC(=O)OCC[C@@H](C)CCC=C(C)C
REMARK SMILES IDX 8 1 7 2 9 3 10 4 11 5 12 6 13 7 14 8 6 9 5 10 4 11 2 12 3 13
REMARK SMILES IDX 1 14
REMARK H PARENT
REMARK Flexibility Score: inf
ROOT
ATOM      1  C   UNL     1       2.508   7.428 -20.547  1.00  0.00     0.008 C 
ATOM      2  C   UNL     1       2.437   8.804 -19.861  1.00  0.00    -0.011 C 
ENDROOT
BRANCH   2   3
ATOM      3  C   UNL     1       2.563   9.916 -20.931  1.00  0.00     0.007 C 
BRANCH   3   4
ATOM      4  C   UNL     1       1.209  10.332 -21.528  1.00  0.00     0.027 C 
BRANCH   4   5
ATOM      5  C   UNL     1       1.352  10.675 -22.991  1.00  0.00    -0.028 C 
ATOM      6  C   UNL     1       0.850   9.926 -24.000  1.00  0.00    -0.080 C 
ATOM      7  C   UNL     1       0.147   8.614 -23.752  1.00  0.00     0.039 C 
ATOM      8  C   UNL     1       1.024  10.378 -25.427  1.00  0.00     0.039 C 
ENDBRANCH   4   5
ENDBRANCH   3   4
ENDBRANCH   2   3
BRANCH   2   9
ATOM      9  C   UNL     1       1.129   8.958 -19.041  1.00  0.00     0.045 C 
BRANCH   9  10
ATOM     10  C   UNL     1       1.258   9.895 -17.835  1.00  0.00     0.233 C 
BRANCH  10  11
ATOM     11  O   UNL     1       2.203   9.375 -16.904  1.00  0.00    -0.466 OA
BRANCH  11  12
ATOM     12  C   UNL     1       2.186   9.707 -15.547  1.00  0.00     0.302 C 
ATOM     13  O   UNL     1       2.947  10.603 -15.093  1.00  0.00    -0.253 OA
ATOM     14  C   UNL     1       1.293   8.957 -14.618  1.00  0.00     0.139 C 
ENDBRANCH  11  12
ENDBRANCH  10  11
ENDBRANCH   9  10
ENDBRANCH   2   9
TORSDOF 7
ENDMDL
MODEL 8
REMARK VINA RESULT:    -3.173     20.645     22.713
REMARK INTER + INTRA:          -5.005
REMARK INTER:                  -4.520
REMARK INTRA:                  -0.485
REMARK UNBOUND:                -0.534
REMARK SMILES CC(=O)OCC[C@@H](C)CCC=C(C)C
REMARK SMILES IDX 8 1 7 2 9 3 10 4 11 5 12 6 13 7 14 8 6 9 5 10 4 11 2 12 3 13
REMARK SMILES IDX 1 14
REMARK H PARENT
REMARK Flexibility Score: inf
ROOT
ATOM      1  C   UNL     1       1.856   4.883 -12.733  1.00  0.00     0.008 C 
ATOM      2  C   UNL     1       1.404   6.321 -12.419  1.00  0.00    -0.011 C 
ENDROOT
BRANCH   2   3
ATOM      3  C   UNL     1       0.680   6.911 -13.654  1.00  0.00     0.007 C 
BRANCH   3   4
ATOM      4  C   UNL     1       1.029   8.387 -13.906  1.00  0.00     0.027 C 
BRANCH   4   5
ATOM      5  C   UNL     1       0.751   8.766 -15.339  1.00  0.00    -0.028 C 
ATOM      6  C   UNL     1       1.559   9.550 -16.091  1.00  0.00    -0.080 C 
ATOM      7  C   UNL     1       2.805  10.188 -15.527  1.00  0.00     0.039 C 
ATOM      8  C   UNL     1       1.201   9.840 -17.525  1.00  0.00     0.039 C 
ENDBRANCH   4   5
ENDBRANCH   3   4
ENDBRANCH   2   3
BRANCH   2   9
ATOM      9  C   UNL     1       0.497   6.365 -11.161  1.00  0.00     0.045 C 
BRANCH   9  10
ATOM     10  C   UNL     1       0.824   5.286 -10.121  1.00  0.00     0.233 C 
BRANCH  10  11
ATOM     11  O   UNL     1       1.297   5.885  -8.919  1.00  0.00    -0.466 OA
BRANCH  11  12
ATOM     12  C   UNL     1       2.534   6.531  -8.834  1.00  0.00     0.302 C 
ATOM     13  O   UNL     1       3.603   5.912  -9.082  1.00  0.00    -0.253 OA
ATOM     14  C   UNL     1       2.589   7.955  -8.397  1.00  0.00     0.139 C 
ENDBRANCH  11  12
ENDBRANCH  10  11
ENDBRANCH   9  10
ENDBRANCH   2   9
TORSDOF 7
ENDMDL
MODEL 9
REMARK VINA RESULT:    -3.063     20.216     22.305
REMARK INTER + INTRA:          -4.851
REMARK INTER:                  -4.280
REMARK INTRA:                  -0.570
REMARK UNBOUND:                -0.534
REMARK SMILES CC(=O)OCC[C@@H](C)CCC=C(C)C
REMARK SMILES IDX 8 1 7 2 9 3 10 4 11 5 12 6 13 7 14 8 6 9 5 10 4 11 2 12 3 13
REMARK SMILES IDX 1 14
REMARK H PARENT
REMARK Flexibility Score: inf
ROOT
ATOM      1  C   UNL     1       2.024   7.922 -13.120  1.00  0.00     0.008 C 
ATOM      2  C   UNL     1       0.630   7.308 -13.335  1.00  0.00    -0.011 C 
ENDROOT
BRANCH   2   3
ATOM      3  C   UNL     1      -0.120   8.109 -14.427  1.00  0.00     0.007 C 
BRANCH   3   4
ATOM      4  C   UNL     1       0.250   7.671 -15.854  1.00  0.00     0.027 C 
BRANCH   4   5
ATOM      5  C   UNL     1       0.047   8.802 -16.831  1.00  0.00    -0.028 C 
ATOM      6  C   UNL     1       0.920   9.821 -17.008  1.00  0.00    -0.080 C 
ATOM      7  C   UNL     1       2.170   9.959 -16.175  1.00  0.00     0.039 C 
ATOM      8  C   UNL     1       0.632  10.884 -18.036  1.00  0.00     0.039 C 
ENDBRANCH   4   5
ENDBRANCH   3   4
ENDBRANCH   2   3
BRANCH   2   9
ATOM      9  C   UNL     1       0.727   5.804 -13.706  1.00  0.00     0.045 C 
BRANCH   9  10
ATOM     10  C   UNL     1       1.008   4.886 -12.512  1.00  0.00     0.233 C 
BRANCH  10  11
ATOM     11  O   UNL     1       2.406   4.652 -12.386  1.00  0.00    -0.466 OA
BRANCH  11  12
ATOM     12  C   UNL     1       3.096   4.830 -11.183  1.00  0.00     0.302 C 
ATOM     13  O   UNL     1       4.021   4.042 -10.847  1.00  0.00    -0.253 OA
ATOM     14  C   UNL     1       2.700   5.937 -10.266  1.00  0.00     0.139 C 
ENDBRANCH  11  12
ENDBRANCH  10  11
ENDBRANCH   9  10
ENDBRANCH   2   9
TORSDOF 7
ENDMDL
