MODEL 1
REMARK VINA RESULT:    -3.708      0.000      0.000
REMARK INTER + INTRA:          -5.228
REMARK INTER:                  -5.009
REMARK INTRA:                  -0.219
REMARK UNBOUND:                -0.219
REMARK SMILES CCCCCCCC(=O)[O-]
REMARK SMILES IDX 5 1 6 2 7 3 8 4 9 5 10 6 4 7 3 8 2 9 1 10
REMARK H PARENT
REMARK Flexibility Score: inf
ROOT
ATOM      1  C   UNL     1     -31.840 -22.179 -34.377  1.00  0.00     0.000 C 
ENDROOT
BRANCH   1   2
ATOM      2  C   UNL     1     -31.439 -20.957 -33.537  1.00  0.00     0.006 C 
BRANCH   2   3
ATOM      3  C   UNL     1     -29.919 -20.765 -33.543  1.00  0.00     0.053 C 
BRANCH   3   4
ATOM      4  C   UNL     1     -29.485 -19.976 -32.349  1.00  0.00     0.041 C 
ATOM      5  O   UNL     1     -30.220 -19.916 -31.328  1.00  0.00    -0.550 OA
ATOM      6  O   UNL     1     -28.292 -19.266 -32.381  1.00  0.00    -0.550 OA
ENDBRANCH   3   4
ENDBRANCH   2   3
ENDBRANCH   1   2
BRANCH   1   7
ATOM      7  C   UNL     1     -32.917 -21.851 -35.425  1.00  0.00     0.000 C 
BRANCH   7   8
ATOM      8  C   UNL     1     -32.979 -22.895 -36.553  1.00  0.00    -0.000 C 
BRANCH   8   9
ATOM      9  C   UNL     1     -31.596 -23.469 -36.900  1.00  0.00    -0.003 C 
ATOM     10  C   UNL     1     -31.657 -24.555 -37.973  1.00  0.00     0.004 C 
ENDBRANCH   8   9
ENDBRANCH   7   8
ENDBRANCH   1   7
TORSDOF 6
ENDMDL
MODEL 2
REMARK VINA RESULT:    -3.662      1.324      1.897
REMARK INTER + INTRA:          -5.165
REMARK INTER:                  -4.876
REMARK INTRA:                  -0.289
REMARK UNBOUND:                -0.219
REMARK SMILES CCCCCCCC(=O)[O-]
REMARK SMILES IDX 5 1 6 2 7 3 8 4 9 5 10 6 4 7 3 8 2 9 1 10
REMARK H PARENT
REMARK Flexibility Score: inf
ROOT
ATOM      1  C   UNL     1     -30.465 -21.079 -34.230  1.00  0.00     0.000 C 
ENDROOT
BRANCH   1   2
ATOM      2  C   UNL     1     -29.828 -20.682 -32.890  1.00  0.00     0.006 C 
BRANCH   2   3
ATOM      3  C   UNL     1     -30.755 -21.028 -31.721  1.00  0.00     0.053 C 
BRANCH   3   4
ATOM      4  C   UNL     1     -31.090 -19.799 -30.937  1.00  0.00     0.041 C 
ATOM      5  O   UNL     1     -32.224 -19.262 -31.053  1.00  0.00    -0.550 OA
ATOM      6  O   UNL     1     -30.135 -19.216 -30.114  1.00  0.00    -0.550 OA
ENDBRANCH   3   4
ENDBRANCH   2   3
ENDBRANCH   1   2
BRANCH   1   7
ATOM      7  C   UNL     1     -31.783 -21.852 -34.055  1.00  0.00     0.000 C 
BRANCH   7   8
ATOM      8  C   UNL     1     -32.491 -22.122 -35.394  1.00  0.00    -0.000 C 
BRANCH   8   9
ATOM      9  C   UNL     1     -31.501 -22.349 -36.547  1.00  0.00    -0.003 C 
ATOM     10  C   UNL     1     -31.631 -23.735 -37.176  1.00  0.00     0.004 C 
ENDBRANCH   8   9
ENDBRANCH   7   8
ENDBRANCH   1   7
TORSDOF 6
ENDMDL
MODEL 3
REMARK VINA RESULT:    -3.655      3.910      5.001
REMARK INTER + INTRA:          -5.157
REMARK INTER:                  -4.717
REMARK INTRA:                  -0.439
REMARK UNBOUND:                -0.219
REMARK SMILES CCCCCCCC(=O)[O-]
REMARK SMILES IDX 5 1 6 2 7 3 8 4 9 5 10 6 4 7 3 8 2 9 1 10
REMARK H PARENT
REMARK Flexibility Score: inf
ROOT
ATOM      1  C   UNL     1     -30.771 -21.681 -31.407  1.00  0.00     0.000 C 
ENDROOT
BRANCH   1   2
ATOM      2  C   UNL     1     -30.963 -21.006 -30.040  1.00  0.00     0.006 C 
BRANCH   2   3
ATOM      3  C   UNL     1     -31.109 -19.489 -30.196  1.00  0.00     0.053 C 
BRANCH   3   4
ATOM      4  C   UNL     1     -32.495 -19.057 -29.836  1.00  0.00     0.041 C 
ATOM      5  O   UNL     1     -32.817 -18.899 -28.628  1.00  0.00    -0.550 OA
ATOM      6  O   UNL     1     -33.447 -18.875 -30.830  1.00  0.00    -0.550 OA
ENDBRANCH   3   4
ENDBRANCH   2   3
ENDBRANCH   1   2
BRANCH   1   7
ATOM      7  C   UNL     1     -30.866 -20.688 -32.578  1.00  0.00     0.000 C 
BRANCH   7   8
ATOM      8  C   UNL     1     -29.594 -20.671 -33.442  1.00  0.00    -0.000 C 
BRANCH   8   9
ATOM      9  C   UNL     1     -28.934 -19.284 -33.490  1.00  0.00    -0.003 C 
ATOM     10  C   UNL     1     -28.162 -18.950 -32.214  1.00  0.00     0.004 C 
ENDBRANCH   8   9
ENDBRANCH   7   8
ENDBRANCH   1   7
TORSDOF 6
ENDMDL
MODEL 4
REMARK VINA RESULT:    -3.378      3.247      5.600
REMARK INTER + INTRA:          -4.782
REMARK INTER:                  -4.543
REMARK INTRA:                  -0.239
REMARK UNBOUND:                -0.219
REMARK SMILES CCCCCCCC(=O)[O-]
REMARK SMILES IDX 5 1 6 2 7 3 8 4 9 5 10 6 4 7 3 8 2 9 1 10
REMARK H PARENT
REMARK Flexibility Score: inf
ROOT
ATOM      1  C   UNL     1     -31.170 -21.470 -32.898  1.00  0.00     0.000 C 
ENDROOT
BRANCH   1   2
ATOM      2  C   UNL     1     -31.480 -21.272 -34.390  1.00  0.00     0.006 C 
BRANCH   2   3
ATOM      3  C   UNL     1     -32.328 -22.428 -34.930  1.00  0.00     0.053 C 
BRANCH   3   4
ATOM      4  C   UNL     1     -32.095 -22.609 -36.396  1.00  0.00     0.041 C 
ATOM      5  O   UNL     1     -31.518 -23.644 -36.824  1.00  0.00    -0.550 OA
ATOM      6  O   UNL     1     -32.470 -21.612 -37.288  1.00  0.00    -0.550 OA
ENDBRANCH   3   4
ENDBRANCH   2   3
ENDBRANCH   1   2
BRANCH   1   7
ATOM      7  C   UNL     1     -30.992 -20.140 -32.148  1.00  0.00     0.000 C 
BRANCH   7   8
ATOM      8  C   UNL     1     -30.327 -19.057 -33.015  1.00  0.00    -0.000 C 
BRANCH   8   9
ATOM      9  C   UNL     1     -28.795 -19.184 -33.042  1.00  0.00    -0.003 C 
ATOM     10  C   UNL     1     -28.155 -18.933 -31.677  1.00  0.00     0.004 C 
ENDBRANCH   8   9
ENDBRANCH   7   8
ENDBRANCH   1   7
TORSDOF 6
ENDMDL
MODEL 5
REMARK VINA RESULT:    -3.320      3.657      5.719
REMARK INTER + INTRA:          -4.703
REMARK INTER:                  -4.418
REMARK INTRA:                  -0.285
REMARK UNBOUND:                -0.219
REMARK SMILES CCCCCCCC(=O)[O-]
REMARK SMILES IDX 5 1 6 2 7 3 8 4 9 5 10 6 4 7 3 8 2 9 1 10
REMARK H PARENT
REMARK Flexibility Score: inf
ROOT
ATOM      1  C   UNL     1     -31.853 -21.499 -34.086  1.00  0.00     0.000 C 
ENDROOT
BRANCH   1   2
ATOM      2  C   UNL     1     -32.261 -22.456 -35.216  1.00  0.00     0.006 C 
BRANCH   2   3
ATOM      3  C   UNL     1     -31.365 -22.266 -36.444  1.00  0.00     0.053 C 
BRANCH   3   4
ATOM      4  C   UNL     1     -32.194 -22.107 -37.678  1.00  0.00     0.041 C 
ATOM      5  O   UNL     1     -33.004 -21.147 -37.779  1.00  0.00    -0.550 OA
ATOM      6  O   UNL     1     -32.109 -23.045 -38.699  1.00  0.00    -0.550 OA
ENDBRANCH   3   4
ENDBRANCH   2   3
ENDBRANCH   1   2
BRANCH   1   7
ATOM      7  C   UNL     1     -30.367 -21.108 -34.146  1.00  0.00     0.000 C 
BRANCH   7   8
ATOM      8  C   UNL     1     -29.840 -20.581 -32.801  1.00  0.00    -0.000 C 
BRANCH   8   9
ATOM      9  C   UNL     1     -30.972 -20.142 -31.858  1.00  0.00    -0.003 C 
ATOM     10  C   UNL     1     -30.766 -20.621 -30.421  1.00  0.00     0.004 C 
ENDBRANCH   8   9
ENDBRANCH   7   8
ENDBRANCH   1   7
TORSDOF 6
ENDMDL
MODEL 6
REMARK VINA RESULT:    -3.100      2.096      3.494
REMARK INTER + INTRA:          -4.407
REMARK INTER:                  -4.155
REMARK INTRA:                  -0.252
REMARK UNBOUND:                -0.219
REMARK SMILES CCCCCCCC(=O)[O-]
REMARK SMILES IDX 5 1 6 2 7 3 8 4 9 5 10 6 4 7 3 8 2 9 1 10
REMARK H PARENT
REMARK Flexibility Score: inf
ROOT
ATOM      1  C   UNL     1     -29.120 -20.091 -32.574  1.00  0.00     0.000 C 
ENDROOT
BRANCH   1   2
ATOM      2  C   UNL     1     -28.881 -18.875 -31.665  1.00  0.00     0.006 C 
BRANCH   2   3
ATOM      3  C   UNL     1     -29.173 -19.222 -30.202  1.00  0.00     0.053 C 
BRANCH   3   4
ATOM      4  C   UNL     1     -30.569 -19.740 -30.055  1.00  0.00     0.041 C 
ATOM      5  O   UNL     1     -31.552 -18.969 -30.212  1.00  0.00    -0.550 OA
ATOM      6  O   UNL     1     -30.784 -21.064 -29.695  1.00  0.00    -0.550 OA
ENDBRANCH   3   4
ENDBRANCH   2   3
ENDBRANCH   1   2
BRANCH   1   7
ATOM      7  C   UNL     1     -30.308 -19.892 -33.530  1.00  0.00     0.000 C 
BRANCH   7   8
ATOM      8  C   UNL     1     -31.306 -21.062 -33.483  1.00  0.00    -0.000 C 
BRANCH   8   9
ATOM      9  C   UNL     1     -31.359 -21.843 -34.806  1.00  0.00    -0.003 C 
ATOM     10  C   UNL     1     -32.783 -22.034 -35.325  1.00  0.00     0.004 C 
ENDBRANCH   8   9
ENDBRANCH   7   8
ENDBRANCH   1   7
TORSDOF 6
ENDMDL
MODEL 7
REMARK VINA RESULT:    -2.991      2.067      3.435
REMARK INTER + INTRA:          -4.259
REMARK INTER:                  -4.041
REMARK INTRA:                  -0.217
REMARK UNBOUND:                -0.219
REMARK SMILES CCCCCCCC(=O)[O-]
REMARK SMILES IDX 5 1 6 2 7 3 8 4 9 5 10 6 4 7 3 8 2 9 1 10
REMARK H PARENT
REMARK Flexibility Score: inf
ROOT
ATOM      1  C   UNL     1     -32.401 -22.848 -37.600  1.00  0.00     0.000 C 
ENDROOT
BRANCH   1   2
ATOM      2  C   UNL     1     -32.259 -23.229 -36.119  1.00  0.00     0.006 C 
BRANCH   2   3
ATOM      3  C   UNL     1     -32.644 -22.055 -35.214  1.00  0.00     0.053 C 
BRANCH   3   4
ATOM      4  C   UNL     1     -31.523 -21.723 -34.280  1.00  0.00     0.041 C 
ATOM      5  O   UNL     1     -31.649 -21.920 -33.043  1.00  0.00    -0.550 OA
ATOM      6  O   UNL     1     -30.356 -21.151 -34.770  1.00  0.00    -0.550 OA
ENDBRANCH   3   4
ENDBRANCH   2   3
ENDBRANCH   1   2
BRANCH   1   7
ATOM      7  C   UNL     1     -31.767 -23.885 -38.543  1.00  0.00     0.000 C 
BRANCH   7   8
ATOM      8  C   UNL     1     -31.921 -25.325 -38.026  1.00  0.00    -0.000 C 
BRANCH   8   9
ATOM      9  C   UNL     1     -32.598 -26.249 -39.051  1.00  0.00    -0.003 C 
ATOM     10  C   UNL     1     -33.211 -27.494 -38.413  1.00  0.00     0.004 C 
ENDBRANCH   8   9
ENDBRANCH   7   8
ENDBRANCH   1   7
TORSDOF 6
ENDMDL
MODEL 8
REMARK VINA RESULT:    -2.746      3.361      5.972
REMARK INTER + INTRA:          -3.928
REMARK INTER:                  -3.678
REMARK INTRA:                  -0.250
REMARK UNBOUND:                -0.219
REMARK SMILES CCCCCCCC(=O)[O-]
REMARK SMILES IDX 5 1 6 2 7 3 8 4 9 5 10 6 4 7 3 8 2 9 1 10
REMARK H PARENT
REMARK Flexibility Score: inf
ROOT
ATOM      1  C   UNL     1     -31.789 -20.195 -32.698  1.00  0.00     0.000 C 
ENDROOT
BRANCH   1   2
ATOM      2  C   UNL     1     -30.986 -20.985 -33.743  1.00  0.00     0.006 C 
BRANCH   2   3
ATOM      3  C   UNL     1     -31.785 -22.190 -34.249  1.00  0.00     0.053 C 
BRANCH   3   4
ATOM      4  C   UNL     1     -32.138 -22.017 -35.692  1.00  0.00     0.041 C 
ATOM      5  O   UNL     1     -33.244 -21.508 -36.017  1.00  0.00    -0.550 OA
ATOM      6  O   UNL     1     -31.269 -22.463 -36.679  1.00  0.00    -0.550 OA
ENDBRANCH   3   4
ENDBRANCH   2   3
ENDBRANCH   1   2
BRANCH   1   7
ATOM      7  C   UNL     1     -31.097 -18.886 -32.283  1.00  0.00     0.000 C 
BRANCH   7   8
ATOM      8  C   UNL     1     -30.698 -18.875 -30.797  1.00  0.00    -0.000 C 
BRANCH   8   9
ATOM      9  C   UNL     1     -31.623 -19.748 -29.933  1.00  0.00    -0.003 C 
ATOM     10  C   UNL     1     -32.613 -18.927 -29.109  1.00  0.00     0.004 C 
ENDBRANCH   8   9
ENDBRANCH   7   8
ENDBRANCH   1   7
TORSDOF 6
ENDMDL
