MODEL 1
REMARK VINA RESULT:    -3.339      0.000      0.000
REMARK INTER + INTRA:          -5.993
REMARK INTER:                  -5.095
REMARK INTRA:                  -0.898
REMARK UNBOUND:                -0.898
REMARK SMILES O=C([O-])CCCCCCCCC(=O)[O-]
REMARK SMILES IDX 7 1 6 2 5 3 4 4 2 5 1 6 3 7 8 8 9 9 10 10 11 11 12 12 13 13
REMARK SMILES IDX 14 14
REMARK H PARENT
REMARK Flexibility Score: inf
ROOT
ATOM      1  C   UNL     1      55.095  53.306  48.146  1.00  0.00     0.000 C 
ENDROOT
BRANCH   1   2
ATOM      2  C   UNL     1      54.211  52.217  47.511  1.00  0.00     0.000 C 
BRANCH   2   3
ATOM      3  C   UNL     1      52.759  52.271  48.010  1.00  0.00     0.006 C 
BRANCH   3   4
ATOM      4  C   UNL     1      52.581  53.221  49.201  1.00  0.00     0.053 C 
BRANCH   4   5
ATOM      5  C   UNL     1      52.187  52.455  50.425  1.00  0.00     0.041 C 
ATOM      6  O   UNL     1      52.445  51.225  50.514  1.00  0.00    -0.550 OA
ATOM      7  O   UNL     1      51.580  53.109  51.489  1.00  0.00    -0.550 OA
ENDBRANCH   4   5
ENDBRANCH   3   4
ENDBRANCH   2   3
ENDBRANCH   1   2
BRANCH   1   8
ATOM      8  C   UNL     1      55.805  54.175  47.097  1.00  0.00     0.000 C 
BRANCH   8   9
ATOM      9  C   UNL     1      54.892  54.542  45.917  1.00  0.00     0.000 C 
BRANCH   9  10
ATOM     10  C   UNL     1      54.136  55.847  46.193  1.00  0.00     0.006 C 
BRANCH  10  11
ATOM     11  C   UNL     1      52.635  55.590  46.349  1.00  0.00     0.053 C 
BRANCH  11  12
ATOM     12  C   UNL     1      51.869  56.277  45.262  1.00  0.00     0.041 C 
ATOM     13  O   UNL     1      50.718  56.734  45.490  1.00  0.00    -0.550 OA
ATOM     14  O   UNL     1      52.447  56.456  44.012  1.00  0.00    -0.550 OA
ENDBRANCH  11  12
ENDBRANCH  10  11
ENDBRANCH   9  10
ENDBRANCH   8   9
ENDBRANCH   1   8
TORSDOF 9
ENDMDL
MODEL 2
REMARK VINA RESULT:    -3.265      0.639      5.421
REMARK INTER + INTRA:          -5.881
REMARK INTER:                  -5.067
REMARK INTRA:                  -0.814
REMARK UNBOUND:                -0.898
REMARK SMILES O=C([O-])CCCCCCCCC(=O)[O-]
REMARK SMILES IDX 7 1 6 2 5 3 4 4 2 5 1 6 3 7 8 8 9 9 10 10 11 11 12 12 13 13
REMARK SMILES IDX 14 14
REMARK H PARENT
REMARK Flexibility Score: inf
ROOT
ATOM      1  C   UNL     1      55.880  53.581  46.608  1.00  0.00     0.000 C 
ENDROOT
BRANCH   1   2
ATOM      2  C   UNL     1      55.123  54.913  46.759  1.00  0.00     0.000 C 
BRANCH   2   3
ATOM      3  C   UNL     1      54.007  55.079  45.717  1.00  0.00     0.006 C 
BRANCH   3   4
ATOM      4  C   UNL     1      52.732  55.691  46.311  1.00  0.00     0.053 C 
BRANCH   4   5
ATOM      5  C   UNL     1      51.874  56.262  45.226  1.00  0.00     0.041 C 
ATOM      6  O   UNL     1      50.712  56.674  45.487  1.00  0.00    -0.550 OA
ATOM      7  O   UNL     1      52.373  56.384  43.936  1.00  0.00    -0.550 OA
ENDBRANCH   4   5
ENDBRANCH   3   4
ENDBRANCH   2   3
ENDBRANCH   1   2
BRANCH   1   8
ATOM      8  C   UNL     1      54.965  52.359  46.782  1.00  0.00     0.000 C 
BRANCH   8   9
ATOM      9  C   UNL     1      54.444  52.210  48.218  1.00  0.00     0.000 C 
BRANCH   9  10
ATOM     10  C   UNL     1      52.914  52.114  48.240  1.00  0.00     0.006 C 
BRANCH  10  11
ATOM     11  C   UNL     1      52.302  53.260  49.052  1.00  0.00     0.053 C 
BRANCH  11  12
ATOM     12  C   UNL     1      52.119  52.851  50.479  1.00  0.00     0.041 C 
ATOM     13  O   UNL     1      51.920  53.723  51.367  1.00  0.00    -0.550 OA
ATOM     14  O   UNL     1      52.119  51.506  50.823  1.00  0.00    -0.550 OA
ENDBRANCH  11  12
ENDBRANCH  10  11
ENDBRANCH   9  10
ENDBRANCH   8   9
ENDBRANCH   1   8
TORSDOF 9
ENDMDL
MODEL 3
REMARK VINA RESULT:    -3.250      1.792      2.679
REMARK INTER + INTRA:          -5.857
REMARK INTER:                  -5.318
REMARK INTRA:                  -0.540
REMARK UNBOUND:                -0.898
REMARK SMILES O=C([O-])CCCCCCCCC(=O)[O-]
REMARK SMILES IDX 7 1 6 2 5 3 4 4 2 5 1 6 3 7 8 8 9 9 10 10 11 11 12 12 13 13
REMARK SMILES IDX 14 14
REMARK H PARENT
REMARK Flexibility Score: inf
ROOT
ATOM      1  C   UNL     1      52.348  52.672  48.566  1.00  0.00     0.000 C 
ENDROOT
BRANCH   1   2
ATOM      2  C   UNL     1      52.738  52.276  50.002  1.00  0.00     0.000 C 
BRANCH   2   3
ATOM      3  C   UNL     1      51.943  53.050  51.064  1.00  0.00     0.006 C 
BRANCH   3   4
ATOM      4  C   UNL     1      52.774  54.149  51.738  1.00  0.00     0.053 C 
BRANCH   4   5
ATOM      5  C   UNL     1      52.471  55.480  51.127  1.00  0.00     0.041 C 
ATOM      6  O   UNL     1      51.674  56.273  51.696  1.00  0.00    -0.550 OA
ATOM      7  O   UNL     1      53.105  55.868  49.953  1.00  0.00    -0.550 OA
ENDBRANCH   4   5
ENDBRANCH   3   4
ENDBRANCH   2   3
ENDBRANCH   1   2
BRANCH   1   8
ATOM      8  C   UNL     1      53.520  52.543  47.580  1.00  0.00     0.000 C 
BRANCH   8   9
ATOM      9  C   UNL     1      54.304  53.854  47.419  1.00  0.00     0.000 C 
BRANCH   9  10
ATOM     10  C   UNL     1      53.884  54.592  46.142  1.00  0.00     0.006 C 
BRANCH  10  11
ATOM     11  C   UNL     1      52.765  55.596  46.429  1.00  0.00     0.053 C 
BRANCH  11  12
ATOM     12  C   UNL     1      52.459  56.404  45.207  1.00  0.00     0.041 C 
ATOM     13  O   UNL     1      51.331  56.314  44.655  1.00  0.00    -0.550 OA
ATOM     14  O   UNL     1      53.403  57.291  44.706  1.00  0.00    -0.550 OA
ENDBRANCH  11  12
ENDBRANCH  10  11
ENDBRANCH   9  10
ENDBRANCH   8   9
ENDBRANCH   1   8
TORSDOF 9
ENDMDL
MODEL 4
REMARK VINA RESULT:    -3.202      1.640      6.005
REMARK INTER + INTRA:          -5.785
REMARK INTER:                  -5.179
REMARK INTRA:                  -0.606
REMARK UNBOUND:                -0.898
REMARK SMILES O=C([O-])CCCCCCCCC(=O)[O-]
REMARK SMILES IDX 7 1 6 2 5 3 4 4 2 5 1 6 3 7 8 8 9 9 10 10 11 11 12 12 13 13
REMARK SMILES IDX 14 14
REMARK H PARENT
REMARK Flexibility Score: inf
ROOT
ATOM      1  C   UNL     1      53.604  52.557  47.574  1.00  0.00     0.000 C 
ENDROOT
BRANCH   1   2
ATOM      2  C   UNL     1      53.765  53.886  46.813  1.00  0.00     0.000 C 
BRANCH   2   3
ATOM      3  C   UNL     1      52.947  55.026  47.438  1.00  0.00     0.006 C 
BRANCH   3   4
ATOM      4  C   UNL     1      53.128  56.357  46.696  1.00  0.00     0.053 C 
BRANCH   4   5
ATOM      5  C   UNL     1      52.442  56.309  45.367  1.00  0.00     0.041 C 
ATOM      6  O   UNL     1      51.184  56.332  45.301  1.00  0.00    -0.550 OA
ATOM      7  O   UNL     1      53.192  56.288  44.198  1.00  0.00    -0.550 OA
ENDBRANCH   4   5
ENDBRANCH   3   4
ENDBRANCH   2   3
ENDBRANCH   1   2
BRANCH   1   8
ATOM      8  C   UNL     1      52.404  52.568  48.534  1.00  0.00     0.000 C 
BRANCH   8   9
ATOM      9  C   UNL     1      52.730  51.935  49.895  1.00  0.00     0.000 C 
BRANCH   9  10
ATOM     10  C   UNL     1      51.892  52.570  51.011  1.00  0.00     0.006 C 
BRANCH  10  11
ATOM     11  C   UNL     1      52.254  54.046  51.198  1.00  0.00     0.053 C 
BRANCH  11  12
ATOM     12  C   UNL     1      53.301  54.199  52.256  1.00  0.00     0.041 C 
ATOM     13  O   UNL     1      53.336  53.404  53.231  1.00  0.00    -0.550 OA
ATOM     14  O   UNL     1      54.267  55.190  52.139  1.00  0.00    -0.550 OA
ENDBRANCH  11  12
ENDBRANCH  10  11
ENDBRANCH   9  10
ENDBRANCH   8   9
ENDBRANCH   1   8
TORSDOF 9
ENDMDL
MODEL 5
REMARK VINA RESULT:    -3.179      2.130      5.152
REMARK INTER + INTRA:          -5.749
REMARK INTER:                  -4.870
REMARK INTRA:                  -0.879
REMARK UNBOUND:                -0.898
REMARK SMILES O=C([O-])CCCCCCCCC(=O)[O-]
REMARK SMILES IDX 7 1 6 2 5 3 4 4 2 5 1 6 3 7 8 8 9 9 10 10 11 11 12 12 13 13
REMARK SMILES IDX 14 14
REMARK H PARENT
REMARK Flexibility Score: inf
ROOT
ATOM      1  C   UNL     1      53.504  51.709  48.604  1.00  0.00     0.000 C 
ENDROOT
BRANCH   1   2
ATOM      2  C   UNL     1      52.856  52.694  47.614  1.00  0.00     0.000 C 
BRANCH   2   3
ATOM      3  C   UNL     1      53.725  53.936  47.365  1.00  0.00     0.006 C 
BRANCH   3   4
ATOM      4  C   UNL     1      52.898  55.225  47.275  1.00  0.00     0.053 C 
BRANCH   4   5
ATOM      5  C   UNL     1      52.781  55.671  45.851  1.00  0.00     0.041 C 
ATOM      6  O   UNL     1      53.737  55.493  45.050  1.00  0.00    -0.550 OA
ATOM      7  O   UNL     1      51.599  56.240  45.396  1.00  0.00    -0.550 OA
ENDBRANCH   4   5
ENDBRANCH   3   4
ENDBRANCH   2   3
ENDBRANCH   1   2
BRANCH   1   8
ATOM      8  C   UNL     1      53.629  52.291  50.020  1.00  0.00     0.000 C 
BRANCH   8   9
ATOM      9  C   UNL     1      52.292  52.305  50.774  1.00  0.00     0.000 C 
BRANCH   9  10
ATOM     10  C   UNL     1      51.984  53.703  51.322  1.00  0.00     0.006 C 
BRANCH  10  11
ATOM     11  C   UNL     1      53.119  54.681  51.004  1.00  0.00     0.053 C 
BRANCH  11  12
ATOM     12  C   UNL     1      52.614  56.089  51.008  1.00  0.00     0.041 C 
ATOM     13  O   UNL     1      51.607  56.399  51.699  1.00  0.00    -0.550 OA
ATOM     14  O   UNL     1      53.284  57.070  50.288  1.00  0.00    -0.550 OA
ENDBRANCH  11  12
ENDBRANCH  10  11
ENDBRANCH   9  10
ENDBRANCH   8   9
ENDBRANCH   1   8
TORSDOF 9
ENDMDL
MODEL 6
REMARK VINA RESULT:    -3.146      1.431      2.344
REMARK INTER + INTRA:          -5.699
REMARK INTER:                  -5.096
REMARK INTRA:                  -0.603
REMARK UNBOUND:                -0.898
REMARK SMILES O=C([O-])CCCCCCCCC(=O)[O-]
REMARK SMILES IDX 7 1 6 2 5 3 4 4 2 5 1 6 3 7 8 8 9 9 10 10 11 11 12 12 13 13
REMARK SMILES IDX 14 14
REMARK H PARENT
REMARK Flexibility Score: inf
ROOT
ATOM      1  C   UNL     1      52.329  52.437  48.313  1.00  0.00     0.000 C 
ENDROOT
BRANCH   1   2
ATOM      2  C   UNL     1      52.496  53.259  49.604  1.00  0.00     0.000 C 
BRANCH   2   3
ATOM      3  C   UNL     1      51.944  52.534  50.840  1.00  0.00     0.006 C 
BRANCH   3   4
ATOM      4  C   UNL     1      52.369  51.062  50.899  1.00  0.00     0.053 C 
BRANCH   4   5
ATOM      5  C   UNL     1      53.797  50.949  51.331  1.00  0.00     0.041 C 
ATOM      6  O   UNL     1      54.663  50.480  50.545  1.00  0.00    -0.550 OA
ATOM      7  O   UNL     1      54.183  51.406  52.585  1.00  0.00    -0.550 OA
ENDBRANCH   4   5
ENDBRANCH   3   4
ENDBRANCH   2   3
ENDBRANCH   1   2
BRANCH   1   8
ATOM      8  C   UNL     1      53.533  52.570  47.368  1.00  0.00     0.000 C 
BRANCH   8   9
ATOM      9  C   UNL     1      54.206  53.947  47.458  1.00  0.00     0.000 C 
BRANCH   9  10
ATOM     10  C   UNL     1      53.931  54.777  46.198  1.00  0.00     0.006 C 
BRANCH  10  11
ATOM     11  C   UNL     1      52.670  55.630  46.367  1.00  0.00     0.053 C 
BRANCH  11  12
ATOM     12  C   UNL     1      52.429  56.456  45.142  1.00  0.00     0.041 C 
ATOM     13  O   UNL     1      53.309  57.262  44.740  1.00  0.00    -0.550 OA
ATOM     14  O   UNL     1      51.254  56.300  44.419  1.00  0.00    -0.550 OA
ENDBRANCH  11  12
ENDBRANCH  10  11
ENDBRANCH   9  10
ENDBRANCH   8   9
ENDBRANCH   1   8
TORSDOF 9
ENDMDL
MODEL 7
REMARK VINA RESULT:    -3.145      1.672      1.940
REMARK INTER + INTRA:          -5.697
REMARK INTER:                  -4.949
REMARK INTRA:                  -0.749
REMARK UNBOUND:                -0.898
REMARK SMILES O=C([O-])CCCCCCCCC(=O)[O-]
REMARK SMILES IDX 7 1 6 2 5 3 4 4 2 5 1 6 3 7 8 8 9 9 10 10 11 11 12 12 13 13
REMARK SMILES IDX 14 14
REMARK H PARENT
REMARK Flexibility Score: inf
ROOT
ATOM      1  C   UNL     1      54.543  53.973  47.306  1.00  0.00     0.000 C 
ENDROOT
BRANCH   1   2
ATOM      2  C   UNL     1      54.140  52.488  47.243  1.00  0.00     0.000 C 
BRANCH   2   3
ATOM      3  C   UNL     1      52.763  52.224  47.871  1.00  0.00     0.006 C 
BRANCH   3   4
ATOM      4  C   UNL     1      52.434  53.205  49.003  1.00  0.00     0.053 C 
BRANCH   4   5
ATOM      5  C   UNL     1      52.325  52.478  50.307  1.00  0.00     0.041 C 
ATOM      6  O   UNL     1      52.928  51.386  50.476  1.00  0.00    -0.550 OA
ATOM      7  O   UNL     1      51.596  53.032  51.352  1.00  0.00    -0.550 OA
ENDBRANCH   4   5
ENDBRANCH   3   4
ENDBRANCH   2   3
ENDBRANCH   1   2
BRANCH   1   8
ATOM      8  C   UNL     1      55.017  54.514  45.947  1.00  0.00     0.000 C 
BRANCH   8   9
ATOM      9  C   UNL     1      54.002  55.470  45.305  1.00  0.00     0.000 C 
BRANCH   9  10
ATOM     10  C   UNL     1      52.734  55.580  46.159  1.00  0.00     0.006 C 
BRANCH  10  11
ATOM     11  C   UNL     1      52.253  57.032  46.246  1.00  0.00     0.053 C 
BRANCH  11  12
ATOM     12  C   UNL     1      52.632  57.631  47.564  1.00  0.00     0.041 C 
ATOM     13  O   UNL     1      52.541  58.875  47.743  1.00  0.00    -0.550 OA
ATOM     14  O   UNL     1      53.040  56.812  48.609  1.00  0.00    -0.550 OA
ENDBRANCH  11  12
ENDBRANCH  10  11
ENDBRANCH   9  10
ENDBRANCH   8   9
ENDBRANCH   1   8
TORSDOF 9
ENDMDL
MODEL 8
REMARK VINA RESULT:    -3.058      1.894      5.998
REMARK INTER + INTRA:          -5.566
REMARK INTER:                  -5.053
REMARK INTRA:                  -0.513
REMARK UNBOUND:                -0.898
REMARK SMILES O=C([O-])CCCCCCCCC(=O)[O-]
REMARK SMILES IDX 7 1 6 2 5 3 4 4 2 5 1 6 3 7 8 8 9 9 10 10 11 11 12 12 13 13
REMARK SMILES IDX 14 14
REMARK H PARENT
REMARK Flexibility Score: inf
ROOT
ATOM      1  C   UNL     1      53.897  54.035  46.844  1.00  0.00     0.000 C 
ENDROOT
BRANCH   1   2
ATOM      2  C   UNL     1      52.807  55.038  47.262  1.00  0.00     0.000 C 
BRANCH   2   3
ATOM      3  C   UNL     1      52.397  55.976  46.117  1.00  0.00     0.006 C 
BRANCH   3   4
ATOM      4  C   UNL     1      53.597  56.459  45.292  1.00  0.00     0.053 C 
BRANCH   4   5
ATOM      5  C   UNL     1      53.971  57.853  45.684  1.00  0.00     0.041 C 
ATOM      6  O   UNL     1      54.696  58.552  44.928  1.00  0.00    -0.550 OA
ATOM      7  O   UNL     1      53.480  58.399  46.864  1.00  0.00    -0.550 OA
ENDBRANCH   4   5
ENDBRANCH   3   4
ENDBRANCH   2   3
ENDBRANCH   1   2
BRANCH   1   8
ATOM      8  C   UNL     1      53.606  52.608  47.333  1.00  0.00     0.000 C 
BRANCH   8   9
ATOM      9  C   UNL     1      52.445  52.552  48.337  1.00  0.00     0.000 C 
BRANCH   9  10
ATOM     10  C   UNL     1      52.917  52.020  49.694  1.00  0.00     0.006 C 
BRANCH  10  11
ATOM     11  C   UNL     1      51.927  52.386  50.804  1.00  0.00     0.053 C 
BRANCH  11  12
ATOM     12  C   UNL     1      52.403  53.589  51.555  1.00  0.00     0.041 C 
ATOM     13  O   UNL     1      52.973  53.455  52.670  1.00  0.00    -0.550 OA
ATOM     14  O   UNL     1      52.262  54.855  51.002  1.00  0.00    -0.550 OA
ENDBRANCH  11  12
ENDBRANCH  10  11
ENDBRANCH   9  10
ENDBRANCH   8   9
ENDBRANCH   1   8
TORSDOF 9
ENDMDL
MODEL 9
REMARK VINA RESULT:    -3.021      1.733      5.193
REMARK INTER + INTRA:          -5.509
REMARK INTER:                  -4.690
REMARK INTRA:                  -0.819
REMARK UNBOUND:                -0.898
REMARK SMILES O=C([O-])CCCCCCCCC(=O)[O-]
REMARK SMILES IDX 7 1 6 2 5 3 4 4 2 5 1 6 3 7 8 8 9 9 10 10 11 11 12 12 13 13
REMARK SMILES IDX 14 14
REMARK H PARENT
REMARK Flexibility Score: inf
ROOT
ATOM      1  C   UNL     1      55.032  54.099  45.950  1.00  0.00     0.000 C 
ENDROOT
BRANCH   1   2
ATOM      2  C   UNL     1      54.246  55.303  45.399  1.00  0.00     0.000 C 
BRANCH   2   3
ATOM      3  C   UNL     1      52.919  55.530  46.138  1.00  0.00     0.006 C 
BRANCH   3   4
ATOM      4  C   UNL     1      52.490  57.003  46.141  1.00  0.00     0.053 C 
BRANCH   4   5
ATOM      5  C   UNL     1      52.638  57.586  47.511  1.00  0.00     0.041 C 
ATOM      6  O   UNL     1      52.283  58.773  47.737  1.00  0.00    -0.550 OA
ATOM      7  O   UNL     1      53.125  56.804  48.551  1.00  0.00    -0.550 OA
ENDBRANCH   4   5
ENDBRANCH   3   4
ENDBRANCH   2   3
ENDBRANCH   1   2
BRANCH   1   8
ATOM      8  C   UNL     1      54.674  53.779  47.410  1.00  0.00     0.000 C 
BRANCH   8   9
ATOM      9  C   UNL     1      54.238  52.319  47.605  1.00  0.00     0.000 C 
BRANCH   9  10
ATOM     10  C   UNL     1      52.753  52.234  47.974  1.00  0.00     0.006 C 
BRANCH  10  11
ATOM     11  C   UNL     1      52.381  53.297  49.011  1.00  0.00     0.053 C 
BRANCH  11  12
ATOM     12  C   UNL     1      52.588  52.772  50.397  1.00  0.00     0.041 C 
ATOM     13  O   UNL     1      51.792  51.922  50.877  1.00  0.00    -0.550 OA
ATOM     14  O   UNL     1      53.687  53.184  51.140  1.00  0.00    -0.550 OA
ENDBRANCH  11  12
ENDBRANCH  10  11
ENDBRANCH   9  10
ENDBRANCH   8   9
ENDBRANCH   1   8
TORSDOF 9
ENDMDL
