MODEL 1
REMARK VINA RESULT:    -3.145      0.000      0.000
REMARK INTER + INTRA:          -5.056
REMARK INTER:                  -4.616
REMARK INTRA:                  -0.440
REMARK UNBOUND:                -0.440
REMARK SMILES O=C([O-])CCCCCCCC(=O)[O-]
REMARK SMILES IDX 7 1 6 2 5 3 4 4 2 5 1 6 3 7 8 8 9 9 10 10 11 11 12 12 13 13
REMARK H PARENT
REMARK Flexibility Score: inf
ROOT
ATOM      1  C   UNL     1       9.108   7.136  -0.383  1.00  0.00     0.000 C 
ENDROOT
BRANCH   1   2
ATOM      2  C   UNL     1       9.172   8.572   0.148  1.00  0.00     0.000 C 
BRANCH   2   3
ATOM      3  C   UNL     1       8.840   8.622   1.647  1.00  0.00     0.006 C 
BRANCH   3   4
ATOM      4  C   UNL     1       7.642   9.531   1.948  1.00  0.00     0.053 C 
BRANCH   4   5
ATOM      5  C   UNL     1       6.372   8.985   1.369  1.00  0.00     0.041 C 
ATOM      6  O   UNL     1       5.754   8.059   1.958  1.00  0.00    -0.550 OA
ATOM      7  O   UNL     1       5.853   9.524   0.198  1.00  0.00    -0.550 OA
ENDBRANCH   4   5
ENDBRANCH   3   4
ENDBRANCH   2   3
ENDBRANCH   1   2
BRANCH   1   8
ATOM      8  C   UNL     1       9.279   6.119   0.755  1.00  0.00     0.000 C 
BRANCH   8   9
ATOM      9  C   UNL     1      10.198   4.949   0.372  1.00  0.00     0.006 C 
BRANCH   9  10
ATOM     10  C   UNL     1      10.425   3.970   1.531  1.00  0.00     0.053 C 
BRANCH  10  11
ATOM     11  C   UNL     1       9.621   2.724   1.327  1.00  0.00     0.041 C 
ATOM     12  O   UNL     1       9.224   2.057   2.318  1.00  0.00    -0.550 OA
ATOM     13  O   UNL     1       9.354   2.272   0.040  1.00  0.00    -0.550 OA
ENDBRANCH  10  11
ENDBRANCH   9  10
ENDBRANCH   8   9
ENDBRANCH   1   8
TORSDOF 8
ENDMDL
MODEL 2
REMARK VINA RESULT:    -3.138     11.863     13.421
REMARK INTER + INTRA:          -5.045
REMARK INTER:                  -4.672
REMARK INTRA:                  -0.373
REMARK UNBOUND:                -0.440
REMARK SMILES O=C([O-])CCCCCCCC(=O)[O-]
REMARK SMILES IDX 7 1 6 2 5 3 4 4 2 5 1 6 3 7 8 8 9 9 10 10 11 11 12 12 13 13
REMARK H PARENT
REMARK Flexibility Score: inf
ROOT
ATOM      1  C   UNL     1       2.020  -3.476   4.841  1.00  0.00     0.000 C 
ENDROOT
BRANCH   1   2
ATOM      2  C   UNL     1       2.013  -3.918   3.373  1.00  0.00     0.000 C 
BRANCH   2   3
ATOM      3  C   UNL     1       1.458  -2.811   2.466  1.00  0.00     0.006 C 
BRANCH   3   4
ATOM      4  C   UNL     1       0.842  -3.369   1.176  1.00  0.00     0.053 C 
BRANCH   4   5
ATOM      5  C   UNL     1       1.827  -3.376   0.047  1.00  0.00     0.041 C 
ATOM      6  O   UNL     1       2.903  -2.729   0.142  1.00  0.00    -0.550 OA
ATOM      7  O   UNL     1       1.572  -4.125  -1.095  1.00  0.00    -0.550 OA
ENDBRANCH   4   5
ENDBRANCH   3   4
ENDBRANCH   2   3
ENDBRANCH   1   2
BRANCH   1   8
ATOM      8  C   UNL     1       1.327  -4.516   5.733  1.00  0.00     0.000 C 
BRANCH   8   9
ATOM      9  C   UNL     1       0.127  -3.936   6.497  1.00  0.00     0.006 C 
BRANCH   9  10
ATOM     10  C   UNL     1       0.455  -2.610   7.194  1.00  0.00     0.053 C 
BRANCH  10  11
ATOM     11  C   UNL     1      -0.462  -1.528   6.717  1.00  0.00     0.041 C 
ATOM     12  O   UNL     1      -1.293  -1.006   7.506  1.00  0.00    -0.550 OA
ATOM     13  O   UNL     1      -0.435  -1.130   5.385  1.00  0.00    -0.550 OA
ENDBRANCH  10  11
ENDBRANCH   9  10
ENDBRANCH   8   9
ENDBRANCH   1   8
TORSDOF 8
ENDMDL
MODEL 3
REMARK VINA RESULT:    -3.071     13.897     15.064
REMARK INTER + INTRA:          -4.947
REMARK INTER:                  -4.589
REMARK INTRA:                  -0.357
REMARK UNBOUND:                -0.440
REMARK SMILES O=C([O-])CCCCCCCC(=O)[O-]
REMARK SMILES IDX 7 1 6 2 5 3 4 4 2 5 1 6 3 7 8 8 9 9 10 10 11 11 12 12 13 13
REMARK H PARENT
REMARK Flexibility Score: inf
ROOT
ATOM      1  C   UNL     1      -5.055  12.261  -4.142  1.00  0.00     0.000 C 
ENDROOT
BRANCH   1   2
ATOM      2  C   UNL     1      -5.671  13.414  -3.343  1.00  0.00     0.000 C 
BRANCH   2   3
ATOM      3  C   UNL     1      -5.009  13.546  -1.964  1.00  0.00     0.006 C 
BRANCH   3   4
ATOM      4  C   UNL     1      -6.038  13.650  -0.831  1.00  0.00     0.053 C 
BRANCH   4   5
ATOM      5  C   UNL     1      -5.387  13.602   0.518  1.00  0.00     0.041 C 
ATOM      6  O   UNL     1      -6.091  13.503   1.557  1.00  0.00    -0.550 OA
ATOM      7  O   UNL     1      -4.002  13.633   0.624  1.00  0.00    -0.550 OA
ENDBRANCH   4   5
ENDBRANCH   3   4
ENDBRANCH   2   3
ENDBRANCH   1   2
BRANCH   1   8
ATOM      8  C   UNL     1      -3.871  11.638  -3.387  1.00  0.00     0.000 C 
BRANCH   8   9
ATOM      9  C   UNL     1      -3.555  10.210  -3.856  1.00  0.00     0.006 C 
BRANCH   9  10
ATOM     10  C   UNL     1      -4.693   9.592  -4.679  1.00  0.00     0.053 C 
BRANCH  10  11
ATOM     11  C   UNL     1      -4.140   8.718  -5.761  1.00  0.00     0.041 C 
ATOM     12  O   UNL     1      -3.394   7.746  -5.473  1.00  0.00    -0.550 OA
ATOM     13  O   UNL     1      -4.409   9.008  -7.093  1.00  0.00    -0.550 OA
ENDBRANCH  10  11
ENDBRANCH   9  10
ENDBRANCH   8   9
ENDBRANCH   1   8
TORSDOF 8
ENDMDL
MODEL 4
REMARK VINA RESULT:    -3.046      0.904      6.030
REMARK INTER + INTRA:          -4.910
REMARK INTER:                  -4.399
REMARK INTRA:                  -0.511
REMARK UNBOUND:                -0.440
REMARK SMILES O=C([O-])CCCCCCCC(=O)[O-]
REMARK SMILES IDX 7 1 6 2 5 3 4 4 2 5 1 6 3 7 8 8 9 9 10 10 11 11 12 12 13 13
REMARK H PARENT
REMARK Flexibility Score: inf
ROOT
ATOM      1  C   UNL     1       9.642   6.702   1.807  1.00  0.00     0.000 C 
ENDROOT
BRANCH   1   2
ATOM      2  C   UNL     1      10.616   5.596   2.227  1.00  0.00     0.000 C 
BRANCH   2   3
ATOM      3  C   UNL     1      10.940   4.667   1.047  1.00  0.00     0.006 C 
BRANCH   3   4
ATOM      4  C   UNL     1      11.059   3.200   1.477  1.00  0.00     0.053 C 
BRANCH   4   5
ATOM      5  C   UNL     1       9.715   2.568   1.677  1.00  0.00     0.041 C 
ATOM      6  O   UNL     1       8.877   2.552   0.738  1.00  0.00    -0.550 OA
ATOM      7  O   UNL     1       9.402   1.967   2.890  1.00  0.00    -0.550 OA
ENDBRANCH   4   5
ENDBRANCH   3   4
ENDBRANCH   2   3
ENDBRANCH   1   2
BRANCH   1   8
ATOM      8  C   UNL     1       9.197   6.520   0.348  1.00  0.00     0.000 C 
BRANCH   8   9
ATOM      9  C   UNL     1       8.519   7.773  -0.225  1.00  0.00     0.006 C 
BRANCH   9  10
ATOM     10  C   UNL     1       8.125   8.782   0.861  1.00  0.00     0.053 C 
BRANCH  10  11
ATOM     11  C   UNL     1       6.636   8.860   0.987  1.00  0.00     0.041 C 
ATOM     12  O   UNL     1       5.971   9.588   0.204  1.00  0.00    -0.550 OA
ATOM     13  O   UNL     1       5.987   8.167   2.001  1.00  0.00    -0.550 OA
ENDBRANCH  10  11
ENDBRANCH   9  10
ENDBRANCH   8   9
ENDBRANCH   1   8
TORSDOF 8
ENDMDL
MODEL 5
REMARK VINA RESULT:    -3.022      4.905      6.902
REMARK INTER + INTRA:          -4.876
REMARK INTER:                  -4.552
REMARK INTRA:                  -0.323
REMARK UNBOUND:                -0.440
REMARK SMILES O=C([O-])CCCCCCCC(=O)[O-]
REMARK SMILES IDX 7 1 6 2 5 3 4 4 2 5 1 6 3 7 8 8 9 9 10 10 11 11 12 12 13 13
REMARK H PARENT
REMARK Flexibility Score: inf
ROOT
ATOM      1  C   UNL     1       7.171   8.632  -2.508  1.00  0.00     0.000 C 
ENDROOT
BRANCH   1   2
ATOM      2  C   UNL     1       6.512   9.816  -1.792  1.00  0.00     0.000 C 
BRANCH   2   3
ATOM      3  C   UNL     1       6.484   9.596  -0.272  1.00  0.00     0.006 C 
BRANCH   3   4
ATOM      4  C   UNL     1       7.671   8.758   0.217  1.00  0.00     0.053 C 
BRANCH   4   5
ATOM      5  C   UNL     1       7.292   7.872   1.364  1.00  0.00     0.041 C 
ATOM      6  O   UNL     1       8.033   6.909   1.693  1.00  0.00    -0.550 OA
ATOM      7  O   UNL     1       6.136   8.132   2.091  1.00  0.00    -0.550 OA
ENDBRANCH   4   5
ENDBRANCH   3   4
ENDBRANCH   2   3
ENDBRANCH   1   2
BRANCH   1   8
ATOM      8  C   UNL     1       6.866   8.660  -4.013  1.00  0.00     0.000 C 
BRANCH   8   9
ATOM      9  C   UNL     1       5.549   7.949  -4.364  1.00  0.00     0.006 C 
BRANCH   9  10
ATOM     10  C   UNL     1       4.600   8.833  -5.183  1.00  0.00     0.053 C 
BRANCH  10  11
ATOM     11  C   UNL     1       4.337   8.216  -6.521  1.00  0.00     0.041 C 
ATOM     12  O   UNL     1       3.320   7.496  -6.699  1.00  0.00    -0.550 OA
ATOM     13  O   UNL     1       5.243   8.395  -7.559  1.00  0.00    -0.550 OA
ENDBRANCH  10  11
ENDBRANCH   9  10
ENDBRANCH   8   9
ENDBRANCH   1   8
TORSDOF 8
ENDMDL
MODEL 6
REMARK VINA RESULT:    -3.017      3.074      6.003
REMARK INTER + INTRA:          -4.867
REMARK INTER:                  -4.250
REMARK INTRA:                  -0.617
REMARK UNBOUND:                -0.440
REMARK SMILES O=C([O-])CCCCCCCC(=O)[O-]
REMARK SMILES IDX 7 1 6 2 5 3 4 4 2 5 1 6 3 7 8 8 9 9 10 10 11 11 12 12 13 13
REMARK H PARENT
REMARK Flexibility Score: inf
ROOT
ATOM      1  C   UNL     1       7.184  10.300   1.104  1.00  0.00     0.000 C 
ENDROOT
BRANCH   1   2
ATOM      2  C   UNL     1       6.226   9.131   1.356  1.00  0.00     0.000 C 
BRANCH   2   3
ATOM      3  C   UNL     1       6.922   8.004   2.133  1.00  0.00     0.006 C 
BRANCH   3   4
ATOM      4  C   UNL     1       8.421   7.918   1.816  1.00  0.00     0.053 C 
BRANCH   4   5
ATOM      5  C   UNL     1       8.718   6.839   0.820  1.00  0.00     0.041 C 
ATOM      6  O   UNL     1       8.954   7.134  -0.381  1.00  0.00    -0.550 OA
ATOM      7  O   UNL     1       8.767   5.511   1.226  1.00  0.00    -0.550 OA
ENDBRANCH   4   5
ENDBRANCH   3   4
ENDBRANCH   2   3
ENDBRANCH   1   2
BRANCH   1   8
ATOM      8  C   UNL     1       7.269  10.630  -0.394  1.00  0.00     0.000 C 
BRANCH   8   9
ATOM      9  C   UNL     1       6.279   9.812  -1.238  1.00  0.00     0.006 C 
BRANCH   9  10
ATOM     10  C   UNL     1       6.970   9.015  -2.352  1.00  0.00     0.053 C 
BRANCH  10  11
ATOM     11  C   UNL     1       6.190   9.114  -3.626  1.00  0.00     0.041 C 
ATOM     12  O   UNL     1       5.674   8.086  -4.135  1.00  0.00    -0.550 OA
ATOM     13  O   UNL     1       6.076  10.336  -4.277  1.00  0.00    -0.550 OA
ENDBRANCH  10  11
ENDBRANCH   9  10
ENDBRANCH   8   9
ENDBRANCH   1   8
TORSDOF 8
ENDMDL
MODEL 7
REMARK VINA RESULT:    -3.016      1.460      5.755
REMARK INTER + INTRA:          -4.866
REMARK INTER:                  -4.276
REMARK INTRA:                  -0.590
REMARK UNBOUND:                -0.440
REMARK SMILES O=C([O-])CCCCCCCC(=O)[O-]
REMARK SMILES IDX 7 1 6 2 5 3 4 4 2 5 1 6 3 7 8 8 9 9 10 10 11 11 12 12 13 13
REMARK H PARENT
REMARK Flexibility Score: inf
ROOT
ATOM      1  C   UNL     1       9.058   7.430  -1.378  1.00  0.00     0.000 C 
ENDROOT
BRANCH   1   2
ATOM      2  C   UNL     1       9.497   7.590   0.082  1.00  0.00     0.000 C 
BRANCH   2   3
ATOM      3  C   UNL     1       8.932   6.461   0.956  1.00  0.00     0.006 C 
BRANCH   3   4
ATOM      4  C   UNL     1      10.012   5.459   1.382  1.00  0.00     0.053 C 
BRANCH   4   5
ATOM      5  C   UNL     1       9.909   4.173   0.621  1.00  0.00     0.041 C 
ATOM      6  O   UNL     1      10.489   4.047  -0.490  1.00  0.00    -0.550 OA
ATOM      7  O   UNL     1       9.201   3.103   1.154  1.00  0.00    -0.550 OA
ENDBRANCH   4   5
ENDBRANCH   3   4
ENDBRANCH   2   3
ENDBRANCH   1   2
BRANCH   1   8
ATOM      8  C   UNL     1       7.860   8.337  -1.696  1.00  0.00     0.000 C 
BRANCH   8   9
ATOM      9  C   UNL     1       7.722   9.504  -0.707  1.00  0.00     0.006 C 
BRANCH   9  10
ATOM     10  C   UNL     1       6.331   9.572  -0.063  1.00  0.00     0.053 C 
BRANCH  10  11
ATOM     11  C   UNL     1       6.418   9.268   1.401  1.00  0.00     0.041 C 
ATOM     12  O   UNL     1       5.881   8.229   1.866  1.00  0.00    -0.550 OA
ATOM     13  O   UNL     1       7.049  10.160   2.259  1.00  0.00    -0.550 OA
ENDBRANCH  10  11
ENDBRANCH   9  10
ENDBRANCH   8   9
ENDBRANCH   1   8
TORSDOF 8
ENDMDL
MODEL 8
REMARK VINA RESULT:    -3.011      5.150      6.688
REMARK INTER + INTRA:          -4.860
REMARK INTER:                  -4.678
REMARK INTRA:                  -0.182
REMARK UNBOUND:                -0.440
REMARK SMILES O=C([O-])CCCCCCCC(=O)[O-]
REMARK SMILES IDX 7 1 6 2 5 3 4 4 2 5 1 6 3 7 8 8 9 9 10 10 11 11 12 12 13 13
REMARK H PARENT
REMARK Flexibility Score: inf
ROOT
ATOM      1  C   UNL     1       6.517   9.440  -2.990  1.00  0.00     0.000 C 
ENDROOT
BRANCH   1   2
ATOM      2  C   UNL     1       6.149   8.290  -3.934  1.00  0.00     0.000 C 
BRANCH   2   3
ATOM      3  C   UNL     1       5.255   8.783  -5.082  1.00  0.00     0.006 C 
BRANCH   3   4
ATOM      4  C   UNL     1       3.880   8.104  -5.081  1.00  0.00     0.053 C 
BRANCH   4   5
ATOM      5  C   UNL     1       3.145   8.334  -6.366  1.00  0.00     0.041 C 
ATOM      6  O   UNL     1       3.290   7.535  -7.329  1.00  0.00    -0.550 OA
ATOM      7  O   UNL     1       2.276   9.411  -6.489  1.00  0.00    -0.550 OA
ENDBRANCH   4   5
ENDBRANCH   3   4
ENDBRANCH   2   3
ENDBRANCH   1   2
BRANCH   1   8
ATOM      8  C   UNL     1       7.288   8.922  -1.765  1.00  0.00     0.000 C 
BRANCH   8   9
ATOM      9  C   UNL     1       6.720   9.453  -0.440  1.00  0.00     0.006 C 
BRANCH   9  10
ATOM     10  C   UNL     1       7.653   9.195   0.749  1.00  0.00     0.053 C 
BRANCH  10  11
ATOM     11  C   UNL     1       7.186   8.008   1.532  1.00  0.00     0.041 C 
ATOM     12  O   UNL     1       6.070   8.032   2.114  1.00  0.00    -0.550 OA
ATOM     13  O   UNL     1       8.006   6.894   1.661  1.00  0.00    -0.550 OA
ENDBRANCH  10  11
ENDBRANCH   9  10
ENDBRANCH   8   9
ENDBRANCH   1   8
TORSDOF 8
ENDMDL
MODEL 9
REMARK VINA RESULT:    -2.984      1.506      6.072
REMARK INTER + INTRA:          -4.819
REMARK INTER:                  -4.354
REMARK INTRA:                  -0.465
REMARK UNBOUND:                -0.440
REMARK SMILES O=C([O-])CCCCCCCC(=O)[O-]
REMARK SMILES IDX 7 1 6 2 5 3 4 4 2 5 1 6 3 7 8 8 9 9 10 10 11 11 12 12 13 13
REMARK H PARENT
REMARK Flexibility Score: inf
ROOT
ATOM      1  C   UNL     1       9.358   7.276   2.172  1.00  0.00     0.000 C 
ENDROOT
BRANCH   1   2
ATOM      2  C   UNL     1       8.880   6.295   1.096  1.00  0.00     0.000 C 
BRANCH   2   3
ATOM      3  C   UNL     1      10.067   5.581   0.433  1.00  0.00     0.006 C 
BRANCH   3   4
ATOM      4  C   UNL     1      10.439   4.278   1.152  1.00  0.00     0.053 C 
BRANCH   4   5
ATOM      5  C   UNL     1       9.616   3.122   0.671  1.00  0.00     0.041 C 
ATOM      6  O   UNL     1       8.892   2.481   1.477  1.00  0.00    -0.550 OA
ATOM      7  O   UNL     1       9.623   2.775  -0.674  1.00  0.00    -0.550 OA
ENDBRANCH   4   5
ENDBRANCH   3   4
ENDBRANCH   2   3
ENDBRANCH   1   2
BRANCH   1   8
ATOM      8  C   UNL     1       8.301   8.357   2.442  1.00  0.00     0.000 C 
BRANCH   8   9
ATOM      9  C   UNL     1       6.946   8.035   1.793  1.00  0.00     0.006 C 
BRANCH   9  10
ATOM     10  C   UNL     1       6.245   9.282   1.238  1.00  0.00     0.053 C 
BRANCH  10  11
ATOM     11  C   UNL     1       6.794   9.635  -0.108  1.00  0.00     0.041 C 
ATOM     12  O   UNL     1       6.803  10.833  -0.495  1.00  0.00    -0.550 OA
ATOM     13  O   UNL     1       7.252   8.634  -0.957  1.00  0.00    -0.550 OA
ENDBRANCH  10  11
ENDBRANCH   9  10
ENDBRANCH   8   9
ENDBRANCH   1   8
TORSDOF 8
ENDMDL
