MODEL 1
REMARK VINA RESULT:    -3.932      0.000      0.000
REMARK INTER + INTRA:          -6.464
REMARK INTER:                  -6.000
REMARK INTRA:                  -0.464
REMARK UNBOUND:                -0.464
REMARK SMILES O=C([O-])CCCCCCCCC(=O)[O-]
REMARK SMILES IDX 7 1 6 2 5 3 4 4 2 5 1 6 3 7 8 8 9 9 10 10 11 11 12 12 13 13
REMARK SMILES IDX 14 14
REMARK H PARENT
REMARK Flexibility Score: inf
ROOT
ATOM      1  C   UNL     1      44.462  26.750   3.331  1.00  0.00     0.000 C 
ENDROOT
BRANCH   1   2
ATOM      2  C   UNL     1      44.539  28.290   3.287  1.00  0.00     0.000 C 
BRANCH   2   3
ATOM      3  C   UNL     1      45.224  28.872   2.034  1.00  0.00     0.006 C 
BRANCH   3   4
ATOM      4  C   UNL     1      45.779  27.816   1.065  1.00  0.00     0.053 C 
BRANCH   4   5
ATOM      5  C   UNL     1      45.464  28.145  -0.362  1.00  0.00     0.041 C 
ATOM      6  O   UNL     1      45.353  29.346  -0.726  1.00  0.00    -0.550 OA
ATOM      7  O   UNL     1      45.263  27.126  -1.282  1.00  0.00    -0.550 OA
ENDBRANCH   4   5
ENDBRANCH   3   4
ENDBRANCH   2   3
ENDBRANCH   1   2
BRANCH   1   8
ATOM      8  C   UNL     1      45.278  26.090   4.460  1.00  0.00     0.000 C 
BRANCH   8   9
ATOM      9  C   UNL     1      46.108  27.062   5.322  1.00  0.00     0.000 C 
BRANCH   9  10
ATOM     10  C   UNL     1      46.084  26.771   6.833  1.00  0.00     0.006 C 
BRANCH  10  11
ATOM     11  C   UNL     1      45.589  27.964   7.662  1.00  0.00     0.053 C 
BRANCH  11  12
ATOM     12  C   UNL     1      45.187  27.515   9.031  1.00  0.00     0.041 C 
ATOM     13  O   UNL     1      45.254  26.298   9.345  1.00  0.00    -0.550 OA
ATOM     14  O   UNL     1      44.692  28.436   9.947  1.00  0.00    -0.550 OA
ENDBRANCH  11  12
ENDBRANCH  10  11
ENDBRANCH   9  10
ENDBRANCH   8   9
ENDBRANCH   1   8
TORSDOF 9
ENDMDL
MODEL 2
REMARK VINA RESULT:    -3.823      0.906      7.643
REMARK INTER + INTRA:          -6.298
REMARK INTER:                  -5.939
REMARK INTRA:                  -0.359
REMARK UNBOUND:                -0.464
REMARK SMILES O=C([O-])CCCCCCCCC(=O)[O-]
REMARK SMILES IDX 7 1 6 2 5 3 4 4 2 5 1 6 3 7 8 8 9 9 10 10 11 11 12 12 13 13
REMARK SMILES IDX 14 14
REMARK H PARENT
REMARK Flexibility Score: inf
ROOT
ATOM      1  C   UNL     1      45.861  26.996   5.209  1.00  0.00     0.000 C 
ENDROOT
BRANCH   1   2
ATOM      2  C   UNL     1      47.113  26.448   5.924  1.00  0.00     0.000 C 
BRANCH   2   3
ATOM      3  C   UNL     1      47.006  26.377   7.462  1.00  0.00     0.006 C 
BRANCH   3   4
ATOM      4  C   UNL     1      45.625  26.759   8.020  1.00  0.00     0.053 C 
BRANCH   4   5
ATOM      5  C   UNL     1      45.625  26.817   9.517  1.00  0.00     0.041 C 
ATOM      6  O   UNL     1      45.033  27.754  10.115  1.00  0.00    -0.550 OA
ATOM      7  O   UNL     1      46.304  25.853  10.250  1.00  0.00    -0.550 OA
ENDBRANCH   4   5
ENDBRANCH   3   4
ENDBRANCH   2   3
ENDBRANCH   1   2
BRANCH   1   8
ATOM      8  C   UNL     1      45.268  26.068   4.131  1.00  0.00     0.000 C 
BRANCH   8   9
ATOM      9  C   UNL     1      44.227  26.725   3.203  1.00  0.00     0.000 C 
BRANCH   9  10
ATOM     10  C   UNL     1      44.714  27.993   2.477  1.00  0.00     0.006 C 
BRANCH  10  11
ATOM     11  C   UNL     1      45.989  27.757   1.658  1.00  0.00     0.053 C 
BRANCH  11  12
ATOM     12  C   UNL     1      45.740  28.049   0.211  1.00  0.00     0.041 C 
ATOM     13  O   UNL     1      45.248  27.165  -0.538  1.00  0.00    -0.550 OA
ATOM     14  O   UNL     1      46.097  29.282  -0.320  1.00  0.00    -0.550 OA
ENDBRANCH  11  12
ENDBRANCH  10  11
ENDBRANCH   9  10
ENDBRANCH   8   9
ENDBRANCH   1   8
TORSDOF 9
ENDMDL
MODEL 3
REMARK VINA RESULT:    -3.789      3.403      5.024
REMARK INTER + INTRA:          -6.246
REMARK INTER:                  -5.884
REMARK INTRA:                  -0.362
REMARK UNBOUND:                -0.464
REMARK SMILES O=C([O-])CCCCCCCCC(=O)[O-]
REMARK SMILES IDX 7 1 6 2 5 3 4 4 2 5 1 6 3 7 8 8 9 9 10 10 11 11 12 12 13 13
REMARK SMILES IDX 14 14
REMARK H PARENT
REMARK Flexibility Score: inf
ROOT
ATOM      1  C   UNL     1      45.518  28.884  -0.646  1.00  0.00     0.000 C 
ENDROOT
BRANCH   1   2
ATOM      2  C   UNL     1      45.211  27.680  -1.559  1.00  0.00     0.000 C 
BRANCH   2   3
ATOM      3  C   UNL     1      44.869  28.039  -3.019  1.00  0.00     0.006 C 
BRANCH   3   4
ATOM      4  C   UNL     1      43.906  27.057  -3.706  1.00  0.00     0.053 C 
BRANCH   4   5
ATOM      5  C   UNL     1      42.931  27.762  -4.598  1.00  0.00     0.041 C 
ATOM      6  O   UNL     1      41.830  28.167  -4.140  1.00  0.00    -0.550 OA
ATOM      7  O   UNL     1      43.227  27.945  -5.942  1.00  0.00    -0.550 OA
ENDBRANCH   4   5
ENDBRANCH   3   4
ENDBRANCH   2   3
ENDBRANCH   1   2
BRANCH   1   8
ATOM      8  C   UNL     1      45.898  28.524   0.803  1.00  0.00     0.000 C 
BRANCH   8   9
ATOM      9  C   UNL     1      45.247  29.406   1.888  1.00  0.00     0.000 C 
BRANCH   9  10
ATOM     10  C   UNL     1      44.268  28.670   2.820  1.00  0.00     0.006 C 
BRANCH  10  11
ATOM     11  C   UNL     1      44.311  27.147   2.646  1.00  0.00     0.053 C 
BRANCH  11  12
ATOM     12  C   UNL     1      45.096  26.517   3.754  1.00  0.00     0.041 C 
ATOM     13  O   UNL     1      45.215  25.265   3.815  1.00  0.00    -0.550 OA
ATOM     14  O   UNL     1      45.656  27.312   4.747  1.00  0.00    -0.550 OA
ENDBRANCH  11  12
ENDBRANCH  10  11
ENDBRANCH   9  10
ENDBRANCH   8   9
ENDBRANCH   1   8
TORSDOF 9
ENDMDL
MODEL 4
REMARK VINA RESULT:    -3.776      1.382      6.942
REMARK INTER + INTRA:          -6.227
REMARK INTER:                  -5.468
REMARK INTRA:                  -0.759
REMARK UNBOUND:                -0.464
REMARK SMILES O=C([O-])CCCCCCCCC(=O)[O-]
REMARK SMILES IDX 7 1 6 2 5 3 4 4 2 5 1 6 3 7 8 8 9 9 10 10 11 11 12 12 13 13
REMARK SMILES IDX 14 14
REMARK H PARENT
REMARK Flexibility Score: inf
ROOT
ATOM      1  C   UNL     1      44.870  26.018   4.063  1.00  0.00     0.000 C 
ENDROOT
BRANCH   1   2
ATOM      2  C   UNL     1      46.411  26.066   4.049  1.00  0.00     0.000 C 
BRANCH   2   3
ATOM      3  C   UNL     1      47.057  26.631   5.331  1.00  0.00     0.006 C 
BRANCH   3   4
ATOM      4  C   UNL     1      46.079  26.831   6.499  1.00  0.00     0.053 C 
BRANCH   4   5
ATOM      5  C   UNL     1      45.901  28.279   6.838  1.00  0.00     0.041 C 
ATOM      6  O   UNL     1      46.432  29.168   6.121  1.00  0.00    -0.550 OA
ATOM      7  O   UNL     1      45.174  28.646   7.963  1.00  0.00    -0.550 OA
ENDBRANCH   4   5
ENDBRANCH   3   4
ENDBRANCH   2   3
ENDBRANCH   1   2
BRANCH   1   8
ATOM      8  C   UNL     1      44.181  26.877   2.985  1.00  0.00     0.000 C 
BRANCH   8   9
ATOM      9  C   UNL     1      44.489  28.387   3.058  1.00  0.00     0.000 C 
BRANCH   9  10
ATOM     10  C   UNL     1      45.189  28.967   1.817  1.00  0.00     0.006 C 
BRANCH  10  11
ATOM     11  C   UNL     1      45.820  27.887   0.929  1.00  0.00     0.053 C 
BRANCH  11  12
ATOM     12  C   UNL     1      45.534  28.165  -0.513  1.00  0.00     0.041 C 
ATOM     13  O   UNL     1      45.533  29.349  -0.942  1.00  0.00    -0.550 OA
ATOM     14  O   UNL     1      45.221  27.120  -1.374  1.00  0.00    -0.550 OA
ENDBRANCH  11  12
ENDBRANCH  10  11
ENDBRANCH   9  10
ENDBRANCH   8   9
ENDBRANCH   1   8
TORSDOF 9
ENDMDL
MODEL 5
REMARK VINA RESULT:    -3.770      1.209      7.341
REMARK INTER + INTRA:          -6.217
REMARK INTER:                  -5.716
REMARK INTRA:                  -0.501
REMARK UNBOUND:                -0.464
REMARK SMILES O=C([O-])CCCCCCCCC(=O)[O-]
REMARK SMILES IDX 7 1 6 2 5 3 4 4 2 5 1 6 3 7 8 8 9 9 10 10 11 11 12 12 13 13
REMARK SMILES IDX 14 14
REMARK H PARENT
REMARK Flexibility Score: inf
ROOT
ATOM      1  C   UNL     1      46.032  26.971   6.073  1.00  0.00     0.000 C 
ENDROOT
BRANCH   1   2
ATOM      2  C   UNL     1      46.405  28.453   6.283  1.00  0.00     0.000 C 
BRANCH   2   3
ATOM      3  C   UNL     1      46.501  28.898   7.757  1.00  0.00     0.006 C 
BRANCH   3   4
ATOM      4  C   UNL     1      45.180  29.412   8.352  1.00  0.00     0.053 C 
BRANCH   4   5
ATOM      5  C   UNL     1      44.787  28.651   9.580  1.00  0.00     0.041 C 
ATOM      6  O   UNL     1      45.038  27.421   9.672  1.00  0.00    -0.550 OA
ATOM      7  O   UNL     1      44.115  29.295  10.611  1.00  0.00    -0.550 OA
ENDBRANCH   4   5
ENDBRANCH   3   4
ENDBRANCH   2   3
ENDBRANCH   1   2
BRANCH   1   8
ATOM      8  C   UNL     1      46.224  26.448   4.637  1.00  0.00     0.000 C 
BRANCH   8   9
ATOM      9  C   UNL     1      44.942  25.933   3.952  1.00  0.00     0.000 C 
BRANCH   9  10
ATOM     10  C   UNL     1      44.231  26.959   3.051  1.00  0.00     0.006 C 
BRANCH  10  11
ATOM     11  C   UNL     1      45.101  28.183   2.739  1.00  0.00     0.053 C 
BRANCH  11  12
ATOM     12  C   UNL     1      45.442  28.223   1.283  1.00  0.00     0.041 C 
ATOM     13  O   UNL     1      45.981  29.246   0.786  1.00  0.00    -0.550 OA
ATOM     14  O   UNL     1      45.119  27.148   0.464  1.00  0.00    -0.550 OA
ENDBRANCH  11  12
ENDBRANCH  10  11
ENDBRANCH   9  10
ENDBRANCH   8   9
ENDBRANCH   1   8
TORSDOF 9
ENDMDL
MODEL 6
REMARK VINA RESULT:    -3.738      1.587      2.359
REMARK INTER + INTRA:          -6.168
REMARK INTER:                  -5.725
REMARK INTRA:                  -0.443
REMARK UNBOUND:                -0.464
REMARK SMILES O=C([O-])CCCCCCCCC(=O)[O-]
REMARK SMILES IDX 7 1 6 2 5 3 4 4 2 5 1 6 3 7 8 8 9 9 10 10 11 11 12 12 13 13
REMARK SMILES IDX 14 14
REMARK H PARENT
REMARK Flexibility Score: inf
ROOT
ATOM      1  C   UNL     1      45.974  26.766   5.362  1.00  0.00     0.000 C 
ENDROOT
BRANCH   1   2
ATOM      2  C   UNL     1      46.400  27.645   4.169  1.00  0.00     0.000 C 
BRANCH   2   3
ATOM      3  C   UNL     1      45.503  28.874   3.912  1.00  0.00     0.006 C 
BRANCH   3   4
ATOM      4  C   UNL     1      44.919  28.948   2.492  1.00  0.00     0.053 C 
BRANCH   4   5
ATOM      5  C   UNL     1      44.777  27.591   1.874  1.00  0.00     0.041 C 
ATOM      6  O   UNL     1      45.463  27.279   0.865  1.00  0.00    -0.550 OA
ATOM      7  O   UNL     1      43.865  26.683   2.394  1.00  0.00    -0.550 OA
ENDBRANCH   4   5
ENDBRANCH   3   4
ENDBRANCH   2   3
ENDBRANCH   1   2
BRANCH   1   8
ATOM      8  C   UNL     1      46.965  26.743   6.541  1.00  0.00     0.000 C 
BRANCH   8   9
ATOM      9  C   UNL     1      46.929  27.988   7.450  1.00  0.00     0.000 C 
BRANCH   9  10
ATOM     10  C   UNL     1      45.541  28.632   7.613  1.00  0.00     0.006 C 
BRANCH  10  11
ATOM     11  C   UNL     1      45.114  28.766   9.080  1.00  0.00     0.053 C 
BRANCH  11  12
ATOM     12  C   UNL     1      45.395  27.497   9.822  1.00  0.00     0.041 C 
ATOM     13  O   UNL     1      46.163  27.503  10.819  1.00  0.00    -0.550 OA
ATOM     14  O   UNL     1      44.846  26.299   9.382  1.00  0.00    -0.550 OA
ENDBRANCH  11  12
ENDBRANCH  10  11
ENDBRANCH   9  10
ENDBRANCH   8   9
ENDBRANCH   1   8
TORSDOF 9
ENDMDL
MODEL 7
REMARK VINA RESULT:    -3.651      3.293      8.407
REMARK INTER + INTRA:          -6.036
REMARK INTER:                  -5.553
REMARK INTRA:                  -0.483
REMARK UNBOUND:                -0.464
REMARK SMILES O=C([O-])CCCCCCCCC(=O)[O-]
REMARK SMILES IDX 7 1 6 2 5 3 4 4 2 5 1 6 3 7 8 8 9 9 10 10 11 11 12 12 13 13
REMARK SMILES IDX 14 14
REMARK H PARENT
REMARK Flexibility Score: inf
ROOT
ATOM      1  C   UNL     1      45.386  27.875   0.271  1.00  0.00     0.000 C 
ENDROOT
BRANCH   1   2
ATOM      2  C   UNL     1      45.256  29.099   1.200  1.00  0.00     0.000 C 
BRANCH   2   3
ATOM      3  C   UNL     1      44.643  28.803   2.584  1.00  0.00     0.006 C 
BRANCH   3   4
ATOM      4  C   UNL     1      44.244  27.335   2.802  1.00  0.00     0.053 C 
BRANCH   4   5
ATOM      5  C   UNL     1      45.172  26.638   3.747  1.00  0.00     0.041 C 
ATOM      6  O   UNL     1      45.907  27.304   4.522  1.00  0.00    -0.550 OA
ATOM      7  O   UNL     1      45.249  25.251   3.749  1.00  0.00    -0.550 OA
ENDBRANCH   4   5
ENDBRANCH   3   4
ENDBRANCH   2   3
ENDBRANCH   1   2
BRANCH   1   8
ATOM      8  C   UNL     1      45.728  28.203  -1.195  1.00  0.00     0.000 C 
BRANCH   8   9
ATOM      9  C   UNL     1      45.329  29.619  -1.658  1.00  0.00     0.000 C 
BRANCH   9  10
ATOM     10  C   UNL     1      44.114  29.675  -2.602  1.00  0.00     0.006 C 
BRANCH  10  11
ATOM     11  C   UNL     1      44.279  28.782  -3.839  1.00  0.00     0.053 C 
BRANCH  11  12
ATOM     12  C   UNL     1      43.145  27.810  -3.934  1.00  0.00     0.041 C 
ATOM     13  O   UNL     1      43.348  26.581  -3.751  1.00  0.00    -0.550 OA
ATOM     14  O   UNL     1      41.874  28.256  -4.273  1.00  0.00    -0.550 OA
ENDBRANCH  11  12
ENDBRANCH  10  11
ENDBRANCH   9  10
ENDBRANCH   8   9
ENDBRANCH   1   8
TORSDOF 9
ENDMDL
MODEL 8
REMARK VINA RESULT:    -3.567      2.527      3.795
REMARK INTER + INTRA:          -5.907
REMARK INTER:                  -5.632
REMARK INTRA:                  -0.275
REMARK UNBOUND:                -0.464
REMARK SMILES O=C([O-])CCCCCCCCC(=O)[O-]
REMARK SMILES IDX 7 1 6 2 5 3 4 4 2 5 1 6 3 7 8 8 9 9 10 10 11 11 12 12 13 13
REMARK SMILES IDX 14 14
REMARK H PARENT
REMARK Flexibility Score: inf
ROOT
ATOM      1  C   UNL     1      46.031  26.641   6.685  1.00  0.00     0.000 C 
ENDROOT
BRANCH   1   2
ATOM      2  C   UNL     1      47.125  26.430   5.619  1.00  0.00     0.000 C 
BRANCH   2   3
ATOM      3  C   UNL     1      46.645  25.754   4.319  1.00  0.00     0.006 C 
BRANCH   3   4
ATOM      4  C   UNL     1      45.127  25.830   4.086  1.00  0.00     0.053 C 
BRANCH   4   5
ATOM      5  C   UNL     1      44.762  26.921   3.128  1.00  0.00     0.041 C 
ATOM      6  O   UNL     1      45.343  28.037   3.186  1.00  0.00    -0.550 OA
ATOM      7  O   UNL     1      43.759  26.716   2.191  1.00  0.00    -0.550 OA
ENDBRANCH   4   5
ENDBRANCH   3   4
ENDBRANCH   2   3
ENDBRANCH   1   2
BRANCH   1   8
ATOM      8  C   UNL     1      46.444  27.528   7.876  1.00  0.00     0.000 C 
BRANCH   8   9
ATOM      9  C   UNL     1      45.368  27.701   8.967  1.00  0.00     0.000 C 
BRANCH   9  10
ATOM     10  C   UNL     1      44.885  29.147   9.178  1.00  0.00     0.006 C 
BRANCH  10  11
ATOM     11  C   UNL     1      44.637  29.482  10.654  1.00  0.00     0.053 C 
BRANCH  11  12
ATOM     12  C   UNL     1      45.914  29.891  11.318  1.00  0.00     0.041 C 
ATOM     13  O   UNL     1      46.940  30.125  10.627  1.00  0.00    -0.550 OA
ATOM     14  O   UNL     1      45.984  29.968  12.703  1.00  0.00    -0.550 OA
ENDBRANCH  11  12
ENDBRANCH  10  11
ENDBRANCH   9  10
ENDBRANCH   8   9
ENDBRANCH   1   8
TORSDOF 9
ENDMDL
MODEL 9
REMARK VINA RESULT:    -3.084      4.908      7.631
REMARK INTER + INTRA:          -5.170
REMARK INTER:                  -4.450
REMARK INTRA:                  -0.720
REMARK UNBOUND:                -0.464
REMARK SMILES O=C([O-])CCCCCCCCC(=O)[O-]
REMARK SMILES IDX 7 1 6 2 5 3 4 4 2 5 1 6 3 7 8 8 9 9 10 10 11 11 12 12 13 13
REMARK SMILES IDX 14 14
REMARK H PARENT
REMARK Flexibility Score: inf
ROOT
ATOM      1  C   UNL     1      43.104  29.627  -3.351  1.00  0.00     0.000 C 
ENDROOT
BRANCH   1   2
ATOM      2  C   UNL     1      42.673  28.513  -4.326  1.00  0.00     0.000 C 
BRANCH   2   3
ATOM      3  C   UNL     1      42.507  28.960  -5.793  1.00  0.00     0.006 C 
BRANCH   3   4
ATOM      4  C   UNL     1      43.448  28.253  -6.782  1.00  0.00     0.053 C 
BRANCH   4   5
ATOM      5  C   UNL     1      44.887  28.547  -6.492  1.00  0.00     0.041 C 
ATOM      6  O   UNL     1      45.299  29.737  -6.463  1.00  0.00    -0.550 OA
ATOM      7  O   UNL     1      45.780  27.504  -6.284  1.00  0.00    -0.550 OA
ENDBRANCH   4   5
ENDBRANCH   3   4
ENDBRANCH   2   3
ENDBRANCH   1   2
BRANCH   1   8
ATOM      8  C   UNL     1      44.590  29.597  -2.943  1.00  0.00     0.000 C 
BRANCH   8   9
ATOM      9  C   UNL     1      45.210  28.189  -2.834  1.00  0.00     0.000 C 
BRANCH   9  10
ATOM     10  C   UNL     1      45.255  27.609  -1.409  1.00  0.00     0.006 C 
BRANCH  10  11
ATOM     11  C   UNL     1      45.735  28.626  -0.366  1.00  0.00     0.053 C 
BRANCH  11  12
ATOM     12  C   UNL     1      45.620  28.054   1.011  1.00  0.00     0.041 C 
ATOM     13  O   UNL     1      44.886  27.053   1.223  1.00  0.00    -0.550 OA
ATOM     14  O   UNL     1      46.286  28.656   2.072  1.00  0.00    -0.550 OA
ENDBRANCH  11  12
ENDBRANCH  10  11
ENDBRANCH   9  10
ENDBRANCH   8   9
ENDBRANCH   1   8
TORSDOF 9
ENDMDL
