MODEL 1
REMARK VINA RESULT:    -7.718      0.000      0.000
REMARK INTER + INTRA:          -9.604
REMARK INTER:                  -9.297
REMARK INTRA:                  -0.307
REMARK UNBOUND:                -0.307
REMARK SMILES Oc1cc(O)c2cc(O)c(-c3ccc(O)c(O)c3)[o+]c2c1
REMARK SMILES IDX 10 1 19 2 20 3 21 4 2 5 3 6 4 7 6 8 7 9 8 10 11 11 12 12
REMARK SMILES IDX 13 13 14 14 18 15 16 16 15 17 17 19 9 21 1 23 5 25
REMARK H PARENT 15 18 17 20 9 22 1 24 5 26
REMARK Flexibility Score: inf
ROOT
ATOM      1  C   UNL     1     -36.868  -9.570  21.861  1.00  0.00     0.402 A 
ATOM      2  O   UNL     1     -35.922  -8.788  22.376  1.00  0.00    -0.202 OA
ATOM      3  C   UNL     1     -34.677  -9.196  22.593  1.00  0.00     0.368 A 
ATOM      4  C   UNL     1     -33.752  -8.300  23.135  1.00  0.00     0.162 A 
ATOM      5  C   UNL     1     -32.434  -8.701  23.372  1.00  0.00     0.128 A 
ATOM      6  C   UNL     1     -32.039 -10.005  23.066  1.00  0.00     0.093 A 
ATOM      7  C   UNL     1     -32.947 -10.923  22.522  1.00  0.00     0.136 A 
ATOM      8  C   UNL     1     -34.285 -10.521  22.281  1.00  0.00     0.125 A 
ATOM      9  C   UNL     1     -35.266 -11.377  21.752  1.00  0.00     0.078 A 
ATOM     10  C   UNL     1     -36.568 -10.909  21.548  1.00  0.00     0.223 A 
ENDROOT
BRANCH   1  11
ATOM     11  C   UNL     1     -38.217  -8.996  21.657  1.00  0.00     0.087 A 
ATOM     12  C   UNL     1     -39.121  -8.850  22.724  1.00  0.00     0.022 A 
ATOM     13  C   UNL     1     -40.397  -8.327  22.502  1.00  0.00     0.051 A 
ATOM     14  C   UNL     1     -40.795  -7.955  21.211  1.00  0.00     0.157 A 
ATOM     15  C   UNL     1     -38.627  -8.642  20.361  1.00  0.00     0.068 A 
ATOM     16  C   UNL     1     -39.905  -8.117  20.135  1.00  0.00     0.158 A 
BRANCH  14  17
ATOM     17  O   UNL     1     -42.068  -7.432  20.993  1.00  0.00    -0.504 OA
ATOM     18  H   UNL     1     -42.656  -7.762  20.237  1.00  0.00     0.293 HD
ENDBRANCH  14  17
BRANCH  16  19
ATOM     19  O   UNL     1     -40.273  -7.764  18.837  1.00  0.00    -0.504 OA
ATOM     20  H   UNL     1     -39.867  -8.211  18.023  1.00  0.00     0.293 HD
ENDBRANCH  16  19
ENDBRANCH   1  11
BRANCH  10  21
ATOM     21  O   UNL     1     -37.554 -11.773  21.069  1.00  0.00    -0.500 OA
ATOM     22  H   UNL     1     -37.485 -12.204  20.155  1.00  0.00     0.294 HD
ENDBRANCH  10  21
BRANCH   5  23
ATOM     23  O   UNL     1     -31.507  -7.812  23.912  1.00  0.00    -0.507 OA
ATOM     24  H   UNL     1     -30.686  -7.523  23.392  1.00  0.00     0.293 HD
ENDBRANCH   5  23
BRANCH   7  25
ATOM     25  O   UNL     1     -32.472 -12.207  22.240  1.00  0.00    -0.507 OA
ATOM     26  H   UNL     1     -31.956 -12.456  21.408  1.00  0.00     0.293 HD
ENDBRANCH   7  25
TORSDOF 6
ENDMDL
MODEL 2
REMARK VINA RESULT:    -7.051      0.725      1.484
REMARK INTER + INTRA:          -8.801
REMARK INTER:                  -8.457
REMARK INTRA:                  -0.343
REMARK UNBOUND:                -0.307
REMARK SMILES Oc1cc(O)c2cc(O)c(-c3ccc(O)c(O)c3)[o+]c2c1
REMARK SMILES IDX 10 1 19 2 20 3 21 4 2 5 3 6 4 7 6 8 7 9 8 10 11 11 12 12
REMARK SMILES IDX 13 13 14 14 18 15 16 16 15 17 17 19 9 21 1 23 5 25
REMARK H PARENT 15 18 17 20 9 22 1 24 5 26
REMARK Flexibility Score: inf
ROOT
ATOM      1  C   UNL     1     -36.568  -9.597  21.499  1.00  0.00     0.402 A 
ATOM      2  O   UNL     1     -35.625  -8.750  21.904  1.00  0.00    -0.202 OA
ATOM      3  C   UNL     1     -34.400  -9.132  22.248  1.00  0.00     0.368 A 
ATOM      4  C   UNL     1     -33.476  -8.167  22.658  1.00  0.00     0.162 A 
ATOM      5  C   UNL     1     -32.180  -8.541  23.023  1.00  0.00     0.128 A 
ATOM      6  C   UNL     1     -31.806  -9.886  22.979  1.00  0.00     0.093 A 
ATOM      7  C   UNL     1     -32.713 -10.873  22.572  1.00  0.00     0.136 A 
ATOM      8  C   UNL     1     -34.030 -10.499  22.202  1.00  0.00     0.125 A 
ATOM      9  C   UNL     1     -35.009 -11.420  21.794  1.00  0.00     0.078 A 
ATOM     10  C   UNL     1     -36.289 -10.975  21.450  1.00  0.00     0.223 A 
ENDROOT
BRANCH   1  11
ATOM     11  C   UNL     1     -37.893  -9.046  21.132  1.00  0.00     0.087 A 
ATOM     12  C   UNL     1     -38.245  -8.819  19.789  1.00  0.00     0.022 A 
ATOM     13  C   UNL     1     -39.492  -8.277  19.469  1.00  0.00     0.051 A 
ATOM     14  C   UNL     1     -40.399  -7.941  20.483  1.00  0.00     0.157 A 
ATOM     15  C   UNL     1     -38.797  -8.688  22.145  1.00  0.00     0.068 A 
ATOM     16  C   UNL     1     -40.048  -8.145  21.828  1.00  0.00     0.158 A 
BRANCH  14  17
ATOM     17  O   UNL     1     -41.643  -7.402  20.159  1.00  0.00    -0.504 OA
ATOM     18  H   UNL     1     -42.459  -7.989  20.032  1.00  0.00     0.293 HD
ENDBRANCH  14  17
BRANCH  16  19
ATOM     19  O   UNL     1     -40.924  -7.815  22.860  1.00  0.00    -0.504 OA
ATOM     20  H   UNL     1     -41.453  -8.519  23.362  1.00  0.00     0.293 HD
ENDBRANCH  16  19
ENDBRANCH   1  11
BRANCH  10  21
ATOM     21  O   UNL     1     -37.276 -11.895  21.093  1.00  0.00    -0.500 OA
ATOM     22  H   UNL     1     -37.246 -12.857  21.408  1.00  0.00     0.294 HD
ENDBRANCH  10  21
BRANCH   5  23
ATOM     23  O   UNL     1     -31.254  -7.585  23.433  1.00  0.00    -0.507 OA
ATOM     24  H   UNL     1     -30.257  -7.729  23.317  1.00  0.00     0.293 HD
ENDBRANCH   5  23
BRANCH   7  25
ATOM     25  O   UNL     1     -32.260 -12.195  22.552  1.00  0.00    -0.507 OA
ATOM     26  H   UNL     1     -32.706 -12.944  22.042  1.00  0.00     0.293 HD
ENDBRANCH   7  25
TORSDOF 6
ENDMDL
MODEL 3
REMARK VINA RESULT:    -6.691      3.383      6.101
REMARK INTER + INTRA:          -8.367
REMARK INTER:                  -8.538
REMARK INTRA:                   0.171
REMARK UNBOUND:                -0.307
REMARK SMILES Oc1cc(O)c2cc(O)c(-c3ccc(O)c(O)c3)[o+]c2c1
REMARK SMILES IDX 10 1 19 2 20 3 21 4 2 5 3 6 4 7 6 8 7 9 8 10 11 11 12 12
REMARK SMILES IDX 13 13 14 14 18 15 16 16 15 17 17 19 9 21 1 23 5 25
REMARK H PARENT 15 18 17 20 9 22 1 24 5 26
REMARK Flexibility Score: inf
ROOT
ATOM      1  C   UNL     1     -37.468  -8.113  20.035  1.00  0.00     0.402 A 
ATOM      2  O   UNL     1     -36.489  -7.243  20.272  1.00  0.00    -0.202 OA
ATOM      3  C   UNL     1     -36.504  -5.990  19.830  1.00  0.00     0.368 A 
ATOM      4  C   UNL     1     -35.430  -5.149  20.133  1.00  0.00     0.162 A 
ATOM      5  C   UNL     1     -35.420  -3.826  19.684  1.00  0.00     0.128 A 
ATOM      6  C   UNL     1     -36.490  -3.341  18.927  1.00  0.00     0.093 A 
ATOM      7  C   UNL     1     -37.578  -4.163  18.610  1.00  0.00     0.136 A 
ATOM      8  C   UNL     1     -37.592  -5.507  19.062  1.00  0.00     0.125 A 
ATOM      9  C   UNL     1     -38.634  -6.407  18.781  1.00  0.00     0.078 A 
ATOM     10  C   UNL     1     -38.574  -7.720  19.258  1.00  0.00     0.223 A 
ENDROOT
BRANCH   1  11
ATOM     11  C   UNL     1     -37.341  -9.479  20.591  1.00  0.00     0.087 A 
ATOM     12  C   UNL     1     -38.471 -10.222  20.976  1.00  0.00     0.022 A 
ATOM     13  C   UNL     1     -38.324 -11.500  21.520  1.00  0.00     0.051 A 
ATOM     14  C   UNL     1     -37.048 -12.050  21.701  1.00  0.00     0.157 A 
ATOM     15  C   UNL     1     -36.063 -10.025  20.794  1.00  0.00     0.068 A 
ATOM     16  C   UNL     1     -35.912 -11.306  21.339  1.00  0.00     0.158 A 
BRANCH  14  17
ATOM     17  O   UNL     1     -36.906 -13.326  22.242  1.00  0.00    -0.504 OA
ATOM     18  H   UNL     1     -37.566 -14.066  22.038  1.00  0.00     0.293 HD
ENDBRANCH  14  17
BRANCH  16  19
ATOM     19  O   UNL     1     -34.628 -11.821  21.513  1.00  0.00    -0.504 OA
ATOM     20  H   UNL     1     -33.872 -11.263  21.893  1.00  0.00     0.293 HD
ENDBRANCH  16  19
ENDBRANCH   1  11
BRANCH  10  21
ATOM     21  O   UNL     1     -39.584  -8.627  18.937  1.00  0.00    -0.500 OA
ATOM     22  H   UNL     1     -40.196  -8.483  18.142  1.00  0.00     0.294 HD
ENDBRANCH  10  21
BRANCH   5  23
ATOM     23  O   UNL     1     -34.353  -2.982  19.982  1.00  0.00    -0.507 OA
ATOM     24  H   UNL     1     -33.406  -3.203  19.695  1.00  0.00     0.293 HD
ENDBRANCH   5  23
BRANCH   7  25
ATOM     25  O   UNL     1     -38.610  -3.601  17.852  1.00  0.00    -0.507 OA
ATOM     26  H   UNL     1     -38.494  -3.218  16.925  1.00  0.00     0.293 HD
ENDBRANCH   7  25
TORSDOF 6
ENDMDL
MODEL 4
REMARK VINA RESULT:    -6.531      1.696      7.042
REMARK INTER + INTRA:          -8.175
REMARK INTER:                  -7.854
REMARK INTRA:                  -0.321
REMARK UNBOUND:                -0.307
REMARK SMILES Oc1cc(O)c2cc(O)c(-c3ccc(O)c(O)c3)[o+]c2c1
REMARK SMILES IDX 10 1 19 2 20 3 21 4 2 5 3 6 4 7 6 8 7 9 8 10 11 11 12 12
REMARK SMILES IDX 13 13 14 14 18 15 16 16 15 17 17 19 9 21 1 23 5 25
REMARK H PARENT 15 18 17 20 9 22 1 24 5 26
REMARK Flexibility Score: inf
ROOT
ATOM      1  C   UNL     1     -35.117  -8.841  22.292  1.00  0.00     0.402 A 
ATOM      2  O   UNL     1     -36.032  -8.544  23.211  1.00  0.00    -0.202 OA
ATOM      3  C   UNL     1     -37.333  -8.474  22.951  1.00  0.00     0.368 A 
ATOM      4  C   UNL     1     -38.217  -8.157  23.985  1.00  0.00     0.162 A 
ATOM      5  C   UNL     1     -39.591  -8.078  23.740  1.00  0.00     0.128 A 
ATOM      6  C   UNL     1     -40.083  -8.318  22.455  1.00  0.00     0.093 A 
ATOM      7  C   UNL     1     -39.217  -8.637  21.401  1.00  0.00     0.136 A 
ATOM      8  C   UNL     1     -37.822  -8.716  21.644  1.00  0.00     0.125 A 
ATOM      9  C   UNL     1     -36.880  -9.016  20.647  1.00  0.00     0.078 A 
ATOM     10  C   UNL     1     -35.519  -9.071  20.962  1.00  0.00     0.223 A 
ENDROOT
BRANCH   1  11
ATOM     11  C   UNL     1     -33.698  -8.900  22.708  1.00  0.00     0.087 A 
ATOM     12  C   UNL     1     -32.924  -7.732  22.836  1.00  0.00     0.022 A 
ATOM     13  C   UNL     1     -31.580  -7.815  23.208  1.00  0.00     0.051 A 
ATOM     14  C   UNL     1     -30.986  -9.062  23.444  1.00  0.00     0.157 A 
ATOM     15  C   UNL     1     -33.093 -10.148  22.925  1.00  0.00     0.068 A 
ATOM     16  C   UNL     1     -31.746 -10.234  23.299  1.00  0.00     0.158 A 
BRANCH  14  17
ATOM     17  O   UNL     1     -29.645  -9.139  23.817  1.00  0.00    -0.504 OA
ATOM     18  H   UNL     1     -29.032  -8.334  23.766  1.00  0.00     0.293 HD
ENDBRANCH  14  17
BRANCH  16  19
ATOM     19  O   UNL     1     -31.183 -11.490  23.519  1.00  0.00    -0.504 OA
ATOM     20  H   UNL     1     -30.266 -11.738  23.167  1.00  0.00     0.293 HD
ENDBRANCH  16  19
ENDBRANCH   1  11
BRANCH  10  21
ATOM     21  O   UNL     1     -34.578  -9.320  19.962  1.00  0.00    -0.500 OA
ATOM     22  H   UNL     1     -34.819  -9.831  19.121  1.00  0.00     0.294 HD
ENDBRANCH  10  21
BRANCH   5  23
ATOM     23  O   UNL     1     -40.479  -7.763  24.766  1.00  0.00    -0.507 OA
ATOM     24  H   UNL     1     -41.195  -8.415  25.067  1.00  0.00     0.293 HD
ENDBRANCH   5  23
BRANCH   7  25
ATOM     25  O   UNL     1     -39.789  -8.866  20.146  1.00  0.00    -0.507 OA
ATOM     26  H   UNL     1     -40.708  -9.257  20.000  1.00  0.00     0.293 HD
ENDBRANCH   7  25
TORSDOF 6
ENDMDL
MODEL 5
REMARK VINA RESULT:    -6.512      1.162      2.714
REMARK INTER + INTRA:          -8.152
REMARK INTER:                  -7.813
REMARK INTRA:                  -0.339
REMARK UNBOUND:                -0.307
REMARK SMILES Oc1cc(O)c2cc(O)c(-c3ccc(O)c(O)c3)[o+]c2c1
REMARK SMILES IDX 10 1 19 2 20 3 21 4 2 5 3 6 4 7 6 8 7 9 8 10 11 11 12 12
REMARK SMILES IDX 13 13 14 14 18 15 16 16 15 17 17 19 9 21 1 23 5 25
REMARK H PARENT 15 18 17 20 9 22 1 24 5 26
REMARK Flexibility Score: inf
ROOT
ATOM      1  C   UNL     1     -36.399  -8.042  22.040  1.00  0.00     0.402 A 
ATOM      2  O   UNL     1     -35.809  -9.234  22.084  1.00  0.00    -0.202 OA
ATOM      3  C   UNL     1     -34.517  -9.400  22.346  1.00  0.00     0.368 A 
ATOM      4  C   UNL     1     -33.990 -10.694  22.373  1.00  0.00     0.162 A 
ATOM      5  C   UNL     1     -32.634 -10.898  22.648  1.00  0.00     0.128 A 
ATOM      6  C   UNL     1     -31.803  -9.803  22.896  1.00  0.00     0.093 A 
ATOM      7  C   UNL     1     -32.307  -8.496  22.874  1.00  0.00     0.136 A 
ATOM      8  C   UNL     1     -33.681  -8.284  22.594  1.00  0.00     0.125 A 
ATOM      9  C   UNL     1     -34.271  -7.010  22.538  1.00  0.00     0.078 A 
ATOM     10  C   UNL     1     -35.633  -6.880  22.250  1.00  0.00     0.223 A 
ENDROOT
BRANCH   1  11
ATOM     11  C   UNL     1     -37.850  -7.988  21.749  1.00  0.00     0.087 A 
ATOM     12  C   UNL     1     -38.807  -8.162  22.764  1.00  0.00     0.022 A 
ATOM     13  C   UNL     1     -40.170  -8.130  22.461  1.00  0.00     0.051 A 
ATOM     14  C   UNL     1     -40.598  -7.939  21.140  1.00  0.00     0.157 A 
ATOM     15  C   UNL     1     -38.282  -7.819  20.424  1.00  0.00     0.068 A 
ATOM     16  C   UNL     1     -39.647  -7.786  20.116  1.00  0.00     0.158 A 
BRANCH  14  17
ATOM     17  O   UNL     1     -41.959  -7.907  20.842  1.00  0.00    -0.504 OA
ATOM     18  H   UNL     1     -42.578  -7.223  21.261  1.00  0.00     0.293 HD
ENDBRANCH  14  17
BRANCH  16  19
ATOM     19  O   UNL     1     -40.039  -7.602  18.791  1.00  0.00    -0.504 OA
ATOM     20  H   UNL     1     -40.060  -6.686  18.359  1.00  0.00     0.293 HD
ENDBRANCH  16  19
ENDBRANCH   1  11
BRANCH  10  21
ATOM     21  O   UNL     1     -36.208  -5.613  22.146  1.00  0.00    -0.500 OA
ATOM     22  H   UNL     1     -35.655  -4.796  21.916  1.00  0.00     0.294 HD
ENDBRANCH  10  21
BRANCH   5  23
ATOM     23  O   UNL     1     -32.101 -12.184  22.677  1.00  0.00    -0.507 OA
ATOM     24  H   UNL     1     -31.639 -12.585  21.868  1.00  0.00     0.293 HD
ENDBRANCH   5  23
BRANCH   7  25
ATOM     25  O   UNL     1     -31.411  -7.457  23.137  1.00  0.00    -0.507 OA
ATOM     26  H   UNL     1     -30.865  -6.983  22.432  1.00  0.00     0.293 HD
ENDBRANCH   7  25
TORSDOF 6
ENDMDL
MODEL 6
REMARK VINA RESULT:    -6.509      3.316      6.175
REMARK INTER + INTRA:          -8.148
REMARK INTER:                  -7.907
REMARK INTRA:                  -0.241
REMARK UNBOUND:                -0.307
REMARK SMILES Oc1cc(O)c2cc(O)c(-c3ccc(O)c(O)c3)[o+]c2c1
REMARK SMILES IDX 10 1 19 2 20 3 21 4 2 5 3 6 4 7 6 8 7 9 8 10 11 11 12 12
REMARK SMILES IDX 13 13 14 14 18 15 16 16 15 17 17 19 9 21 1 23 5 25
REMARK H PARENT 15 18 17 20 9 22 1 24 5 26
REMARK Flexibility Score: inf
ROOT
ATOM      1  C   UNL     1     -36.382  -7.953  21.384  1.00  0.00     0.402 A 
ATOM      2  O   UNL     1     -36.874  -7.324  20.320  1.00  0.00    -0.202 OA
ATOM      3  C   UNL     1     -36.882  -6.001  20.193  1.00  0.00     0.368 A 
ATOM      4  C   UNL     1     -37.419  -5.432  19.035  1.00  0.00     0.162 A 
ATOM      5  C   UNL     1     -37.438  -4.044  18.874  1.00  0.00     0.128 A 
ATOM      6  C   UNL     1     -36.918  -3.221  19.876  1.00  0.00     0.093 A 
ATOM      7  C   UNL     1     -36.375  -3.766  21.047  1.00  0.00     0.136 A 
ATOM      8  C   UNL     1     -36.355  -5.174  21.215  1.00  0.00     0.125 A 
ATOM      9  C   UNL     1     -35.844  -5.808  22.360  1.00  0.00     0.078 A 
ATOM     10  C   UNL     1     -35.863  -7.203  22.456  1.00  0.00     0.223 A 
ENDROOT
BRANCH   1  11
ATOM     11  C   UNL     1     -36.421  -9.433  21.403  1.00  0.00     0.087 A 
ATOM     12  C   UNL     1     -35.240 -10.197  21.385  1.00  0.00     0.022 A 
ATOM     13  C   UNL     1     -35.302 -11.592  21.379  1.00  0.00     0.051 A 
ATOM     14  C   UNL     1     -36.542 -12.245  21.377  1.00  0.00     0.157 A 
ATOM     15  C   UNL     1     -37.660 -10.092  21.379  1.00  0.00     0.068 A 
ATOM     16  C   UNL     1     -37.727 -11.490  21.374  1.00  0.00     0.158 A 
BRANCH  14  17
ATOM     17  O   UNL     1     -36.599 -13.638  21.373  1.00  0.00    -0.504 OA
ATOM     18  H   UNL     1     -35.811 -14.203  21.666  1.00  0.00     0.293 HD
ENDBRANCH  14  17
BRANCH  16  19
ATOM     19  O   UNL     1     -38.975 -12.109  21.365  1.00  0.00    -0.504 OA
ATOM     20  H   UNL     1     -39.566 -12.142  22.188  1.00  0.00     0.293 HD
ENDBRANCH  16  19
ENDBRANCH   1  11
BRANCH  10  21
ATOM     21  O   UNL     1     -35.401  -7.831  23.613  1.00  0.00    -0.500 OA
ATOM     22  H   UNL     1     -35.951  -7.849  24.464  1.00  0.00     0.294 HD
ENDBRANCH  10  21
BRANCH   5  23
ATOM     23  O   UNL     1     -37.970  -3.469  17.723  1.00  0.00    -0.507 OA
ATOM     24  H   UNL     1     -38.825  -3.819  17.303  1.00  0.00     0.293 HD
ENDBRANCH   5  23
BRANCH   7  25
ATOM     25  O   UNL     1     -35.873  -2.875  21.999  1.00  0.00    -0.507 OA
ATOM     26  H   UNL     1     -35.097  -3.074  22.614  1.00  0.00     0.293 HD
ENDBRANCH   7  25
TORSDOF 6
ENDMDL
MODEL 7
REMARK VINA RESULT:    -6.508      1.448      7.092
REMARK INTER + INTRA:          -8.147
REMARK INTER:                  -7.835
REMARK INTRA:                  -0.312
REMARK UNBOUND:                -0.307
REMARK SMILES Oc1cc(O)c2cc(O)c(-c3ccc(O)c(O)c3)[o+]c2c1
REMARK SMILES IDX 10 1 19 2 20 3 21 4 2 5 3 6 4 7 6 8 7 9 8 10 11 11 12 12
REMARK SMILES IDX 13 13 14 14 18 15 16 16 15 17 17 19 9 21 1 23 5 25
REMARK H PARENT 15 18 17 20 9 22 1 24 5 26
REMARK Flexibility Score: inf
ROOT
ATOM      1  C   UNL     1     -36.303  -8.649  21.974  1.00  0.00     0.402 A 
ATOM      2  O   UNL     1     -36.646  -8.288  20.740  1.00  0.00    -0.202 OA
ATOM      3  C   UNL     1     -37.899  -8.037  20.375  1.00  0.00     0.368 A 
ATOM      4  C   UNL     1     -38.160  -7.661  19.055  1.00  0.00     0.162 A 
ATOM      5  C   UNL     1     -39.468  -7.388  18.645  1.00  0.00     0.128 A 
ATOM      6  C   UNL     1     -40.520  -7.494  19.558  1.00  0.00     0.093 A 
ATOM      7  C   UNL     1     -40.285  -7.870  20.887  1.00  0.00     0.136 A 
ATOM      8  C   UNL     1     -38.959  -8.149  21.308  1.00  0.00     0.125 A 
ATOM      9  C   UNL     1     -38.631  -8.545  22.615  1.00  0.00     0.078 A 
ATOM     10  C   UNL     1     -37.301  -8.808  22.954  1.00  0.00     0.223 A 
ENDROOT
BRANCH   1  11
ATOM     11  C   UNL     1     -34.871  -8.891  22.260  1.00  0.00     0.087 A 
ATOM     12  C   UNL     1     -33.974  -7.826  22.460  1.00  0.00     0.022 A 
ATOM     13  C   UNL     1     -32.623  -8.078  22.706  1.00  0.00     0.051 A 
ATOM     14  C   UNL     1     -32.143  -9.394  22.742  1.00  0.00     0.157 A 
ATOM     15  C   UNL     1     -34.382 -10.207  22.276  1.00  0.00     0.068 A 
ATOM     16  C   UNL     1     -33.028 -10.463  22.522  1.00  0.00     0.158 A 
BRANCH  14  17
ATOM     17  O   UNL     1     -30.794  -9.642  22.989  1.00  0.00    -0.504 OA
ATOM     18  H   UNL     1     -30.065  -9.072  22.576  1.00  0.00     0.293 HD
ENDBRANCH  14  17
BRANCH  16  19
ATOM     19  O   UNL     1     -32.582 -11.784  22.544  1.00  0.00    -0.504 OA
ATOM     20  H   UNL     1     -31.726 -12.070  22.082  1.00  0.00     0.293 HD
ENDBRANCH  16  19
ENDBRANCH   1  11
BRANCH  10  21
ATOM     21  O   UNL     1     -36.981  -9.250  24.239  1.00  0.00    -0.500 OA
ATOM     22  H   UNL     1     -37.140  -8.671  25.055  1.00  0.00     0.294 HD
ENDBRANCH  10  21
BRANCH   5  23
ATOM     23  O   UNL     1     -39.737  -7.012  17.331  1.00  0.00    -0.507 OA
ATOM     24  H   UNL     1     -40.056  -6.077  17.102  1.00  0.00     0.293 HD
ENDBRANCH   5  23
BRANCH   7  25
ATOM     25  O   UNL     1     -41.390  -7.949  21.738  1.00  0.00    -0.507 OA
ATOM     26  H   UNL     1     -41.741  -7.180  22.292  1.00  0.00     0.293 HD
ENDBRANCH   7  25
TORSDOF 6
ENDMDL
MODEL 8
REMARK VINA RESULT:    -6.443      2.313      7.744
REMARK INTER + INTRA:          -8.068
REMARK INTER:                  -7.975
REMARK INTRA:                  -0.094
REMARK UNBOUND:                -0.307
REMARK SMILES Oc1cc(O)c2cc(O)c(-c3ccc(O)c(O)c3)[o+]c2c1
REMARK SMILES IDX 10 1 19 2 20 3 21 4 2 5 3 6 4 7 6 8 7 9 8 10 11 11 12 12
REMARK SMILES IDX 13 13 14 14 18 15 16 16 15 17 17 19 9 21 1 23 5 25
REMARK H PARENT 15 18 17 20 9 22 1 24 5 26
REMARK Flexibility Score: inf
ROOT
ATOM      1  C   UNL     1     -33.154  -9.475  22.181  1.00  0.00     0.402 A 
ATOM      2  O   UNL     1     -34.186 -10.314  22.228  1.00  0.00    -0.202 OA
ATOM      3  C   UNL     1     -35.358 -10.061  21.656  1.00  0.00     0.368 A 
ATOM      4  C   UNL     1     -36.382 -11.006  21.758  1.00  0.00     0.162 A 
ATOM      5  C   UNL     1     -37.625 -10.768  21.164  1.00  0.00     0.128 A 
ATOM      6  C   UNL     1     -37.844  -9.579  20.465  1.00  0.00     0.093 A 
ATOM      7  C   UNL     1     -36.834  -8.615  20.349  1.00  0.00     0.136 A 
ATOM      8  C   UNL     1     -35.572  -8.851  20.952  1.00  0.00     0.125 A 
ATOM      9  C   UNL     1     -34.507  -7.937  20.898  1.00  0.00     0.078 A 
ATOM     10  C   UNL     1     -33.293  -8.239  21.522  1.00  0.00     0.223 A 
ENDROOT
BRANCH   1  11
ATOM     11  C   UNL     1     -31.895  -9.875  22.849  1.00  0.00     0.087 A 
ATOM     12  C   UNL     1     -31.860 -10.188  24.220  1.00  0.00     0.022 A 
ATOM     13  C   UNL     1     -30.656 -10.540  24.833  1.00  0.00     0.051 A 
ATOM     14  C   UNL     1     -29.467 -10.573  24.092  1.00  0.00     0.157 A 
ATOM     15  C   UNL     1     -30.698  -9.889  22.116  1.00  0.00     0.068 A 
ATOM     16  C   UNL     1     -29.489 -10.242  22.727  1.00  0.00     0.158 A 
BRANCH  14  17
ATOM     17  O   UNL     1     -28.267 -10.927  24.707  1.00  0.00    -0.504 OA
ATOM     18  H   UNL     1     -28.238 -11.591  25.472  1.00  0.00     0.293 HD
ENDBRANCH  14  17
BRANCH  16  19
ATOM     19  O   UNL     1     -28.323 -10.258  21.963  1.00  0.00    -0.504 OA
ATOM     20  H   UNL     1     -28.336 -10.127  20.958  1.00  0.00     0.293 HD
ENDBRANCH  16  19
ENDBRANCH   1  11
BRANCH  10  21
ATOM     21  O   UNL     1     -32.251  -7.311  21.511  1.00  0.00    -0.500 OA
ATOM     22  H   UNL     1     -32.058  -6.737  20.699  1.00  0.00     0.294 HD
ENDBRANCH  10  21
BRANCH   5  23
ATOM     23  O   UNL     1     -38.650 -11.705  21.261  1.00  0.00    -0.507 OA
ATOM     24  H   UNL     1     -39.619 -11.450  21.104  1.00  0.00     0.293 HD
ENDBRANCH   5  23
BRANCH   7  25
ATOM     25  O   UNL     1     -37.133  -7.454  19.631  1.00  0.00    -0.507 OA
ATOM     26  H   UNL     1     -38.064  -7.170  19.365  1.00  0.00     0.293 HD
ENDBRANCH   7  25
TORSDOF 6
ENDMDL
MODEL 9
REMARK VINA RESULT:    -6.400      2.277      4.378
REMARK INTER + INTRA:          -8.017
REMARK INTER:                  -8.373
REMARK INTRA:                   0.356
REMARK UNBOUND:                -0.307
REMARK SMILES Oc1cc(O)c2cc(O)c(-c3ccc(O)c(O)c3)[o+]c2c1
REMARK SMILES IDX 10 1 19 2 20 3 21 4 2 5 3 6 4 7 6 8 7 9 8 10 11 11 12 12
REMARK SMILES IDX 13 13 14 14 18 15 16 16 15 17 17 19 9 21 1 23 5 25
REMARK H PARENT 15 18 17 20 9 22 1 24 5 26
REMARK Flexibility Score: inf
ROOT
ATOM      1  C   UNL     1     -33.764  -9.376  22.375  1.00  0.00     0.402 A 
ATOM      2  O   UNL     1     -32.874 -10.301  22.725  1.00  0.00    -0.202 OA
ATOM      3  C   UNL     1     -31.628 -10.015  23.088  1.00  0.00     0.368 A 
ATOM      4  C   UNL     1     -30.767 -11.057  23.441  1.00  0.00     0.162 A 
ATOM      5  C   UNL     1     -29.452 -10.785  23.829  1.00  0.00     0.128 A 
ATOM      6  C   UNL     1     -28.996  -9.465  23.863  1.00  0.00     0.093 A 
ATOM      7  C   UNL     1     -29.839  -8.403  23.513  1.00  0.00     0.136 A 
ATOM      8  C   UNL     1     -31.174  -8.674  23.117  1.00  0.00     0.125 A 
ATOM      9  C   UNL     1     -32.085  -7.675  22.736  1.00  0.00     0.078 A 
ATOM     10  C   UNL     1     -33.384  -8.020  22.353  1.00  0.00     0.223 A 
ENDROOT
BRANCH   1  11
ATOM     11  C   UNL     1     -35.126  -9.819  22.001  1.00  0.00     0.087 A 
ATOM     12  C   UNL     1     -36.190  -8.906  21.894  1.00  0.00     0.022 A 
ATOM     13  C   UNL     1     -37.472  -9.353  21.562  1.00  0.00     0.051 A 
ATOM     14  C   UNL     1     -37.713 -10.716  21.346  1.00  0.00     0.157 A 
ATOM     15  C   UNL     1     -35.377 -11.187  21.804  1.00  0.00     0.068 A 
ATOM     16  C   UNL     1     -36.660 -11.637  21.472  1.00  0.00     0.158 A 
BRANCH  14  17
ATOM     17  O   UNL     1     -38.993 -11.157  21.014  1.00  0.00    -0.504 OA
ATOM     18  H   UNL     1     -39.163 -12.105  20.700  1.00  0.00     0.293 HD
ENDBRANCH  14  17
BRANCH  16  19
ATOM     19  O   UNL     1     -36.868 -13.001  21.270  1.00  0.00    -0.504 OA
ATOM     20  H   UNL     1     -36.847 -13.418  20.347  1.00  0.00     0.293 HD
ENDBRANCH  16  19
ENDBRANCH   1  11
BRANCH  10  21
ATOM     21  O   UNL     1     -34.274  -7.033  21.928  1.00  0.00    -0.500 OA
ATOM     22  H   UNL     1     -34.261  -6.679  20.979  1.00  0.00     0.294 HD
ENDBRANCH  10  21
BRANCH   5  23
ATOM     23  O   UNL     1     -28.588 -11.818  24.183  1.00  0.00    -0.507 OA
ATOM     24  H   UNL     1     -27.753 -12.019  23.644  1.00  0.00     0.293 HD
ENDBRANCH   5  23
BRANCH   7  25
ATOM     25  O   UNL     1     -29.308  -7.112  23.576  1.00  0.00    -0.507 OA
ATOM     26  H   UNL     1     -29.844  -6.267  23.441  1.00  0.00     0.293 HD
ENDBRANCH   7  25
TORSDOF 6
ENDMDL
