MODEL 1
REMARK VINA RESULT:    -3.566      0.000      0.000
REMARK INTER + INTRA:         -11.480
REMARK INTER:                  -7.736
REMARK INTRA:                  -3.744
REMARK UNBOUND:                -3.744
REMARK SMILES CCCCCCCCCCCCCCCCCCCCCC(=O)[O-]
REMARK SMILES IDX 12 1 11 2 10 3 9 4 8 5 7 6 6 7 5 8 4 9 3 10 2 11 1 12 13 13
REMARK SMILES IDX 14 14 15 15 16 16 17 17 18 18 19 19 20 20 21 21 22 22 23 23
REMARK SMILES IDX 24 24
REMARK H PARENT
REMARK Flexibility Score: inf
ROOT
ATOM      1  C   UNL     1       6.291   5.149  49.586  1.00  0.00     0.000 C 
ENDROOT
BRANCH   1   2
ATOM      2  C   UNL     1       6.729   4.425  48.302  1.00  0.00     0.000 C 
BRANCH   2   3
ATOM      3  C   UNL     1       5.759   3.308  47.885  1.00  0.00     0.000 C 
BRANCH   3   4
ATOM      4  C   UNL     1       6.475   2.001  47.490  1.00  0.00    -0.000 C 
BRANCH   4   5
ATOM      5  C   UNL     1       7.070   1.200  48.664  1.00  0.00    -0.000 C 
BRANCH   5   6
ATOM      6  C   UNL     1       6.028   0.331  49.388  1.00  0.00    -0.000 C 
BRANCH   6   7
ATOM      7  C   UNL     1       6.085   0.479  50.917  1.00  0.00    -0.000 C 
BRANCH   7   8
ATOM      8  C   UNL     1       6.025   1.947  51.369  1.00  0.00    -0.000 C 
BRANCH   8   9
ATOM      9  C   UNL     1       4.624   2.369  51.846  1.00  0.00    -0.000 C 
BRANCH   9  10
ATOM     10  C   UNL     1       3.666   2.749  50.695  1.00  0.00    -0.000 C 
BRANCH  10  11
ATOM     11  C   UNL     1       2.618   3.783  51.131  1.00  0.00    -0.003 C 
ATOM     12  C   UNL     1       3.279   5.064  51.631  1.00  0.00     0.004 C 
ENDBRANCH  10  11
ENDBRANCH   9  10
ENDBRANCH   8   9
ENDBRANCH   7   8
ENDBRANCH   6   7
ENDBRANCH   5   6
ENDBRANCH   4   5
ENDBRANCH   3   4
ENDBRANCH   2   3
ENDBRANCH   1   2
BRANCH   1  13
ATOM     13  C   UNL     1       7.438   5.398  50.588  1.00  0.00     0.000 C 
BRANCH  13  14
ATOM     14  C   UNL     1       6.980   6.218  51.808  1.00  0.00     0.000 C 
BRANCH  14  15
ATOM     15  C   UNL     1       7.552   7.647  51.804  1.00  0.00     0.000 C 
BRANCH  15  16
ATOM     16  C   UNL     1       6.467   8.749  51.837  1.00  0.00     0.000 C 
BRANCH  16  17
ATOM     17  C   UNL     1       5.066   8.247  51.437  1.00  0.00     0.000 C 
BRANCH  17  18
ATOM     18  C   UNL     1       4.647   8.589  49.995  1.00  0.00     0.000 C 
BRANCH  18  19
ATOM     19  C   UNL     1       5.251   9.893  49.434  1.00  0.00     0.000 C 
BRANCH  19  20
ATOM     20  C   UNL     1       6.099   9.725  48.156  1.00  0.00     0.006 C 
BRANCH  20  21
ATOM     21  C   UNL     1       6.727   8.332  47.986  1.00  0.00     0.053 C 
BRANCH  21  22
ATOM     22  C   UNL     1       8.202   8.347  48.248  1.00  0.00     0.041 C 
ATOM     23  O   UNL     1       8.740   9.349  48.790  1.00  0.00    -0.550 OA
ATOM     24  O   UNL     1       8.991   7.277  47.847  1.00  0.00    -0.550 OA
ENDBRANCH  21  22
ENDBRANCH  20  21
ENDBRANCH  19  20
ENDBRANCH  18  19
ENDBRANCH  17  18
ENDBRANCH  16  17
ENDBRANCH  15  16
ENDBRANCH  14  15
ENDBRANCH  13  14
ENDBRANCH   1  13
TORSDOF 20
ENDMDL
MODEL 2
REMARK VINA RESULT:    -3.549      3.181      6.963
REMARK INTER + INTRA:         -11.443
REMARK INTER:                  -7.628
REMARK INTRA:                  -3.815
REMARK UNBOUND:                -3.744
REMARK SMILES CCCCCCCCCCCCCCCCCCCCCC(=O)[O-]
REMARK SMILES IDX 12 1 11 2 10 3 9 4 8 5 7 6 6 7 5 8 4 9 3 10 2 11 1 12 13 13
REMARK SMILES IDX 14 14 15 15 16 16 17 17 18 18 19 19 20 20 21 21 22 22 23 23
REMARK SMILES IDX 24 24
REMARK H PARENT
REMARK Flexibility Score: inf
ROOT
ATOM      1  C   UNL     1       5.878   3.308  47.789  1.00  0.00     0.000 C 
ENDROOT
BRANCH   1   2
ATOM      2  C   UNL     1       6.705   4.469  48.368  1.00  0.00     0.000 C 
BRANCH   2   3
ATOM      3  C   UNL     1       6.264   4.868  49.785  1.00  0.00     0.000 C 
BRANCH   3   4
ATOM      4  C   UNL     1       7.426   4.878  50.798  1.00  0.00    -0.000 C 
BRANCH   4   5
ATOM      5  C   UNL     1       7.496   6.125  51.702  1.00  0.00    -0.000 C 
BRANCH   5   6
ATOM      6  C   UNL     1       6.117   6.574  52.213  1.00  0.00    -0.000 C 
BRANCH   6   7
ATOM      7  C   UNL     1       5.926   8.099  52.154  1.00  0.00    -0.000 C 
BRANCH   7   8
ATOM      8  C   UNL     1       4.726   8.509  51.284  1.00  0.00    -0.000 C 
BRANCH   8   9
ATOM      9  C   UNL     1       5.021   8.412  49.777  1.00  0.00    -0.000 C 
BRANCH   9  10
ATOM     10  C   UNL     1       6.462   8.817  49.399  1.00  0.00    -0.000 C 
BRANCH  10  11
ATOM     11  C   UNL     1       6.843   8.358  47.984  1.00  0.00    -0.003 C 
ATOM     12  C   UNL     1       8.239   7.742  47.960  1.00  0.00     0.004 C 
ENDBRANCH  10  11
ENDBRANCH   9  10
ENDBRANCH   8   9
ENDBRANCH   7   8
ENDBRANCH   6   7
ENDBRANCH   5   6
ENDBRANCH   4   5
ENDBRANCH   3   4
ENDBRANCH   2   3
ENDBRANCH   1   2
BRANCH   1  13
ATOM     13  C   UNL     1       6.677   2.001  47.601  1.00  0.00     0.000 C 
BRANCH  13  14
ATOM     14  C   UNL     1       6.332   0.947  48.669  1.00  0.00     0.000 C 
BRANCH  14  15
ATOM     15  C   UNL     1       7.026   1.224  50.014  1.00  0.00     0.000 C 
BRANCH  15  16
ATOM     16  C   UNL     1       6.256   0.667  51.234  1.00  0.00     0.000 C 
BRANCH  16  17
ATOM     17  C   UNL     1       6.404   1.530  52.503  1.00  0.00     0.000 C 
BRANCH  17  18
ATOM     18  C   UNL     1       5.361   2.655  52.642  1.00  0.00     0.000 C 
BRANCH  18  19
ATOM     19  C   UNL     1       3.919   2.256  52.262  1.00  0.00     0.000 C 
BRANCH  19  20
ATOM     20  C   UNL     1       3.320   3.026  51.068  1.00  0.00     0.006 C 
BRANCH  20  21
ATOM     21  C   UNL     1       3.110   2.179  49.803  1.00  0.00     0.053 C 
BRANCH  21  22
ATOM     22  C   UNL     1       2.423   0.881  50.105  1.00  0.00     0.041 C 
ATOM     23  O   UNL     1       1.233   0.874  50.517  1.00  0.00    -0.550 OA
ATOM     24  O   UNL     1       3.115  -0.316  49.983  1.00  0.00    -0.550 OA
ENDBRANCH  21  22
ENDBRANCH  20  21
ENDBRANCH  19  20
ENDBRANCH  18  19
ENDBRANCH  17  18
ENDBRANCH  16  17
ENDBRANCH  15  16
ENDBRANCH  14  15
ENDBRANCH  13  14
ENDBRANCH   1  13
TORSDOF 20
ENDMDL
MODEL 3
REMARK VINA RESULT:    -3.545      0.903      2.018
REMARK INTER + INTRA:         -11.434
REMARK INTER:                  -7.843
REMARK INTRA:                  -3.591
REMARK UNBOUND:                -3.744
REMARK SMILES CCCCCCCCCCCCCCCCCCCCCC(=O)[O-]
REMARK SMILES IDX 12 1 11 2 10 3 9 4 8 5 7 6 6 7 5 8 4 9 3 10 2 11 1 12 13 13
REMARK SMILES IDX 14 14 15 15 16 16 17 17 18 18 19 19 20 20 21 21 22 22 23 23
REMARK SMILES IDX 24 24
REMARK H PARENT
REMARK Flexibility Score: inf
ROOT
ATOM      1  C   UNL     1       5.259   3.083  48.179  1.00  0.00     0.000 C 
ENDROOT
BRANCH   1   2
ATOM      2  C   UNL     1       6.596   2.427  47.795  1.00  0.00     0.000 C 
BRANCH   2   3
ATOM      3  C   UNL     1       6.915   1.181  48.637  1.00  0.00     0.000 C 
BRANCH   3   4
ATOM      4  C   UNL     1       5.670   0.573  49.312  1.00  0.00    -0.000 C 
BRANCH   4   5
ATOM      5  C   UNL     1       5.762   0.424  50.843  1.00  0.00    -0.000 C 
BRANCH   5   6
ATOM      6  C   UNL     1       6.640   1.503  51.500  1.00  0.00    -0.000 C 
BRANCH   6   7
ATOM      7  C   UNL     1       5.871   2.358  52.521  1.00  0.00    -0.000 C 
BRANCH   7   8
ATOM      8  C   UNL     1       4.350   2.315  52.298  1.00  0.00    -0.000 C 
BRANCH   8   9
ATOM      9  C   UNL     1       3.717   3.717  52.239  1.00  0.00    -0.000 C 
BRANCH   9  10
ATOM     10  C   UNL     1       2.488   3.803  51.308  1.00  0.00    -0.000 C 
BRANCH  10  11
ATOM     11  C   UNL     1       1.792   5.169  51.389  1.00  0.00    -0.003 C 
ATOM     12  C   UNL     1       2.568   6.232  50.616  1.00  0.00     0.004 C 
ENDBRANCH  10  11
ENDBRANCH   9  10
ENDBRANCH   8   9
ENDBRANCH   7   8
ENDBRANCH   6   7
ENDBRANCH   5   6
ENDBRANCH   4   5
ENDBRANCH   3   4
ENDBRANCH   2   3
ENDBRANCH   1   2
BRANCH   1  13
ATOM     13  C   UNL     1       5.397   4.250  49.179  1.00  0.00     0.000 C 
BRANCH  13  14
ATOM     14  C   UNL     1       6.816   4.847  49.187  1.00  0.00     0.000 C 
BRANCH  14  15
ATOM     15  C   UNL     1       7.383   4.997  50.610  1.00  0.00     0.000 C 
BRANCH  15  16
ATOM     16  C   UNL     1       7.485   6.465  51.084  1.00  0.00     0.000 C 
BRANCH  16  17
ATOM     17  C   UNL     1       6.118   7.127  51.342  1.00  0.00     0.000 C 
BRANCH  17  18
ATOM     18  C   UNL     1       6.000   8.579  50.843  1.00  0.00     0.000 C 
BRANCH  18  19
ATOM     19  C   UNL     1       5.337   8.738  49.458  1.00  0.00     0.000 C 
BRANCH  19  20
ATOM     20  C   UNL     1       6.281   9.204  48.330  1.00  0.00     0.006 C 
BRANCH  20  21
ATOM     21  C   UNL     1       7.208   8.108  47.782  1.00  0.00     0.053 C 
BRANCH  21  22
ATOM     22  C   UNL     1       8.646   8.373  48.112  1.00  0.00     0.041 C 
ATOM     23  O   UNL     1       8.964   9.385  48.791  1.00  0.00    -0.550 OA
ATOM     24  O   UNL     1       9.638   7.532  47.626  1.00  0.00    -0.550 OA
ENDBRANCH  21  22
ENDBRANCH  20  21
ENDBRANCH  19  20
ENDBRANCH  18  19
ENDBRANCH  17  18
ENDBRANCH  16  17
ENDBRANCH  15  16
ENDBRANCH  14  15
ENDBRANCH  13  14
ENDBRANCH   1  13
TORSDOF 20
ENDMDL
MODEL 4
REMARK VINA RESULT:    -3.453      1.584      2.502
REMARK INTER + INTRA:         -11.235
REMARK INTER:                  -7.622
REMARK INTRA:                  -3.613
REMARK UNBOUND:                -3.744
REMARK SMILES CCCCCCCCCCCCCCCCCCCCCC(=O)[O-]
REMARK SMILES IDX 12 1 11 2 10 3 9 4 8 5 7 6 6 7 5 8 4 9 3 10 2 11 1 12 13 13
REMARK SMILES IDX 14 14 15 15 16 16 17 17 18 18 19 19 20 20 21 21 22 22 23 23
REMARK SMILES IDX 24 24
REMARK H PARENT
REMARK Flexibility Score: inf
ROOT
ATOM      1  C   UNL     1       6.763   5.095  48.802  1.00  0.00     0.000 C 
ENDROOT
BRANCH   1   2
ATOM      2  C   UNL     1       5.761   3.943  48.986  1.00  0.00     0.000 C 
BRANCH   2   3
ATOM      3  C   UNL     1       5.560   3.116  47.705  1.00  0.00     0.000 C 
BRANCH   3   4
ATOM      4  C   UNL     1       6.615   2.007  47.530  1.00  0.00    -0.000 C 
BRANCH   4   5
ATOM      5  C   UNL     1       6.974   1.235  48.815  1.00  0.00    -0.000 C 
BRANCH   5   6
ATOM      6  C   UNL     1       5.977   0.109  49.137  1.00  0.00    -0.000 C 
BRANCH   6   7
ATOM      7  C   UNL     1       5.744  -0.069  50.646  1.00  0.00    -0.000 C 
BRANCH   7   8
ATOM      8  C   UNL     1       5.391   1.253  51.347  1.00  0.00    -0.000 C 
BRANCH   8   9
ATOM      9  C   UNL     1       3.881   1.414  51.593  1.00  0.00    -0.000 C 
BRANCH   9  10
ATOM     10  C   UNL     1       3.105   1.937  50.364  1.00  0.00    -0.000 C 
BRANCH  10  11
ATOM     11  C   UNL     1       2.005   0.964  49.915  1.00  0.00    -0.003 C 
ATOM     12  C   UNL     1       1.158   0.502  51.098  1.00  0.00     0.004 C 
ENDBRANCH  10  11
ENDBRANCH   9  10
ENDBRANCH   8   9
ENDBRANCH   7   8
ENDBRANCH   6   7
ENDBRANCH   5   6
ENDBRANCH   4   5
ENDBRANCH   3   4
ENDBRANCH   2   3
ENDBRANCH   1   2
BRANCH   1  13
ATOM     13  C   UNL     1       7.462   5.534  50.107  1.00  0.00     0.000 C 
BRANCH  13  14
ATOM     14  C   UNL     1       7.234   4.533  51.254  1.00  0.00     0.000 C 
BRANCH  14  15
ATOM     15  C   UNL     1       6.531   5.175  52.464  1.00  0.00     0.000 C 
BRANCH  15  16
ATOM     16  C   UNL     1       5.075   4.694  52.661  1.00  0.00     0.000 C 
BRANCH  16  17
ATOM     17  C   UNL     1       4.023   5.788  52.397  1.00  0.00     0.000 C 
BRANCH  17  18
ATOM     18  C   UNL     1       3.526   5.867  50.942  1.00  0.00     0.000 C 
BRANCH  18  19
ATOM     19  C   UNL     1       3.472   7.292  50.350  1.00  0.00     0.000 C 
BRANCH  19  20
ATOM     20  C   UNL     1       4.801   8.072  50.398  1.00  0.00     0.006 C 
BRANCH  20  21
ATOM     21  C   UNL     1       4.735   9.484  49.794  1.00  0.00     0.053 C 
BRANCH  21  22
ATOM     22  C   UNL     1       5.522   9.588  48.523  1.00  0.00     0.041 C 
ATOM     23  O   UNL     1       5.278  10.509  47.700  1.00  0.00    -0.550 OA
ATOM     24  O   UNL     1       6.488   8.636  48.223  1.00  0.00    -0.550 OA
ENDBRANCH  21  22
ENDBRANCH  20  21
ENDBRANCH  19  20
ENDBRANCH  18  19
ENDBRANCH  17  18
ENDBRANCH  16  17
ENDBRANCH  15  16
ENDBRANCH  14  15
ENDBRANCH  13  14
ENDBRANCH   1  13
TORSDOF 20
ENDMDL
MODEL 5
REMARK VINA RESULT:    -3.452      1.169      2.085
REMARK INTER + INTRA:         -11.232
REMARK INTER:                  -7.451
REMARK INTRA:                  -3.781
REMARK UNBOUND:                -3.744
REMARK SMILES CCCCCCCCCCCCCCCCCCCCCC(=O)[O-]
REMARK SMILES IDX 12 1 11 2 10 3 9 4 8 5 7 6 6 7 5 8 4 9 3 10 2 11 1 12 13 13
REMARK SMILES IDX 14 14 15 15 16 16 17 17 18 18 19 19 20 20 21 21 22 22 23 23
REMARK SMILES IDX 24 24
REMARK H PARENT
REMARK Flexibility Score: inf
ROOT
ATOM      1  C   UNL     1       6.714   4.543  48.251  1.00  0.00     0.000 C 
ENDROOT
BRANCH   1   2
ATOM      2  C   UNL     1       5.887   3.284  47.941  1.00  0.00     0.000 C 
BRANCH   2   3
ATOM      3  C   UNL     1       6.736   2.002  47.918  1.00  0.00     0.000 C 
BRANCH   3   4
ATOM      4  C   UNL     1       6.340   0.995  49.015  1.00  0.00    -0.000 C 
BRANCH   4   5
ATOM      5  C   UNL     1       6.989   1.238  50.392  1.00  0.00    -0.000 C 
BRANCH   5   6
ATOM      6  C   UNL     1       6.000   1.073  51.559  1.00  0.00    -0.000 C 
BRANCH   6   7
ATOM      7  C   UNL     1       5.450   2.415  52.068  1.00  0.00    -0.000 C 
BRANCH   7   8
ATOM      8  C   UNL     1       3.914   2.477  52.025  1.00  0.00    -0.000 C 
BRANCH   8   9
ATOM      9  C   UNL     1       3.376   3.042  50.698  1.00  0.00    -0.000 C 
BRANCH   9  10
ATOM     10  C   UNL     1       2.926   1.954  49.699  1.00  0.00    -0.000 C 
BRANCH  10  11
ATOM     11  C   UNL     1       2.276   0.753  50.401  1.00  0.00    -0.003 C 
ATOM     12  C   UNL     1       3.000  -0.546  50.061  1.00  0.00     0.004 C 
ENDBRANCH  10  11
ENDBRANCH   9  10
ENDBRANCH   8   9
ENDBRANCH   7   8
ENDBRANCH   6   7
ENDBRANCH   5   6
ENDBRANCH   4   5
ENDBRANCH   3   4
ENDBRANCH   2   3
ENDBRANCH   1   2
BRANCH   1  13
ATOM     13  C   UNL     1       6.883   4.827  49.759  1.00  0.00     0.000 C 
BRANCH  13  14
ATOM     14  C   UNL     1       5.749   5.707  50.317  1.00  0.00     0.000 C 
BRANCH  14  15
ATOM     15  C   UNL     1       6.022   6.172  51.759  1.00  0.00     0.000 C 
BRANCH  15  16
ATOM     16  C   UNL     1       5.174   7.393  52.186  1.00  0.00     0.000 C 
BRANCH  16  17
ATOM     17  C   UNL     1       4.307   7.970  51.050  1.00  0.00     0.000 C 
BRANCH  17  18
ATOM     18  C   UNL     1       4.770   9.339  50.518  1.00  0.00     0.000 C 
BRANCH  18  19
ATOM     19  C   UNL     1       4.695   9.500  48.985  1.00  0.00     0.000 C 
BRANCH  19  20
ATOM     20  C   UNL     1       6.055   9.662  48.276  1.00  0.00     0.006 C 
BRANCH  20  21
ATOM     21  C   UNL     1       6.745   8.338  47.909  1.00  0.00     0.053 C 
BRANCH  21  22
ATOM     22  C   UNL     1       8.060   8.178  48.609  1.00  0.00     0.041 C 
ATOM     23  O   UNL     1       9.081   7.817  47.965  1.00  0.00    -0.550 OA
ATOM     24  O   UNL     1       8.147   8.377  49.980  1.00  0.00    -0.550 OA
ENDBRANCH  21  22
ENDBRANCH  20  21
ENDBRANCH  19  20
ENDBRANCH  18  19
ENDBRANCH  17  18
ENDBRANCH  16  17
ENDBRANCH  15  16
ENDBRANCH  14  15
ENDBRANCH  13  14
ENDBRANCH   1  13
TORSDOF 20
ENDMDL
MODEL 6
REMARK VINA RESULT:    -3.452      4.046      7.695
REMARK INTER + INTRA:         -11.231
REMARK INTER:                  -7.446
REMARK INTRA:                  -3.785
REMARK UNBOUND:                -3.744
REMARK SMILES CCCCCCCCCCCCCCCCCCCCCC(=O)[O-]
REMARK SMILES IDX 12 1 11 2 10 3 9 4 8 5 7 6 6 7 5 8 4 9 3 10 2 11 1 12 13 13
REMARK SMILES IDX 14 14 15 15 16 16 17 17 18 18 19 19 20 20 21 21 22 22 23 23
REMARK SMILES IDX 24 24
REMARK H PARENT
REMARK Flexibility Score: inf
ROOT
ATOM      1  C   UNL     1       5.828   3.133  48.007  1.00  0.00     0.000 C 
ENDROOT
BRANCH   1   2
ATOM      2  C   UNL     1       6.771   1.960  48.322  1.00  0.00     0.000 C 
BRANCH   2   3
ATOM      3  C   UNL     1       6.063   0.799  49.039  1.00  0.00     0.000 C 
BRANCH   3   4
ATOM      4  C   UNL     1       6.461   0.673  50.522  1.00  0.00    -0.000 C 
BRANCH   4   5
ATOM      5  C   UNL     1       7.254   1.866  51.092  1.00  0.00    -0.000 C 
BRANCH   5   6
ATOM      6  C   UNL     1       6.533   2.565  52.257  1.00  0.00    -0.000 C 
BRANCH   6   7
ATOM      7  C   UNL     1       6.899   4.053  52.379  1.00  0.00    -0.000 C 
BRANCH   7   8
ATOM      8  C   UNL     1       7.529   4.611  51.092  1.00  0.00    -0.000 C 
BRANCH   8   9
ATOM      9  C   UNL     1       7.410   6.142  50.985  1.00  0.00    -0.000 C 
BRANCH   9  10
ATOM     10  C   UNL     1       6.692   6.620  49.705  1.00  0.00    -0.000 C 
BRANCH  10  11
ATOM     11  C   UNL     1       7.471   6.258  48.432  1.00  0.00    -0.003 C 
ATOM     12  C   UNL     1       8.240   7.461  47.894  1.00  0.00     0.004 C 
ENDBRANCH  10  11
ENDBRANCH   9  10
ENDBRANCH   8   9
ENDBRANCH   7   8
ENDBRANCH   6   7
ENDBRANCH   5   6
ENDBRANCH   4   5
ENDBRANCH   3   4
ENDBRANCH   2   3
ENDBRANCH   1   2
BRANCH   1  13
ATOM     13  C   UNL     1       4.416   2.984  48.614  1.00  0.00     0.000 C 
BRANCH  13  14
ATOM     14  C   UNL     1       4.185   3.945  49.794  1.00  0.00     0.000 C 
BRANCH  14  15
ATOM     15  C   UNL     1       3.211   3.370  50.838  1.00  0.00     0.000 C 
BRANCH  15  16
ATOM     16  C   UNL     1       2.716   1.943  50.503  1.00  0.00     0.000 C 
BRANCH  16  17
ATOM     17  C   UNL     1       2.999   0.915  51.614  1.00  0.00     0.000 C 
BRANCH  17  18
ATOM     18  C   UNL     1       2.835  -0.556  51.189  1.00  0.00     0.000 C 
BRANCH  18  19
ATOM     19  C   UNL     1       3.683  -1.565  51.992  1.00  0.00     0.000 C 
BRANCH  19  20
ATOM     20  C   UNL     1       4.232  -2.753  51.178  1.00  0.00     0.006 C 
BRANCH  20  21
ATOM     21  C   UNL     1       4.570  -2.423  49.715  1.00  0.00     0.053 C 
BRANCH  21  22
ATOM     22  C   UNL     1       3.694  -3.168  48.755  1.00  0.00     0.041 C 
ATOM     23  O   UNL     1       4.018  -4.321  48.365  1.00  0.00    -0.550 OA
ATOM     24  O   UNL     1       2.547  -2.569  48.250  1.00  0.00    -0.550 OA
ENDBRANCH  21  22
ENDBRANCH  20  21
ENDBRANCH  19  20
ENDBRANCH  18  19
ENDBRANCH  17  18
ENDBRANCH  16  17
ENDBRANCH  15  16
ENDBRANCH  14  15
ENDBRANCH  13  14
ENDBRANCH   1  13
TORSDOF 20
ENDMDL
MODEL 7
REMARK VINA RESULT:    -3.418      1.999      4.570
REMARK INTER + INTRA:         -11.160
REMARK INTER:                  -7.511
REMARK INTRA:                  -3.648
REMARK UNBOUND:                -3.744
REMARK SMILES CCCCCCCCCCCCCCCCCCCCCC(=O)[O-]
REMARK SMILES IDX 12 1 11 2 10 3 9 4 8 5 7 6 6 7 5 8 4 9 3 10 2 11 1 12 13 13
REMARK SMILES IDX 14 14 15 15 16 16 17 17 18 18 19 19 20 20 21 21 22 22 23 23
REMARK SMILES IDX 24 24
REMARK H PARENT
REMARK Flexibility Score: inf
ROOT
ATOM      1  C   UNL     1       6.361   2.568  48.352  1.00  0.00     0.000 C 
ENDROOT
BRANCH   1   2
ATOM      2  C   UNL     1       4.920   3.095  48.237  1.00  0.00     0.000 C 
BRANCH   2   3
ATOM      3  C   UNL     1       4.469   3.880  49.479  1.00  0.00     0.000 C 
BRANCH   3   4
ATOM      4  C   UNL     1       3.473   3.101  50.358  1.00  0.00    -0.000 C 
BRANCH   4   5
ATOM      5  C   UNL     1       2.916   1.808  49.729  1.00  0.00    -0.000 C 
BRANCH   5   6
ATOM      6  C   UNL     1       2.418   0.797  50.776  1.00  0.00    -0.000 C 
BRANCH   6   7
ATOM      7  C   UNL     1       3.250   0.819  52.069  1.00  0.00    -0.000 C 
BRANCH   7   8
ATOM      8  C   UNL     1       3.943  -0.525  52.347  1.00  0.00    -0.000 C 
BRANCH   8   9
ATOM      9  C   UNL     1       3.635  -1.588  51.277  1.00  0.00    -0.000 C 
BRANCH   9  10
ATOM     10  C   UNL     1       4.878  -2.377  50.811  1.00  0.00    -0.000 C 
BRANCH  10  11
ATOM     11  C   UNL     1       4.904  -2.573  49.289  1.00  0.00    -0.003 C 
ATOM     12  C   UNL     1       5.321  -3.994  48.921  1.00  0.00     0.004 C 
ENDBRANCH  10  11
ENDBRANCH   9  10
ENDBRANCH   8   9
ENDBRANCH   7   8
ENDBRANCH   6   7
ENDBRANCH   5   6
ENDBRANCH   4   5
ENDBRANCH   3   4
ENDBRANCH   2   3
ENDBRANCH   1   2
BRANCH   1  13
ATOM     13  C   UNL     1       6.455   1.075  48.730  1.00  0.00     0.000 C 
BRANCH  13  14
ATOM     14  C   UNL     1       6.560   0.864  50.252  1.00  0.00     0.000 C 
BRANCH  14  15
ATOM     15  C   UNL     1       7.322   2.004  50.952  1.00  0.00     0.000 C 
BRANCH  15  16
ATOM     16  C   UNL     1       6.597   2.558  52.200  1.00  0.00     0.000 C 
BRANCH  16  17
ATOM     17  C   UNL     1       6.572   4.097  52.268  1.00  0.00     0.000 C 
BRANCH  17  18
ATOM     18  C   UNL     1       7.703   4.795  51.489  1.00  0.00     0.000 C 
BRANCH  18  19
ATOM     19  C   UNL     1       7.400   6.247  51.064  1.00  0.00     0.000 C 
BRANCH  19  20
ATOM     20  C   UNL     1       6.618   6.394  49.743  1.00  0.00     0.006 C 
BRANCH  20  21
ATOM     21  C   UNL     1       7.449   6.134  48.477  1.00  0.00     0.053 C 
BRANCH  21  22
ATOM     22  C   UNL     1       8.018   7.400  47.911  1.00  0.00     0.041 C 
ATOM     23  O   UNL     1       9.214   7.438  47.517  1.00  0.00    -0.550 OA
ATOM     24  O   UNL     1       7.244   8.552  47.867  1.00  0.00    -0.550 OA
ENDBRANCH  21  22
ENDBRANCH  20  21
ENDBRANCH  19  20
ENDBRANCH  18  19
ENDBRANCH  17  18
ENDBRANCH  16  17
ENDBRANCH  15  16
ENDBRANCH  14  15
ENDBRANCH  13  14
ENDBRANCH   1  13
TORSDOF 20
ENDMDL
MODEL 8
REMARK VINA RESULT:    -3.402      3.487      7.599
REMARK INTER + INTRA:         -11.124
REMARK INTER:                  -7.323
REMARK INTRA:                  -3.800
REMARK UNBOUND:                -3.744
REMARK SMILES CCCCCCCCCCCCCCCCCCCCCC(=O)[O-]
REMARK SMILES IDX 12 1 11 2 10 3 9 4 8 5 7 6 6 7 5 8 4 9 3 10 2 11 1 12 13 13
REMARK SMILES IDX 14 14 15 15 16 16 17 17 18 18 19 19 20 20 21 21 22 22 23 23
REMARK SMILES IDX 24 24
REMARK H PARENT
REMARK Flexibility Score: inf
ROOT
ATOM      1  C   UNL     1       5.545   4.597  49.424  1.00  0.00     0.000 C 
ENDROOT
BRANCH   1   2
ATOM      2  C   UNL     1       5.909   5.079  50.839  1.00  0.00     0.000 C 
BRANCH   2   3
ATOM      3  C   UNL     1       4.679   5.474  51.671  1.00  0.00     0.000 C 
BRANCH   3   4
ATOM      4  C   UNL     1       3.348   5.240  50.930  1.00  0.00    -0.000 C 
BRANCH   4   5
ATOM      5  C   UNL     1       2.586   6.520  50.532  1.00  0.00    -0.000 C 
BRANCH   5   6
ATOM      6  C   UNL     1       3.363   7.807  50.860  1.00  0.00    -0.000 C 
BRANCH   6   7
ATOM      7  C   UNL     1       3.392   8.801  49.687  1.00  0.00    -0.000 C 
BRANCH   7   8
ATOM      8  C   UNL     1       4.799   9.360  49.423  1.00  0.00    -0.000 C 
BRANCH   8   9
ATOM      9  C   UNL     1       5.837   8.873  50.449  1.00  0.00    -0.000 C 
BRANCH   9  10
ATOM     10  C   UNL     1       7.157   8.386  49.812  1.00  0.00    -0.000 C 
BRANCH  10  11
ATOM     11  C   UNL     1       6.961   7.900  48.369  1.00  0.00    -0.003 C 
ATOM     12  C   UNL     1       8.177   7.119  47.878  1.00  0.00     0.004 C 
ENDBRANCH  10  11
ENDBRANCH   9  10
ENDBRANCH   8   9
ENDBRANCH   7   8
ENDBRANCH   6   7
ENDBRANCH   5   6
ENDBRANCH   4   5
ENDBRANCH   3   4
ENDBRANCH   2   3
ENDBRANCH   1   2
BRANCH   1  13
ATOM     13  C   UNL     1       6.689   3.856  48.699  1.00  0.00     0.000 C 
BRANCH  13  14
ATOM     14  C   UNL     1       6.167   2.896  47.615  1.00  0.00     0.000 C 
BRANCH  14  15
ATOM     15  C   UNL     1       6.317   1.418  48.017  1.00  0.00     0.000 C 
BRANCH  15  16
ATOM     16  C   UNL     1       7.006   1.216  49.387  1.00  0.00     0.000 C 
BRANCH  16  17
ATOM     17  C   UNL     1       6.111   0.520  50.431  1.00  0.00     0.000 C 
BRANCH  17  18
ATOM     18  C   UNL     1       5.649   1.424  51.589  1.00  0.00     0.000 C 
BRANCH  18  19
ATOM     19  C   UNL     1       4.124   1.646  51.672  1.00  0.00     0.000 C 
BRANCH  19  20
ATOM     20  C   UNL     1       3.390   1.662  50.316  1.00  0.00     0.006 C 
BRANCH  20  21
ATOM     21  C   UNL     1       1.928   1.192  50.376  1.00  0.00     0.053 C 
BRANCH  21  22
ATOM     22  C   UNL     1       1.741  -0.142  49.719  1.00  0.00     0.041 C 
ATOM     23  O   UNL     1       2.623  -1.035  49.834  1.00  0.00    -0.550 OA
ATOM     24  O   UNL     1       0.619  -0.381  48.938  1.00  0.00    -0.550 OA
ENDBRANCH  21  22
ENDBRANCH  20  21
ENDBRANCH  19  20
ENDBRANCH  18  19
ENDBRANCH  17  18
ENDBRANCH  16  17
ENDBRANCH  15  16
ENDBRANCH  14  15
ENDBRANCH  13  14
ENDBRANCH   1  13
TORSDOF 20
ENDMDL
MODEL 9
REMARK VINA RESULT:    -3.393      3.187      6.700
REMARK INTER + INTRA:         -11.104
REMARK INTER:                  -6.991
REMARK INTRA:                  -4.112
REMARK UNBOUND:                -3.744
REMARK SMILES CCCCCCCCCCCCCCCCCCCCCC(=O)[O-]
REMARK SMILES IDX 12 1 11 2 10 3 9 4 8 5 7 6 6 7 5 8 4 9 3 10 2 11 1 12 13 13
REMARK SMILES IDX 14 14 15 15 16 16 17 17 18 18 19 19 20 20 21 21 22 22 23 23
REMARK SMILES IDX 24 24
REMARK H PARENT
REMARK Flexibility Score: inf
ROOT
ATOM      1  C   UNL     1       6.056   3.812  48.575  1.00  0.00     0.000 C 
ENDROOT
BRANCH   1   2
ATOM      2  C   UNL     1       7.032   4.970  48.304  1.00  0.00     0.000 C 
BRANCH   2   3
ATOM      3  C   UNL     1       6.666   6.252  49.070  1.00  0.00     0.000 C 
BRANCH   3   4
ATOM      4  C   UNL     1       7.850   6.844  49.858  1.00  0.00    -0.000 C 
BRANCH   4   5
ATOM      5  C   UNL     1       7.461   7.686  51.089  1.00  0.00    -0.000 C 
BRANCH   5   6
ATOM      6  C   UNL     1       7.871   9.163  50.959  1.00  0.00    -0.000 C 
BRANCH   6   7
ATOM      7  C   UNL     1       8.126   9.586  49.503  1.00  0.00    -0.000 C 
BRANCH   7   8
ATOM      8  C   UNL     1       7.033  10.521  48.961  1.00  0.00    -0.000 C 
BRANCH   8   9
ATOM      9  C   UNL     1       5.847   9.760  48.344  1.00  0.00    -0.000 C 
BRANCH   9  10
ATOM     10  C   UNL     1       4.506  10.008  49.069  1.00  0.00    -0.000 C 
BRANCH  10  11
ATOM     11  C   UNL     1       3.991   8.750  49.783  1.00  0.00    -0.003 C 
ATOM     12  C   UNL     1       4.013   8.927  51.299  1.00  0.00     0.004 C 
ENDBRANCH  10  11
ENDBRANCH   9  10
ENDBRANCH   8   9
ENDBRANCH   7   8
ENDBRANCH   6   7
ENDBRANCH   5   6
ENDBRANCH   4   5
ENDBRANCH   3   4
ENDBRANCH   2   3
ENDBRANCH   1   2
BRANCH   1  13
ATOM     13  C   UNL     1       6.739   2.519  49.070  1.00  0.00     0.000 C 
BRANCH  13  14
ATOM     14  C   UNL     1       6.569   2.314  50.586  1.00  0.00     0.000 C 
BRANCH  14  15
ATOM     15  C   UNL     1       7.547   3.170  51.409  1.00  0.00     0.000 C 
BRANCH  15  16
ATOM     16  C   UNL     1       6.849   4.213  52.313  1.00  0.00     0.000 C 
BRANCH  16  17
ATOM     17  C   UNL     1       5.320   4.033  52.394  1.00  0.00     0.000 C 
BRANCH  17  18
ATOM     18  C   UNL     1       4.503   5.165  51.743  1.00  0.00     0.000 C 
BRANCH  18  19
ATOM     19  C   UNL     1       3.358   4.693  50.822  1.00  0.00     0.000 C 
BRANCH  19  20
ATOM     20  C   UNL     1       2.878   3.247  51.063  1.00  0.00     0.006 C 
BRANCH  20  21
ATOM     21  C   UNL     1       3.000   2.322  49.841  1.00  0.00     0.053 C 
BRANCH  21  22
ATOM     22  C   UNL     1       2.699   0.895  50.187  1.00  0.00     0.041 C 
ATOM     23  O   UNL     1       3.593   0.161  50.685  1.00  0.00    -0.550 OA
ATOM     24  O   UNL     1       1.448   0.361  49.909  1.00  0.00    -0.550 OA
ENDBRANCH  21  22
ENDBRANCH  20  21
ENDBRANCH  19  20
ENDBRANCH  18  19
ENDBRANCH  17  18
ENDBRANCH  16  17
ENDBRANCH  15  16
ENDBRANCH  14  15
ENDBRANCH  13  14
ENDBRANCH   1  13
TORSDOF 20
ENDMDL
