MODEL 1
REMARK VINA RESULT:    -4.935      0.000      0.000
REMARK INTER + INTRA:          -6.789
REMARK INTER:                  -6.666
REMARK INTRA:                  -0.123
REMARK UNBOUND:                -0.123
REMARK SMILES [NH3+]CCCC[C@@H]([NH3+])C(=O)[O-]
REMARK SMILES IDX 4 1 3 2 2 3 1 4 5 8 6 9 7 10 8 14 9 15 10 16
REMARK H PARENT 1 5 1 6 1 7 7 11 7 12 7 13
REMARK Flexibility Score: inf
ROOT
ATOM      1  C   UNL     1     -16.516  13.757 -13.242  1.00  0.00     0.012 C 
ENDROOT
BRANCH   1   2
ATOM      2  C   UNL     1     -15.849  12.468 -13.742  1.00  0.00     0.061 C 
BRANCH   2   3
ATOM      3  C   UNL     1     -16.307  12.075 -15.157  1.00  0.00     0.258 C 
BRANCH   3   4
ATOM      4  N   UNL     1     -15.433  11.066 -15.760  1.00  0.00    -0.358 N 
ATOM      5  H   UNL     1     -15.942  10.158 -15.866  1.00  0.00     0.344 HD
ATOM      6  H   UNL     1     -15.137  11.397 -16.706  1.00  0.00     0.344 HD
ATOM      7  H   UNL     1     -14.577  10.931 -15.177  1.00  0.00     0.344 HD
ENDBRANCH   3   4
ENDBRANCH   2   3
ENDBRANCH   1   2
BRANCH   1   8
ATOM      8  C   UNL     1     -18.012  13.770 -13.590  1.00  0.00     0.072 C 
BRANCH   8   9
ATOM      9  C   UNL     1     -18.867  12.975 -12.578  1.00  0.00     0.227 C 
BRANCH   9  10
ATOM     10  N   UNL     1     -18.901  13.626 -11.261  1.00  0.00    -0.350 N 
ATOM     11  H   UNL     1     -18.004  13.469 -10.747  1.00  0.00     0.345 HD
ATOM     12  H   UNL     1     -19.053  14.655 -11.376  1.00  0.00     0.345 HD
ATOM     13  H   UNL     1     -19.695  13.252 -10.696  1.00  0.00     0.345 HD
ENDBRANCH   9  10
BRANCH   9  14
ATOM     14  C   UNL     1     -20.266  12.814 -13.113  1.00  0.00     0.099 C 
ATOM     15  O   UNL     1     -20.651  13.486 -14.107  1.00  0.00    -0.544 OA
ATOM     16  O   UNL     1     -21.135  11.905 -12.524  1.00  0.00    -0.544 OA
ENDBRANCH   9  14
ENDBRANCH   8   9
ENDBRANCH   1   8
TORSDOF 7
ENDMDL
MODEL 2
REMARK VINA RESULT:    -4.850      1.245      1.297
REMARK INTER + INTRA:          -6.674
REMARK INTER:                  -6.427
REMARK INTRA:                  -0.247
REMARK UNBOUND:                -0.123
REMARK SMILES [NH3+]CCCC[C@@H]([NH3+])C(=O)[O-]
REMARK SMILES IDX 4 1 3 2 2 3 1 4 5 8 6 9 7 10 8 14 9 15 10 16
REMARK H PARENT 1 5 1 6 1 7 7 11 7 12 7 13
REMARK Flexibility Score: inf
ROOT
ATOM      1  C   UNL     1     -17.044  13.377 -12.723  1.00  0.00     0.012 C 
ENDROOT
BRANCH   1   2
ATOM      2  C   UNL     1     -16.924  13.534 -14.245  1.00  0.00     0.061 C 
BRANCH   2   3
ATOM      3  C   UNL     1     -16.339  12.284 -14.924  1.00  0.00     0.258 C 
BRANCH   3   4
ATOM      4  N   UNL     1     -17.346  11.552 -15.696  1.00  0.00    -0.358 N 
ATOM      5  H   UNL     1     -16.979  10.615 -15.981  1.00  0.00     0.344 HD
ATOM      6  H   UNL     1     -18.194  11.414 -15.101  1.00  0.00     0.344 HD
ATOM      7  H   UNL     1     -17.624  12.100 -16.541  1.00  0.00     0.344 HD
ENDBRANCH   3   4
ENDBRANCH   2   3
ENDBRANCH   1   2
BRANCH   1   8
ATOM      8  C   UNL     1     -18.499  13.560 -12.266  1.00  0.00     0.072 C 
BRANCH   8   9
ATOM      9  C   UNL     1     -19.411  12.388 -12.694  1.00  0.00     0.227 C 
BRANCH   9  10
ATOM     10  N   UNL     1     -19.891  11.619 -11.538  1.00  0.00    -0.350 N 
ATOM     11  H   UNL     1     -20.572  12.178 -10.976  1.00  0.00     0.345 HD
ATOM     12  H   UNL     1     -20.358  10.741 -11.864  1.00  0.00     0.345 HD
ATOM     13  H   UNL     1     -19.087  11.340 -10.933  1.00  0.00     0.345 HD
ENDBRANCH   9  10
BRANCH   9  14
ATOM     14  C   UNL     1     -20.578  12.918 -13.486  1.00  0.00     0.099 C 
ATOM     15  O   UNL     1     -20.408  13.821 -14.348  1.00  0.00    -0.544 OA
ATOM     16  O   UNL     1     -21.849  12.396 -13.283  1.00  0.00    -0.544 OA
ENDBRANCH   9  14
ENDBRANCH   8   9
ENDBRANCH   1   8
TORSDOF 7
ENDMDL
MODEL 3
REMARK VINA RESULT:    -4.786      2.905      4.585
REMARK INTER + INTRA:          -6.587
REMARK INTER:                  -6.486
REMARK INTRA:                  -0.100
REMARK UNBOUND:                -0.123
REMARK SMILES [NH3+]CCCC[C@@H]([NH3+])C(=O)[O-]
REMARK SMILES IDX 4 1 3 2 2 3 1 4 5 8 6 9 7 10 8 14 9 15 10 16
REMARK H PARENT 1 5 1 6 1 7 7 11 7 12 7 13
REMARK Flexibility Score: inf
ROOT
ATOM      1  C   UNL     1     -19.824  13.383 -13.115  1.00  0.00     0.012 C 
ENDROOT
BRANCH   1   2
ATOM      2  C   UNL     1     -21.134  13.376 -13.915  1.00  0.00     0.061 C 
BRANCH   2   3
ATOM      3  C   UNL     1     -22.232  12.533 -13.244  1.00  0.00     0.258 C 
BRANCH   3   4
ATOM      4  N   UNL     1     -21.676  11.481 -12.390  1.00  0.00    -0.358 N 
ATOM      5  H   UNL     1     -21.139  10.790 -12.963  1.00  0.00     0.344 HD
ATOM      6  H   UNL     1     -21.027  11.917 -11.696  1.00  0.00     0.344 HD
ATOM      7  H   UNL     1     -22.439  10.996 -11.867  1.00  0.00     0.344 HD
ENDBRANCH   3   4
ENDBRANCH   2   3
ENDBRANCH   1   2
BRANCH   1   8
ATOM      8  C   UNL     1     -18.610  13.466 -14.052  1.00  0.00     0.072 C 
BRANCH   8   9
ATOM      9  C   UNL     1     -17.284  13.689 -13.291  1.00  0.00     0.227 C 
BRANCH   9  10
ATOM     10  N   UNL     1     -17.442  13.482 -11.845  1.00  0.00    -0.350 N 
ATOM     11  H   UNL     1     -16.549  13.685 -11.341  1.00  0.00     0.345 HD
ATOM     12  H   UNL     1     -18.193  14.110 -11.476  1.00  0.00     0.345 HD
ATOM     13  H   UNL     1     -17.734  12.498 -11.653  1.00  0.00     0.345 HD
ENDBRANCH   9  10
BRANCH   9  14
ATOM     14  C   UNL     1     -16.226  12.765 -13.835  1.00  0.00     0.099 C 
ATOM     15  O   UNL     1     -16.287  12.354 -15.025  1.00  0.00    -0.544 OA
ATOM     16  O   UNL     1     -15.162  12.378 -13.031  1.00  0.00    -0.544 OA
ENDBRANCH   9  14
ENDBRANCH   8   9
ENDBRANCH   1   8
TORSDOF 7
ENDMDL
MODEL 4
REMARK VINA RESULT:    -4.736      2.466      4.400
REMARK INTER + INTRA:          -6.519
REMARK INTER:                  -6.176
REMARK INTRA:                  -0.343
REMARK UNBOUND:                -0.123
REMARK SMILES [NH3+]CCCC[C@@H]([NH3+])C(=O)[O-]
REMARK SMILES IDX 4 1 3 2 2 3 1 4 5 8 6 9 7 10 8 14 9 15 10 16
REMARK H PARENT 1 5 1 6 1 7 7 11 7 12 7 13
REMARK Flexibility Score: inf
ROOT
ATOM      1  C   UNL     1     -20.098  13.385 -13.362  1.00  0.00     0.012 C 
ENDROOT
BRANCH   1   2
ATOM      2  C   UNL     1     -20.077  12.058 -12.590  1.00  0.00     0.061 C 
BRANCH   2   3
ATOM      3  C   UNL     1     -19.509  12.210 -11.168  1.00  0.00     0.258 C 
BRANCH   3   4
ATOM      4  N   UNL     1     -18.770  13.464 -11.000  1.00  0.00    -0.358 N 
ATOM      5  H   UNL     1     -18.464  13.835 -11.929  1.00  0.00     0.344 HD
ATOM      6  H   UNL     1     -19.396  14.168 -10.547  1.00  0.00     0.344 HD
ATOM      7  H   UNL     1     -17.940  13.317 -10.382  1.00  0.00     0.344 HD
ENDBRANCH   3   4
ENDBRANCH   2   3
ENDBRANCH   1   2
BRANCH   1   8
ATOM      8  C   UNL     1     -18.975  13.428 -14.410  1.00  0.00     0.072 C 
BRANCH   8   9
ATOM      9  C   UNL     1     -17.991  12.244 -14.278  1.00  0.00     0.227 C 
BRANCH   9  10
ATOM     10  N   UNL     1     -17.825  11.528 -15.550  1.00  0.00    -0.350 N 
ATOM     11  H   UNL     1     -17.941  12.178 -16.361  1.00  0.00     0.345 HD
ATOM     12  H   UNL     1     -16.874  11.094 -15.594  1.00  0.00     0.345 HD
ATOM     13  H   UNL     1     -18.525  10.756 -15.622  1.00  0.00     0.345 HD
ENDBRANCH   9  10
BRANCH   9  14
ATOM     14  C   UNL     1     -16.658  12.745 -13.787  1.00  0.00     0.099 C 
ATOM     15  O   UNL     1     -15.598  12.134 -14.084  1.00  0.00    -0.544 OA
ATOM     16  O   UNL     1     -16.591  13.901 -13.020  1.00  0.00    -0.544 OA
ENDBRANCH   9  14
ENDBRANCH   8   9
ENDBRANCH   1   8
TORSDOF 7
ENDMDL
MODEL 5
REMARK VINA RESULT:    -4.555     18.440     19.764
REMARK INTER + INTRA:          -6.275
REMARK INTER:                  -6.081
REMARK INTRA:                  -0.194
REMARK UNBOUND:                -0.123
REMARK SMILES [NH3+]CCCC[C@@H]([NH3+])C(=O)[O-]
REMARK SMILES IDX 4 1 3 2 2 3 1 4 5 8 6 9 7 10 8 14 9 15 10 16
REMARK H PARENT 1 5 1 6 1 7 7 11 7 12 7 13
REMARK Flexibility Score: inf
ROOT
ATOM      1  C   UNL     1     -12.280  -4.531 -21.717  1.00  0.00     0.012 C 
ENDROOT
BRANCH   1   2
ATOM      2  C   UNL     1     -12.920  -3.288 -21.081  1.00  0.00     0.061 C 
BRANCH   2   3
ATOM      3  C   UNL     1     -13.155  -3.452 -19.570  1.00  0.00     0.258 C 
BRANCH   3   4
ATOM      4  N   UNL     1     -14.371  -2.769 -19.123  1.00  0.00    -0.358 N 
ATOM      5  H   UNL     1     -15.001  -3.435 -18.620  1.00  0.00     0.344 HD
ATOM      6  H   UNL     1     -14.105  -1.999 -18.467  1.00  0.00     0.344 HD
ATOM      7  H   UNL     1     -14.872  -2.348 -19.938  1.00  0.00     0.344 HD
ENDBRANCH   3   4
ENDBRANCH   2   3
ENDBRANCH   1   2
BRANCH   1   8
ATOM      8  C   UNL     1     -12.968  -4.884 -23.044  1.00  0.00     0.072 C 
BRANCH   8   9
ATOM      9  C   UNL     1     -13.994  -3.817 -23.486  1.00  0.00     0.227 C 
BRANCH   9  10
ATOM     10  N   UNL     1     -13.576  -3.135 -24.719  1.00  0.00    -0.350 N 
ATOM     11  H   UNL     1     -12.588  -2.800 -24.641  1.00  0.00     0.345 HD
ATOM     12  H   UNL     1     -13.651  -3.789 -25.531  1.00  0.00     0.345 HD
ATOM     13  H   UNL     1     -14.204  -2.323 -24.911  1.00  0.00     0.345 HD
ENDBRANCH   9  10
BRANCH   9  14
ATOM     14  C   UNL     1     -15.342  -4.461 -23.681  1.00  0.00     0.099 C 
ATOM     15  O   UNL     1     -15.741  -5.358 -22.892  1.00  0.00    -0.544 OA
ATOM     16  O   UNL     1     -16.163  -4.051 -24.724  1.00  0.00    -0.544 OA
ENDBRANCH   9  14
ENDBRANCH   8   9
ENDBRANCH   1   8
TORSDOF 7
ENDMDL
MODEL 6
REMARK VINA RESULT:    -4.471     17.715     19.384
REMARK INTER + INTRA:          -6.162
REMARK INTER:                  -6.063
REMARK INTRA:                  -0.099
REMARK UNBOUND:                -0.123
REMARK SMILES [NH3+]CCCC[C@@H]([NH3+])C(=O)[O-]
REMARK SMILES IDX 4 1 3 2 2 3 1 4 5 8 6 9 7 10 8 14 9 15 10 16
REMARK H PARENT 1 5 1 6 1 7 7 11 7 12 7 13
REMARK Flexibility Score: inf
ROOT
ATOM      1  C   UNL     1     -12.165  -3.582 -20.930  1.00  0.00     0.012 C 
ENDROOT
BRANCH   1   2
ATOM      2  C   UNL     1     -12.684  -3.488 -19.488  1.00  0.00     0.061 C 
BRANCH   2   3
ATOM      3  C   UNL     1     -14.063  -2.813 -19.399  1.00  0.00     0.258 C 
BRANCH   3   4
ATOM      4  N   UNL     1     -14.072  -1.699 -18.448  1.00  0.00    -0.358 N 
ATOM      5  H   UNL     1     -13.285  -1.041 -18.648  1.00  0.00     0.344 HD
ATOM      6  H   UNL     1     -14.975  -1.181 -18.542  1.00  0.00     0.344 HD
ATOM      7  H   UNL     1     -14.000  -2.057 -17.469  1.00  0.00     0.344 HD
ENDBRANCH   3   4
ENDBRANCH   2   3
ENDBRANCH   1   2
BRANCH   1   8
ATOM      8  C   UNL     1     -13.326  -3.551 -21.934  1.00  0.00     0.072 C 
BRANCH   8   9
ATOM      9  C   UNL     1     -12.854  -3.708 -23.397  1.00  0.00     0.227 C 
BRANCH   9  10
ATOM     10  N   UNL     1     -12.211  -5.010 -23.626  1.00  0.00    -0.350 N 
ATOM     11  H   UNL     1     -11.772  -5.045 -24.575  1.00  0.00     0.345 HD
ATOM     12  H   UNL     1     -11.474  -5.175 -22.902  1.00  0.00     0.345 HD
ATOM     13  H   UNL     1     -12.914  -5.778 -23.540  1.00  0.00     0.345 HD
ENDBRANCH   9  10
BRANCH   9  14
ATOM     14  C   UNL     1     -14.025  -3.537 -24.329  1.00  0.00     0.099 C 
ATOM     15  O   UNL     1     -13.879  -2.956 -25.437  1.00  0.00    -0.544 OA
ATOM     16  O   UNL     1     -15.271  -4.039 -23.978  1.00  0.00    -0.544 OA
ENDBRANCH   9  14
ENDBRANCH   8   9
ENDBRANCH   1   8
TORSDOF 7
ENDMDL
MODEL 7
REMARK VINA RESULT:    -4.371     18.991     19.887
REMARK INTER + INTRA:          -6.027
REMARK INTER:                  -5.827
REMARK INTRA:                  -0.200
REMARK UNBOUND:                -0.123
REMARK SMILES [NH3+]CCCC[C@@H]([NH3+])C(=O)[O-]
REMARK SMILES IDX 4 1 3 2 2 3 1 4 5 8 6 9 7 10 8 14 9 15 10 16
REMARK H PARENT 1 5 1 6 1 7 7 11 7 12 7 13
REMARK Flexibility Score: inf
ROOT
ATOM      1  C   UNL     1     -13.514  -3.647 -23.159  1.00  0.00     0.012 C 
ENDROOT
BRANCH   1   2
ATOM      2  C   UNL     1     -14.600  -4.691 -22.864  1.00  0.00     0.061 C 
BRANCH   2   3
ATOM      3  C   UNL     1     -15.795  -4.588 -23.827  1.00  0.00     0.258 C 
BRANCH   3   4
ATOM      4  N   UNL     1     -15.625  -3.511 -24.805  1.00  0.00    -0.358 N 
ATOM      5  H   UNL     1     -16.521  -3.334 -25.314  1.00  0.00     0.344 HD
ATOM      6  H   UNL     1     -15.347  -2.638 -24.302  1.00  0.00     0.344 HD
ATOM      7  H   UNL     1     -14.869  -3.753 -25.484  1.00  0.00     0.344 HD
ENDBRANCH   3   4
ENDBRANCH   2   3
ENDBRANCH   1   2
BRANCH   1   8
ATOM      8  C   UNL     1     -12.134  -4.149 -22.709  1.00  0.00     0.072 C 
BRANCH   8   9
ATOM      9  C   UNL     1     -12.142  -4.708 -21.269  1.00  0.00     0.227 C 
BRANCH   9  10
ATOM     10  N   UNL     1     -10.980  -5.569 -21.010  1.00  0.00    -0.350 N 
ATOM     11  H   UNL     1     -10.685  -6.067 -21.881  1.00  0.00     0.345 HD
ATOM     12  H   UNL     1     -10.181  -4.992 -20.659  1.00  0.00     0.345 HD
ATOM     13  H   UNL     1     -11.210  -6.270 -20.270  1.00  0.00     0.345 HD
ENDBRANCH   9  10
BRANCH   9  14
ATOM     14  C   UNL     1     -12.174  -3.569 -20.284  1.00  0.00     0.099 C 
ATOM     15  O   UNL     1     -11.208  -2.763 -20.209  1.00  0.00    -0.544 OA
ATOM     16  O   UNL     1     -13.282  -3.388 -19.466  1.00  0.00    -0.544 OA
ENDBRANCH   9  14
ENDBRANCH   8   9
ENDBRANCH   1   8
TORSDOF 7
ENDMDL
MODEL 8
REMARK VINA RESULT:    -4.214     10.683     11.881
REMARK INTER + INTRA:          -5.815
REMARK INTER:                  -5.712
REMARK INTRA:                  -0.103
REMARK UNBOUND:                -0.123
REMARK SMILES [NH3+]CCCC[C@@H]([NH3+])C(=O)[O-]
REMARK SMILES IDX 4 1 3 2 2 3 1 4 5 8 6 9 7 10 8 14 9 15 10 16
REMARK H PARENT 1 5 1 6 1 7 7 11 7 12 7 13
REMARK Flexibility Score: inf
ROOT
ATOM      1  C   UNL     1     -19.863   5.006 -18.441  1.00  0.00     0.012 C 
ENDROOT
BRANCH   1   2
ATOM      2  C   UNL     1     -20.986   5.980 -18.058  1.00  0.00     0.061 C 
BRANCH   2   3
ATOM      3  C   UNL     1     -22.286   5.258 -17.662  1.00  0.00     0.258 C 
BRANCH   3   4
ATOM      4  N   UNL     1     -22.467   5.202 -16.210  1.00  0.00    -0.358 N 
ATOM      5  H   UNL     1     -22.445   4.212 -15.876  1.00  0.00     0.344 HD
ATOM      6  H   UNL     1     -21.688   5.728 -15.751  1.00  0.00     0.344 HD
ATOM      7  H   UNL     1     -23.370   5.652 -15.939  1.00  0.00     0.344 HD
ENDBRANCH   3   4
ENDBRANCH   2   3
ENDBRANCH   1   2
BRANCH   1   8
ATOM      8  C   UNL     1     -20.440   3.680 -18.958  1.00  0.00     0.072 C 
BRANCH   8   9
ATOM      9  C   UNL     1     -19.349   2.715 -19.473  1.00  0.00     0.227 C 
BRANCH   9  10
ATOM     10  N   UNL     1     -18.734   1.951 -18.378  1.00  0.00    -0.350 N 
ATOM     11  H   UNL     1     -19.183   2.186 -17.464  1.00  0.00     0.345 HD
ATOM     12  H   UNL     1     -18.840   0.925 -18.557  1.00  0.00     0.345 HD
ATOM     13  H   UNL     1     -17.712   2.157 -18.326  1.00  0.00     0.345 HD
ENDBRANCH   9  10
BRANCH   9  14
ATOM     14  C   UNL     1     -19.941   1.777 -20.492  1.00  0.00     0.099 C 
ATOM     15  O   UNL     1     -20.746   0.875 -20.137  1.00  0.00    -0.544 OA
ATOM     16  O   UNL     1     -19.619   1.917 -21.835  1.00  0.00    -0.544 OA
ENDBRANCH   9  14
ENDBRANCH   8   9
ENDBRANCH   1   8
TORSDOF 7
ENDMDL
MODEL 9
REMARK VINA RESULT:    -4.201      2.295      2.591
REMARK INTER + INTRA:          -5.798
REMARK INTER:                  -5.435
REMARK INTRA:                  -0.363
REMARK UNBOUND:                -0.123
REMARK SMILES [NH3+]CCCC[C@@H]([NH3+])C(=O)[O-]
REMARK SMILES IDX 4 1 3 2 2 3 1 4 5 8 6 9 7 10 8 14 9 15 10 16
REMARK H PARENT 1 5 1 6 1 7 7 11 7 12 7 13
REMARK Flexibility Score: inf
ROOT
ATOM      1  C   UNL     1     -18.397  12.160 -14.213  1.00  0.00     0.012 C 
ENDROOT
BRANCH   1   2
ATOM      2  C   UNL     1     -17.019  12.692 -14.633  1.00  0.00     0.061 C 
BRANCH   2   3
ATOM      3  C   UNL     1     -15.961  12.527 -13.528  1.00  0.00     0.258 C 
BRANCH   3   4
ATOM      4  N   UNL     1     -16.062  13.571 -12.506  1.00  0.00    -0.358 N 
ATOM      5  H   UNL     1     -15.145  13.696 -12.019  1.00  0.00     0.344 HD
ATOM      6  H   UNL     1     -16.323  14.472 -12.967  1.00  0.00     0.344 HD
ATOM      7  H   UNL     1     -16.806  13.330 -11.813  1.00  0.00     0.344 HD
ENDBRANCH   3   4
ENDBRANCH   2   3
ENDBRANCH   1   2
BRANCH   1   8
ATOM      8  C   UNL     1     -19.347  13.315 -13.864  1.00  0.00     0.072 C 
BRANCH   8   9
ATOM      9  C   UNL     1     -20.287  12.979 -12.685  1.00  0.00     0.227 C 
BRANCH   9  10
ATOM     10  N   UNL     1     -21.263  11.941 -13.044  1.00  0.00    -0.350 N 
ATOM     11  H   UNL     1     -22.240  12.307 -12.971  1.00  0.00     0.345 HD
ATOM     12  H   UNL     1     -21.093  11.615 -14.024  1.00  0.00     0.345 HD
ATOM     13  H   UNL     1     -21.155  11.113 -12.415  1.00  0.00     0.345 HD
ENDBRANCH   9  10
BRANCH   9  14
ATOM     14  C   UNL     1     -19.472  12.537 -11.498  1.00  0.00     0.099 C 
ATOM     15  O   UNL     1     -18.480  13.214 -11.118  1.00  0.00    -0.544 OA
ATOM     16  O   UNL     1     -19.827  11.390 -10.800  1.00  0.00    -0.544 OA
ENDBRANCH   9  14
ENDBRANCH   8   9
ENDBRANCH   1   8
TORSDOF 7
ENDMDL
