MODEL 1
REMARK VINA RESULT:    -5.226      0.000      0.000
REMARK INTER + INTRA:          -6.382
REMARK INTER:                  -6.142
REMARK INTRA:                  -0.240
REMARK UNBOUND:                -0.240
REMARK SMILES COc1cc2ccc(=O)oc2c(OC)c1OC
REMARK SMILES IDX 3 1 15 2 12 3 11 4 5 5 4 6 6 7 7 8 8 9 9 10 10 11 2 12 1 13
REMARK SMILES IDX 16 14 17 15 13 16 14 17
REMARK H PARENT
REMARK Flexibility Score: inf
ROOT
ATOM      1  C   UNL     1      -1.913   8.234  11.783  1.00  0.00     0.165 A 
ATOM      2  C   UNL     1      -1.903   7.123  12.667  1.00  0.00     0.207 A 
ATOM      3  C   UNL     1      -2.204   5.833  12.187  1.00  0.00     0.208 A 
ATOM      4  C   UNL     1      -2.516   5.646  10.820  1.00  0.00     0.184 A 
ATOM      5  C   UNL     1      -2.525   6.754   9.947  1.00  0.00     0.025 A 
ATOM      6  C   UNL     1      -2.226   8.031  10.427  1.00  0.00     0.062 A 
ATOM      7  C   UNL     1      -2.836   6.548   8.598  1.00  0.00     0.020 A 
ATOM      8  C   UNL     1      -3.130   5.263   8.149  1.00  0.00     0.094 A 
ATOM      9  C   UNL     1      -3.104   4.210   9.066  1.00  0.00     0.336 A 
ATOM     10  O   UNL     1      -3.366   3.039   8.684  1.00  0.00    -0.246 OA
ATOM     11  O   UNL     1      -2.804   4.437  10.341  1.00  0.00    -0.419 OA
ENDROOT
BRANCH   1  12
ATOM     12  O   UNL     1      -1.613   9.517  12.266  1.00  0.00    -0.493 OA
ATOM     13  C   UNL     1      -2.170  10.730  11.770  1.00  0.00     0.278 C 
ENDBRANCH   1  12
BRANCH   2  14
ATOM     14  O   UNL     1      -1.602   7.224  14.040  1.00  0.00    -0.490 OA
ATOM     15  C   UNL     1      -2.478   7.657  15.074  1.00  0.00     0.278 C 
ENDBRANCH   2  14
BRANCH   3  16
ATOM     16  O   UNL     1      -2.172   4.784  13.126  1.00  0.00    -0.490 OA
ATOM     17  C   UNL     1      -3.293   4.205  13.787  1.00  0.00     0.278 C 
ENDBRANCH   3  16
TORSDOF 3
ENDMDL
MODEL 2
REMARK VINA RESULT:    -4.944      1.568      4.337
REMARK INTER + INTRA:          -6.051
REMARK INTER:                  -5.818
REMARK INTRA:                  -0.233
REMARK UNBOUND:                -0.240
REMARK SMILES COc1cc2ccc(=O)oc2c(OC)c1OC
REMARK SMILES IDX 3 1 15 2 12 3 11 4 5 5 4 6 6 7 7 8 8 9 9 10 10 11 2 12 1 13
REMARK SMILES IDX 16 14 17 15 13 16 14 17
REMARK H PARENT
REMARK Flexibility Score: inf
ROOT
ATOM      1  C   UNL     1      -1.290   8.106  11.223  1.00  0.00     0.165 A 
ATOM      2  C   UNL     1      -1.693   6.857  10.681  1.00  0.00     0.207 A 
ATOM      3  C   UNL     1      -2.295   5.888  11.506  1.00  0.00     0.208 A 
ATOM      4  C   UNL     1      -2.498   6.161  12.880  1.00  0.00     0.184 A 
ATOM      5  C   UNL     1      -2.095   7.403  13.412  1.00  0.00     0.025 A 
ATOM      6  C   UNL     1      -1.499   8.362  12.590  1.00  0.00     0.062 A 
ATOM      7  C   UNL     1      -2.305   7.654  14.773  1.00  0.00     0.020 A 
ATOM      8  C   UNL     1      -2.901   6.679  15.567  1.00  0.00     0.094 A 
ATOM      9  C   UNL     1      -3.276   5.470  14.977  1.00  0.00     0.336 A 
ATOM     10  O   UNL     1      -3.817   4.572  15.675  1.00  0.00    -0.246 OA
ATOM     11  O   UNL     1      -3.064   5.260  13.682  1.00  0.00    -0.419 OA
ENDROOT
BRANCH   1  12
ATOM     12  O   UNL     1      -0.691   9.069  10.396  1.00  0.00    -0.493 OA
ATOM     13  C   UNL     1      -1.363  10.182   9.815  1.00  0.00     0.278 C 
ENDBRANCH   1  12
BRANCH   2  14
ATOM     14  O   UNL     1      -1.528   6.509   9.325  1.00  0.00    -0.490 OA
ATOM     15  C   UNL     1      -2.451   6.742   8.268  1.00  0.00     0.278 C 
ENDBRANCH   2  14
BRANCH   3  16
ATOM     16  O   UNL     1      -2.666   4.675  10.893  1.00  0.00    -0.490 OA
ATOM     17  C   UNL     1      -1.908   3.470  10.873  1.00  0.00     0.278 C 
ENDBRANCH   3  16
TORSDOF 3
ENDMDL
MODEL 3
REMARK VINA RESULT:    -4.903      2.602      5.628
REMARK INTER + INTRA:          -6.003
REMARK INTER:                  -5.736
REMARK INTRA:                  -0.266
REMARK UNBOUND:                -0.240
REMARK SMILES COc1cc2ccc(=O)oc2c(OC)c1OC
REMARK SMILES IDX 3 1 15 2 12 3 11 4 5 5 4 6 6 7 7 8 8 9 9 10 10 11 2 12 1 13
REMARK SMILES IDX 16 14 17 15 13 16 14 17
REMARK H PARENT
REMARK Flexibility Score: inf
ROOT
ATOM      1  C   UNL     1      -1.521   3.999  12.898  1.00  0.00     0.165 A 
ATOM      2  C   UNL     1      -1.695   5.334  13.349  1.00  0.00     0.207 A 
ATOM      3  C   UNL     1      -2.691   5.637  14.297  1.00  0.00     0.208 A 
ATOM      4  C   UNL     1      -3.519   4.606  14.802  1.00  0.00     0.184 A 
ATOM      5  C   UNL     1      -3.341   3.282  14.349  1.00  0.00     0.025 A 
ATOM      6  C   UNL     1      -2.352   2.987  13.408  1.00  0.00     0.062 A 
ATOM      7  C   UNL     1      -4.170   2.277  14.859  1.00  0.00     0.020 A 
ATOM      8  C   UNL     1      -5.147   2.602  15.796  1.00  0.00     0.094 A 
ATOM      9  C   UNL     1      -5.272   3.933  16.202  1.00  0.00     0.336 A 
ATOM     10  O   UNL     1      -6.148   4.252  17.047  1.00  0.00    -0.246 OA
ATOM     11  O   UNL     1      -4.469   4.866  15.699  1.00  0.00    -0.419 OA
ENDROOT
BRANCH   1  12
ATOM     12  O   UNL     1      -0.526   3.703  11.952  1.00  0.00    -0.493 OA
ATOM     13  C   UNL     1      -0.749   3.527  10.557  1.00  0.00     0.278 C 
ENDBRANCH   1  12
BRANCH   2  14
ATOM     14  O   UNL     1      -0.912   6.416  12.898  1.00  0.00    -0.490 OA
ATOM     15  C   UNL     1      -1.091   7.152  11.693  1.00  0.00     0.278 C 
ENDBRANCH   2  14
BRANCH   3  16
ATOM     16  O   UNL     1      -2.801   6.984  14.694  1.00  0.00    -0.490 OA
ATOM     17  C   UNL     1      -2.266   7.563  15.881  1.00  0.00     0.278 C 
ENDBRANCH   3  16
TORSDOF 3
ENDMDL
MODEL 4
REMARK VINA RESULT:    -4.894      1.474      5.557
REMARK INTER + INTRA:          -5.992
REMARK INTER:                  -5.733
REMARK INTRA:                  -0.259
REMARK UNBOUND:                -0.240
REMARK SMILES COc1cc2ccc(=O)oc2c(OC)c1OC
REMARK SMILES IDX 3 1 15 2 12 3 11 4 5 5 4 6 6 7 7 8 8 9 9 10 10 11 2 12 1 13
REMARK SMILES IDX 16 14 17 15 13 16 14 17
REMARK H PARENT
REMARK Flexibility Score: inf
ROOT
ATOM      1  C   UNL     1      -2.300   4.173  10.655  1.00  0.00     0.165 A 
ATOM      2  C   UNL     1      -2.098   5.557  10.409  1.00  0.00     0.207 A 
ATOM      3  C   UNL     1      -2.209   6.487  11.461  1.00  0.00     0.208 A 
ATOM      4  C   UNL     1      -2.523   6.039  12.766  1.00  0.00     0.184 A 
ATOM      5  C   UNL     1      -2.724   4.663  13.004  1.00  0.00     0.025 A 
ATOM      6  C   UNL     1      -2.612   3.745  11.958  1.00  0.00     0.062 A 
ATOM      7  C   UNL     1      -3.034   4.241  14.301  1.00  0.00     0.020 A 
ATOM      8  C   UNL     1      -3.138   5.180  15.323  1.00  0.00     0.094 A 
ATOM      9  C   UNL     1      -2.929   6.527  15.020  1.00  0.00     0.336 A 
ATOM     10  O   UNL     1      -3.018   7.396  15.927  1.00  0.00    -0.246 OA
ATOM     11  O   UNL     1      -2.635   6.899  13.777  1.00  0.00    -0.419 OA
ENDROOT
BRANCH   1  12
ATOM     12  O   UNL     1      -2.187   3.250   9.604  1.00  0.00    -0.493 OA
ATOM     13  C   UNL     1      -3.269   2.782   8.805  1.00  0.00     0.278 C 
ENDBRANCH   1  12
BRANCH   2  14
ATOM     14  O   UNL     1      -1.781   6.083   9.141  1.00  0.00    -0.490 OA
ATOM     15  C   UNL     1      -2.696   6.398   8.097  1.00  0.00     0.278 C 
ENDBRANCH   2  14
BRANCH   3  16
ATOM     16  O   UNL     1      -1.994   7.840  11.136  1.00  0.00    -0.490 OA
ATOM     17  C   UNL     1      -0.785   8.572  11.316  1.00  0.00     0.278 C 
ENDBRANCH   3  16
TORSDOF 3
ENDMDL
MODEL 5
REMARK VINA RESULT:    -4.878      1.926      4.239
REMARK INTER + INTRA:          -5.974
REMARK INTER:                  -5.707
REMARK INTRA:                  -0.266
REMARK UNBOUND:                -0.240
REMARK SMILES COc1cc2ccc(=O)oc2c(OC)c1OC
REMARK SMILES IDX 3 1 15 2 12 3 11 4 5 5 4 6 6 7 7 8 8 9 9 10 10 11 2 12 1 13
REMARK SMILES IDX 16 14 17 15 13 16 14 17
REMARK H PARENT
REMARK Flexibility Score: inf
ROOT
ATOM      1  C   UNL     1      -1.948   6.279  11.516  1.00  0.00     0.165 A 
ATOM      2  C   UNL     1      -2.041   7.094  12.675  1.00  0.00     0.207 A 
ATOM      3  C   UNL     1      -2.571   6.568  13.870  1.00  0.00     0.208 A 
ATOM      4  C   UNL     1      -3.012   5.223  13.913  1.00  0.00     0.184 A 
ATOM      5  C   UNL     1      -2.917   4.420  12.758  1.00  0.00     0.025 A 
ATOM      6  C   UNL     1      -2.390   4.945  11.576  1.00  0.00     0.062 A 
ATOM      7  C   UNL     1      -3.357   3.093  12.821  1.00  0.00     0.020 A 
ATOM      8  C   UNL     1      -3.878   2.598  14.013  1.00  0.00     0.094 A 
ATOM      9  C   UNL     1      -3.944   3.447  15.120  1.00  0.00     0.336 A 
ATOM     10  O   UNL     1      -4.411   3.022  16.210  1.00  0.00    -0.246 OA
ATOM     11  O   UNL     1      -3.517   4.703  15.030  1.00  0.00    -0.419 OA
ENDROOT
BRANCH   1  12
ATOM     12  O   UNL     1      -1.418   6.807  10.329  1.00  0.00    -0.493 OA
ATOM     13  C   UNL     1      -2.188   7.288   9.232  1.00  0.00     0.278 C 
ENDBRANCH   1  12
BRANCH   2  14
ATOM     14  O   UNL     1      -1.625   8.439  12.716  1.00  0.00    -0.490 OA
ATOM     15  C   UNL     1      -2.363   9.572  12.275  1.00  0.00     0.278 C 
ENDBRANCH   2  14
BRANCH   3  16
ATOM     16  O   UNL     1      -2.630   7.439  14.975  1.00  0.00    -0.490 OA
ATOM     17  C   UNL     1      -1.696   7.509  16.048  1.00  0.00     0.278 C 
ENDBRANCH   3  16
TORSDOF 3
ENDMDL
MODEL 6
REMARK VINA RESULT:    -4.788      1.701      3.804
REMARK INTER + INTRA:          -5.868
REMARK INTER:                  -5.603
REMARK INTRA:                  -0.265
REMARK UNBOUND:                -0.240
REMARK SMILES COc1cc2ccc(=O)oc2c(OC)c1OC
REMARK SMILES IDX 3 1 15 2 12 3 11 4 5 5 4 6 6 7 7 8 8 9 9 10 10 11 2 12 1 13
REMARK SMILES IDX 16 14 17 15 13 16 14 17
REMARK H PARENT
REMARK Flexibility Score: inf
ROOT
ATOM      1  C   UNL     1      -2.726   4.056  13.230  1.00  0.00     0.165 A 
ATOM      2  C   UNL     1      -2.467   5.446  13.362  1.00  0.00     0.207 A 
ATOM      3  C   UNL     1      -2.458   6.276  12.225  1.00  0.00     0.208 A 
ATOM      4  C   UNL     1      -2.708   5.723  10.947  1.00  0.00     0.184 A 
ATOM      5  C   UNL     1      -2.964   4.341  10.822  1.00  0.00     0.025 A 
ATOM      6  C   UNL     1      -2.972   3.521  11.953  1.00  0.00     0.062 A 
ATOM      7  C   UNL     1      -3.209   3.813   9.549  1.00  0.00     0.020 A 
ATOM      8  C   UNL     1      -3.194   4.655   8.441  1.00  0.00     0.094 A 
ATOM      9  C   UNL     1      -2.933   6.013   8.634  1.00  0.00     0.336 A 
ATOM     10  O   UNL     1      -2.914   6.795   7.647  1.00  0.00    -0.246 OA
ATOM     11  O   UNL     1      -2.704   6.486   9.855  1.00  0.00    -0.419 OA
ENDROOT
BRANCH   1  12
ATOM     12  O   UNL     1      -2.735   3.233  14.366  1.00  0.00    -0.493 OA
ATOM     13  C   UNL     1      -3.904   2.775  15.037  1.00  0.00     0.278 C 
ENDBRANCH   1  12
BRANCH   2  14
ATOM     14  O   UNL     1      -2.211   6.074  14.597  1.00  0.00    -0.490 OA
ATOM     15  C   UNL     1      -3.175   6.483  15.561  1.00  0.00     0.278 C 
ENDBRANCH   2  14
BRANCH   3  16
ATOM     16  O   UNL     1      -2.194   7.643  12.440  1.00  0.00    -0.490 OA
ATOM     17  C   UNL     1      -0.948   8.305  12.243  1.00  0.00     0.278 C 
ENDBRANCH   3  16
TORSDOF 3
ENDMDL
MODEL 7
REMARK VINA RESULT:    -4.780      1.276      4.573
REMARK INTER + INTRA:          -5.858
REMARK INTER:                  -5.624
REMARK INTRA:                  -0.234
REMARK UNBOUND:                -0.240
REMARK SMILES COc1cc2ccc(=O)oc2c(OC)c1OC
REMARK SMILES IDX 3 1 15 2 12 3 11 4 5 5 4 6 6 7 7 8 8 9 9 10 10 11 2 12 1 13
REMARK SMILES IDX 16 14 17 15 13 16 14 17
REMARK H PARENT
REMARK Flexibility Score: inf
ROOT
ATOM      1  C   UNL     1      -2.578   4.815  10.881  1.00  0.00     0.165 A 
ATOM      2  C   UNL     1      -2.712   4.991  12.283  1.00  0.00     0.207 A 
ATOM      3  C   UNL     1      -2.522   6.263  12.858  1.00  0.00     0.208 A 
ATOM      4  C   UNL     1      -2.198   7.367  12.035  1.00  0.00     0.184 A 
ATOM      5  C   UNL     1      -2.066   7.185  10.642  1.00  0.00     0.025 A 
ATOM      6  C   UNL     1      -2.255   5.922  10.076  1.00  0.00     0.062 A 
ATOM      7  C   UNL     1      -1.745   8.289   9.845  1.00  0.00     0.020 A 
ATOM      8  C   UNL     1      -1.562   9.535  10.438  1.00  0.00     0.094 A 
ATOM      9  C   UNL     1      -1.706   9.646  11.823  1.00  0.00     0.336 A 
ATOM     10  O   UNL     1      -1.546  10.763  12.383  1.00  0.00    -0.246 OA
ATOM     11  O   UNL     1      -2.013   8.579  12.554  1.00  0.00    -0.419 OA
ENDROOT
BRANCH   1  12
ATOM     12  O   UNL     1      -2.769   3.546  10.312  1.00  0.00    -0.493 OA
ATOM     13  C   UNL     1      -3.181   3.302   8.971  1.00  0.00     0.278 C 
ENDBRANCH   1  12
BRANCH   2  14
ATOM     14  O   UNL     1      -3.033   3.945  13.171  1.00  0.00    -0.490 OA
ATOM     15  C   UNL     1      -2.145   2.957  13.680  1.00  0.00     0.278 C 
ENDBRANCH   2  14
BRANCH   3  16
ATOM     16  O   UNL     1      -2.672   6.355  14.256  1.00  0.00    -0.490 OA
ATOM     17  C   UNL     1      -1.624   6.438  15.217  1.00  0.00     0.278 C 
ENDBRANCH   3  16
TORSDOF 3
ENDMDL
MODEL 8
REMARK VINA RESULT:    -4.720      1.467      2.216
REMARK INTER + INTRA:          -5.788
REMARK INTER:                  -5.676
REMARK INTRA:                  -0.112
REMARK UNBOUND:                -0.240
REMARK SMILES COc1cc2ccc(=O)oc2c(OC)c1OC
REMARK SMILES IDX 3 1 15 2 12 3 11 4 5 5 4 6 6 7 7 8 8 9 9 10 10 11 2 12 1 13
REMARK SMILES IDX 16 14 17 15 13 16 14 17
REMARK H PARENT
REMARK Flexibility Score: inf
ROOT
ATOM      1  C   UNL     1      -2.107   6.762  13.671  1.00  0.00     0.165 A 
ATOM      2  C   UNL     1      -2.135   5.371  13.957  1.00  0.00     0.207 A 
ATOM      3  C   UNL     1      -2.381   4.442  12.928  1.00  0.00     0.208 A 
ATOM      4  C   UNL     1      -2.600   4.896  11.606  1.00  0.00     0.184 A 
ATOM      5  C   UNL     1      -2.571   6.279  11.329  1.00  0.00     0.025 A 
ATOM      6  C   UNL     1      -2.327   7.197  12.352  1.00  0.00     0.062 A 
ATOM      7  C   UNL     1      -2.790   6.708  10.015  1.00  0.00     0.020 A 
ATOM      8  C   UNL     1      -3.031   5.769   9.016  1.00  0.00     0.094 A 
ATOM      9  C   UNL     1      -3.047   4.415   9.358  1.00  0.00     0.336 A 
ATOM     10  O   UNL     1      -3.263   3.546   8.473  1.00  0.00    -0.246 OA
ATOM     11  O   UNL     1      -2.835   4.037  10.616  1.00  0.00    -0.419 OA
ENDROOT
BRANCH   1  12
ATOM     12  O   UNL     1      -1.861   7.684  14.700  1.00  0.00    -0.493 OA
ATOM     13  C   UNL     1      -2.775   8.013  15.741  1.00  0.00     0.278 C 
ENDBRANCH   1  12
BRANCH   2  14
ATOM     14  O   UNL     1      -1.926   4.838  15.245  1.00  0.00    -0.490 OA
ATOM     15  C   UNL     1      -0.688   4.754  15.940  1.00  0.00     0.278 C 
ENDBRANCH   2  14
BRANCH   3  16
ATOM     16  O   UNL     1      -2.393   3.081  13.293  1.00  0.00    -0.490 OA
ATOM     17  C   UNL     1      -3.503   2.352  13.807  1.00  0.00     0.278 C 
ENDBRANCH   3  16
TORSDOF 3
ENDMDL
MODEL 9
REMARK VINA RESULT:    -4.648      1.602      4.195
REMARK INTER + INTRA:          -5.703
REMARK INTER:                  -5.444
REMARK INTRA:                  -0.259
REMARK UNBOUND:                -0.240
REMARK SMILES COc1cc2ccc(=O)oc2c(OC)c1OC
REMARK SMILES IDX 3 1 15 2 12 3 11 4 5 5 4 6 6 7 7 8 8 9 9 10 10 11 2 12 1 13
REMARK SMILES IDX 16 14 17 15 13 16 14 17
REMARK H PARENT
REMARK Flexibility Score: inf
ROOT
ATOM      1  C   UNL     1      -2.035   7.016  12.194  1.00  0.00     0.165 A 
ATOM      2  C   UNL     1      -1.944   6.032  11.174  1.00  0.00     0.207 A 
ATOM      3  C   UNL     1      -2.316   4.700  11.441  1.00  0.00     0.208 A 
ATOM      4  C   UNL     1      -2.783   4.343  12.728  1.00  0.00     0.184 A 
ATOM      5  C   UNL     1      -2.871   5.325  13.736  1.00  0.00     0.025 A 
ATOM      6  C   UNL     1      -2.500   6.645  13.468  1.00  0.00     0.062 A 
ATOM      7  C   UNL     1      -3.334   4.953  15.003  1.00  0.00     0.020 A 
ATOM      8  C   UNL     1      -3.696   3.630  15.240  1.00  0.00     0.094 A 
ATOM      9  C   UNL     1      -3.584   2.706  14.198  1.00  0.00     0.336 A 
ATOM     10  O   UNL     1      -3.905   1.504  14.388  1.00  0.00    -0.246 OA
ATOM     11  O   UNL     1      -3.141   3.091  13.005  1.00  0.00    -0.419 OA
ENDROOT
BRANCH   1  12
ATOM     12  O   UNL     1      -1.663   8.342  11.923  1.00  0.00    -0.493 OA
ATOM     13  C   UNL     1      -2.491   9.483  12.128  1.00  0.00     0.278 C 
ENDBRANCH   1  12
BRANCH   2  14
ATOM     14  O   UNL     1      -1.491   6.305   9.868  1.00  0.00    -0.490 OA
ATOM     15  C   UNL     1      -2.250   6.871   8.805  1.00  0.00     0.278 C 
ENDBRANCH   2  14
BRANCH   3  16
ATOM     16  O   UNL     1      -2.197   3.784  10.377  1.00  0.00    -0.490 OA
ATOM     17  C   UNL     1      -3.251   3.316   9.541  1.00  0.00     0.278 C 
ENDBRANCH   3  16
TORSDOF 3
ENDMDL
