MODEL 1
REMARK VINA RESULT:    -4.824      0.000      0.000
REMARK INTER + INTRA:          -8.774
REMARK INTER:                  -8.208
REMARK INTRA:                  -0.566
REMARK UNBOUND:                -0.566
REMARK SMILES CCCCCCCCCCCCCC(=O)[O-]
REMARK SMILES IDX 8 1 9 2 10 3 11 4 12 5 13 6 14 7 15 8 16 9 7 10 6 11 5 12
REMARK SMILES IDX 4 13 3 14 2 15 1 16
REMARK H PARENT
REMARK Flexibility Score: inf
ROOT
ATOM      1  C   UNL     1      -8.373  -2.186 -12.702  1.00  0.00     0.000 C 
ENDROOT
BRANCH   1   2
ATOM      2  C   UNL     1      -7.651  -2.166 -11.345  1.00  0.00     0.000 C 
BRANCH   2   3
ATOM      3  C   UNL     1      -6.678  -0.985 -11.206  1.00  0.00     0.000 C 
BRANCH   3   4
ATOM      4  C   UNL     1      -6.840  -0.298  -9.843  1.00  0.00     0.000 C 
BRANCH   4   5
ATOM      5  C   UNL     1      -6.161   1.082  -9.776  1.00  0.00     0.006 C 
BRANCH   5   6
ATOM      6  C   UNL     1      -7.068   2.199  -9.231  1.00  0.00     0.053 C 
BRANCH   6   7
ATOM      7  C   UNL     1      -7.434   3.205 -10.280  1.00  0.00     0.041 C 
ATOM      8  O   UNL     1      -6.923   3.136 -11.428  1.00  0.00    -0.550 OA
ATOM      9  O   UNL     1      -8.310   4.240  -9.979  1.00  0.00    -0.550 OA
ENDBRANCH   6   7
ENDBRANCH   5   6
ENDBRANCH   4   5
ENDBRANCH   3   4
ENDBRANCH   2   3
ENDBRANCH   1   2
BRANCH   1  10
ATOM     10  C   UNL     1      -7.428  -2.514 -13.870  1.00  0.00     0.000 C 
BRANCH  10  11
ATOM     11  C   UNL     1      -7.922  -3.694 -14.725  1.00  0.00    -0.000 C 
BRANCH  11  12
ATOM     12  C   UNL     1      -9.447  -3.924 -14.712  1.00  0.00    -0.000 C 
BRANCH  12  13
ATOM     13  C   UNL     1      -9.891  -5.372 -14.438  1.00  0.00    -0.000 C 
BRANCH  13  14
ATOM     14  C   UNL     1     -11.332  -5.652 -14.899  1.00  0.00    -0.000 C 
BRANCH  14  15
ATOM     15  C   UNL     1     -12.038  -4.389 -15.418  1.00  0.00    -0.003 C 
ATOM     16  C   UNL     1     -13.419  -4.185 -14.798  1.00  0.00     0.004 C 
ENDBRANCH  14  15
ENDBRANCH  13  14
ENDBRANCH  12  13
ENDBRANCH  11  12
ENDBRANCH  10  11
ENDBRANCH   1  10
TORSDOF 12
ENDMDL
MODEL 2
REMARK VINA RESULT:    -4.820      1.194      1.449
REMARK INTER + INTRA:          -8.767
REMARK INTER:                  -8.225
REMARK INTRA:                  -0.542
REMARK UNBOUND:                -0.566
REMARK SMILES CCCCCCCCCCCCCC(=O)[O-]
REMARK SMILES IDX 8 1 9 2 10 3 11 4 12 5 13 6 14 7 15 8 16 9 7 10 6 11 5 12
REMARK SMILES IDX 4 13 3 14 2 15 1 16
REMARK H PARENT
REMARK Flexibility Score: inf
ROOT
ATOM      1  C   UNL     1      -7.581  -2.636 -13.597  1.00  0.00     0.000 C 
ENDROOT
BRANCH   1   2
ATOM      2  C   UNL     1      -8.074  -1.935 -12.321  1.00  0.00     0.000 C 
BRANCH   2   3
ATOM      3  C   UNL     1      -7.047  -1.982 -11.180  1.00  0.00     0.000 C 
BRANCH   3   4
ATOM      4  C   UNL     1      -6.624  -0.567 -10.763  1.00  0.00     0.000 C 
BRANCH   4   5
ATOM      5  C   UNL     1      -6.616  -0.362  -9.238  1.00  0.00     0.006 C 
BRANCH   5   6
ATOM      6  C   UNL     1      -7.375   0.893  -8.772  1.00  0.00     0.053 C 
BRANCH   6   7
ATOM      7  C   UNL     1      -6.701   2.163  -9.198  1.00  0.00     0.041 C 
ATOM      8  O   UNL     1      -5.459   2.301  -9.050  1.00  0.00    -0.550 OA
ATOM      9  O   UNL     1      -7.451   3.209  -9.722  1.00  0.00    -0.550 OA
ENDBRANCH   6   7
ENDBRANCH   5   6
ENDBRANCH   4   5
ENDBRANCH   3   4
ENDBRANCH   2   3
ENDBRANCH   1   2
BRANCH   1  10
ATOM     10  C   UNL     1      -8.532  -3.751 -14.063  1.00  0.00     0.000 C 
BRANCH  10  11
ATOM     11  C   UNL     1      -8.624  -3.856 -15.596  1.00  0.00    -0.000 C 
BRANCH  11  12
ATOM     12  C   UNL     1      -9.098  -5.221 -16.136  1.00  0.00    -0.000 C 
BRANCH  12  13
ATOM     13  C   UNL     1     -10.201  -5.908 -15.310  1.00  0.00    -0.000 C 
BRANCH  13  14
ATOM     14  C   UNL     1     -11.606  -5.368 -15.626  1.00  0.00    -0.000 C 
BRANCH  14  15
ATOM     15  C   UNL     1     -12.268  -4.703 -14.408  1.00  0.00    -0.003 C 
ATOM     16  C   UNL     1     -13.587  -4.013 -14.753  1.00  0.00     0.004 C 
ENDBRANCH  14  15
ENDBRANCH  13  14
ENDBRANCH  12  13
ENDBRANCH  11  12
ENDBRANCH  10  11
ENDBRANCH   1  10
TORSDOF 12
ENDMDL
MODEL 3
REMARK VINA RESULT:    -4.752      3.895      8.193
REMARK INTER + INTRA:          -8.652
REMARK INTER:                  -7.883
REMARK INTRA:                  -0.770
REMARK UNBOUND:                -0.566
REMARK SMILES CCCCCCCCCCCCCC(=O)[O-]
REMARK SMILES IDX 8 1 9 2 10 3 11 4 12 5 13 6 14 7 15 8 16 9 7 10 6 11 5 12
REMARK SMILES IDX 4 13 3 14 2 15 1 16
REMARK H PARENT
REMARK Flexibility Score: inf
ROOT
ATOM      1  C   UNL     1      -7.135  -2.204 -11.361  1.00  0.00     0.000 C 
ENDROOT
BRANCH   1   2
ATOM      2  C   UNL     1      -8.133  -1.963 -12.505  1.00  0.00     0.000 C 
BRANCH   2   3
ATOM      3  C   UNL     1      -7.790  -2.759 -13.773  1.00  0.00     0.000 C 
BRANCH   3   4
ATOM      4  C   UNL     1      -8.973  -3.634 -14.210  1.00  0.00     0.000 C 
BRANCH   4   5
ATOM      5  C   UNL     1      -8.944  -3.988 -15.707  1.00  0.00     0.006 C 
BRANCH   5   6
ATOM      6  C   UNL     1     -10.267  -3.710 -16.442  1.00  0.00     0.053 C 
BRANCH   6   7
ATOM      7  C   UNL     1     -11.408  -4.513 -15.895  1.00  0.00     0.041 C 
ATOM      8  O   UNL     1     -11.265  -5.744 -15.670  1.00  0.00    -0.550 OA
ATOM      9  O   UNL     1     -12.641  -3.913 -15.670  1.00  0.00    -0.550 OA
ENDBRANCH   6   7
ENDBRANCH   5   6
ENDBRANCH   4   5
ENDBRANCH   3   4
ENDBRANCH   2   3
ENDBRANCH   1   2
BRANCH   1  10
ATOM     10  C   UNL     1      -7.001  -0.989 -10.428  1.00  0.00     0.000 C 
BRANCH  10  11
ATOM     11  C   UNL     1      -5.720  -1.028  -9.576  1.00  0.00    -0.000 C 
BRANCH  11  12
ATOM     12  C   UNL     1      -4.440  -0.544 -10.288  1.00  0.00    -0.000 C 
BRANCH  12  13
ATOM     13  C   UNL     1      -4.647   0.575 -11.323  1.00  0.00    -0.000 C 
BRANCH  13  14
ATOM     14  C   UNL     1      -4.811   1.962 -10.678  1.00  0.00    -0.000 C 
BRANCH  14  15
ATOM     15  C   UNL     1      -6.153   2.621 -11.035  1.00  0.00    -0.003 C 
ATOM     16  C   UNL     1      -7.050   2.838  -9.818  1.00  0.00     0.004 C 
ENDBRANCH  14  15
ENDBRANCH  13  14
ENDBRANCH  12  13
ENDBRANCH  11  12
ENDBRANCH  10  11
ENDBRANCH   1  10
TORSDOF 12
ENDMDL
MODEL 4
REMARK VINA RESULT:    -4.731      5.410      7.036
REMARK INTER + INTRA:          -8.617
REMARK INTER:                  -7.888
REMARK INTRA:                  -0.729
REMARK UNBOUND:                -0.566
REMARK SMILES CCCCCCCCCCCCCC(=O)[O-]
REMARK SMILES IDX 8 1 9 2 10 3 11 4 12 5 13 6 14 7 15 8 16 9 7 10 6 11 5 12
REMARK SMILES IDX 4 13 3 14 2 15 1 16
REMARK H PARENT
REMARK Flexibility Score: inf
ROOT
ATOM      1  C   UNL     1      -6.367  -2.854 -14.325  1.00  0.00     0.000 C 
ENDROOT
BRANCH   1   2
ATOM      2  C   UNL     1      -5.239  -3.262 -15.285  1.00  0.00     0.000 C 
BRANCH   2   3
ATOM      3  C   UNL     1      -4.074  -2.259 -15.297  1.00  0.00     0.000 C 
BRANCH   3   4
ATOM      4  C   UNL     1      -3.181  -2.470 -16.528  1.00  0.00     0.000 C 
BRANCH   4   5
ATOM      5  C   UNL     1      -3.443  -1.447 -17.647  1.00  0.00     0.006 C 
BRANCH   5   6
ATOM      6  C   UNL     1      -2.960  -1.902 -19.036  1.00  0.00     0.053 C 
BRANCH   6   7
ATOM      7  C   UNL     1      -1.480  -1.738 -19.211  1.00  0.00     0.041 C 
ATOM      8  O   UNL     1      -0.857  -2.456 -20.036  1.00  0.00    -0.550 OA
ATOM      9  O   UNL     1      -0.782  -0.820 -18.437  1.00  0.00    -0.550 OA
ENDBRANCH   6   7
ENDBRANCH   5   6
ENDBRANCH   4   5
ENDBRANCH   3   4
ENDBRANCH   2   3
ENDBRANCH   1   2
BRANCH   1  10
ATOM     10  C   UNL     1      -7.438  -3.947 -14.173  1.00  0.00     0.000 C 
BRANCH  10  11
ATOM     11  C   UNL     1      -7.784  -4.634 -15.505  1.00  0.00    -0.000 C 
BRANCH  11  12
ATOM     12  C   UNL     1      -9.119  -4.199 -16.144  1.00  0.00    -0.000 C 
BRANCH  12  13
ATOM     13  C   UNL     1     -10.285  -4.000 -15.159  1.00  0.00    -0.000 C 
BRANCH  13  14
ATOM     14  C   UNL     1     -11.341  -5.115 -15.250  1.00  0.00    -0.000 C 
BRANCH  14  15
ATOM     15  C   UNL     1     -11.234  -6.122 -14.094  1.00  0.00    -0.003 C 
ATOM     16  C   UNL     1     -10.458  -7.382 -14.474  1.00  0.00     0.004 C 
ENDBRANCH  14  15
ENDBRANCH  13  14
ENDBRANCH  12  13
ENDBRANCH  11  12
ENDBRANCH  10  11
ENDBRANCH   1  10
TORSDOF 12
ENDMDL
MODEL 5
REMARK VINA RESULT:    -4.717      5.292      8.446
REMARK INTER + INTRA:          -8.592
REMARK INTER:                  -8.077
REMARK INTRA:                  -0.515
REMARK UNBOUND:                -0.566
REMARK SMILES CCCCCCCCCCCCCC(=O)[O-]
REMARK SMILES IDX 8 1 9 2 10 3 11 4 12 5 13 6 14 7 15 8 16 9 7 10 6 11 5 12
REMARK SMILES IDX 4 13 3 14 2 15 1 16
REMARK H PARENT
REMARK Flexibility Score: inf
ROOT
ATOM      1  C   UNL     1      -6.293  -2.646 -13.431  1.00  0.00     0.000 C 
ENDROOT
BRANCH   1   2
ATOM      2  C   UNL     1      -7.595  -2.706 -14.246  1.00  0.00     0.000 C 
BRANCH   2   3
ATOM      3  C   UNL     1      -8.310  -4.061 -14.127  1.00  0.00     0.000 C 
BRANCH   3   4
ATOM      4  C   UNL     1      -9.058  -4.402 -15.424  1.00  0.00     0.000 C 
BRANCH   4   5
ATOM      5  C   UNL     1     -10.296  -5.288 -15.194  1.00  0.00     0.006 C 
BRANCH   5   6
ATOM      6  C   UNL     1     -11.526  -4.868 -16.016  1.00  0.00     0.053 C 
BRANCH   6   7
ATOM      7  C   UNL     1     -12.632  -4.326 -15.161  1.00  0.00     0.041 C 
ATOM      8  O   UNL     1     -12.666  -4.588 -13.930  1.00  0.00    -0.550 OA
ATOM      9  O   UNL     1     -13.646  -3.565 -15.729  1.00  0.00    -0.550 OA
ENDBRANCH   6   7
ENDBRANCH   5   6
ENDBRANCH   4   5
ENDBRANCH   3   4
ENDBRANCH   2   3
ENDBRANCH   1   2
BRANCH   1  10
ATOM     10  C   UNL     1      -5.060  -2.371 -14.307  1.00  0.00     0.000 C 
BRANCH  10  11
ATOM     11  C   UNL     1      -4.970  -3.308 -15.524  1.00  0.00    -0.000 C 
BRANCH  11  12
ATOM     12  C   UNL     1      -3.774  -3.053 -16.465  1.00  0.00    -0.000 C 
BRANCH  12  13
ATOM     13  C   UNL     1      -3.717  -1.647 -17.089  1.00  0.00    -0.000 C 
BRANCH  13  14
ATOM     14  C   UNL     1      -3.058  -1.638 -18.479  1.00  0.00    -0.000 C 
BRANCH  14  15
ATOM     15  C   UNL     1      -1.525  -1.552 -18.402  1.00  0.00    -0.003 C 
ATOM     16  C   UNL     1      -0.839  -2.018 -19.685  1.00  0.00     0.004 C 
ENDBRANCH  14  15
ENDBRANCH  13  14
ENDBRANCH  12  13
ENDBRANCH  11  12
ENDBRANCH  10  11
ENDBRANCH   1  10
TORSDOF 12
ENDMDL
MODEL 6
REMARK VINA RESULT:    -4.675      3.416      4.830
REMARK INTER + INTRA:          -8.521
REMARK INTER:                  -7.733
REMARK INTRA:                  -0.789
REMARK UNBOUND:                -0.566
REMARK SMILES CCCCCCCCCCCCCC(=O)[O-]
REMARK SMILES IDX 8 1 9 2 10 3 11 4 12 5 13 6 14 7 15 8 16 9 7 10 6 11 5 12
REMARK SMILES IDX 4 13 3 14 2 15 1 16
REMARK H PARENT
REMARK Flexibility Score: inf
ROOT
ATOM      1  C   UNL     1      -7.335  -2.427 -11.625  1.00  0.00     0.000 C 
ENDROOT
BRANCH   1   2
ATOM      2  C   UNL     1      -7.065  -1.110 -10.880  1.00  0.00     0.000 C 
BRANCH   2   3
ATOM      3  C   UNL     1      -5.994  -1.252  -9.788  1.00  0.00     0.000 C 
BRANCH   3   4
ATOM      4  C   UNL     1      -6.136  -0.148  -8.732  1.00  0.00     0.000 C 
BRANCH   4   5
ATOM      5  C   UNL     1      -7.309   0.809  -9.011  1.00  0.00     0.006 C 
BRANCH   5   6
ATOM      6  C   UNL     1      -6.914   2.296  -9.020  1.00  0.00     0.053 C 
BRANCH   6   7
ATOM      7  C   UNL     1      -6.663   2.816 -10.403  1.00  0.00     0.041 C 
ATOM      8  O   UNL     1      -7.441   3.666 -10.910  1.00  0.00    -0.550 OA
ATOM      9  O   UNL     1      -5.594   2.334 -11.148  1.00  0.00    -0.550 OA
ENDBRANCH   6   7
ENDBRANCH   5   6
ENDBRANCH   4   5
ENDBRANCH   3   4
ENDBRANCH   2   3
ENDBRANCH   1   2
BRANCH   1  10
ATOM     10  C   UNL     1      -6.086  -3.320 -11.718  1.00  0.00     0.000 C 
BRANCH  10  11
ATOM     11  C   UNL     1      -6.428  -4.817 -11.822  1.00  0.00    -0.000 C 
BRANCH  11  12
ATOM     12  C   UNL     1      -7.278  -5.380 -10.664  1.00  0.00    -0.000 C 
BRANCH  12  13
ATOM     13  C   UNL     1      -6.527  -6.302  -9.686  1.00  0.00    -0.000 C 
BRANCH  13  14
ATOM     14  C   UNL     1      -6.736  -5.908  -8.214  1.00  0.00    -0.000 C 
BRANCH  14  15
ATOM     15  C   UNL     1      -7.824  -6.750  -7.529  1.00  0.00    -0.003 C 
ATOM     16  C   UNL     1      -7.382  -7.302  -6.174  1.00  0.00     0.004 C 
ENDBRANCH  14  15
ENDBRANCH  13  14
ENDBRANCH  12  13
ENDBRANCH  11  12
ENDBRANCH  10  11
ENDBRANCH   1  10
TORSDOF 12
ENDMDL
MODEL 7
REMARK VINA RESULT:    -4.662      1.583      2.606
REMARK INTER + INTRA:          -8.498
REMARK INTER:                  -7.686
REMARK INTRA:                  -0.812
REMARK UNBOUND:                -0.566
REMARK SMILES CCCCCCCCCCCCCC(=O)[O-]
REMARK SMILES IDX 8 1 9 2 10 3 11 4 12 5 13 6 14 7 15 8 16 9 7 10 6 11 5 12
REMARK SMILES IDX 4 13 3 14 2 15 1 16
REMARK H PARENT
REMARK Flexibility Score: inf
ROOT
ATOM      1  C   UNL     1      -6.992  -0.977 -10.491  1.00  0.00     0.000 C 
ENDROOT
BRANCH   1   2
ATOM      2  C   UNL     1      -5.857  -1.221  -9.483  1.00  0.00     0.000 C 
BRANCH   2   3
ATOM      3  C   UNL     1      -4.666  -0.271  -9.686  1.00  0.00     0.000 C 
BRANCH   3   4
ATOM      4  C   UNL     1      -4.795   0.497 -11.009  1.00  0.00     0.000 C 
BRANCH   4   5
ATOM      5  C   UNL     1      -4.920   2.019 -10.816  1.00  0.00     0.006 C 
BRANCH   5   6
ATOM      6  C   UNL     1      -6.311   2.581 -11.159  1.00  0.00     0.053 C 
BRANCH   6   7
ATOM      7  C   UNL     1      -7.075   3.008  -9.942  1.00  0.00     0.041 C 
ATOM      8  O   UNL     1      -6.890   2.424  -8.842  1.00  0.00    -0.550 OA
ATOM      9  O   UNL     1      -8.018   4.023 -10.030  1.00  0.00    -0.550 OA
ENDBRANCH   6   7
ENDBRANCH   5   6
ENDBRANCH   4   5
ENDBRANCH   3   4
ENDBRANCH   2   3
ENDBRANCH   1   2
BRANCH   1  10
ATOM     10  C   UNL     1      -7.326  -2.229 -11.319  1.00  0.00     0.000 C 
BRANCH  10  11
ATOM     11  C   UNL     1      -8.115  -1.905 -12.600  1.00  0.00    -0.000 C 
BRANCH  11  12
ATOM     12  C   UNL     1      -7.717  -2.726 -13.844  1.00  0.00    -0.000 C 
BRANCH  12  13
ATOM     13  C   UNL     1      -8.561  -3.988 -14.097  1.00  0.00    -0.000 C 
BRANCH  13  14
ATOM     14  C   UNL     1      -9.751  -3.732 -15.037  1.00  0.00    -0.000 C 
BRANCH  14  15
ATOM     15  C   UNL     1      -9.734  -4.650 -16.270  1.00  0.00    -0.003 C 
ATOM     16  C   UNL     1      -8.475  -5.513 -16.350  1.00  0.00     0.004 C 
ENDBRANCH  14  15
ENDBRANCH  13  14
ENDBRANCH  12  13
ENDBRANCH  11  12
ENDBRANCH  10  11
ENDBRANCH   1  10
TORSDOF 12
ENDMDL
MODEL 8
REMARK VINA RESULT:    -4.645      3.595      5.452
REMARK INTER + INTRA:          -8.469
REMARK INTER:                  -8.110
REMARK INTRA:                  -0.359
REMARK UNBOUND:                -0.566
REMARK SMILES CCCCCCCCCCCCCC(=O)[O-]
REMARK SMILES IDX 8 1 9 2 10 3 11 4 12 5 13 6 14 7 15 8 16 9 7 10 6 11 5 12
REMARK SMILES IDX 4 13 3 14 2 15 1 16
REMARK H PARENT
REMARK Flexibility Score: inf
ROOT
ATOM      1  C   UNL     1      -7.214  -2.773 -13.172  1.00  0.00     0.000 C 
ENDROOT
BRANCH   1   2
ATOM      2  C   UNL     1      -7.752  -1.820 -12.092  1.00  0.00     0.000 C 
BRANCH   2   3
ATOM      3  C   UNL     1      -6.779  -1.642 -10.916  1.00  0.00     0.000 C 
BRANCH   3   4
ATOM      4  C   UNL     1      -6.944  -0.258 -10.272  1.00  0.00     0.000 C 
BRANCH   4   5
ATOM      5  C   UNL     1      -5.757   0.682 -10.546  1.00  0.00     0.006 C 
BRANCH   5   6
ATOM      6  C   UNL     1      -6.169   2.080 -11.040  1.00  0.00     0.053 C 
BRANCH   6   7
ATOM      7  C   UNL     1      -6.856   2.886  -9.979  1.00  0.00     0.041 C 
ATOM      8  O   UNL     1      -6.707   2.591  -8.764  1.00  0.00    -0.550 OA
ATOM      9  O   UNL     1      -7.692   3.938 -10.332  1.00  0.00    -0.550 OA
ENDBRANCH   6   7
ENDBRANCH   5   6
ENDBRANCH   4   5
ENDBRANCH   3   4
ENDBRANCH   2   3
ENDBRANCH   1   2
BRANCH   1  10
ATOM     10  C   UNL     1      -5.710  -2.582 -13.431  1.00  0.00     0.000 C 
BRANCH  10  11
ATOM     11  C   UNL     1      -5.307  -2.915 -14.879  1.00  0.00    -0.000 C 
BRANCH  11  12
ATOM     12  C   UNL     1      -4.180  -2.040 -15.466  1.00  0.00    -0.000 C 
BRANCH  12  13
ATOM     13  C   UNL     1      -3.572  -2.550 -16.785  1.00  0.00    -0.000 C 
BRANCH  13  14
ATOM     14  C   UNL     1      -3.364  -1.429 -17.818  1.00  0.00    -0.000 C 
BRANCH  14  15
ATOM     15  C   UNL     1      -2.931  -1.968 -19.191  1.00  0.00    -0.003 C 
ATOM     16  C   UNL     1      -1.413  -1.991 -19.367  1.00  0.00     0.004 C 
ENDBRANCH  14  15
ENDBRANCH  13  14
ENDBRANCH  12  13
ENDBRANCH  11  12
ENDBRANCH  10  11
ENDBRANCH   1  10
TORSDOF 12
ENDMDL
MODEL 9
REMARK VINA RESULT:    -4.622      3.897      8.112
REMARK INTER + INTRA:          -8.431
REMARK INTER:                  -7.804
REMARK INTRA:                  -0.627
REMARK UNBOUND:                -0.566
REMARK SMILES CCCCCCCCCCCCCC(=O)[O-]
REMARK SMILES IDX 8 1 9 2 10 3 11 4 12 5 13 6 14 7 15 8 16 9 7 10 6 11 5 12
REMARK SMILES IDX 4 13 3 14 2 15 1 16
REMARK H PARENT
REMARK Flexibility Score: inf
ROOT
ATOM      1  C   UNL     1      -7.707  -2.160 -12.609  1.00  0.00     0.000 C 
ENDROOT
BRANCH   1   2
ATOM      2  C   UNL     1      -6.949  -2.608 -13.869  1.00  0.00     0.000 C 
BRANCH   2   3
ATOM      3  C   UNL     1      -7.622  -3.792 -14.580  1.00  0.00     0.000 C 
BRANCH   3   4
ATOM      4  C   UNL     1      -9.140  -3.585 -14.674  1.00  0.00     0.000 C 
BRANCH   4   5
ATOM      5  C   UNL     1      -9.675  -3.678 -16.114  1.00  0.00     0.006 C 
BRANCH   5   6
ATOM      6  C   UNL     1     -10.542  -4.922 -16.379  1.00  0.00     0.053 C 
BRANCH   6   7
ATOM      7  C   UNL     1     -11.608  -5.111 -15.342  1.00  0.00     0.041 C 
ATOM      8  O   UNL     1     -12.649  -4.404 -15.368  1.00  0.00    -0.550 OA
ATOM      9  O   UNL     1     -11.435  -6.041 -14.324  1.00  0.00    -0.550 OA
ENDBRANCH   6   7
ENDBRANCH   5   6
ENDBRANCH   4   5
ENDBRANCH   3   4
ENDBRANCH   2   3
ENDBRANCH   1   2
BRANCH   1  10
ATOM     10  C   UNL     1      -7.341  -2.997 -11.371  1.00  0.00     0.000 C 
BRANCH  10  11
ATOM     11  C   UNL     1      -6.269  -2.327 -10.493  1.00  0.00    -0.000 C 
BRANCH  11  12
ATOM     12  C   UNL     1      -6.311  -0.785 -10.463  1.00  0.00    -0.000 C 
BRANCH  12  13
ATOM     13  C   UNL     1      -6.663  -0.163  -9.100  1.00  0.00    -0.000 C 
BRANCH  13  14
ATOM     14  C   UNL     1      -7.186   1.278  -9.219  1.00  0.00    -0.000 C 
BRANCH  14  15
ATOM     15  C   UNL     1      -6.314   2.146 -10.141  1.00  0.00    -0.003 C 
ATOM     16  C   UNL     1      -7.100   3.269 -10.816  1.00  0.00     0.004 C 
ENDBRANCH  14  15
ENDBRANCH  13  14
ENDBRANCH  12  13
ENDBRANCH  11  12
ENDBRANCH  10  11
ENDBRANCH   1  10
TORSDOF 12
ENDMDL
