MODEL 1
REMARK VINA RESULT:    -5.137      0.000      0.000
REMARK INTER + INTRA:          -6.716
REMARK INTER:                  -6.339
REMARK INTRA:                  -0.377
REMARK UNBOUND:                -0.377
REMARK SMILES COC(=O)c1ccccc1C(=O)OC
REMARK SMILES IDX 5 1 6 2 7 3 8 4 9 5 10 6 3 7 4 8 2 9 1 10 11 11 12 12 13 13
REMARK SMILES IDX 14 14
REMARK H PARENT
REMARK Flexibility Score: inf
ROOT
ATOM      1  C   UNL     1     138.168 139.780 140.076  1.00  0.00     0.074 A 
ATOM      2  C   UNL     1     137.506 139.555 138.856  1.00  0.00     0.016 A 
ATOM      3  C   UNL     1     138.077 139.958 137.648  1.00  0.00     0.001 A 
ATOM      4  C   UNL     1     139.319 140.591 137.639  1.00  0.00     0.001 A 
ATOM      5  C   UNL     1     139.983 140.844 138.840  1.00  0.00     0.016 A 
ATOM      6  C   UNL     1     139.415 140.465 140.071  1.00  0.00     0.074 A 
ENDROOT
BRANCH   1   7
ATOM      7  C   UNL     1     137.561 139.226 141.308  1.00  0.00     0.338 C 
ATOM      8  O   UNL     1     136.529 139.756 141.803  1.00  0.00    -0.246 OA
BRANCH   7   9
ATOM      9  O   UNL     1     138.171 138.143 141.950  1.00  0.00    -0.465 OA
ATOM     10  C   UNL     1     138.516 136.943 141.269  1.00  0.00     0.282 C 
ENDBRANCH   7   9
ENDBRANCH   1   7
BRANCH   6  11
ATOM     11  C   UNL     1     140.110 140.867 141.315  1.00  0.00     0.338 C 
ATOM     12  O   UNL     1     139.999 142.050 141.741  1.00  0.00    -0.246 OA
BRANCH  11  13
ATOM     13  O   UNL     1     140.843 139.924 142.044  1.00  0.00    -0.465 OA
ATOM     14  C   UNL     1     141.627 138.913 141.423  1.00  0.00     0.282 C 
ENDBRANCH  11  13
ENDBRANCH   6  11
TORSDOF 4
ENDMDL
MODEL 2
REMARK VINA RESULT:    -5.134      0.076      2.995
REMARK INTER + INTRA:          -6.711
REMARK INTER:                  -6.335
REMARK INTRA:                  -0.376
REMARK UNBOUND:                -0.377
REMARK SMILES COC(=O)c1ccccc1C(=O)OC
REMARK SMILES IDX 5 1 6 2 7 3 8 4 9 5 10 6 3 7 4 8 2 9 1 10 11 11 12 12 13 13
REMARK SMILES IDX 14 14
REMARK H PARENT
REMARK Flexibility Score: inf
ROOT
ATOM      1  C   UNL     1     139.391 140.485 140.044  1.00  0.00     0.074 A 
ATOM      2  C   UNL     1     139.929 140.847 138.796  1.00  0.00     0.016 A 
ATOM      3  C   UNL     1     139.247 140.557 137.613  1.00  0.00     0.001 A 
ATOM      4  C   UNL     1     138.017 139.903 137.658  1.00  0.00     0.001 A 
ATOM      5  C   UNL     1     137.476 139.515 138.884  1.00  0.00     0.016 A 
ATOM      6  C   UNL     1     138.158 139.778 140.088  1.00  0.00     0.074 A 
ENDROOT
BRANCH   1   7
ATOM      7  C   UNL     1     140.111 140.923 141.262  1.00  0.00     0.338 C 
ATOM      8  O   UNL     1     140.098 142.136 141.608  1.00  0.00    -0.246 OA
BRANCH   7   9
ATOM      9  O   UNL     1     140.852 139.991 141.996  1.00  0.00    -0.465 OA
ATOM     10  C   UNL     1     141.612 138.959 141.380  1.00  0.00     0.282 C 
ENDBRANCH   7   9
ENDBRANCH   1   7
BRANCH   6  11
ATOM     11  C   UNL     1     137.592 139.237 141.345  1.00  0.00     0.338 C 
ATOM     12  O   UNL     1     136.547 139.750 141.834  1.00  0.00    -0.246 OA
BRANCH  11  13
ATOM     13  O   UNL     1     138.183 138.128 141.960  1.00  0.00    -0.465 OA
ATOM     14  C   UNL     1     138.535 136.950 141.245  1.00  0.00     0.282 C 
ENDBRANCH  11  13
ENDBRANCH   6  11
TORSDOF 4
ENDMDL
MODEL 3
REMARK VINA RESULT:    -5.094      1.552      3.825
REMARK INTER + INTRA:          -6.663
REMARK INTER:                  -6.289
REMARK INTRA:                  -0.374
REMARK UNBOUND:                -0.377
REMARK SMILES COC(=O)c1ccccc1C(=O)OC
REMARK SMILES IDX 5 1 6 2 7 3 8 4 9 5 10 6 3 7 4 8 2 9 1 10 11 11 12 12 13 13
REMARK SMILES IDX 14 14
REMARK H PARENT
REMARK Flexibility Score: inf
ROOT
ATOM      1  C   UNL     1     140.351 138.785 139.838  1.00  0.00     0.074 A 
ATOM      2  C   UNL     1     140.984 139.037 138.608  1.00  0.00     0.016 A 
ATOM      3  C   UNL     1     140.354 138.726 137.403  1.00  0.00     0.001 A 
ATOM      4  C   UNL     1     139.080 138.159 137.407  1.00  0.00     0.001 A 
ATOM      5  C   UNL     1     138.443 137.881 138.616  1.00  0.00     0.016 A 
ATOM      6  C   UNL     1     139.070 138.167 139.844  1.00  0.00     0.074 A 
ENDROOT
BRANCH   1   7
ATOM      7  C   UNL     1     141.028 139.244 141.073  1.00  0.00     0.338 C 
ATOM      8  O   UNL     1     142.030 138.621 141.519  1.00  0.00    -0.246 OA
BRANCH   7   9
ATOM      9  O   UNL     1     140.513 140.340 141.773  1.00  0.00    -0.465 OA
ATOM     10  C   UNL     1     140.043 141.514 141.123  1.00  0.00     0.282 C 
ENDBRANCH   7   9
ENDBRANCH   1   7
BRANCH   6  11
ATOM     11  C   UNL     1     138.395 137.740 141.090  1.00  0.00     0.338 C 
ATOM     12  O   UNL     1     138.467 136.535 141.461  1.00  0.00    -0.246 OA
BRANCH  11  13
ATOM     13  O   UNL     1     137.725 138.678 141.882  1.00  0.00    -0.465 OA
ATOM     14  C   UNL     1     136.901 139.698 141.332  1.00  0.00     0.282 C 
ENDBRANCH  11  13
ENDBRANCH   6  11
TORSDOF 4
ENDMDL
MODEL 4
REMARK VINA RESULT:    -5.091      1.524      2.378
REMARK INTER + INTRA:          -6.659
REMARK INTER:                  -6.294
REMARK INTRA:                  -0.365
REMARK UNBOUND:                -0.377
REMARK SMILES COC(=O)c1ccccc1C(=O)OC
REMARK SMILES IDX 5 1 6 2 7 3 8 4 9 5 10 6 3 7 4 8 2 9 1 10 11 11 12 12 13 13
REMARK SMILES IDX 14 14
REMARK H PARENT
REMARK Flexibility Score: inf
ROOT
ATOM      1  C   UNL     1     139.033 138.202 139.914  1.00  0.00     0.074 A 
ATOM      2  C   UNL     1     138.403 137.921 138.689  1.00  0.00     0.016 A 
ATOM      3  C   UNL     1     139.043 138.192 137.478  1.00  0.00     0.001 A 
ATOM      4  C   UNL     1     140.321 138.747 137.473  1.00  0.00     0.001 A 
ATOM      5  C   UNL     1     140.955 139.054 138.677  1.00  0.00     0.016 A 
ATOM      6  C   UNL     1     140.319 138.809 139.909  1.00  0.00     0.074 A 
ENDROOT
BRANCH   1   7
ATOM      7  C   UNL     1     138.346 137.785 141.158  1.00  0.00     0.338 C 
ATOM      8  O   UNL     1     138.318 136.569 141.493  1.00  0.00    -0.246 OA
BRANCH   7   9
ATOM      9  O   UNL     1     137.680 138.742 141.931  1.00  0.00    -0.465 OA
ATOM     10  C   UNL     1     136.850 139.746 141.361  1.00  0.00     0.282 C 
ENDBRANCH   7   9
ENDBRANCH   1   7
BRANCH   6  11
ATOM     11  C   UNL     1     140.991 139.266 141.146  1.00  0.00     0.338 C 
ATOM     12  O   UNL     1     142.051 138.697 141.531  1.00  0.00    -0.246 OA
BRANCH  11  13
ATOM     13  O   UNL     1     140.484 140.358 141.858  1.00  0.00    -0.465 OA
ATOM     14  C   UNL     1     140.031 141.547 141.221  1.00  0.00     0.282 C 
ENDBRANCH  11  13
ENDBRANCH   6  11
TORSDOF 4
ENDMDL
MODEL 5
REMARK VINA RESULT:    -5.055      1.385      2.704
REMARK INTER + INTRA:          -6.614
REMARK INTER:                  -6.261
REMARK INTRA:                  -0.353
REMARK UNBOUND:                -0.377
REMARK SMILES COC(=O)c1ccccc1C(=O)OC
REMARK SMILES IDX 5 1 6 2 7 3 8 4 9 5 10 6 3 7 4 8 2 9 1 10 11 11 12 12 13 13
REMARK SMILES IDX 14 14
REMARK H PARENT
REMARK Flexibility Score: inf
ROOT
ATOM      1  C   UNL     1     138.036 139.418 140.009  1.00  0.00     0.074 A 
ATOM      2  C   UNL     1     137.661 139.974 138.774  1.00  0.00     0.016 A 
ATOM      3  C   UNL     1     137.955 139.320 137.577  1.00  0.00     0.001 A 
ATOM      4  C   UNL     1     138.627 138.099 137.596  1.00  0.00     0.001 A 
ATOM      5  C   UNL     1     139.028 137.539 138.809  1.00  0.00     0.016 A 
ATOM      6  C   UNL     1     138.760 138.194 140.027  1.00  0.00     0.074 A 
ENDROOT
BRANCH   1   7
ATOM      7  C   UNL     1     137.592 140.107 141.243  1.00  0.00     0.338 C 
ATOM      8  O   UNL     1     136.376 140.097 141.576  1.00  0.00    -0.246 OA
BRANCH   7   9
ATOM      9  O   UNL     1     138.524 140.818 142.007  1.00  0.00    -0.465 OA
ATOM     10  C   UNL     1     139.531 141.634 141.424  1.00  0.00     0.282 C 
ENDBRANCH   7   9
ENDBRANCH   1   7
BRANCH   6  11
ATOM     11  C   UNL     1     139.314 137.612 141.271  1.00  0.00     0.338 C 
ATOM     12  O   UNL     1     138.819 136.549 141.740  1.00  0.00    -0.246 OA
BRANCH  11  13
ATOM     13  O   UNL     1     140.415 138.208 141.895  1.00  0.00    -0.465 OA
ATOM     14  C   UNL     1     141.562 138.644 141.176  1.00  0.00     0.282 C 
ENDBRANCH  11  13
ENDBRANCH   6  11
TORSDOF 4
ENDMDL
MODEL 6
REMARK VINA RESULT:    -5.053      1.365      2.738
REMARK INTER + INTRA:          -6.611
REMARK INTER:                  -6.245
REMARK INTRA:                  -0.366
REMARK UNBOUND:                -0.377
REMARK SMILES COC(=O)c1ccccc1C(=O)OC
REMARK SMILES IDX 5 1 6 2 7 3 8 4 9 5 10 6 3 7 4 8 2 9 1 10 11 11 12 12 13 13
REMARK SMILES IDX 14 14
REMARK H PARENT
REMARK Flexibility Score: inf
ROOT
ATOM      1  C   UNL     1     138.787 138.203 140.091  1.00  0.00     0.074 A 
ATOM      2  C   UNL     1     139.018 137.520 138.884  1.00  0.00     0.016 A 
ATOM      3  C   UNL     1     138.599 138.058 137.667  1.00  0.00     0.001 A 
ATOM      4  C   UNL     1     137.943 139.287 137.636  1.00  0.00     0.001 A 
ATOM      5  C   UNL     1     137.684 139.972 138.823  1.00  0.00     0.016 A 
ATOM      6  C   UNL     1     138.079 139.436 140.064  1.00  0.00     0.074 A 
ENDROOT
BRANCH   1   7
ATOM      7  C   UNL     1     139.359 137.631 141.332  1.00  0.00     0.338 C 
ATOM      8  O   UNL     1     138.846 136.605 141.856  1.00  0.00    -0.246 OA
BRANCH   7   9
ATOM      9  O   UNL     1     140.438 138.270 141.952  1.00  0.00    -0.465 OA
ATOM     10  C   UNL     1     141.616 138.643 141.247  1.00  0.00     0.282 C 
ENDBRANCH   7   9
ENDBRANCH   1   7
BRANCH   6  11
ATOM     11  C   UNL     1     137.671 140.150 141.296  1.00  0.00     0.338 C 
ATOM     12  O   UNL     1     136.487 140.043 141.719  1.00  0.00    -0.246 OA
BRANCH  11  13
ATOM     13  O   UNL     1     138.609 140.898 142.016  1.00  0.00    -0.465 OA
ATOM     14  C   UNL     1     139.609 141.688 141.386  1.00  0.00     0.282 C 
ENDBRANCH  11  13
ENDBRANCH   6  11
TORSDOF 4
ENDMDL
MODEL 7
REMARK VINA RESULT:    -5.030      1.349      2.688
REMARK INTER + INTRA:          -6.583
REMARK INTER:                  -6.220
REMARK INTRA:                  -0.364
REMARK UNBOUND:                -0.377
REMARK SMILES COC(=O)c1ccccc1C(=O)OC
REMARK SMILES IDX 5 1 6 2 7 3 8 4 9 5 10 6 3 7 4 8 2 9 1 10 11 11 12 12 13 13
REMARK SMILES IDX 14 14
REMARK H PARENT
REMARK Flexibility Score: inf
ROOT
ATOM      1  C   UNL     1     139.755 140.445 139.922  1.00  0.00     0.074 A 
ATOM      2  C   UNL     1     139.463 141.062 138.692  1.00  0.00     0.016 A 
ATOM      3  C   UNL     1     139.832 140.464 137.487  1.00  0.00     0.001 A 
ATOM      4  C   UNL     1     140.499 139.239 137.490  1.00  0.00     0.001 A 
ATOM      5  C   UNL     1     140.818 138.621 138.699  1.00  0.00     0.016 A 
ATOM      6  C   UNL     1     140.474 139.218 139.927  1.00  0.00     0.074 A 
ENDROOT
BRANCH   1   7
ATOM      7  C   UNL     1     139.235 141.077 141.156  1.00  0.00     0.338 C 
ATOM      8  O   UNL     1     139.803 142.095 141.639  1.00  0.00    -0.246 OA
BRANCH   7   9
ATOM      9  O   UNL     1     138.141 140.505 141.814  1.00  0.00    -0.465 OA
ATOM     10  C   UNL     1     136.987 140.042 141.124  1.00  0.00     0.282 C 
ENDBRANCH   7   9
ENDBRANCH   1   7
BRANCH   6  11
ATOM     11  C   UNL     1     140.945 138.574 141.174  1.00  0.00     0.338 C 
ATOM     12  O   UNL     1     142.154 138.684 141.519  1.00  0.00    -0.246 OA
BRANCH  11  13
ATOM     13  O   UNL     1     140.041 137.890 141.995  1.00  0.00    -0.465 OA
ATOM     14  C   UNL     1     139.003 137.068 141.476  1.00  0.00     0.282 C 
ENDBRANCH  11  13
ENDBRANCH   6  11
TORSDOF 4
ENDMDL
MODEL 8
REMARK VINA RESULT:    -4.642      1.432      2.644
REMARK INTER + INTRA:          -6.104
REMARK INTER:                  -5.858
REMARK INTRA:                  -0.247
REMARK UNBOUND:                -0.377
REMARK SMILES COC(=O)c1ccccc1C(=O)OC
REMARK SMILES IDX 5 1 6 2 7 3 8 4 9 5 10 6 3 7 4 8 2 9 1 10 11 11 12 12 13 13
REMARK SMILES IDX 14 14
REMARK H PARENT
REMARK Flexibility Score: inf
ROOT
ATOM      1  C   UNL     1     139.504 138.703 139.718  1.00  0.00     0.074 A 
ATOM      2  C   UNL     1     139.835 138.113 138.485  1.00  0.00     0.016 A 
ATOM      3  C   UNL     1     139.218 138.530 137.305  1.00  0.00     0.001 A 
ATOM      4  C   UNL     1     138.261 139.544 137.338  1.00  0.00     0.001 A 
ATOM      5  C   UNL     1     137.902 140.127 138.553  1.00  0.00     0.016 A 
ATOM      6  C   UNL     1     138.497 139.706 139.758  1.00  0.00     0.074 A 
ENDROOT
BRANCH   1   7
ATOM      7  C   UNL     1     140.278 138.293 140.912  1.00  0.00     0.338 C 
ATOM      8  O   UNL     1     141.494 138.612 141.024  1.00  0.00    -0.246 OA
BRANCH   7   9
ATOM      9  O   UNL     1     139.667 137.502 141.890  1.00  0.00    -0.465 OA
ATOM     10  C   UNL     1     138.646 136.560 141.587  1.00  0.00     0.282 C 
ENDBRANCH   7   9
ENDBRANCH   1   7
BRANCH   6  11
ATOM     11  C   UNL     1     137.989 140.278 141.025  1.00  0.00     0.338 C 
ATOM     12  O   UNL     1     136.783 140.101 141.355  1.00  0.00    -0.246 OA
BRANCH  11  13
ATOM     13  O   UNL     1     138.856 140.966 141.881  1.00  0.00    -0.465 OA
ATOM     14  C   UNL     1     139.764 141.958 141.419  1.00  0.00     0.282 C 
ENDBRANCH  11  13
ENDBRANCH   6  11
TORSDOF 4
ENDMDL
MODEL 9
REMARK VINA RESULT:    -4.246      3.070      4.886
REMARK INTER + INTRA:          -5.616
REMARK INTER:                  -5.126
REMARK INTRA:                  -0.490
REMARK UNBOUND:                -0.377
REMARK SMILES COC(=O)c1ccccc1C(=O)OC
REMARK SMILES IDX 5 1 6 2 7 3 8 4 9 5 10 6 3 7 4 8 2 9 1 10 11 11 12 12 13 13
REMARK SMILES IDX 14 14
REMARK H PARENT
REMARK Flexibility Score: inf
ROOT
ATOM      1  C   UNL     1     139.446 138.774 138.959  1.00  0.00     0.074 A 
ATOM      2  C   UNL     1     139.795 138.299 140.235  1.00  0.00     0.016 A 
ATOM      3  C   UNL     1     138.973 138.538 141.337  1.00  0.00     0.001 A 
ATOM      4  C   UNL     1     137.788 139.256 141.181  1.00  0.00     0.001 A 
ATOM      5  C   UNL     1     137.433 139.756 139.927  1.00  0.00     0.016 A 
ATOM      6  C   UNL     1     138.260 139.544 138.807  1.00  0.00     0.074 A 
ENDROOT
BRANCH   1   7
ATOM      7  C   UNL     1     140.305 138.387 137.816  1.00  0.00     0.338 C 
ATOM      8  O   UNL     1     140.191 137.245 137.292  1.00  0.00    -0.246 OA
BRANCH   7   9
ATOM      9  O   UNL     1     141.282 139.276 137.357  1.00  0.00    -0.465 OA
ATOM     10  C   UNL     1     141.320 139.748 136.016  1.00  0.00     0.282 C 
ENDBRANCH   7   9
ENDBRANCH   1   7
BRANCH   6  11
ATOM     11  C   UNL     1     137.891 140.199 137.532  1.00  0.00     0.338 C 
ATOM     12  O   UNL     1     138.282 141.376 137.296  1.00  0.00    -0.246 OA
BRANCH  11  13
ATOM     13  O   UNL     1     137.156 139.498 136.570  1.00  0.00    -0.465 OA
ATOM     14  C   UNL     1     137.673 139.193 135.281  1.00  0.00     0.282 C 
ENDBRANCH  11  13
ENDBRANCH   6  11
TORSDOF 4
ENDMDL
