MODEL 1
REMARK VINA RESULT:    -7.418      0.000      0.000
REMARK INTER + INTRA:          -9.244
REMARK INTER:                  -8.936
REMARK INTRA:                  -0.308
REMARK UNBOUND:                -0.308
REMARK SMILES O=c1c(O)c(-c2ccc(O)c(O)c2)oc2cc(O)cc(O)c12
REMARK SMILES IDX 5 1 3 2 2 3 1 4 22 5 20 6 19 7 17 8 16 9 15 10 14 11 6 12
REMARK SMILES IDX 7 13 8 14 9 15 13 16 11 17 10 18 12 20 4 22 21 24 18 26
REMARK H PARENT 10 19 12 21 4 23 21 25 18 27
REMARK Flexibility Score: inf
ROOT
ATOM      1  C   UNL     1       5.754   8.503  14.176  1.00  0.00     0.180 A 
ATOM      2  C   UNL     1       4.565   9.253  14.201  1.00  0.00     0.208 A 
ATOM      3  C   UNL     1       4.068   9.782  13.000  1.00  0.00     0.238 A 
ATOM      4  O   UNL     1       2.964  10.388  13.019  1.00  0.00    -0.285 OA
ATOM      5  C   UNL     1       4.793   9.604  11.797  1.00  0.00     0.111 A 
ATOM      6  C   UNL     1       4.407  10.134  10.529  1.00  0.00     0.134 A 
ATOM      7  C   UNL     1       5.147   9.804   9.387  1.00  0.00     0.093 A 
ATOM      8  C   UNL     1       6.297   9.015   9.477  1.00  0.00     0.123 A 
ATOM      9  C   UNL     1       6.713   8.538  10.718  1.00  0.00     0.094 A 
ATOM     10  C   UNL     1       5.974   8.819  11.869  1.00  0.00     0.146 A 
ATOM     11  O   UNL     1       6.395   8.326  13.027  1.00  0.00    -0.452 OA
ENDROOT
BRANCH   1  12
ATOM     12  C   UNL     1       6.332   7.902  15.398  1.00  0.00     0.025 A 
ATOM     13  C   UNL     1       7.136   8.687  16.239  1.00  0.00     0.016 A 
ATOM     14  C   UNL     1       7.710   8.135  17.388  1.00  0.00     0.051 A 
ATOM     15  C   UNL     1       7.505   6.789  17.704  1.00  0.00     0.157 A 
ATOM     16  C   UNL     1       6.144   6.542  15.707  1.00  0.00     0.062 A 
ATOM     17  C   UNL     1       6.722   5.986  16.858  1.00  0.00     0.158 A 
BRANCH  15  18
ATOM     18  O   UNL     1       8.089   6.267  18.857  1.00  0.00    -0.504 OA
ATOM     19  H   UNL     1       9.087   6.103  18.928  1.00  0.00     0.293 HD
ENDBRANCH  15  18
BRANCH  17  20
ATOM     20  O   UNL     1       6.524   4.639  17.160  1.00  0.00    -0.504 OA
ATOM     21  H   UNL     1       5.595   4.250  17.268  1.00  0.00     0.293 HD
ENDBRANCH  17  20
ENDBRANCH   1  12
BRANCH   2  22
ATOM     22  O   UNL     1       3.904   9.482  15.411  1.00  0.00    -0.502 OA
ATOM     23  H   UNL     1       2.944   9.199  15.569  1.00  0.00     0.293 HD
ENDBRANCH   2  22
BRANCH   6  24
ATOM     24  O   UNL     1       3.329  11.004  10.339  1.00  0.00    -0.507 OA
ATOM     25  H   UNL     1       2.537  11.087  10.958  1.00  0.00     0.293 HD
ENDBRANCH   6  24
BRANCH   8  26
ATOM     26  O   UNL     1       7.038   8.706   8.338  1.00  0.00    -0.508 OA
ATOM     27  H   UNL     1       7.007   7.782   7.921  1.00  0.00     0.293 HD
ENDBRANCH   8  26
TORSDOF 6
ENDMDL
MODEL 2
REMARK VINA RESULT:    -6.473     19.762     21.609
REMARK INTER + INTRA:          -8.105
REMARK INTER:                  -7.786
REMARK INTRA:                  -0.319
REMARK UNBOUND:                -0.308
REMARK SMILES O=c1c(O)c(-c2ccc(O)c(O)c2)oc2cc(O)cc(O)c12
REMARK SMILES IDX 5 1 3 2 2 3 1 4 22 5 20 6 19 7 17 8 16 9 15 10 14 11 6 12
REMARK SMILES IDX 7 13 8 14 9 15 13 16 11 17 10 18 12 20 4 22 21 24 18 26
REMARK H PARENT 10 19 12 21 4 23 21 25 18 27
REMARK Flexibility Score: inf
ROOT
ATOM      1  C   UNL     1      -9.323  -2.286  24.136  1.00  0.00     0.180 A 
ATOM      2  C   UNL     1     -10.635  -2.411  23.646  1.00  0.00     0.208 A 
ATOM      3  C   UNL     1     -10.933  -3.455  22.756  1.00  0.00     0.238 A 
ATOM      4  O   UNL     1     -12.125  -3.607  22.381  1.00  0.00    -0.285 OA
ATOM      5  C   UNL     1      -9.905  -4.327  22.322  1.00  0.00     0.111 A 
ATOM      6  C   UNL     1     -10.083  -5.392  21.388  1.00  0.00     0.134 A 
ATOM      7  C   UNL     1      -9.016  -6.256  21.113  1.00  0.00     0.093 A 
ATOM      8  C   UNL     1      -7.759  -6.055  21.690  1.00  0.00     0.123 A 
ATOM      9  C   UNL     1      -7.561  -4.987  22.561  1.00  0.00     0.094 A 
ATOM     10  C   UNL     1      -8.616  -4.130  22.884  1.00  0.00     0.146 A 
ATOM     11  O   UNL     1      -8.387  -3.138  23.735  1.00  0.00    -0.452 OA
ENDROOT
BRANCH   1  12
ATOM     12  C   UNL     1      -8.936  -1.220  25.087  1.00  0.00     0.025 A 
ATOM     13  C   UNL     1      -9.122  -1.424  26.464  1.00  0.00     0.016 A 
ATOM     14  C   UNL     1      -8.783  -0.423  27.380  1.00  0.00     0.051 A 
ATOM     15  C   UNL     1      -8.272   0.799  26.934  1.00  0.00     0.157 A 
ATOM     16  C   UNL     1      -8.441   0.018  24.640  1.00  0.00     0.062 A 
ATOM     17  C   UNL     1      -8.104   1.025  25.557  1.00  0.00     0.158 A 
BRANCH  15  18
ATOM     18  O   UNL     1      -7.942   1.778  27.871  1.00  0.00    -0.504 OA
ATOM     19  H   UNL     1      -7.071   1.755  28.389  1.00  0.00     0.293 HD
ENDBRANCH  15  18
BRANCH  17  20
ATOM     20  O   UNL     1      -7.607   2.246  25.105  1.00  0.00    -0.504 OA
ATOM     21  H   UNL     1      -7.866   3.120  25.546  1.00  0.00     0.293 HD
ENDBRANCH  17  20
ENDBRANCH   1  12
BRANCH   2  22
ATOM     22  O   UNL     1     -11.618  -1.495  24.027  1.00  0.00    -0.502 OA
ATOM     23  H   UNL     1     -12.122  -1.569  24.903  1.00  0.00     0.293 HD
ENDBRANCH   2  22
BRANCH   6  24
ATOM     24  O   UNL     1     -11.269  -5.628  20.686  1.00  0.00    -0.507 OA
ATOM     25  H   UNL     1     -11.332  -6.122  19.809  1.00  0.00     0.293 HD
ENDBRANCH   6  24
BRANCH   8  26
ATOM     26  O   UNL     1      -6.698  -6.910  21.399  1.00  0.00    -0.508 OA
ATOM     27  H   UNL     1      -6.762  -7.601  20.659  1.00  0.00     0.293 HD
ENDBRANCH   8  26
TORSDOF 6
ENDMDL
MODEL 3
REMARK VINA RESULT:    -6.349      1.496      7.012
REMARK INTER + INTRA:          -7.956
REMARK INTER:                  -7.652
REMARK INTRA:                  -0.303
REMARK UNBOUND:                -0.308
REMARK SMILES O=c1c(O)c(-c2ccc(O)c(O)c2)oc2cc(O)cc(O)c12
REMARK SMILES IDX 5 1 3 2 2 3 1 4 22 5 20 6 19 7 17 8 16 9 15 10 14 11 6 12
REMARK SMILES IDX 7 13 8 14 9 15 13 16 11 17 10 18 12 20 4 22 21 24 18 26
REMARK H PARENT 10 19 12 21 4 23 21 25 18 27
REMARK Flexibility Score: inf
ROOT
ATOM      1  C   UNL     1       6.234   8.633  14.142  1.00  0.00     0.180 A 
ATOM      2  C   UNL     1       6.951   9.524  14.960  1.00  0.00     0.208 A 
ATOM      3  C   UNL     1       7.420   9.078  16.205  1.00  0.00     0.238 A 
ATOM      4  O   UNL     1       8.125   9.856  16.900  1.00  0.00    -0.285 OA
ATOM      5  C   UNL     1       7.120   7.765  16.643  1.00  0.00     0.111 A 
ATOM      6  C   UNL     1       7.506   7.220  17.905  1.00  0.00     0.134 A 
ATOM      7  C   UNL     1       7.244   5.874  18.186  1.00  0.00     0.093 A 
ATOM      8  C   UNL     1       6.553   5.069  17.277  1.00  0.00     0.123 A 
ATOM      9  C   UNL     1       6.125   5.605  16.066  1.00  0.00     0.094 A 
ATOM     10  C   UNL     1       6.404   6.935  15.740  1.00  0.00     0.146 A 
ATOM     11  O   UNL     1       5.995   7.398  14.566  1.00  0.00    -0.452 OA
ENDROOT
BRANCH   1  12
ATOM     12  C   UNL     1       5.720   9.027  12.811  1.00  0.00     0.025 A 
ATOM     13  C   UNL     1       6.468   8.719  11.664  1.00  0.00     0.016 A 
ATOM     14  C   UNL     1       6.012   9.099  10.398  1.00  0.00     0.051 A 
ATOM     15  C   UNL     1       4.814   9.806  10.262  1.00  0.00     0.157 A 
ATOM     16  C   UNL     1       4.525   9.756  12.673  1.00  0.00     0.062 A 
ATOM     17  C   UNL     1       4.067  10.141  11.404  1.00  0.00     0.158 A 
BRANCH  15  18
ATOM     18  O   UNL     1       4.384  10.170   8.986  1.00  0.00    -0.504 OA
ATOM     19  H   UNL     1       3.734  10.933   8.835  1.00  0.00     0.293 HD
ENDBRANCH  15  18
BRANCH  17  20
ATOM     20  O   UNL     1       2.879  10.857  11.276  1.00  0.00    -0.504 OA
ATOM     21  H   UNL     1       2.103  10.505  10.728  1.00  0.00     0.293 HD
ENDBRANCH  17  20
ENDBRANCH   1  12
BRANCH   2  22
ATOM     22  O   UNL     1       7.171  10.839  14.543  1.00  0.00    -0.502 OA
ATOM     23  H   UNL     1       7.079  11.631  15.168  1.00  0.00     0.293 HD
ENDBRANCH   2  22
BRANCH   6  24
ATOM     24  O   UNL     1       8.121   7.958  18.922  1.00  0.00    -0.507 OA
ATOM     25  H   UNL     1       9.114   7.990  19.092  1.00  0.00     0.293 HD
ENDBRANCH   6  24
BRANCH   8  26
ATOM     26  O   UNL     1       6.282   3.734  17.572  1.00  0.00    -0.508 OA
ATOM     27  H   UNL     1       5.669   3.176  16.988  1.00  0.00     0.293 HD
ENDBRANCH   8  26
TORSDOF 6
ENDMDL
MODEL 4
REMARK VINA RESULT:    -6.329     19.958     22.465
REMARK INTER + INTRA:          -7.932
REMARK INTER:                  -7.610
REMARK INTRA:                  -0.322
REMARK UNBOUND:                -0.308
REMARK SMILES O=c1c(O)c(-c2ccc(O)c(O)c2)oc2cc(O)cc(O)c12
REMARK SMILES IDX 5 1 3 2 2 3 1 4 22 5 20 6 19 7 17 8 16 9 15 10 14 11 6 12
REMARK SMILES IDX 7 13 8 14 9 15 13 16 11 17 10 18 12 20 4 22 21 24 18 26
REMARK H PARENT 10 19 12 21 4 23 21 25 18 27
REMARK Flexibility Score: inf
ROOT
ATOM      1  C   UNL     1      -9.894  -3.258  23.784  1.00  0.00     0.180 A 
ATOM      2  C   UNL     1      -9.985  -3.639  25.135  1.00  0.00     0.208 A 
ATOM      3  C   UNL     1      -9.646  -2.708  26.129  1.00  0.00     0.238 A 
ATOM      4  O   UNL     1      -9.801  -3.031  27.336  1.00  0.00    -0.285 OA
ATOM      5  C   UNL     1      -9.165  -1.428  25.762  1.00  0.00     0.111 A 
ATOM      6  C   UNL     1      -8.750  -0.420  26.685  1.00  0.00     0.134 A 
ATOM      7  C   UNL     1      -8.393   0.848  26.210  1.00  0.00     0.093 A 
ATOM      8  C   UNL     1      -8.375   1.125  24.841  1.00  0.00     0.123 A 
ATOM      9  C   UNL     1      -8.727   0.132  23.929  1.00  0.00     0.094 A 
ATOM     10  C   UNL     1      -9.124  -1.131  24.375  1.00  0.00     0.146 A 
ATOM     11  O   UNL     1      -9.471  -2.040  23.472  1.00  0.00    -0.452 OA
ENDROOT
BRANCH   1  12
ATOM     12  C   UNL     1     -10.248  -4.179  22.681  1.00  0.00     0.025 A 
ATOM     13  C   UNL     1     -11.568  -4.210  22.205  1.00  0.00     0.016 A 
ATOM     14  C   UNL     1     -11.930  -5.086  21.178  1.00  0.00     0.051 A 
ATOM     15  C   UNL     1     -10.985  -5.956  20.625  1.00  0.00     0.157 A 
ATOM     16  C   UNL     1      -9.304  -5.069  22.137  1.00  0.00     0.062 A 
ATOM     17  C   UNL     1      -9.666  -5.951  21.108  1.00  0.00     0.158 A 
BRANCH  15  18
ATOM     18  O   UNL     1     -11.375  -6.817  19.601  1.00  0.00    -0.504 OA
ATOM     19  H   UNL     1     -12.350  -6.976  19.372  1.00  0.00     0.293 HD
ENDBRANCH  15  18
BRANCH  17  20
ATOM     20  O   UNL     1      -8.722  -6.825  20.571  1.00  0.00    -0.504 OA
ATOM     21  H   UNL     1      -8.058  -6.522  19.869  1.00  0.00     0.293 HD
ENDBRANCH  17  20
ENDBRANCH   1  12
BRANCH   2  22
ATOM     22  O   UNL     1     -10.388  -4.933  25.475  1.00  0.00    -0.502 OA
ATOM     23  H   UNL     1     -11.290  -5.131  25.890  1.00  0.00     0.293 HD
ENDBRANCH   2  22
BRANCH   6  24
ATOM     24  O   UNL     1      -8.644  -0.618  28.066  1.00  0.00    -0.507 OA
ATOM     25  H   UNL     1      -7.815  -0.442  28.612  1.00  0.00     0.293 HD
ENDBRANCH   6  24
BRANCH   8  26
ATOM     26  O   UNL     1      -8.002   2.384  24.375  1.00  0.00    -0.508 OA
ATOM     27  H   UNL     1      -7.195   2.870  24.749  1.00  0.00     0.293 HD
ENDBRANCH   8  26
TORSDOF 6
ENDMDL
MODEL 5
REMARK VINA RESULT:    -6.074      1.280      2.923
REMARK INTER + INTRA:          -7.625
REMARK INTER:                  -7.309
REMARK INTRA:                  -0.316
REMARK UNBOUND:                -0.308
REMARK SMILES O=c1c(O)c(-c2ccc(O)c(O)c2)oc2cc(O)cc(O)c12
REMARK SMILES IDX 5 1 3 2 2 3 1 4 22 5 20 6 19 7 17 8 16 9 15 10 14 11 6 12
REMARK SMILES IDX 7 13 8 14 9 15 13 16 11 17 10 18 12 20 4 22 21 24 18 26
REMARK H PARENT 10 19 12 21 4 23 21 25 18 27
REMARK Flexibility Score: inf
ROOT
ATOM      1  C   UNL     1       6.246   8.471  14.352  1.00  0.00     0.180 A 
ATOM      2  C   UNL     1       6.967   8.271  13.161  1.00  0.00     0.208 A 
ATOM      3  C   UNL     1       6.493   8.848  11.973  1.00  0.00     0.238 A 
ATOM      4  O   UNL     1       7.182   8.728  10.927  1.00  0.00    -0.285 OA
ATOM      5  C   UNL     1       5.275   9.571  11.977  1.00  0.00     0.111 A 
ATOM      6  C   UNL     1       4.677  10.162  10.823  1.00  0.00     0.134 A 
ATOM      7  C   UNL     1       3.525  10.945  10.966  1.00  0.00     0.093 A 
ATOM      8  C   UNL     1       2.912  11.105  12.211  1.00  0.00     0.123 A 
ATOM      9  C   UNL     1       3.458  10.489  13.334  1.00  0.00     0.094 A 
ATOM     10  C   UNL     1       4.628   9.733  13.230  1.00  0.00     0.146 A 
ATOM     11  O   UNL     1       5.124   9.181  14.330  1.00  0.00    -0.452 OA
ENDROOT
BRANCH   1  12
ATOM     12  C   UNL     1       6.689   7.906  15.646  1.00  0.00     0.025 A 
ATOM     13  C   UNL     1       7.499   8.677  16.494  1.00  0.00     0.016 A 
ATOM     14  C   UNL     1       7.948   8.157  17.711  1.00  0.00     0.051 A 
ATOM     15  C   UNL     1       7.610   6.854  18.091  1.00  0.00     0.157 A 
ATOM     16  C   UNL     1       6.367   6.589  16.020  1.00  0.00     0.062 A 
ATOM     17  C   UNL     1       6.819   6.064  17.240  1.00  0.00     0.158 A 
BRANCH  15  18
ATOM     18  O   UNL     1       8.070   6.363  19.311  1.00  0.00    -0.504 OA
ATOM     19  H   UNL     1       7.809   5.446  19.656  1.00  0.00     0.293 HD
ENDBRANCH  15  18
BRANCH  17  20
ATOM     20  O   UNL     1       6.489   4.760  17.606  1.00  0.00    -0.504 OA
ATOM     21  H   UNL     1       6.252   4.520  18.561  1.00  0.00     0.293 HD
ENDBRANCH  17  20
ENDBRANCH   1  12
BRANCH   2  22
ATOM     22  O   UNL     1       8.125   7.490  13.164  1.00  0.00    -0.502 OA
ATOM     23  H   UNL     1       8.487   7.050  12.326  1.00  0.00     0.293 HD
ENDBRANCH   2  22
BRANCH   6  24
ATOM     24  O   UNL     1       5.154   9.991   9.519  1.00  0.00    -0.507 OA
ATOM     25  H   UNL     1       6.101  10.171   9.222  1.00  0.00     0.293 HD
ENDBRANCH   6  24
BRANCH   8  26
ATOM     26  O   UNL     1       1.756  11.872  12.341  1.00  0.00    -0.508 OA
ATOM     27  H   UNL     1       1.231  11.895  13.208  1.00  0.00     0.293 HD
ENDBRANCH   8  26
TORSDOF 6
ENDMDL
MODEL 6
REMARK VINA RESULT:    -5.843      2.074      2.476
REMARK INTER + INTRA:          -7.347
REMARK INTER:                  -7.716
REMARK INTRA:                   0.370
REMARK UNBOUND:                -0.308
REMARK SMILES O=c1c(O)c(-c2ccc(O)c(O)c2)oc2cc(O)cc(O)c12
REMARK SMILES IDX 5 1 3 2 2 3 1 4 22 5 20 6 19 7 17 8 16 9 15 10 14 11 6 12
REMARK SMILES IDX 7 13 8 14 9 15 13 16 11 17 10 18 12 20 4 22 21 24 18 26
REMARK H PARENT 10 19 12 21 4 23 21 25 18 27
REMARK Flexibility Score: inf
ROOT
ATOM      1  C   UNL     1       6.980   8.588  14.443  1.00  0.00     0.180 A 
ATOM      2  C   UNL     1       7.179   9.978  14.522  1.00  0.00     0.208 A 
ATOM      3  C   UNL     1       7.172  10.735  13.340  1.00  0.00     0.238 A 
ATOM      4  O   UNL     1       7.275  11.987  13.425  1.00  0.00    -0.285 OA
ATOM      5  C   UNL     1       7.023  10.089  12.089  1.00  0.00     0.111 A 
ATOM      6  C   UNL     1       7.045  10.752  10.824  1.00  0.00     0.134 A 
ATOM      7  C   UNL     1       6.782  10.023   9.658  1.00  0.00     0.093 A 
ATOM      8  C   UNL     1       6.560   8.645   9.704  1.00  0.00     0.123 A 
ATOM      9  C   UNL     1       6.590   7.980  10.927  1.00  0.00     0.094 A 
ATOM     10  C   UNL     1       6.813   8.685  12.112  1.00  0.00     0.146 A 
ATOM     11  O   UNL     1       6.811   8.015  13.257  1.00  0.00    -0.452 OA
ENDROOT
BRANCH   1  12
ATOM     12  C   UNL     1       6.961   7.726  15.645  1.00  0.00     0.025 A 
ATOM     13  C   UNL     1       6.273   6.503  15.605  1.00  0.00     0.016 A 
ATOM     14  C   UNL     1       6.223   5.681  16.735  1.00  0.00     0.051 A 
ATOM     15  C   UNL     1       6.843   6.076  17.924  1.00  0.00     0.157 A 
ATOM     16  C   UNL     1       7.567   8.131  16.848  1.00  0.00     0.062 A 
ATOM     17  C   UNL     1       7.515   7.309  17.984  1.00  0.00     0.158 A 
BRANCH  15  18
ATOM     18  O   UNL     1       6.778   5.236  19.034  1.00  0.00    -0.504 OA
ATOM     19  H   UNL     1       6.609   4.240  18.947  1.00  0.00     0.293 HD
ENDBRANCH  15  18
BRANCH  17  20
ATOM     20  O   UNL     1       8.125   7.715  19.170  1.00  0.00    -0.504 OA
ATOM     21  H   UNL     1       7.659   7.625  20.064  1.00  0.00     0.293 HD
ENDBRANCH  17  20
ENDBRANCH   1  12
BRANCH   2  22
ATOM     22  O   UNL     1       7.401  10.587  15.760  1.00  0.00    -0.502 OA
ATOM     23  H   UNL     1       6.646  10.938  16.337  1.00  0.00     0.293 HD
ENDBRANCH   2  22
BRANCH   6  24
ATOM     24  O   UNL     1       7.345  12.107  10.655  1.00  0.00    -0.507 OA
ATOM     25  H   UNL     1       7.239  12.618   9.792  1.00  0.00     0.293 HD
ENDBRANCH   6  24
BRANCH   8  26
ATOM     26  O   UNL     1       6.315   7.924   8.536  1.00  0.00    -0.508 OA
ATOM     27  H   UNL     1       5.528   7.290   8.460  1.00  0.00     0.293 HD
ENDBRANCH   8  26
TORSDOF 6
ENDMDL
MODEL 7
REMARK VINA RESULT:    -5.204     20.158     22.452
REMARK INTER + INTRA:          -6.576
REMARK INTER:                  -6.677
REMARK INTRA:                   0.101
REMARK UNBOUND:                -0.308
REMARK SMILES O=c1c(O)c(-c2ccc(O)c(O)c2)oc2cc(O)cc(O)c12
REMARK SMILES IDX 5 1 3 2 2 3 1 4 22 5 20 6 19 7 17 8 16 9 15 10 14 11 6 12
REMARK SMILES IDX 7 13 8 14 9 15 13 16 11 17 10 18 12 20 4 22 21 24 18 26
REMARK H PARENT 10 19 12 21 4 23 21 25 18 27
REMARK Flexibility Score: inf
ROOT
ATOM      1  C   UNL     1      -9.716  -2.595  24.463  1.00  0.00     0.180 A 
ATOM      2  C   UNL     1     -10.702  -3.226  25.241  1.00  0.00     0.208 A 
ATOM      3  C   UNL     1     -11.154  -4.501  24.866  1.00  0.00     0.238 A 
ATOM      4  O   UNL     1     -11.982  -5.091  25.608  1.00  0.00    -0.285 OA
ATOM      5  C   UNL     1     -10.657  -5.106  23.686  1.00  0.00     0.111 A 
ATOM      6  C   UNL     1     -11.076  -6.376  23.185  1.00  0.00     0.134 A 
ATOM      7  C   UNL     1     -10.437  -6.922  22.065  1.00  0.00     0.093 A 
ATOM      8  C   UNL     1      -9.438  -6.217  21.390  1.00  0.00     0.123 A 
ATOM      9  C   UNL     1      -9.060  -4.954  21.839  1.00  0.00     0.094 A 
ATOM     10  C   UNL     1      -9.652  -4.399  22.975  1.00  0.00     0.146 A 
ATOM     11  O   UNL     1      -9.245  -3.202  23.380  1.00  0.00    -0.452 OA
ENDROOT
BRANCH   1  12
ATOM     12  C   UNL     1      -9.179  -1.258  24.803  1.00  0.00     0.025 A 
ATOM     13  C   UNL     1      -8.900  -0.345  23.774  1.00  0.00     0.016 A 
ATOM     14  C   UNL     1      -8.374   0.916  24.069  1.00  0.00     0.051 A 
ATOM     15  C   UNL     1      -8.102   1.275  25.393  1.00  0.00     0.157 A 
ATOM     16  C   UNL     1      -8.886  -0.902  26.131  1.00  0.00     0.062 A 
ATOM     17  C   UNL     1      -8.354   0.362  26.430  1.00  0.00     0.158 A 
BRANCH  15  18
ATOM     18  O   UNL     1      -7.578   2.540  25.657  1.00  0.00    -0.504 OA
ATOM     19  H   UNL     1      -7.804   3.346  25.086  1.00  0.00     0.293 HD
ENDBRANCH  15  18
BRANCH  17  20
ATOM     20  O   UNL     1      -8.073   0.709  27.750  1.00  0.00    -0.504 OA
ATOM     21  H   UNL     1      -8.384   1.588  28.146  1.00  0.00     0.293 HD
ENDBRANCH  17  20
ENDBRANCH   1  12
BRANCH   2  22
ATOM     22  O   UNL     1     -11.236  -2.579  26.359  1.00  0.00    -0.502 OA
ATOM     23  H   UNL     1     -10.948  -2.800  27.304  1.00  0.00     0.293 HD
ENDBRANCH   2  22
BRANCH   6  24
ATOM     24  O   UNL     1     -12.125  -7.125  23.728  1.00  0.00    -0.507 OA
ATOM     25  H   UNL     1     -13.084  -6.820  23.784  1.00  0.00     0.293 HD
ENDBRANCH   6  24
BRANCH   8  26
ATOM     26  O   UNL     1      -8.819  -6.761  20.266  1.00  0.00    -0.508 OA
ATOM     27  H   UNL     1      -8.157  -6.227  19.716  1.00  0.00     0.293 HD
ENDBRANCH   8  26
TORSDOF 6
ENDMDL
