MODEL 1
REMARK VINA RESULT:    -4.295      0.000      0.000
REMARK INTER + INTRA:          -8.658
REMARK INTER:                  -7.433
REMARK INTRA:                  -1.225
REMARK UNBOUND:                -1.225
REMARK SMILES CCCCCCCCCCCCCCO
REMARK SMILES IDX 8 1 7 2 6 3 5 4 4 5 3 6 2 7 1 8 9 9 10 10 11 11 12 12 13 13
REMARK SMILES IDX 14 14 15 15
REMARK H PARENT 15 16
REMARK Flexibility Score: inf
ROOT
ATOM      1  C   UNL     1      29.375  26.464  21.207  1.00  0.00     0.000 C 
ENDROOT
BRANCH   1   2
ATOM      2  C   UNL     1      30.129  25.252  21.785  1.00  0.00    -0.000 C 
BRANCH   2   3
ATOM      3  C   UNL     1      31.464  25.575  22.481  1.00  0.00    -0.000 C 
BRANCH   3   4
ATOM      4  C   UNL     1      31.286  26.371  23.783  1.00  0.00    -0.000 C 
BRANCH   4   5
ATOM      5  C   UNL     1      31.927  27.770  23.723  1.00  0.00    -0.000 C 
BRANCH   5   6
ATOM      6  C   UNL     1      32.854  28.020  22.515  1.00  0.00    -0.000 C 
BRANCH   6   7
ATOM      7  C   UNL     1      32.331  29.046  21.495  1.00  0.00    -0.003 C 
ATOM      8  C   UNL     1      31.219  29.930  22.056  1.00  0.00     0.004 C 
ENDBRANCH   6   7
ENDBRANCH   5   6
ENDBRANCH   4   5
ENDBRANCH   3   4
ENDBRANCH   2   3
ENDBRANCH   1   2
BRANCH   1   9
ATOM      9  C   UNL     1      28.125  26.838  22.023  1.00  0.00     0.000 C 
BRANCH   9  10
ATOM     10  C   UNL     1      27.438  25.610  22.644  1.00  0.00     0.000 C 
BRANCH  10  11
ATOM     11  C   UNL     1      26.217  25.984  23.504  1.00  0.00     0.000 C 
BRANCH  11  12
ATOM     12  C   UNL     1      25.725  27.415  23.240  1.00  0.00     0.002 C 
BRANCH  12  13
ATOM     13  C   UNL     1      24.892  27.977  24.403  1.00  0.00     0.028 C 
BRANCH  13  14
ATOM     14  C   UNL     1      24.482  29.427  24.135  1.00  0.00     0.156 C 
BRANCH  14  15
ATOM     15  O   UNL     1      24.628  29.728  22.774  1.00  0.00    -0.396 OA
ATOM     16  H   UNL     1      25.565  29.505  22.533  1.00  0.00     0.210 HD
ENDBRANCH  14  15
ENDBRANCH  13  14
ENDBRANCH  12  13
ENDBRANCH  11  12
ENDBRANCH  10  11
ENDBRANCH   9  10
ENDBRANCH   1   9
TORSDOF 13
ENDMDL
MODEL 2
REMARK VINA RESULT:    -4.056      2.304      2.647
REMARK INTER + INTRA:          -8.244
REMARK INTER:                  -7.007
REMARK INTRA:                  -1.237
REMARK UNBOUND:                -1.225
REMARK SMILES CCCCCCCCCCCCCCO
REMARK SMILES IDX 8 1 7 2 6 3 5 4 4 5 3 6 2 7 1 8 9 9 10 10 11 11 12 12 13 13
REMARK SMILES IDX 14 14 15 15
REMARK H PARENT 15 16
REMARK Flexibility Score: inf
ROOT
ATOM      1  C   UNL     1      29.546  25.961  21.819  1.00  0.00     0.000 C 
ENDROOT
BRANCH   1   2
ATOM      2  C   UNL     1      30.878  25.208  21.992  1.00  0.00    -0.000 C 
BRANCH   2   3
ATOM      3  C   UNL     1      31.721  25.626  23.211  1.00  0.00    -0.000 C 
BRANCH   3   4
ATOM      4  C   UNL     1      32.993  26.398  22.826  1.00  0.00    -0.000 C 
BRANCH   4   5
ATOM      5  C   UNL     1      32.912  27.897  23.166  1.00  0.00    -0.000 C 
BRANCH   5   6
ATOM      6  C   UNL     1      32.881  28.849  21.953  1.00  0.00    -0.000 C 
BRANCH   6   7
ATOM      7  C   UNL     1      31.479  29.326  21.535  1.00  0.00    -0.003 C 
ATOM      8  C   UNL     1      30.762  30.103  22.637  1.00  0.00     0.004 C 
ENDBRANCH   6   7
ENDBRANCH   5   6
ENDBRANCH   4   5
ENDBRANCH   3   4
ENDBRANCH   2   3
ENDBRANCH   1   2
BRANCH   1   9
ATOM      9  C   UNL     1      29.141  26.760  23.070  1.00  0.00     0.000 C 
BRANCH   9  10
ATOM     10  C   UNL     1      27.627  27.019  23.139  1.00  0.00     0.000 C 
BRANCH  10  11
ATOM     11  C   UNL     1      27.043  26.764  24.541  1.00  0.00     0.000 C 
BRANCH  11  12
ATOM     12  C   UNL     1      25.903  25.735  24.527  1.00  0.00     0.002 C 
BRANCH  12  13
ATOM     13  C   UNL     1      25.718  25.077  23.151  1.00  0.00     0.028 C 
BRANCH  13  14
ATOM     14  C   UNL     1      24.484  24.171  23.136  1.00  0.00     0.156 C 
BRANCH  14  15
ATOM     15  O   UNL     1      24.739  23.018  22.380  1.00  0.00    -0.396 OA
ATOM     16  H   UNL     1      24.468  23.225  21.447  1.00  0.00     0.210 HD
ENDBRANCH  14  15
ENDBRANCH  13  14
ENDBRANCH  12  13
ENDBRANCH  11  12
ENDBRANCH  10  11
ENDBRANCH   9  10
ENDBRANCH   1   9
TORSDOF 13
ENDMDL
MODEL 3
REMARK VINA RESULT:    -4.019      1.005      2.134
REMARK INTER + INTRA:          -8.180
REMARK INTER:                  -7.220
REMARK INTRA:                  -0.960
REMARK UNBOUND:                -1.225
REMARK SMILES CCCCCCCCCCCCCCO
REMARK SMILES IDX 8 1 7 2 6 3 5 4 4 5 3 6 2 7 1 8 9 9 10 10 11 11 12 12 13 13
REMARK SMILES IDX 14 14 15 15
REMARK H PARENT 15 16
REMARK Flexibility Score: inf
ROOT
ATOM      1  C   UNL     1      28.748  26.108  20.702  1.00  0.00     0.000 C 
ENDROOT
BRANCH   1   2
ATOM      2  C   UNL     1      29.773  27.251  20.577  1.00  0.00    -0.000 C 
BRANCH   2   3
ATOM      3  C   UNL     1      30.108  27.984  21.889  1.00  0.00    -0.000 C 
BRANCH   3   4
ATOM      4  C   UNL     1      31.074  29.162  21.689  1.00  0.00    -0.000 C 
BRANCH   4   5
ATOM      5  C   UNL     1      32.475  28.895  22.270  1.00  0.00    -0.000 C 
BRANCH   5   6
ATOM      6  C   UNL     1      32.534  27.830  23.385  1.00  0.00    -0.000 C 
BRANCH   6   7
ATOM      7  C   UNL     1      33.074  26.458  22.947  1.00  0.00    -0.003 C 
ATOM      8  C   UNL     1      32.085  25.322  23.197  1.00  0.00     0.004 C 
ENDBRANCH   6   7
ENDBRANCH   5   6
ENDBRANCH   4   5
ENDBRANCH   3   4
ENDBRANCH   2   3
ENDBRANCH   1   2
BRANCH   1   9
ATOM      9  C   UNL     1      28.502  25.679  22.159  1.00  0.00     0.000 C 
BRANCH   9  10
ATOM     10  C   UNL     1      27.037  25.863  22.587  1.00  0.00     0.000 C 
BRANCH  10  11
ATOM     11  C   UNL     1      26.854  27.005  23.603  1.00  0.00     0.000 C 
BRANCH  11  12
ATOM     12  C   UNL     1      25.485  27.692  23.480  1.00  0.00     0.002 C 
BRANCH  12  13
ATOM     13  C   UNL     1      25.245  28.733  24.585  1.00  0.00     0.028 C 
BRANCH  13  14
ATOM     14  C   UNL     1      24.557  29.981  24.025  1.00  0.00     0.156 C 
BRANCH  14  15
ATOM     15  O   UNL     1      24.530  29.931  22.624  1.00  0.00    -0.396 OA
ATOM     16  H   UNL     1      23.614  30.195  22.349  1.00  0.00     0.210 HD
ENDBRANCH  14  15
ENDBRANCH  13  14
ENDBRANCH  12  13
ENDBRANCH  11  12
ENDBRANCH  10  11
ENDBRANCH   9  10
ENDBRANCH   1   9
TORSDOF 13
ENDMDL
MODEL 4
REMARK VINA RESULT:    -3.943      2.349      3.649
REMARK INTER + INTRA:          -8.048
REMARK INTER:                  -6.281
REMARK INTRA:                  -1.767
REMARK UNBOUND:                -1.225
REMARK SMILES CCCCCCCCCCCCCCO
REMARK SMILES IDX 8 1 7 2 6 3 5 4 4 5 3 6 2 7 1 8 9 9 10 10 11 11 12 12 13 13
REMARK SMILES IDX 14 14 15 15
REMARK H PARENT 15 16
REMARK Flexibility Score: inf
ROOT
ATOM      1  C   UNL     1      29.413  28.768  23.896  1.00  0.00     0.000 C 
ENDROOT
BRANCH   1   2
ATOM      2  C   UNL     1      30.883  28.817  23.438  1.00  0.00    -0.000 C 
BRANCH   2   3
ATOM      3  C   UNL     1      31.735  27.591  23.817  1.00  0.00    -0.000 C 
BRANCH   3   4
ATOM      4  C   UNL     1      32.044  26.681  22.618  1.00  0.00    -0.000 C 
BRANCH   4   5
ATOM      5  C   UNL     1      31.257  25.357  22.652  1.00  0.00    -0.000 C 
BRANCH   5   6
ATOM      6  C   UNL     1      29.891  25.383  21.936  1.00  0.00    -0.000 C 
BRANCH   6   7
ATOM      7  C   UNL     1      29.694  26.548  20.950  1.00  0.00    -0.003 C 
ATOM      8  C   UNL     1      29.021  26.118  19.648  1.00  0.00     0.004 C 
ENDBRANCH   6   7
ENDBRANCH   5   6
ENDBRANCH   4   5
ENDBRANCH   3   4
ENDBRANCH   2   3
ENDBRANCH   1   2
BRANCH   1   9
ATOM      9  C   UNL     1      29.111  27.573  24.816  1.00  0.00     0.000 C 
BRANCH   9  10
ATOM     10  C   UNL     1      27.735  26.947  24.536  1.00  0.00     0.000 C 
BRANCH  10  11
ATOM     11  C   UNL     1      27.120  27.432  23.210  1.00  0.00     0.000 C 
BRANCH  11  12
ATOM     12  C   UNL     1      26.049  26.473  22.670  1.00  0.00     0.002 C 
BRANCH  12  13
ATOM     13  C   UNL     1      26.187  25.053  23.240  1.00  0.00     0.028 C 
BRANCH  13  14
ATOM     14  C   UNL     1      24.845  24.316  23.212  1.00  0.00     0.156 C 
BRANCH  14  15
ATOM     15  O   UNL     1      24.942  23.163  22.422  1.00  0.00    -0.396 OA
ATOM     16  H   UNL     1      24.399  23.330  21.608  1.00  0.00     0.210 HD
ENDBRANCH  14  15
ENDBRANCH  13  14
ENDBRANCH  12  13
ENDBRANCH  11  12
ENDBRANCH  10  11
ENDBRANCH   9  10
ENDBRANCH   1   9
TORSDOF 13
ENDMDL
MODEL 5
REMARK VINA RESULT:    -3.840      1.638      3.332
REMARK INTER + INTRA:          -7.870
REMARK INTER:                  -6.143
REMARK INTRA:                  -1.727
REMARK UNBOUND:                -1.225
REMARK SMILES CCCCCCCCCCCCCCO
REMARK SMILES IDX 8 1 7 2 6 3 5 4 4 5 3 6 2 7 1 8 9 9 10 10 11 11 12 12 13 13
REMARK SMILES IDX 14 14 15 15
REMARK H PARENT 15 16
REMARK Flexibility Score: inf
ROOT
ATOM      1  C   UNL     1      30.866  29.551  22.609  1.00  0.00     0.000 C 
ENDROOT
BRANCH   1   2
ATOM      2  C   UNL     1      32.018  28.775  21.943  1.00  0.00    -0.000 C 
BRANCH   2   3
ATOM      3  C   UNL     1      32.969  28.046  22.910  1.00  0.00    -0.000 C 
BRANCH   3   4
ATOM      4  C   UNL     1      32.966  26.521  22.720  1.00  0.00    -0.000 C 
BRANCH   4   5
ATOM      5  C   UNL     1      31.663  25.859  23.204  1.00  0.00    -0.000 C 
BRANCH   5   6
ATOM      6  C   UNL     1      30.790  25.234  22.096  1.00  0.00    -0.000 C 
BRANCH   6   7
ATOM      7  C   UNL     1      29.338  25.742  22.048  1.00  0.00    -0.003 C 
ATOM      8  C   UNL     1      29.080  26.697  20.885  1.00  0.00     0.004 C 
ENDBRANCH   6   7
ENDBRANCH   5   6
ENDBRANCH   4   5
ENDBRANCH   3   4
ENDBRANCH   2   3
ENDBRANCH   1   2
BRANCH   1   9
ATOM      9  C   UNL     1      30.748  29.273  24.118  1.00  0.00     0.000 C 
BRANCH   9  10
ATOM     10  C   UNL     1      29.427  28.578  24.487  1.00  0.00     0.000 C 
BRANCH  10  11
ATOM     11  C   UNL     1      28.297  29.577  24.797  1.00  0.00     0.000 C 
BRANCH  11  12
ATOM     12  C   UNL     1      26.927  28.895  24.933  1.00  0.00     0.002 C 
BRANCH  12  13
ATOM     13  C   UNL     1      26.904  27.488  24.315  1.00  0.00     0.028 C 
BRANCH  13  14
ATOM     14  C   UNL     1      25.812  27.374  23.247  1.00  0.00     0.156 C 
BRANCH  14  15
ATOM     15  O   UNL     1      25.198  28.618  23.049  1.00  0.00    -0.396 OA
ATOM     16  H   UNL     1      25.632  29.025  22.254  1.00  0.00     0.210 HD
ENDBRANCH  14  15
ENDBRANCH  13  14
ENDBRANCH  12  13
ENDBRANCH  11  12
ENDBRANCH  10  11
ENDBRANCH   9  10
ENDBRANCH   1   9
TORSDOF 13
ENDMDL
MODEL 6
REMARK VINA RESULT:    -3.795      5.492      9.370
REMARK INTER + INTRA:          -7.794
REMARK INTER:                  -7.401
REMARK INTRA:                  -0.392
REMARK UNBOUND:                -1.225
REMARK SMILES CCCCCCCCCCCCCCO
REMARK SMILES IDX 8 1 7 2 6 3 5 4 4 5 3 6 2 7 1 8 9 9 10 10 11 11 12 12 13 13
REMARK SMILES IDX 14 14 15 15
REMARK H PARENT 15 16
REMARK Flexibility Score: inf
ROOT
ATOM      1  C   UNL     1      25.108  24.124  23.014  1.00  0.00     0.000 C 
ENDROOT
BRANCH   1   2
ATOM      2  C   UNL     1      23.614  23.770  22.894  1.00  0.00    -0.000 C 
BRANCH   2   3
ATOM      3  C   UNL     1      23.310  22.332  22.434  1.00  0.00    -0.000 C 
BRANCH   3   4
ATOM      4  C   UNL     1      21.805  22.024  22.380  1.00  0.00    -0.000 C 
BRANCH   4   5
ATOM      5  C   UNL     1      21.464  20.612  22.892  1.00  0.00    -0.000 C 
BRANCH   5   6
ATOM      6  C   UNL     1      20.929  19.635  21.824  1.00  0.00    -0.000 C 
BRANCH   6   7
ATOM      7  C   UNL     1      20.023  18.514  22.364  1.00  0.00    -0.003 C 
ATOM      8  C   UNL     1      19.202  17.835  21.270  1.00  0.00     0.004 C 
ENDBRANCH   6   7
ENDBRANCH   5   6
ENDBRANCH   4   5
ENDBRANCH   3   4
ENDBRANCH   2   3
ENDBRANCH   1   2
BRANCH   1   9
ATOM      9  C   UNL     1      25.363  25.359  23.896  1.00  0.00     0.000 C 
BRANCH   9  10
ATOM     10  C   UNL     1      26.175  26.443  23.170  1.00  0.00     0.000 C 
BRANCH  10  11
ATOM     11  C   UNL     1      27.517  26.744  23.863  1.00  0.00     0.000 C 
BRANCH  11  12
ATOM     12  C   UNL     1      28.624  27.123  22.867  1.00  0.00     0.002 C 
BRANCH  12  13
ATOM     13  C   UNL     1      28.998  25.963  21.931  1.00  0.00     0.028 C 
BRANCH  13  14
ATOM     14  C   UNL     1      28.999  26.416  20.469  1.00  0.00     0.156 C 
BRANCH  14  15
ATOM     15  O   UNL     1      27.742  26.191  19.892  1.00  0.00    -0.396 OA
ATOM     16  H   UNL     1      27.071  26.331  20.610  1.00  0.00     0.210 HD
ENDBRANCH  14  15
ENDBRANCH  13  14
ENDBRANCH  12  13
ENDBRANCH  11  12
ENDBRANCH  10  11
ENDBRANCH   9  10
ENDBRANCH   1   9
TORSDOF 13
ENDMDL
MODEL 7
REMARK VINA RESULT:    -3.733      6.024      7.663
REMARK INTER + INTRA:          -7.685
REMARK INTER:                  -7.209
REMARK INTRA:                  -0.476
REMARK UNBOUND:                -1.225
REMARK SMILES CCCCCCCCCCCCCCO
REMARK SMILES IDX 8 1 7 2 6 3 5 4 4 5 3 6 2 7 1 8 9 9 10 10 11 11 12 12 13 13
REMARK SMILES IDX 14 14 15 15
REMARK H PARENT 15 16
REMARK Flexibility Score: inf
ROOT
ATOM      1  C   UNL     1      24.380  23.775  22.916  1.00  0.00     0.000 C 
ENDROOT
BRANCH   1   2
ATOM      2  C   UNL     1      24.435  24.628  24.197  1.00  0.00    -0.000 C 
BRANCH   2   3
ATOM      3  C   UNL     1      25.670  25.538  24.332  1.00  0.00    -0.000 C 
BRANCH   3   4
ATOM      4  C   UNL     1      25.703  26.666  23.289  1.00  0.00    -0.000 C 
BRANCH   4   5
ATOM      5  C   UNL     1      27.080  26.824  22.619  1.00  0.00    -0.000 C 
BRANCH   5   6
ATOM      6  C   UNL     1      27.818  25.505  22.307  1.00  0.00    -0.000 C 
BRANCH   6   7
ATOM      7  C   UNL     1      29.211  25.672  21.677  1.00  0.00    -0.003 C 
ATOM      8  C   UNL     1      29.157  26.182  20.238  1.00  0.00     0.004 C 
ENDBRANCH   6   7
ENDBRANCH   5   6
ENDBRANCH   4   5
ENDBRANCH   3   4
ENDBRANCH   2   3
ENDBRANCH   1   2
BRANCH   1   9
ATOM      9  C   UNL     1      22.978  23.208  22.633  1.00  0.00     0.000 C 
BRANCH   9  10
ATOM     10  C   UNL     1      23.016  21.736  22.189  1.00  0.00     0.000 C 
BRANCH  10  11
ATOM     11  C   UNL     1      21.624  21.190  21.822  1.00  0.00     0.000 C 
BRANCH  11  12
ATOM     12  C   UNL     1      21.306  19.863  22.527  1.00  0.00     0.002 C 
BRANCH  12  13
ATOM     13  C   UNL     1      20.225  19.050  21.797  1.00  0.00     0.028 C 
BRANCH  13  14
ATOM     14  C   UNL     1      19.982  17.708  22.492  1.00  0.00     0.156 C 
BRANCH  14  15
ATOM     15  O   UNL     1      21.204  17.100  22.811  1.00  0.00    -0.396 OA
ATOM     16  H   UNL     1      21.894  17.536  22.246  1.00  0.00     0.210 HD
ENDBRANCH  14  15
ENDBRANCH  13  14
ENDBRANCH  12  13
ENDBRANCH  11  12
ENDBRANCH  10  11
ENDBRANCH   9  10
ENDBRANCH   1   9
TORSDOF 13
ENDMDL
MODEL 8
REMARK VINA RESULT:    -3.654      2.422      6.193
REMARK INTER + INTRA:          -7.550
REMARK INTER:                  -6.631
REMARK INTRA:                  -0.918
REMARK UNBOUND:                -1.225
REMARK SMILES CCCCCCCCCCCCCCO
REMARK SMILES IDX 8 1 7 2 6 3 5 4 4 5 3 6 2 7 1 8 9 9 10 10 11 11 12 12 13 13
REMARK SMILES IDX 14 14 15 15
REMARK H PARENT 15 16
REMARK Flexibility Score: inf
ROOT
ATOM      1  C   UNL     1      28.239  26.674  21.402  1.00  0.00     0.000 C 
ENDROOT
BRANCH   1   2
ATOM      2  C   UNL     1      27.793  26.278  22.823  1.00  0.00    -0.000 C 
BRANCH   2   3
ATOM      3  C   UNL     1      27.918  27.384  23.887  1.00  0.00    -0.000 C 
BRANCH   3   4
ATOM      4  C   UNL     1      26.581  27.719  24.566  1.00  0.00    -0.000 C 
BRANCH   4   5
ATOM      5  C   UNL     1      25.440  27.955  23.559  1.00  0.00    -0.000 C 
BRANCH   5   6
ATOM      6  C   UNL     1      24.725  29.317  23.678  1.00  0.00    -0.000 C 
BRANCH   6   7
ATOM      7  C   UNL     1      24.724  29.930  25.089  1.00  0.00    -0.003 C 
ATOM      8  C   UNL     1      24.506  31.442  25.081  1.00  0.00     0.004 C 
ENDBRANCH   6   7
ENDBRANCH   5   6
ENDBRANCH   4   5
ENDBRANCH   3   4
ENDBRANCH   2   3
ENDBRANCH   1   2
BRANCH   1   9
ATOM      9  C   UNL     1      29.744  26.461  21.165  1.00  0.00     0.000 C 
BRANCH   9  10
ATOM     10  C   UNL     1      30.294  25.244  21.927  1.00  0.00     0.000 C 
BRANCH  10  11
ATOM     11  C   UNL     1      31.617  25.546  22.655  1.00  0.00     0.000 C 
BRANCH  11  12
ATOM     12  C   UNL     1      31.609  26.916  23.350  1.00  0.00     0.002 C 
BRANCH  12  13
ATOM     13  C   UNL     1      32.945  27.660  23.205  1.00  0.00     0.028 C 
BRANCH  13  14
ATOM     14  C   UNL     1      32.724  29.099  22.731  1.00  0.00     0.156 C 
BRANCH  14  15
ATOM     15  O   UNL     1      32.912  29.186  21.344  1.00  0.00    -0.396 OA
ATOM     16  H   UNL     1      32.138  28.728  20.924  1.00  0.00     0.210 HD
ENDBRANCH  14  15
ENDBRANCH  13  14
ENDBRANCH  12  13
ENDBRANCH  11  12
ENDBRANCH  10  11
ENDBRANCH   9  10
ENDBRANCH   1   9
TORSDOF 13
ENDMDL
MODEL 9
REMARK VINA RESULT:    -3.581      2.518      5.688
REMARK INTER + INTRA:          -7.423
REMARK INTER:                  -6.292
REMARK INTRA:                  -1.131
REMARK UNBOUND:                -1.225
REMARK SMILES CCCCCCCCCCCCCCO
REMARK SMILES IDX 8 1 7 2 6 3 5 4 4 5 3 6 2 7 1 8 9 9 10 10 11 11 12 12 13 13
REMARK SMILES IDX 14 14 15 15
REMARK H PARENT 15 16
REMARK Flexibility Score: inf
ROOT
ATOM      1  C   UNL     1      26.462  27.072  23.445  1.00  0.00     0.000 C 
ENDROOT
BRANCH   1   2
ATOM      2  C   UNL     1      25.226  27.976  23.614  1.00  0.00    -0.000 C 
BRANCH   2   3
ATOM      3  C   UNL     1      25.335  29.045  24.717  1.00  0.00    -0.000 C 
BRANCH   3   4
ATOM      4  C   UNL     1      24.701  30.387  24.319  1.00  0.00    -0.000 C 
BRANCH   4   5
ATOM      5  C   UNL     1      25.478  31.601  24.859  1.00  0.00    -0.000 C 
BRANCH   5   6
ATOM      6  C   UNL     1      26.999  31.396  25.013  1.00  0.00    -0.000 C 
BRANCH   6   7
ATOM      7  C   UNL     1      27.873  32.455  24.318  1.00  0.00    -0.003 C 
ATOM      8  C   UNL     1      29.272  31.944  23.980  1.00  0.00     0.004 C 
ENDBRANCH   6   7
ENDBRANCH   5   6
ENDBRANCH   4   5
ENDBRANCH   3   4
ENDBRANCH   2   3
ENDBRANCH   1   2
BRANCH   1   9
ATOM      9  C   UNL     1      27.610  27.441  24.400  1.00  0.00     0.000 C 
BRANCH   9  10
ATOM     10  C   UNL     1      28.815  28.052  23.664  1.00  0.00     0.000 C 
BRANCH  10  11
ATOM     11  C   UNL     1      30.019  27.095  23.599  1.00  0.00     0.000 C 
BRANCH  11  12
ATOM     12  C   UNL     1      30.044  26.263  22.308  1.00  0.00     0.002 C 
BRANCH  12  13
ATOM     13  C   UNL     1      29.784  27.112  21.054  1.00  0.00     0.028 C 
BRANCH  13  14
ATOM     14  C   UNL     1      29.018  26.312  19.997  1.00  0.00     0.156 C 
BRANCH  14  15
ATOM     15  O   UNL     1      27.643  26.345  20.268  1.00  0.00    -0.396 OA
ATOM     16  H   UNL     1      27.182  26.395  19.390  1.00  0.00     0.210 HD
ENDBRANCH  14  15
ENDBRANCH  13  14
ENDBRANCH  12  13
ENDBRANCH  11  12
ENDBRANCH  10  11
ENDBRANCH   9  10
ENDBRANCH   1   9
TORSDOF 13
ENDMDL
