MODEL 1
REMARK VINA RESULT:    -3.185      0.000      0.000
REMARK INTER + INTRA:          -4.660
REMARK INTER:                  -4.395
REMARK INTRA:                  -0.264
REMARK UNBOUND:                -0.264
REMARK SMILES CCCCCCCCO
REMARK SMILES IDX 5 1 4 2 3 3 2 4 1 5 6 6 7 7 8 8 9 9
REMARK H PARENT 9 10
REMARK Flexibility Score: inf
ROOT
ATOM      1  C   UNL     1     162.371 164.701 168.493  1.00  0.00     0.000 C 
ENDROOT
BRANCH   1   2
ATOM      2  C   UNL     1     163.774 165.247 168.173  1.00  0.00    -0.000 C 
BRANCH   2   3
ATOM      3  C   UNL     1     164.064 165.283 166.664  1.00  0.00    -0.000 C 
BRANCH   3   4
ATOM      4  C   UNL     1     165.393 164.603 166.304  1.00  0.00    -0.003 C 
ATOM      5  C   UNL     1     165.992 163.893 167.515  1.00  0.00     0.004 C 
ENDBRANCH   3   4
ENDBRANCH   2   3
ENDBRANCH   1   2
BRANCH   1   6
ATOM      6  C   UNL     1     161.491 164.542 167.241  1.00  0.00     0.002 C 
BRANCH   6   7
ATOM      7  C   UNL     1     160.039 164.116 167.522  1.00  0.00     0.028 C 
BRANCH   7   8
ATOM      8  C   UNL     1     159.014 165.187 167.140  1.00  0.00     0.156 C 
BRANCH   8   9
ATOM      9  O   UNL     1     158.187 165.451 168.239  1.00  0.00    -0.396 OA
ATOM     10  H   UNL     1     158.668 166.122 168.791  1.00  0.00     0.210 HD
ENDBRANCH   8   9
ENDBRANCH   7   8
ENDBRANCH   6   7
ENDBRANCH   1   6
TORSDOF 7
ENDMDL
MODEL 2
REMARK VINA RESULT:    -3.184      6.577      9.029
REMARK INTER + INTRA:          -4.659
REMARK INTER:                  -4.389
REMARK INTRA:                  -0.270
REMARK UNBOUND:                -0.264
REMARK SMILES CCCCCCCCO
REMARK SMILES IDX 5 1 4 2 3 3 2 4 1 5 6 6 7 7 8 8 9 9
REMARK H PARENT 9 10
REMARK Flexibility Score: inf
ROOT
ATOM      1  C   UNL     1     169.577 166.754 168.517  1.00  0.00     0.000 C 
ENDROOT
BRANCH   1   2
ATOM      2  C   UNL     1     168.093 166.345 168.508  1.00  0.00    -0.000 C 
BRANCH   2   3
ATOM      3  C   UNL     1     167.568 166.056 167.094  1.00  0.00    -0.000 C 
BRANCH   3   4
ATOM      4  C   UNL     1     166.037 166.130 167.007  1.00  0.00    -0.003 C 
ATOM      5  C   UNL     1     165.501 167.331 167.782  1.00  0.00     0.004 C 
ENDBRANCH   3   4
ENDBRANCH   2   3
ENDBRANCH   1   2
BRANCH   1   6
ATOM      6  C   UNL     1     170.208 166.745 167.114  1.00  0.00     0.002 C 
BRANCH   6   7
ATOM      7  C   UNL     1     171.664 166.247 167.064  1.00  0.00     0.028 C 
BRANCH   7   8
ATOM      8  C   UNL     1     172.528 166.804 168.198  1.00  0.00     0.156 C 
BRANCH   8   9
ATOM      9  O   UNL     1     173.072 165.742 168.932  1.00  0.00    -0.396 OA
ATOM     10  H   UNL     1     172.322 165.116 169.107  1.00  0.00     0.210 HD
ENDBRANCH   8   9
ENDBRANCH   7   8
ENDBRANCH   6   7
ENDBRANCH   1   6
TORSDOF 7
ENDMDL
MODEL 3
REMARK VINA RESULT:    -3.178      5.593      6.476
REMARK INTER + INTRA:          -4.650
REMARK INTER:                  -4.385
REMARK INTRA:                  -0.264
REMARK UNBOUND:                -0.264
REMARK SMILES CCCCCCCCO
REMARK SMILES IDX 5 1 4 2 3 3 2 4 1 5 6 6 7 7 8 8 9 9
REMARK H PARENT 9 10
REMARK Flexibility Score: inf
ROOT
ATOM      1  C   UNL     1     164.470 169.664 168.481  1.00  0.00     0.000 C 
ENDROOT
BRANCH   1   2
ATOM      2  C   UNL     1     164.837 168.170 168.503  1.00  0.00    -0.000 C 
BRANCH   2   3
ATOM      3  C   UNL     1     165.139 167.614 167.103  1.00  0.00    -0.000 C 
BRANCH   3   4
ATOM      4  C   UNL     1     165.894 166.278 167.150  1.00  0.00    -0.003 C 
ATOM      5  C   UNL     1     167.133 166.378 168.036  1.00  0.00     0.004 C 
ENDBRANCH   3   4
ENDBRANCH   2   3
ENDBRANCH   1   2
BRANCH   1   6
ATOM      6  C   UNL     1     164.465 170.257 167.061  1.00  0.00     0.002 C 
BRANCH   6   7
ATOM      7  C   UNL     1     164.962 171.712 166.967  1.00  0.00     0.028 C 
BRANCH   7   8
ATOM      8  C   UNL     1     164.417 172.605 168.084  1.00  0.00     0.156 C 
BRANCH   8   9
ATOM      9  O   UNL     1     165.479 173.059 168.875  1.00  0.00    -0.396 OA
ATOM     10  H   UNL     1     165.676 173.983 168.571  1.00  0.00     0.210 HD
ENDBRANCH   8   9
ENDBRANCH   7   8
ENDBRANCH   6   7
ENDBRANCH   1   6
TORSDOF 7
ENDMDL
MODEL 4
REMARK VINA RESULT:    -3.172      5.267      6.356
REMARK INTER + INTRA:          -4.642
REMARK INTER:                  -4.355
REMARK INTRA:                  -0.286
REMARK UNBOUND:                -0.264
REMARK SMILES CCCCCCCCO
REMARK SMILES IDX 5 1 4 2 3 3 2 4 1 5 6 6 7 7 8 8 9 9
REMARK H PARENT 9 10
REMARK Flexibility Score: inf
ROOT
ATOM      1  C   UNL     1     166.730 161.725 168.525  1.00  0.00     0.000 C 
ENDROOT
BRANCH   1   2
ATOM      2  C   UNL     1     166.362 163.219 168.542  1.00  0.00    -0.000 C 
BRANCH   2   3
ATOM      3  C   UNL     1     165.991 163.753 167.149  1.00  0.00    -0.000 C 
BRANCH   3   4
ATOM      4  C   UNL     1     166.482 165.190 166.920  1.00  0.00    -0.003 C 
ATOM      5  C   UNL     1     167.222 165.719 168.145  1.00  0.00     0.004 C 
ENDBRANCH   3   4
ENDBRANCH   2   3
ENDBRANCH   1   2
BRANCH   1   6
ATOM      6  C   UNL     1     166.701 161.118 167.111  1.00  0.00     0.002 C 
BRANCH   6   7
ATOM      7  C   UNL     1     166.313 159.630 167.055  1.00  0.00     0.028 C 
BRANCH   7   8
ATOM      8  C   UNL     1     166.802 158.836 168.269  1.00  0.00     0.156 C 
BRANCH   8   9
ATOM      9  O   UNL     1     165.724 158.149 168.841  1.00  0.00    -0.396 OA
ATOM     10  H   UNL     1     164.995 158.816 168.942  1.00  0.00     0.210 HD
ENDBRANCH   8   9
ENDBRANCH   7   8
ENDBRANCH   6   7
ENDBRANCH   1   6
TORSDOF 7
ENDMDL
MODEL 5
REMARK VINA RESULT:    -3.172      6.999      9.535
REMARK INTER + INTRA:          -4.642
REMARK INTER:                  -4.534
REMARK INTRA:                  -0.108
REMARK UNBOUND:                -0.264
REMARK SMILES CCCCCCCCO
REMARK SMILES IDX 5 1 4 2 3 3 2 4 1 5 6 6 7 7 8 8 9 9
REMARK H PARENT 9 10
REMARK Flexibility Score: inf
ROOT
ATOM      1  C   UNL     1     169.879 166.751 168.015  1.00  0.00     0.000 C 
ENDROOT
BRANCH   1   2
ATOM      2  C   UNL     1     168.567 166.379 167.302  1.00  0.00    -0.000 C 
BRANCH   2   3
ATOM      3  C   UNL     1     167.394 166.198 168.279  1.00  0.00    -0.000 C 
BRANCH   3   4
ATOM      4  C   UNL     1     166.728 164.821 168.150  1.00  0.00    -0.003 C 
ATOM      5  C   UNL     1     166.047 164.666 166.793  1.00  0.00     0.004 C 
ENDBRANCH   3   4
ENDBRANCH   2   3
ENDBRANCH   1   2
BRANCH   1   6
ATOM      6  C   UNL     1     171.079 166.830 167.055  1.00  0.00     0.002 C 
BRANCH   6   7
ATOM      7  C   UNL     1     172.299 165.991 167.476  1.00  0.00     0.028 C 
BRANCH   7   8
ATOM      8  C   UNL     1     173.151 165.533 166.290  1.00  0.00     0.156 C 
BRANCH   8   9
ATOM      9  O   UNL     1     174.220 164.759 166.757  1.00  0.00    -0.396 OA
ATOM     10  H   UNL     1     175.045 165.262 166.530  1.00  0.00     0.210 HD
ENDBRANCH   8   9
ENDBRANCH   7   8
ENDBRANCH   6   7
ENDBRANCH   1   6
TORSDOF 7
ENDMDL
MODEL 6
REMARK VINA RESULT:    -3.144      4.783      6.594
REMARK INTER + INTRA:          -4.603
REMARK INTER:                  -4.496
REMARK INTRA:                  -0.106
REMARK UNBOUND:                -0.264
REMARK SMILES CCCCCCCCO
REMARK SMILES IDX 5 1 4 2 3 3 2 4 1 5 6 6 7 7 8 8 9 9
REMARK H PARENT 9 10
REMARK Flexibility Score: inf
ROOT
ATOM      1  C   UNL     1     166.814 161.238 168.417  1.00  0.00     0.000 C 
ENDROOT
BRANCH   1   2
ATOM      2  C   UNL     1     166.447 162.359 167.428  1.00  0.00    -0.000 C 
BRANCH   2   3
ATOM      3  C   UNL     1     166.179 163.701 168.128  1.00  0.00    -0.000 C 
BRANCH   3   4
ATOM      4  C   UNL     1     165.472 164.711 167.212  1.00  0.00    -0.003 C 
ATOM      5  C   UNL     1     164.057 165.001 167.705  1.00  0.00     0.004 C 
ENDBRANCH   3   4
ENDBRANCH   2   3
ENDBRANCH   1   2
BRANCH   1   6
ATOM      6  C   UNL     1     167.173 159.917 167.717  1.00  0.00     0.002 C 
BRANCH   6   7
ATOM      7  C   UNL     1     166.124 158.799 167.869  1.00  0.00     0.028 C 
BRANCH   7   8
ATOM      8  C   UNL     1     165.637 158.247 166.527  1.00  0.00     0.156 C 
BRANCH   8   9
ATOM      9  O   UNL     1     164.876 157.092 166.749  1.00  0.00    -0.396 OA
ATOM     10  H   UNL     1     165.511 156.331 166.701  1.00  0.00     0.210 HD
ENDBRANCH   8   9
ENDBRANCH   7   8
ENDBRANCH   6   7
ENDBRANCH   1   6
TORSDOF 7
ENDMDL
MODEL 7
REMARK VINA RESULT:    -3.137      1.483      1.867
REMARK INTER + INTRA:          -4.593
REMARK INTER:                  -4.488
REMARK INTRA:                  -0.106
REMARK UNBOUND:                -0.264
REMARK SMILES CCCCCCCCO
REMARK SMILES IDX 5 1 4 2 3 3 2 4 1 5 6 6 7 7 8 8 9 9
REMARK H PARENT 9 10
REMARK Flexibility Score: inf
ROOT
ATOM      1  C   UNL     1     161.466 164.516 167.947  1.00  0.00     0.000 C 
ENDROOT
BRANCH   1   2
ATOM      2  C   UNL     1     162.825 164.875 167.321  1.00  0.00    -0.000 C 
BRANCH   2   3
ATOM      3  C   UNL     1     163.906 165.159 168.376  1.00  0.00    -0.000 C 
BRANCH   3   4
ATOM      4  C   UNL     1     164.527 166.556 168.222  1.00  0.00    -0.003 C 
ATOM      5  C   UNL     1     165.374 166.642 166.955  1.00  0.00     0.004 C 
ENDBRANCH   3   4
ENDBRANCH   2   3
ENDBRANCH   1   2
BRANCH   1   6
ATOM      6  C   UNL     1     160.335 164.428 166.909  1.00  0.00     0.002 C 
BRANCH   6   7
ATOM      7  C   UNL     1     158.977 164.974 167.386  1.00  0.00     0.028 C 
BRANCH   7   8
ATOM      8  C   UNL     1     158.172 165.642 166.267  1.00  0.00     0.156 C 
BRANCH   8   9
ATOM      9  O   UNL     1     157.116 166.371 166.827  1.00  0.00    -0.396 OA
ATOM     10  H   UNL     1     156.297 166.083 166.346  1.00  0.00     0.210 HD
ENDBRANCH   8   9
ENDBRANCH   7   8
ENDBRANCH   6   7
ENDBRANCH   1   6
TORSDOF 7
ENDMDL
MODEL 8
REMARK VINA RESULT:    -3.120      6.475      7.524
REMARK INTER + INTRA:          -4.570
REMARK INTER:                  -4.313
REMARK INTRA:                  -0.257
REMARK UNBOUND:                -0.264
REMARK SMILES CCCCCCCCO
REMARK SMILES IDX 5 1 4 2 3 3 2 4 1 5 6 6 7 7 8 8 9 9
REMARK H PARENT 9 10
REMARK Flexibility Score: inf
ROOT
ATOM      1  C   UNL     1     164.576 170.406 166.608  1.00  0.00     0.000 C 
ENDROOT
BRANCH   1   2
ATOM      2  C   UNL     1     164.710 168.988 167.190  1.00  0.00    -0.000 C 
BRANCH   2   3
ATOM      3  C   UNL     1     164.511 168.953 168.713  1.00  0.00    -0.000 C 
BRANCH   3   4
ATOM      4  C   UNL     1     165.145 167.713 169.361  1.00  0.00    -0.003 C 
ATOM      5  C   UNL     1     165.726 166.778 168.304  1.00  0.00     0.004 C 
ENDBRANCH   3   4
ENDBRANCH   2   3
ENDBRANCH   1   2
BRANCH   1   6
ATOM      6  C   UNL     1     164.093 171.435 167.645  1.00  0.00     0.002 C 
BRANCH   6   7
ATOM      7  C   UNL     1     164.971 172.693 167.764  1.00  0.00     0.028 C 
BRANCH   7   8
ATOM      8  C   UNL     1     165.657 173.074 166.449  1.00  0.00     0.156 C 
BRANCH   8   9
ATOM      9  O   UNL     1     166.431 174.224 166.645  1.00  0.00    -0.396 OA
ATOM     10  H   UNL     1     166.390 174.422 167.616  1.00  0.00     0.210 HD
ENDBRANCH   8   9
ENDBRANCH   7   8
ENDBRANCH   6   7
ENDBRANCH   1   6
TORSDOF 7
ENDMDL
MODEL 9
REMARK VINA RESULT:    -3.080      9.570     11.053
REMARK INTER + INTRA:          -4.515
REMARK INTER:                  -4.155
REMARK INTRA:                  -0.360
REMARK UNBOUND:                -0.264
REMARK SMILES CCCCCCCCO
REMARK SMILES IDX 5 1 4 2 3 3 2 4 1 5 6 6 7 7 8 8 9 9
REMARK H PARENT 9 10
REMARK Flexibility Score: inf
ROOT
ATOM      1  C   UNL     1     170.341 167.043 168.437  1.00  0.00     0.000 C 
ENDROOT
BRANCH   1   2
ATOM      2  C   UNL     1     171.227 167.344 169.658  1.00  0.00    -0.000 C 
BRANCH   2   3
ATOM      3  C   UNL     1     170.888 168.691 170.316  1.00  0.00    -0.000 C 
BRANCH   3   4
ATOM      4  C   UNL     1     172.112 169.609 170.443  1.00  0.00    -0.003 C 
ATOM      5  C   UNL     1     173.219 169.184 169.482  1.00  0.00     0.004 C 
ENDBRANCH   3   4
ENDBRANCH   2   3
ENDBRANCH   1   2
BRANCH   1   6
ATOM      6  C   UNL     1     171.153 166.632 167.196  1.00  0.00     0.002 C 
BRANCH   6   7
ATOM      7  C   UNL     1     172.542 166.041 167.499  1.00  0.00     0.028 C 
BRANCH   7   8
ATOM      8  C   UNL     1     173.270 165.544 166.248  1.00  0.00     0.156 C 
BRANCH   8   9
ATOM      9  O   UNL     1     174.321 164.700 166.626  1.00  0.00    -0.396 OA
ATOM     10  H   UNL     1     174.963 164.704 165.870  1.00  0.00     0.210 HD
ENDBRANCH   8   9
ENDBRANCH   7   8
ENDBRANCH   6   7
ENDBRANCH   1   6
TORSDOF 7
ENDMDL
