MODEL 1
REMARK VINA RESULT:    -4.999      0.000      0.000
REMARK INTER + INTRA:          -6.905
REMARK INTER:                  -6.461
REMARK INTRA:                  -0.444
REMARK UNBOUND:                -0.444
REMARK SMILES CCO[C@H]1O[C@@H](CO)[C@H](O)[C@@H](O)[C@H]1O
REMARK SMILES IDX 4 1 13 2 11 3 9 4 6 5 5 6 3 7 2 8 1 9 14 10 12 12 7 14 8 15
REMARK SMILES IDX 10 17
REMARK H PARENT 14 11 12 13 8 16 10 18
REMARK Flexibility Score: inf
ROOT
ATOM      1  C   UNL     1      19.806  14.565  34.396  1.00  0.00     0.281 C 
ATOM      2  C   UNL     1      18.870  15.748  33.991  1.00  0.00     0.202 C 
ATOM      3  C   UNL     1      19.519  16.670  32.929  1.00  0.00     0.179 C 
ATOM      4  C   UNL     1      20.976  17.040  33.311  1.00  0.00     0.177 C 
ATOM      5  C   UNL     1      21.694  15.899  34.090  1.00  0.00     0.178 C 
ATOM      6  O   UNL     1      21.096  14.651  33.799  1.00  0.00    -0.341 OA
ENDROOT
BRANCH   1   7
ATOM      7  O   UNL     1      19.204  13.295  34.161  1.00  0.00    -0.350 OA
BRANCH   7   8
ATOM      8  C   UNL     1      19.860  12.533  33.167  1.00  0.00     0.160 C 
ATOM      9  C   UNL     1      18.929  11.451  32.631  1.00  0.00     0.035 C 
ENDBRANCH   7   8
ENDBRANCH   1   7
BRANCH   2  10
ATOM     10  O   UNL     1      17.629  15.270  33.532  1.00  0.00    -0.385 OA
ATOM     11  H   UNL     1      17.774  14.923  32.615  1.00  0.00     0.211 HD
ENDBRANCH   2  10
BRANCH   3  12
ATOM     12  O   UNL     1      19.526  16.045  31.669  1.00  0.00    -0.387 OA
ATOM     13  H   UNL     1      20.396  15.578  31.577  1.00  0.00     0.211 HD
ENDBRANCH   3  12
BRANCH   5  14
ATOM     14  C   UNL     1      23.181  15.815  33.724  1.00  0.00     0.191 C 
BRANCH  14  15
ATOM     15  O   UNL     1      23.616  16.992  33.099  1.00  0.00    -0.394 OA
ATOM     16  H   UNL     1      22.810  17.562  32.964  1.00  0.00     0.210 HD
ENDBRANCH  14  15
ENDBRANCH   5  14
BRANCH   4  17
ATOM     17  O   UNL     1      21.019  18.235  34.050  1.00  0.00    -0.387 OA
ATOM     18  H   UNL     1      21.020  18.991  33.411  1.00  0.00     0.211 HD
ENDBRANCH   4  17
TORSDOF 7
ENDMDL
MODEL 2
REMARK VINA RESULT:    -4.812      1.911      2.528
REMARK INTER + INTRA:          -6.663
REMARK INTER:                  -6.224
REMARK INTRA:                  -0.439
REMARK UNBOUND:                -0.444
REMARK SMILES CCO[C@H]1O[C@@H](CO)[C@H](O)[C@@H](O)[C@H]1O
REMARK SMILES IDX 4 1 13 2 11 3 9 4 6 5 5 6 3 7 2 8 1 9 14 10 12 12 7 14 8 15
REMARK SMILES IDX 10 17
REMARK H PARENT 14 11 12 13 8 16 10 18
REMARK Flexibility Score: inf
ROOT
ATOM      1  C   UNL     1      19.630  15.659  34.412  1.00  0.00     0.281 C 
ATOM      2  C   UNL     1      19.947  16.198  32.980  1.00  0.00     0.202 C 
ATOM      3  C   UNL     1      20.909  15.264  32.204  1.00  0.00     0.179 C 
ATOM      4  C   UNL     1      22.125  14.849  33.072  1.00  0.00     0.177 C 
ATOM      5  C   UNL     1      21.765  14.737  34.583  1.00  0.00     0.178 C 
ATOM      6  O   UNL     1      20.381  14.496  34.744  1.00  0.00    -0.341 OA
ENDROOT
BRANCH   1   7
ATOM      7  O   UNL     1      18.235  15.459  34.616  1.00  0.00    -0.350 OA
BRANCH   7   8
ATOM      8  C   UNL     1      17.883  14.105  34.825  1.00  0.00     0.160 C 
ATOM      9  C   UNL     1      16.507  13.820  34.233  1.00  0.00     0.035 C 
ENDBRANCH   7   8
ENDBRANCH   1   7
BRANCH   2  10
ATOM     10  O   UNL     1      18.764  16.401  32.248  1.00  0.00    -0.385 OA
ATOM     11  H   UNL     1      18.017  16.401  32.900  1.00  0.00     0.211 HD
ENDBRANCH   2  10
BRANCH   3  12
ATOM     12  O   UNL     1      20.237  14.102  31.783  1.00  0.00    -0.387 OA
ATOM     13  H   UNL     1      19.973  14.241  30.838  1.00  0.00     0.211 HD
ENDBRANCH   3  12
BRANCH   5  14
ATOM     14  C   UNL     1      22.532  13.596  35.263  1.00  0.00     0.191 C 
BRANCH  14  15
ATOM     15  O   UNL     1      23.915  13.823  35.224  1.00  0.00    -0.394 OA
ATOM     16  H   UNL     1      24.350  12.935  35.101  1.00  0.00     0.210 HD
ENDBRANCH  14  15
ENDBRANCH   5  14
BRANCH   4  17
ATOM     17  O   UNL     1      23.201  15.736  32.895  1.00  0.00    -0.387 OA
ATOM     18  H   UNL     1      22.948  16.609  33.291  1.00  0.00     0.211 HD
ENDBRANCH   4  17
TORSDOF 7
ENDMDL
MODEL 3
REMARK VINA RESULT:    -4.794      1.971      4.590
REMARK INTER + INTRA:          -6.640
REMARK INTER:                  -6.225
REMARK INTRA:                  -0.416
REMARK UNBOUND:                -0.444
REMARK SMILES CCO[C@H]1O[C@@H](CO)[C@H](O)[C@@H](O)[C@H]1O
REMARK SMILES IDX 4 1 13 2 11 3 9 4 6 5 5 6 3 7 2 8 1 9 14 10 12 12 7 14 8 15
REMARK SMILES IDX 10 17
REMARK H PARENT 14 11 12 13 8 16 10 18
REMARK Flexibility Score: inf
ROOT
ATOM      1  C   UNL     1      21.830  17.015  34.132  1.00  0.00     0.281 C 
ATOM      2  C   UNL     1      21.571  18.138  33.077  1.00  0.00     0.202 C 
ATOM      3  C   UNL     1      20.067  18.489  32.955  1.00  0.00     0.179 C 
ATOM      4  C   UNL     1      19.192  17.215  32.839  1.00  0.00     0.177 C 
ATOM      5  C   UNL     1      19.786  16.012  33.628  1.00  0.00     0.178 C 
ATOM      6  O   UNL     1      20.628  16.471  34.667  1.00  0.00    -0.341 OA
ENDROOT
BRANCH   1   7
ATOM      7  O   UNL     1      22.719  17.438  35.161  1.00  0.00    -0.350 OA
BRANCH   7   8
ATOM      8  C   UNL     1      23.783  16.536  35.395  1.00  0.00     0.160 C 
ATOM      9  C   UNL     1      24.679  16.446  34.165  1.00  0.00     0.035 C 
ENDBRANCH   7   8
ENDBRANCH   1   7
BRANCH   2  10
ATOM     10  O   UNL     1      22.321  19.289  33.375  1.00  0.00    -0.385 OA
ATOM     11  H   UNL     1      22.705  19.156  34.280  1.00  0.00     0.211 HD
ENDBRANCH   2  10
BRANCH   3  12
ATOM     12  O   UNL     1      19.641  19.231  34.072  1.00  0.00    -0.387 OA
ATOM     13  H   UNL     1      19.883  18.711  34.880  1.00  0.00     0.211 HD
ENDBRANCH   3  12
BRANCH   5  14
ATOM     14  C   UNL     1      18.684  15.146  34.252  1.00  0.00     0.191 C 
BRANCH  14  15
ATOM     15  O   UNL     1      17.483  15.265  33.539  1.00  0.00    -0.394 OA
ATOM     16  H   UNL     1      17.449  16.195  33.184  1.00  0.00     0.210 HD
ENDBRANCH  14  15
ENDBRANCH   5  14
BRANCH   4  17
ATOM     17  O   UNL     1      18.988  16.860  31.494  1.00  0.00    -0.387 OA
ATOM     18  H   UNL     1      18.128  16.372  31.433  1.00  0.00     0.211 HD
ENDBRANCH   4  17
TORSDOF 7
ENDMDL
MODEL 4
REMARK VINA RESULT:    -4.744      2.148      4.575
REMARK INTER + INTRA:          -6.575
REMARK INTER:                  -6.293
REMARK INTRA:                  -0.282
REMARK UNBOUND:                -0.444
REMARK SMILES CCO[C@H]1O[C@@H](CO)[C@H](O)[C@@H](O)[C@H]1O
REMARK SMILES IDX 4 1 13 2 11 3 9 4 6 5 5 6 3 7 2 8 1 9 14 10 12 12 7 14 8 15
REMARK SMILES IDX 10 17
REMARK H PARENT 14 11 12 13 8 16 10 18
REMARK Flexibility Score: inf
ROOT
ATOM      1  C   UNL     1      20.874  16.553  34.101  1.00  0.00     0.281 C 
ATOM      2  C   UNL     1      22.192  16.648  34.934  1.00  0.00     0.202 C 
ATOM      3  C   UNL     1      23.427  16.172  34.130  1.00  0.00     0.179 C 
ATOM      4  C   UNL     1      23.156  14.823  33.415  1.00  0.00     0.177 C 
ATOM      5  C   UNL     1      21.669  14.670  32.979  1.00  0.00     0.178 C 
ATOM      6  O   UNL     1      21.065  15.940  32.830  1.00  0.00    -0.341 OA
ENDROOT
BRANCH   1   7
ATOM      7  O   UNL     1      20.219  17.812  33.982  1.00  0.00    -0.350 OA
BRANCH   7   8
ATOM      8  C   UNL     1      20.058  18.242  32.644  1.00  0.00     0.160 C 
ATOM      9  C   UNL     1      20.632  19.644  32.468  1.00  0.00     0.035 C 
ENDBRANCH   7   8
ENDBRANCH   1   7
BRANCH   2  10
ATOM     10  O   UNL     1      22.391  17.956  35.410  1.00  0.00    -0.385 OA
ATOM     11  H   UNL     1      22.822  17.878  36.299  1.00  0.00     0.211 HD
ENDBRANCH   2  10
BRANCH   3  12
ATOM     12  O   UNL     1      23.789  17.130  33.166  1.00  0.00    -0.387 OA
ATOM     13  H   UNL     1      24.580  16.778  32.684  1.00  0.00     0.211 HD
ENDBRANCH   3  12
BRANCH   5  14
ATOM     14  C   UNL     1      21.545  13.922  31.646  1.00  0.00     0.191 C 
BRANCH  14  15
ATOM     15  O   UNL     1      20.225  13.507  31.419  1.00  0.00    -0.394 OA
ATOM     16  H   UNL     1      19.901  13.099  32.268  1.00  0.00     0.210 HD
ENDBRANCH  14  15
ENDBRANCH   5  14
BRANCH   4  17
ATOM     17  O   UNL     1      23.539  13.736  34.220  1.00  0.00    -0.387 OA
ATOM     18  H   UNL     1      23.303  12.901  33.740  1.00  0.00     0.211 HD
ENDBRANCH   4  17
TORSDOF 7
ENDMDL
MODEL 5
REMARK VINA RESULT:    -4.713      1.912      2.882
REMARK INTER + INTRA:          -6.535
REMARK INTER:                  -6.019
REMARK INTRA:                  -0.516
REMARK UNBOUND:                -0.444
REMARK SMILES CCO[C@H]1O[C@@H](CO)[C@H](O)[C@@H](O)[C@H]1O
REMARK SMILES IDX 4 1 13 2 11 3 9 4 6 5 5 6 3 7 2 8 1 9 14 10 12 12 7 14 8 15
REMARK SMILES IDX 10 17
REMARK H PARENT 14 11 12 13 8 16 10 18
REMARK Flexibility Score: inf
ROOT
ATOM      1  C   UNL     1      21.407  16.062  34.162  1.00  0.00     0.281 C 
ATOM      2  C   UNL     1      19.875  15.772  34.064  1.00  0.00     0.202 C 
ATOM      3  C   UNL     1      19.204  16.559  32.912  1.00  0.00     0.179 C 
ATOM      4  C   UNL     1      19.627  18.051  32.919  1.00  0.00     0.177 C 
ATOM      5  C   UNL     1      21.081  18.254  33.436  1.00  0.00     0.178 C 
ATOM      6  O   UNL     1      21.838  17.072  33.256  1.00  0.00    -0.341 OA
ENDROOT
BRANCH   1   7
ATOM      7  O   UNL     1      22.190  14.878  34.036  1.00  0.00    -0.350 OA
BRANCH   7   8
ATOM      8  C   UNL     1      23.093  14.910  32.949  1.00  0.00     0.160 C 
ATOM      9  C   UNL     1      22.708  13.861  31.911  1.00  0.00     0.035 C 
ENDBRANCH   7   8
ENDBRANCH   1   7
BRANCH   2  10
ATOM     10  O   UNL     1      19.635  14.394  33.922  1.00  0.00    -0.385 OA
ATOM     11  H   UNL     1      20.043  14.116  33.063  1.00  0.00     0.211 HD
ENDBRANCH   2  10
BRANCH   3  12
ATOM     12  O   UNL     1      19.543  15.999  31.667  1.00  0.00    -0.387 OA
ATOM     13  H   UNL     1      20.449  15.607  31.757  1.00  0.00     0.211 HD
ENDBRANCH   3  12
BRANCH   5  14
ATOM     14  C   UNL     1      21.791  19.394  32.695  1.00  0.00     0.191 C 
BRANCH  14  15
ATOM     15  O   UNL     1      21.069  20.592  32.801  1.00  0.00    -0.394 OA
ATOM     16  H   UNL     1      20.358  20.441  33.482  1.00  0.00     0.210 HD
ENDBRANCH  14  15
ENDBRANCH   5  14
BRANCH   4  17
ATOM     17  O   UNL     1      18.731  18.829  33.674  1.00  0.00    -0.387 OA
ATOM     18  H   UNL     1      17.852  18.814  33.217  1.00  0.00     0.211 HD
ENDBRANCH   4  17
TORSDOF 7
ENDMDL
MODEL 6
REMARK VINA RESULT:    -4.637      3.458      4.991
REMARK INTER + INTRA:          -6.437
REMARK INTER:                  -5.930
REMARK INTRA:                  -0.507
REMARK UNBOUND:                -0.444
REMARK SMILES CCO[C@H]1O[C@@H](CO)[C@H](O)[C@@H](O)[C@H]1O
REMARK SMILES IDX 4 1 13 2 11 3 9 4 6 5 5 6 3 7 2 8 1 9 14 10 12 12 7 14 8 15
REMARK SMILES IDX 10 17
REMARK H PARENT 14 11 12 13 8 16 10 18
REMARK Flexibility Score: inf
ROOT
ATOM      1  C   UNL     1      16.300  11.507  34.974  1.00  0.00     0.281 C 
ATOM      2  C   UNL     1      16.425  12.896  35.679  1.00  0.00     0.202 C 
ATOM      3  C   UNL     1      17.138  13.942  34.787  1.00  0.00     0.179 C 
ATOM      4  C   UNL     1      18.432  13.367  34.157  1.00  0.00     0.177 C 
ATOM      5  C   UNL     1      18.323  11.842  33.864  1.00  0.00     0.178 C 
ATOM      6  O   UNL     1      16.968  11.463  33.717  1.00  0.00    -0.341 OA
ENDROOT
BRANCH   1   7
ATOM      7  O   UNL     1      14.946  11.080  34.862  1.00  0.00    -0.350 OA
BRANCH   7   8
ATOM      8  C   UNL     1      14.498  10.962  33.526  1.00  0.00     0.160 C 
ATOM      9  C   UNL     1      13.462  12.037  33.219  1.00  0.00     0.035 C 
ENDBRANCH   7   8
ENDBRANCH   1   7
BRANCH   2  10
ATOM     10  O   UNL     1      15.163  13.370  36.080  1.00  0.00    -0.385 OA
ATOM     11  H   UNL     1      15.108  13.247  37.062  1.00  0.00     0.211 HD
ENDBRANCH   2  10
BRANCH   3  12
ATOM     12  O   UNL     1      16.285  14.375  33.755  1.00  0.00    -0.387 OA
ATOM     13  H   UNL     1      16.123  13.597  33.162  1.00  0.00     0.211 HD
ENDBRANCH   3  12
BRANCH   5  14
ATOM     14  C   UNL     1      19.069  11.458  32.579  1.00  0.00     0.191 C 
BRANCH  14  15
ATOM     15  O   UNL     1      19.605  12.590  31.949  1.00  0.00    -0.394 OA
ATOM     16  H   UNL     1      19.703  13.292  32.650  1.00  0.00     0.210 HD
ENDBRANCH  14  15
ENDBRANCH   5  14
BRANCH   4  17
ATOM     17  O   UNL     1      19.550  13.627  34.968  1.00  0.00    -0.387 OA
ATOM     18  H   UNL     1      20.205  14.141  34.431  1.00  0.00     0.211 HD
ENDBRANCH   4  17
TORSDOF 7
ENDMDL
MODEL 7
REMARK VINA RESULT:    -4.616      1.565      4.732
REMARK INTER + INTRA:          -6.410
REMARK INTER:                  -6.167
REMARK INTRA:                  -0.244
REMARK UNBOUND:                -0.444
REMARK SMILES CCO[C@H]1O[C@@H](CO)[C@H](O)[C@@H](O)[C@H]1O
REMARK SMILES IDX 4 1 13 2 11 3 9 4 6 5 5 6 3 7 2 8 1 9 14 10 12 12 7 14 8 15
REMARK SMILES IDX 10 17
REMARK H PARENT 14 11 12 13 8 16 10 18
REMARK Flexibility Score: inf
ROOT
ATOM      1  C   UNL     1      20.679  16.049  34.006  1.00  0.00     0.281 C 
ATOM      2  C   UNL     1      21.702  14.991  33.481  1.00  0.00     0.202 C 
ATOM      3  C   UNL     1      21.004  13.806  32.768  1.00  0.00     0.179 C 
ATOM      4  C   UNL     1      19.812  13.264  33.599  1.00  0.00     0.177 C 
ATOM      5  C   UNL     1      19.104  14.380  34.421  1.00  0.00     0.178 C 
ATOM      6  O   UNL     1      19.325  15.645  33.827  1.00  0.00    -0.341 OA
ENDROOT
BRANCH   1   7
ATOM      7  O   UNL     1      20.916  17.344  33.463  1.00  0.00    -0.350 OA
BRANCH   7   8
ATOM      8  C   UNL     1      19.835  17.844  32.701  1.00  0.00     0.160 C 
ATOM      9  C   UNL     1      19.570  19.303  33.054  1.00  0.00     0.035 C 
ENDBRANCH   7   8
ENDBRANCH   1   7
BRANCH   2  10
ATOM     10  O   UNL     1      22.647  15.588  32.628  1.00  0.00    -0.385 OA
ATOM     11  H   UNL     1      23.028  16.362  33.116  1.00  0.00     0.211 HD
ENDBRANCH   2  10
BRANCH   3  12
ATOM     12  O   UNL     1      20.531  14.199  31.503  1.00  0.00    -0.387 OA
ATOM     13  H   UNL     1      20.185  15.124  31.592  1.00  0.00     0.211 HD
ENDBRANCH   3  12
BRANCH   5  14
ATOM     14  C   UNL     1      17.589  14.148  34.500  1.00  0.00     0.191 C 
BRANCH  14  15
ATOM     15  O   UNL     1      16.910  14.906  33.534  1.00  0.00    -0.394 OA
ATOM     16  H   UNL     1      17.105  14.488  32.651  1.00  0.00     0.210 HD
ENDBRANCH  14  15
ENDBRANCH   5  14
BRANCH   4  17
ATOM     17  O   UNL     1      20.220  12.221  34.450  1.00  0.00    -0.387 OA
ATOM     18  H   UNL     1      20.967  11.741  34.010  1.00  0.00     0.211 HD
ENDBRANCH   4  17
TORSDOF 7
ENDMDL
MODEL 8
REMARK VINA RESULT:    -4.578      1.565      3.229
REMARK INTER + INTRA:          -6.361
REMARK INTER:                  -5.922
REMARK INTRA:                  -0.439
REMARK UNBOUND:                -0.444
REMARK SMILES CCO[C@H]1O[C@@H](CO)[C@H](O)[C@@H](O)[C@H]1O
REMARK SMILES IDX 4 1 13 2 11 3 9 4 6 5 5 6 3 7 2 8 1 9 14 10 12 12 7 14 8 15
REMARK SMILES IDX 10 17
REMARK H PARENT 14 11 12 13 8 16 10 18
REMARK Flexibility Score: inf
ROOT
ATOM      1  C   UNL     1      21.198  14.712  32.233  1.00  0.00     0.281 C 
ATOM      2  C   UNL     1      22.698  14.972  32.585  1.00  0.00     0.202 C 
ATOM      3  C   UNL     1      22.857  15.881  33.829  1.00  0.00     0.179 C 
ATOM      4  C   UNL     1      21.940  17.128  33.745  1.00  0.00     0.177 C 
ATOM      5  C   UNL     1      20.608  16.836  32.993  1.00  0.00     0.178 C 
ATOM      6  O   UNL     1      20.301  15.457  33.051  1.00  0.00    -0.341 OA
ENDROOT
BRANCH   1   7
ATOM      7  O   UNL     1      20.877  13.324  32.232  1.00  0.00    -0.350 OA
BRANCH   7   8
ATOM      8  C   UNL     1      19.955  12.956  33.239  1.00  0.00     0.160 C 
ATOM      9  C   UNL     1      19.172  11.720  32.812  1.00  0.00     0.035 C 
ENDBRANCH   7   8
ENDBRANCH   1   7
BRANCH   2  10
ATOM     10  O   UNL     1      23.386  13.760  32.771  1.00  0.00    -0.385 OA
ATOM     11  H   UNL     1      23.923  13.857  33.599  1.00  0.00     0.211 HD
ENDBRANCH   2  10
BRANCH   3  12
ATOM     12  O   UNL     1      22.549  15.170  35.003  1.00  0.00    -0.387 OA
ATOM     13  H   UNL     1      23.383  14.730  35.309  1.00  0.00     0.211 HD
ENDBRANCH   3  12
BRANCH   5  14
ATOM     14  C   UNL     1      19.434  17.614  33.602  1.00  0.00     0.191 C 
BRANCH  14  15
ATOM     15  O   UNL     1      19.832  18.896  34.006  1.00  0.00    -0.394 OA
ATOM     16  H   UNL     1      20.828  18.900  34.013  1.00  0.00     0.210 HD
ENDBRANCH  14  15
ENDBRANCH   5  14
BRANCH   4  17
ATOM     17  O   UNL     1      22.608  18.210  33.146  1.00  0.00    -0.387 OA
ATOM     18  H   UNL     1      23.450  18.365  33.646  1.00  0.00     0.211 HD
ENDBRANCH   4  17
TORSDOF 7
ENDMDL
MODEL 9
REMARK VINA RESULT:    -4.483      2.111      4.471
REMARK INTER + INTRA:          -6.238
REMARK INTER:                  -5.724
REMARK INTRA:                  -0.514
REMARK UNBOUND:                -0.444
REMARK SMILES CCO[C@H]1O[C@@H](CO)[C@H](O)[C@@H](O)[C@H]1O
REMARK SMILES IDX 4 1 13 2 11 3 9 4 6 5 5 6 3 7 2 8 1 9 14 10 12 12 7 14 8 15
REMARK SMILES IDX 10 17
REMARK H PARENT 14 11 12 13 8 16 10 18
REMARK Flexibility Score: inf
ROOT
ATOM      1  C   UNL     1      21.732  17.073  34.829  1.00  0.00     0.281 C 
ATOM      2  C   UNL     1      21.302  15.584  34.635  1.00  0.00     0.202 C 
ATOM      3  C   UNL     1      20.856  15.290  33.181  1.00  0.00     0.179 C 
ATOM      4  C   UNL     1      19.873  16.368  32.657  1.00  0.00     0.177 C 
ATOM      5  C   UNL     1      20.162  17.776  33.255  1.00  0.00     0.178 C 
ATOM      6  O   UNL     1      21.512  17.869  33.669  1.00  0.00    -0.341 OA
ENDROOT
BRANCH   1   7
ATOM      7  O   UNL     1      23.072  17.191  35.298  1.00  0.00    -0.350 OA
BRANCH   7   8
ATOM      8  C   UNL     1      23.971  17.684  34.324  1.00  0.00     0.160 C 
ATOM      9  C   UNL     1      25.138  16.720  34.144  1.00  0.00     0.035 C 
ENDBRANCH   7   8
ENDBRANCH   1   7
BRANCH   2  10
ATOM     10  O   UNL     1      22.334  14.710  35.018  1.00  0.00    -0.385 OA
ATOM     11  H   UNL     1      22.858  14.506  34.202  1.00  0.00     0.211 HD
ENDBRANCH   2  10
BRANCH   3  12
ATOM     12  O   UNL     1      21.970  15.237  32.323  1.00  0.00    -0.387 OA
ATOM     13  H   UNL     1      22.007  16.100  31.837  1.00  0.00     0.211 HD
ENDBRANCH   3  12
BRANCH   5  14
ATOM     14  C   UNL     1      19.898  18.889  32.233  1.00  0.00     0.191 C 
BRANCH  14  15
ATOM     15  O   UNL     1      18.761  18.608  31.462  1.00  0.00    -0.394 OA
ATOM     16  H   UNL     1      19.005  18.785  30.512  1.00  0.00     0.210 HD
ENDBRANCH  14  15
ENDBRANCH   5  14
BRANCH   4  17
ATOM     17  O   UNL     1      18.539  16.001  32.904  1.00  0.00    -0.387 OA
ATOM     18  H   UNL     1      18.229  16.494  33.705  1.00  0.00     0.211 HD
ENDBRANCH   4  17
TORSDOF 7
ENDMDL
