MODEL 1
REMARK VINA RESULT:    -2.998      0.000      0.000
REMARK INTER + INTRA:          -4.673
REMARK INTER:                  -4.312
REMARK INTRA:                  -0.361
REMARK UNBOUND:                -0.361
REMARK SMILES CCCCCCCCCO
REMARK SMILES IDX 6 1 5 2 4 3 3 4 2 5 1 6 7 7 8 8 9 9 10 10
REMARK H PARENT 10 11
REMARK Flexibility Score: inf
ROOT
ATOM      1  C   UNL     1      29.523 -21.493  23.450  1.00  0.00     0.000 C 
ENDROOT
BRANCH   1   2
ATOM      2  C   UNL     1      29.574 -21.158  24.949  1.00  0.00     0.000 C 
BRANCH   2   3
ATOM      3  C   UNL     1      28.970 -22.267  25.823  1.00  0.00    -0.000 C 
BRANCH   3   4
ATOM      4  C   UNL     1      29.424 -22.126  27.281  1.00  0.00    -0.000 C 
BRANCH   4   5
ATOM      5  C   UNL     1      30.660 -21.227  27.388  1.00  0.00    -0.003 C 
ATOM      6  C   UNL     1      31.022 -20.960  28.847  1.00  0.00     0.004 C 
ENDBRANCH   4   5
ENDBRANCH   3   4
ENDBRANCH   2   3
ENDBRANCH   1   2
BRANCH   1   7
ATOM      7  C   UNL     1      29.405 -23.003  23.184  1.00  0.00     0.002 C 
BRANCH   7   8
ATOM      8  C   UNL     1      30.299 -23.470  22.025  1.00  0.00     0.028 C 
BRANCH   8   9
ATOM      9  C   UNL     1      31.205 -22.358  21.492  1.00  0.00     0.156 C 
BRANCH   9  10
ATOM     10  O   UNL     1      32.476 -22.881  21.228  1.00  0.00    -0.396 OA
ATOM     11  H   UNL     1      32.511 -23.763  21.684  1.00  0.00     0.210 HD
ENDBRANCH   9  10
ENDBRANCH   8   9
ENDBRANCH   7   8
ENDBRANCH   1   7
TORSDOF 8
ENDMDL
MODEL 2
REMARK VINA RESULT:    -2.970     12.242     13.127
REMARK INTER + INTRA:          -4.633
REMARK INTER:                  -4.238
REMARK INTRA:                  -0.395
REMARK UNBOUND:                -0.361
REMARK SMILES CCCCCCCCCO
REMARK SMILES IDX 6 1 5 2 4 3 3 4 2 5 1 6 7 7 8 8 9 9 10 10
REMARK H PARENT 10 11
REMARK Flexibility Score: inf
ROOT
ATOM      1  C   UNL     1      27.590 -20.044  36.528  1.00  0.00     0.000 C 
ENDROOT
BRANCH   1   2
ATOM      2  C   UNL     1      27.309 -21.473  36.034  1.00  0.00     0.000 C 
BRANCH   2   3
ATOM      3  C   UNL     1      27.169 -22.479  37.185  1.00  0.00    -0.000 C 
BRANCH   3   4
ATOM      4  C   UNL     1      28.144 -23.651  37.012  1.00  0.00    -0.000 C 
BRANCH   4   5
ATOM      5  C   UNL     1      29.043 -23.442  35.788  1.00  0.00    -0.003 C 
ATOM      6  C   UNL     1      30.456 -23.959  36.048  1.00  0.00     0.004 C 
ENDBRANCH   4   5
ENDBRANCH   3   4
ENDBRANCH   2   3
ENDBRANCH   1   2
BRANCH   1   7
ATOM      7  C   UNL     1      28.904 -19.473  35.969  1.00  0.00     0.002 C 
BRANCH   7   8
ATOM      8  C   UNL     1      29.333 -18.178  36.677  1.00  0.00     0.028 C 
BRANCH   8   9
ATOM      9  C   UNL     1      28.143 -17.335  37.141  1.00  0.00     0.156 C 
BRANCH   9  10
ATOM     10  O   UNL     1      28.412 -16.812  38.411  1.00  0.00    -0.396 OA
ATOM     11  H   UNL     1      27.530 -16.582  38.806  1.00  0.00     0.210 HD
ENDBRANCH   9  10
ENDBRANCH   8   9
ENDBRANCH   7   8
ENDBRANCH   1   7
TORSDOF 8
ENDMDL
MODEL 3
REMARK VINA RESULT:    -2.970     14.313     15.270
REMARK INTER + INTRA:          -4.633
REMARK INTER:                  -4.199
REMARK INTRA:                  -0.434
REMARK UNBOUND:                -0.361
REMARK SMILES CCCCCCCCCO
REMARK SMILES IDX 6 1 5 2 4 3 3 4 2 5 1 6 7 7 8 8 9 9 10 10
REMARK H PARENT 10 11
REMARK Flexibility Score: inf
ROOT
ATOM      1  C   UNL     1      35.875  -8.013  26.536  1.00  0.00     0.000 C 
ENDROOT
BRANCH   1   2
ATOM      2  C   UNL     1      35.104  -9.335  26.679  1.00  0.00     0.000 C 
BRANCH   2   3
ATOM      3  C   UNL     1      34.763  -9.970  25.324  1.00  0.00    -0.000 C 
BRANCH   3   4
ATOM      4  C   UNL     1      33.280 -10.357  25.256  1.00  0.00    -0.000 C 
BRANCH   4   5
ATOM      5  C   UNL     1      32.394  -9.115  25.110  1.00  0.00    -0.003 C 
ATOM      6  C   UNL     1      31.210  -9.168  26.072  1.00  0.00     0.004 C 
ENDBRANCH   4   5
ENDBRANCH   3   4
ENDBRANCH   2   3
ENDBRANCH   1   2
BRANCH   1   7
ATOM      7  C   UNL     1      36.303  -7.732  25.085  1.00  0.00     0.002 C 
BRANCH   7   8
ATOM      8  C   UNL     1      35.436  -6.657  24.411  1.00  0.00     0.028 C 
BRANCH   8   9
ATOM      9  C   UNL     1      36.253  -5.456  23.929  1.00  0.00     0.156 C 
BRANCH   9  10
ATOM     10  O   UNL     1      35.669  -4.276  24.406  1.00  0.00    -0.396 OA
ATOM     11  H   UNL     1      36.310  -3.547  24.197  1.00  0.00     0.210 HD
ENDBRANCH   9  10
ENDBRANCH   8   9
ENDBRANCH   7   8
ENDBRANCH   1   7
TORSDOF 8
ENDMDL
MODEL 4
REMARK VINA RESULT:    -2.939      2.315      4.908
REMARK INTER + INTRA:          -4.589
REMARK INTER:                  -3.961
REMARK INTRA:                  -0.628
REMARK UNBOUND:                -0.361
REMARK SMILES CCCCCCCCCO
REMARK SMILES IDX 6 1 5 2 4 3 3 4 2 5 1 6 7 7 8 8 9 9 10 10
REMARK H PARENT 10 11
REMARK Flexibility Score: inf
ROOT
ATOM      1  C   UNL     1      27.899 -22.453  24.220  1.00  0.00     0.000 C 
ENDROOT
BRANCH   1   2
ATOM      2  C   UNL     1      28.141 -23.618  23.248  1.00  0.00     0.000 C 
BRANCH   2   3
ATOM      3  C   UNL     1      28.876 -23.181  21.973  1.00  0.00    -0.000 C 
BRANCH   3   4
ATOM      4  C   UNL     1      30.348 -23.610  22.013  1.00  0.00    -0.000 C 
BRANCH   4   5
ATOM      5  C   UNL     1      31.276 -22.420  21.743  1.00  0.00    -0.003 C 
ATOM      6  C   UNL     1      30.523 -21.098  21.862  1.00  0.00     0.004 C 
ENDBRANCH   4   5
ENDBRANCH   3   4
ENDBRANCH   2   3
ENDBRANCH   1   2
BRANCH   1   7
ATOM      7  C   UNL     1      28.862 -22.474  25.420  1.00  0.00     0.002 C 
BRANCH   7   8
ATOM      8  C   UNL     1      29.719 -21.202  25.512  1.00  0.00     0.028 C 
BRANCH   8   9
ATOM      9  C   UNL     1      30.170 -20.894  26.942  1.00  0.00     0.156 C 
BRANCH   9  10
ATOM     10  O   UNL     1      31.107 -21.851  27.348  1.00  0.00    -0.396 OA
ATOM     11  H   UNL     1      31.095 -21.844  28.341  1.00  0.00     0.210 HD
ENDBRANCH   9  10
ENDBRANCH   8   9
ENDBRANCH   7   8
ENDBRANCH   1   7
TORSDOF 8
ENDMDL
MODEL 5
REMARK VINA RESULT:    -2.933     11.686     12.713
REMARK INTER + INTRA:          -4.579
REMARK INTER:                  -4.210
REMARK INTRA:                  -0.370
REMARK UNBOUND:                -0.361
REMARK SMILES CCCCCCCCCO
REMARK SMILES IDX 6 1 5 2 4 3 3 4 2 5 1 6 7 7 8 8 9 9 10 10
REMARK H PARENT 10 11
REMARK Flexibility Score: inf
ROOT
ATOM      1  C   UNL     1      28.669 -19.745  35.454  1.00  0.00     0.000 C 
ENDROOT
BRANCH   1   2
ATOM      2  C   UNL     1      27.680 -19.041  36.397  1.00  0.00     0.000 C 
BRANCH   2   3
ATOM      3  C   UNL     1      28.262 -17.764  37.019  1.00  0.00    -0.000 C 
BRANCH   3   4
ATOM      4  C   UNL     1      29.772 -17.669  36.766  1.00  0.00    -0.000 C 
BRANCH   4   5
ATOM      5  C   UNL     1      30.162 -16.266  36.290  1.00  0.00    -0.003 C 
ATOM      6  C   UNL     1      31.128 -16.334  35.110  1.00  0.00     0.004 C 
ENDBRANCH   4   5
ENDBRANCH   3   4
ENDBRANCH   2   3
ENDBRANCH   1   2
BRANCH   1   7
ATOM      7  C   UNL     1      28.451 -21.267  35.396  1.00  0.00     0.002 C 
BRANCH   7   8
ATOM      8  C   UNL     1      27.501 -21.769  36.494  1.00  0.00     0.028 C 
BRANCH   8   9
ATOM      9  C   UNL     1      27.587 -23.283  36.703  1.00  0.00     0.156 C 
BRANCH   9  10
ATOM     10  O   UNL     1      28.458 -23.556  37.764  1.00  0.00    -0.396 OA
ATOM     11  H   UNL     1      28.604 -22.691  38.230  1.00  0.00     0.210 HD
ENDBRANCH   9  10
ENDBRANCH   8   9
ENDBRANCH   7   8
ENDBRANCH   1   7
TORSDOF 8
ENDMDL
MODEL 6
REMARK VINA RESULT:    -2.913     11.663     12.967
REMARK INTER + INTRA:          -4.551
REMARK INTER:                  -4.055
REMARK INTRA:                  -0.497
REMARK UNBOUND:                -0.361
REMARK SMILES CCCCCCCCCO
REMARK SMILES IDX 6 1 5 2 4 3 3 4 2 5 1 6 7 7 8 8 9 9 10 10
REMARK H PARENT 10 11
REMARK Flexibility Score: inf
ROOT
ATOM      1  C   UNL     1      27.603 -20.701  35.223  1.00  0.00     0.000 C 
ENDROOT
BRANCH   1   2
ATOM      2  C   UNL     1      28.812 -19.753  35.265  1.00  0.00     0.000 C 
BRANCH   2   3
ATOM      3  C   UNL     1      28.942 -19.020  36.607  1.00  0.00    -0.000 C 
BRANCH   3   4
ATOM      4  C   UNL     1      29.275 -17.538  36.395  1.00  0.00    -0.000 C 
BRANCH   4   5
ATOM      5  C   UNL     1      28.618 -16.667  37.472  1.00  0.00    -0.003 C 
ATOM      6  C   UNL     1      27.165 -17.073  37.698  1.00  0.00     0.004 C 
ENDBRANCH   4   5
ENDBRANCH   3   4
ENDBRANCH   2   3
ENDBRANCH   1   2
BRANCH   1   7
ATOM      7  C   UNL     1      26.807 -20.703  36.539  1.00  0.00     0.002 C 
BRANCH   7   8
ATOM      8  C   UNL     1      26.746 -22.095  37.189  1.00  0.00     0.028 C 
BRANCH   8   9
ATOM      9  C   UNL     1      27.805 -23.052  36.637  1.00  0.00     0.156 C 
BRANCH   9  10
ATOM     10  O   UNL     1      28.539 -23.593  37.699  1.00  0.00    -0.396 OA
ATOM     11  H   UNL     1      29.404 -23.106  37.713  1.00  0.00     0.210 HD
ENDBRANCH   9  10
ENDBRANCH   8   9
ENDBRANCH   7   8
ENDBRANCH   1   7
TORSDOF 8
ENDMDL
MODEL 7
REMARK VINA RESULT:    -2.883     13.396     14.313
REMARK INTER + INTRA:          -4.508
REMARK INTER:                  -4.246
REMARK INTRA:                  -0.261
REMARK UNBOUND:                -0.361
REMARK SMILES CCCCCCCCCO
REMARK SMILES IDX 6 1 5 2 4 3 3 4 2 5 1 6 7 7 8 8 9 9 10 10
REMARK H PARENT 10 11
REMARK Flexibility Score: inf
ROOT
ATOM      1  C   UNL     1      33.105  -8.992  25.276  1.00  0.00     0.000 C 
ENDROOT
BRANCH   1   2
ATOM      2  C   UNL     1      32.459 -10.369  25.049  1.00  0.00     0.000 C 
BRANCH   2   3
ATOM      3  C   UNL     1      30.926 -10.303  25.008  1.00  0.00    -0.000 C 
BRANCH   3   4
ATOM      4  C   UNL     1      30.439  -8.849  24.991  1.00  0.00    -0.000 C 
BRANCH   4   5
ATOM      5  C   UNL     1      28.982  -8.752  25.457  1.00  0.00    -0.003 C 
ATOM      6  C   UNL     1      28.722  -7.432  26.179  1.00  0.00     0.004 C 
ENDBRANCH   4   5
ENDBRANCH   3   4
ENDBRANCH   2   3
ENDBRANCH   1   2
BRANCH   1   7
ATOM      7  C   UNL     1      34.527  -8.903  24.696  1.00  0.00     0.002 C 
BRANCH   7   8
ATOM      8  C   UNL     1      35.554  -8.408  25.727  1.00  0.00     0.028 C 
BRANCH   8   9
ATOM      9  C   UNL     1      36.540  -7.396  25.140  1.00  0.00     0.156 C 
BRANCH   9  10
ATOM     10  O   UNL     1      35.863  -6.208  24.841  1.00  0.00    -0.396 OA
ATOM     11  H   UNL     1      35.642  -6.253  23.874  1.00  0.00     0.210 HD
ENDBRANCH   9  10
ENDBRANCH   8   9
ENDBRANCH   7   8
ENDBRANCH   1   7
TORSDOF 8
ENDMDL
MODEL 8
REMARK VINA RESULT:    -2.880     16.672     17.640
REMARK INTER + INTRA:          -4.504
REMARK INTER:                  -4.206
REMARK INTRA:                  -0.298
REMARK UNBOUND:                -0.361
REMARK SMILES CCCCCCCCCO
REMARK SMILES IDX 6 1 5 2 4 3 3 4 2 5 1 6 7 7 8 8 9 9 10 10
REMARK H PARENT 10 11
REMARK Flexibility Score: inf
ROOT
ATOM      1  C   UNL     1      31.404  -7.423  31.470  1.00  0.00     0.000 C 
ENDROOT
BRANCH   1   2
ATOM      2  C   UNL     1      29.886  -7.586  31.654  1.00  0.00     0.000 C 
BRANCH   2   3
ATOM      3  C   UNL     1      29.360  -6.853  32.896  1.00  0.00    -0.000 C 
BRANCH   3   4
ATOM      4  C   UNL     1      28.247  -7.657  33.580  1.00  0.00    -0.000 C 
BRANCH   4   5
ATOM      5  C   UNL     1      28.831  -8.678  34.563  1.00  0.00    -0.003 C 
ATOM      6  C   UNL     1      28.150  -8.582  35.925  1.00  0.00     0.004 C 
ENDBRANCH   4   5
ENDBRANCH   3   4
ENDBRANCH   2   3
ENDBRANCH   1   2
BRANCH   1   7
ATOM      7  C   UNL     1      32.022  -6.450  32.489  1.00  0.00     0.002 C 
BRANCH   7   8
ATOM      8  C   UNL     1      33.465  -6.060  32.130  1.00  0.00     0.028 C 
BRANCH   8   9
ATOM      9  C   UNL     1      34.233  -5.479  33.320  1.00  0.00     0.156 C 
BRANCH   9  10
ATOM     10  O   UNL     1      34.779  -6.524  34.075  1.00  0.00    -0.396 OA
ATOM     11  H   UNL     1      34.268  -7.339  33.826  1.00  0.00     0.210 HD
ENDBRANCH   9  10
ENDBRANCH   8   9
ENDBRANCH   7   8
ENDBRANCH   1   7
TORSDOF 8
ENDMDL
MODEL 9
REMARK VINA RESULT:    -2.879     10.490     12.791
REMARK INTER + INTRA:          -4.502
REMARK INTER:                  -3.807
REMARK INTRA:                  -0.695
REMARK UNBOUND:                -0.361
REMARK SMILES CCCCCCCCCO
REMARK SMILES IDX 6 1 5 2 4 3 3 4 2 5 1 6 7 7 8 8 9 9 10 10
REMARK H PARENT 10 11
REMARK Flexibility Score: inf
ROOT
ATOM      1  C   UNL     1      25.615 -20.163  37.129  1.00  0.00     0.000 C 
ENDROOT
BRANCH   1   2
ATOM      2  C   UNL     1      26.440 -19.181  36.282  1.00  0.00     0.000 C 
BRANCH   2   3
ATOM      3  C   UNL     1      27.876 -19.016  36.801  1.00  0.00    -0.000 C 
BRANCH   3   4
ATOM      4  C   UNL     1      28.882 -19.680  35.853  1.00  0.00    -0.000 C 
BRANCH   4   5
ATOM      5  C   UNL     1      28.280 -19.869  34.456  1.00  0.00    -0.003 C 
ATOM      6  C   UNL     1      28.607 -21.251  33.898  1.00  0.00     0.004 C 
ENDBRANCH   4   5
ENDBRANCH   3   4
ENDBRANCH   2   3
ENDBRANCH   1   2
BRANCH   1   7
ATOM      7  C   UNL     1      25.555 -21.571  36.512  1.00  0.00     0.002 C 
BRANCH   7   8
ATOM      8  C   UNL     1      26.188 -22.640  37.416  1.00  0.00     0.028 C 
BRANCH   8   9
ATOM      9  C   UNL     1      27.427 -23.285  36.790  1.00  0.00     0.156 C 
BRANCH   9  10
ATOM     10  O   UNL     1      28.411 -23.448  37.773  1.00  0.00    -0.396 OA
ATOM     11  H   UNL     1      28.946 -22.612  37.769  1.00  0.00     0.210 HD
ENDBRANCH   9  10
ENDBRANCH   8   9
ENDBRANCH   7   8
ENDBRANCH   1   7
TORSDOF 8
ENDMDL
