MODEL 1
REMARK VINA RESULT:    -5.603      0.000      0.000
REMARK INTER + INTRA:          -5.603
REMARK INTER:                  -5.603
REMARK INTRA:                   0.000
REMARK UNBOUND:                 0.000
REMARK SMILES C=C1CCC[C@]2(C)CC(=O)C(=C(C)C)C[C@@H]12
REMARK SMILES IDX 13 1 12 2 11 3 15 4 16 5 2 6 1 7 3 8 4 9 5 10 6 11 8 12 9 13
REMARK SMILES IDX 10 14 7 15 14 16
REMARK H PARENT
REMARK Flexibility Score: inf
ROOT
ATOM      1  C   UNL     1     -39.482  16.879  12.510  1.00  0.00     0.039 C 
ATOM      2  C   UNL     1     -39.616  16.801  14.014  1.00  0.00    -0.070 C 
ATOM      3  C   UNL     1     -40.776  17.121  14.674  1.00  0.00    -0.006 C 
ATOM      4  C   UNL     1     -40.777  17.121  16.200  1.00  0.00     0.047 C 
ATOM      5  C   UNL     1     -42.161  17.335  16.857  1.00  0.00     0.025 C 
ATOM      6  C   UNL     1     -42.117  17.532  18.378  1.00  0.00    -0.073 C 
ATOM      7  C   UNL     1     -41.017  17.313  19.125  1.00  0.00     0.008 C 
ATOM      8  C   UNL     1     -43.428  17.820  19.072  1.00  0.00     0.031 C 
ATOM      9  C   UNL     1     -44.166  18.967  18.386  1.00  0.00     0.005 C 
ATOM     10  C   UNL     1     -44.311  18.711  16.880  1.00  0.00     0.008 C 
ATOM     11  C   UNL     1     -42.941  18.496  16.169  1.00  0.00    -0.018 C 
ATOM     12  C   UNL     1     -43.227  18.082  14.706  1.00  0.00     0.088 C 
ATOM     13  C   UNL     1     -42.019  17.580  13.963  1.00  0.00     0.159 C 
ATOM     14  O   UNL     1     -42.126  17.492  12.710  1.00  0.00    -0.295 OA
ATOM     15  C   UNL     1     -42.136  19.826  16.183  1.00  0.00     0.012 C 
ATOM     16  C   UNL     1     -38.380  16.374  14.782  1.00  0.00     0.039 C 
ENDROOT
TORSDOF 0
ENDMDL
MODEL 2
REMARK VINA RESULT:    -5.378      2.030      5.994
REMARK INTER + INTRA:          -5.378
REMARK INTER:                  -5.378
REMARK INTRA:                   0.000
REMARK UNBOUND:                 0.000
REMARK SMILES C=C1CCC[C@]2(C)CC(=O)C(=C(C)C)C[C@@H]12
REMARK SMILES IDX 13 1 12 2 11 3 15 4 16 5 2 6 1 7 3 8 4 9 5 10 6 11 8 12 9 13
REMARK SMILES IDX 10 14 7 15 14 16
REMARK H PARENT
REMARK Flexibility Score: inf
ROOT
ATOM      1  C   UNL     1     -41.141  16.750  17.604  1.00  0.00     0.039 C 
ATOM      2  C   UNL     1     -41.374  17.504  16.314  1.00  0.00    -0.070 C 
ATOM      3  C   UNL     1     -40.915  17.057  15.100  1.00  0.00    -0.006 C 
ATOM      4  C   UNL     1     -41.101  17.943  13.873  1.00  0.00     0.047 C 
ATOM      5  C   UNL     1     -40.700  17.297  12.526  1.00  0.00     0.025 C 
ATOM      6  C   UNL     1     -40.704  18.262  11.334  1.00  0.00    -0.073 C 
ATOM      7  C   UNL     1     -41.225  19.503  11.382  1.00  0.00     0.008 C 
ATOM      8  C   UNL     1     -40.250  17.710  10.002  1.00  0.00     0.031 C 
ATOM      9  C   UNL     1     -38.905  17.001  10.137  1.00  0.00     0.005 C 
ATOM     10  C   UNL     1     -38.941  15.952  11.257  1.00  0.00     0.008 C 
ATOM     11  C   UNL     1     -39.333  16.557  12.639  1.00  0.00    -0.018 C 
ATOM     12  C   UNL     1     -39.500  15.387  13.637  1.00  0.00     0.088 C 
ATOM     13  C   UNL     1     -40.136  15.780  14.942  1.00  0.00     0.159 C 
ATOM     14  O   UNL     1     -40.047  14.948  15.884  1.00  0.00    -0.295 OA
ATOM     15  C   UNL     1     -38.199  17.500  13.131  1.00  0.00     0.012 C 
ATOM     16  C   UNL     1     -42.127  18.815  16.423  1.00  0.00     0.039 C 
ENDROOT
TORSDOF 0
ENDMDL
MODEL 3
REMARK VINA RESULT:    -5.257      2.887      6.334
REMARK INTER + INTRA:          -5.257
REMARK INTER:                  -5.257
REMARK INTRA:                   0.000
REMARK UNBOUND:                 0.000
REMARK SMILES C=C1CCC[C@]2(C)CC(=O)C(=C(C)C)C[C@@H]12
REMARK SMILES IDX 13 1 12 2 11 3 15 4 16 5 2 6 1 7 3 8 4 9 5 10 6 11 8 12 9 13
REMARK SMILES IDX 10 14 7 15 14 16
REMARK H PARENT
REMARK Flexibility Score: inf
ROOT
ATOM      1  C   UNL     1     -40.558  16.000  16.274  1.00  0.00     0.039 C 
ATOM      2  C   UNL     1     -39.454  16.142  15.251  1.00  0.00    -0.070 C 
ATOM      3  C   UNL     1     -39.636  16.774  14.046  1.00  0.00    -0.006 C 
ATOM      4  C   UNL     1     -38.495  16.767  13.033  1.00  0.00     0.047 C 
ATOM      5  C   UNL     1     -38.726  17.636  11.775  1.00  0.00     0.025 C 
ATOM      6  C   UNL     1     -37.665  17.461  10.680  1.00  0.00    -0.073 C 
ATOM      7  C   UNL     1     -36.507  16.797  10.865  1.00  0.00     0.008 C 
ATOM      8  C   UNL     1     -37.872  18.226   9.393  1.00  0.00     0.031 C 
ATOM      9  C   UNL     1     -39.279  17.995   8.845  1.00  0.00     0.005 C 
ATOM     10  C   UNL     1     -40.344  18.284   9.910  1.00  0.00     0.008 C 
ATOM     11  C   UNL     1     -40.159  17.426  11.198  1.00  0.00    -0.018 C 
ATOM     12  C   UNL     1     -41.178  17.925  12.249  1.00  0.00     0.088 C 
ATOM     13  C   UNL     1     -40.948  17.382  13.633  1.00  0.00     0.159 C 
ATOM     14  O   UNL     1     -41.890  17.526  14.458  1.00  0.00    -0.295 OA
ATOM     15  C   UNL     1     -40.442  15.933  10.870  1.00  0.00     0.012 C 
ATOM     16  C   UNL     1     -38.118  15.518  15.605  1.00  0.00     0.039 C 
ENDROOT
TORSDOF 0
ENDMDL
MODEL 4
REMARK VINA RESULT:    -5.107      2.742      5.041
REMARK INTER + INTRA:          -5.107
REMARK INTER:                  -5.107
REMARK INTRA:                   0.000
REMARK UNBOUND:                 0.000
REMARK SMILES C=C1CCC[C@]2(C)CC(=O)C(=C(C)C)C[C@@H]12
REMARK SMILES IDX 13 1 12 2 11 3 15 4 16 5 2 6 1 7 3 8 4 9 5 10 6 11 8 12 9 13
REMARK SMILES IDX 10 14 7 15 14 16
REMARK H PARENT
REMARK Flexibility Score: inf
ROOT
ATOM      1  C   UNL     1     -36.807  17.705   9.441  1.00  0.00     0.039 C 
ATOM      2  C   UNL     1     -38.151  17.997  10.071  1.00  0.00    -0.070 C 
ATOM      3  C   UNL     1     -38.424  17.734  11.390  1.00  0.00    -0.006 C 
ATOM      4  C   UNL     1     -39.843  17.958  11.905  1.00  0.00     0.047 C 
ATOM      5  C   UNL     1     -40.023  17.792  13.432  1.00  0.00     0.025 C 
ATOM      6  C   UNL     1     -41.482  17.821  13.904  1.00  0.00    -0.073 C 
ATOM      7  C   UNL     1     -42.513  18.187  13.117  1.00  0.00     0.008 C 
ATOM      8  C   UNL     1     -41.733  17.590  15.377  1.00  0.00     0.031 C 
ATOM      9  C   UNL     1     -41.020  16.328  15.858  1.00  0.00     0.005 C 
ATOM     10  C   UNL     1     -39.532  16.356  15.484  1.00  0.00     0.008 C 
ATOM     11  C   UNL     1     -39.296  16.515  13.952  1.00  0.00    -0.018 C 
ATOM     12  C   UNL     1     -37.778  16.699  13.723  1.00  0.00     0.088 C 
ATOM     13  C   UNL     1     -37.415  17.132  12.328  1.00  0.00     0.159 C 
ATOM     14  O   UNL     1     -36.201  17.031  12.006  1.00  0.00    -0.295 OA
ATOM     15  C   UNL     1     -39.778  15.231  13.219  1.00  0.00     0.012 C 
ATOM     16  C   UNL     1     -39.214  18.577   9.159  1.00  0.00     0.039 C 
ENDROOT
TORSDOF 0
ENDMDL
MODEL 5
REMARK VINA RESULT:    -4.892      4.998      7.488
REMARK INTER + INTRA:          -4.892
REMARK INTER:                  -4.892
REMARK INTRA:                   0.000
REMARK UNBOUND:                 0.000
REMARK SMILES C=C1CCC[C@]2(C)CC(=O)C(=C(C)C)C[C@@H]12
REMARK SMILES IDX 13 1 12 2 11 3 15 4 16 5 2 6 1 7 3 8 4 9 5 10 6 11 8 12 9 13
REMARK SMILES IDX 10 14 7 15 14 16
REMARK H PARENT
REMARK Flexibility Score: inf
ROOT
ATOM      1  C   UNL     1     -35.264  16.371   6.673  1.00  0.00     0.039 C 
ATOM      2  C   UNL     1     -36.335  15.782   7.563  1.00  0.00    -0.070 C 
ATOM      3  C   UNL     1     -37.081  16.542   8.430  1.00  0.00    -0.006 C 
ATOM      4  C   UNL     1     -38.058  15.840   9.367  1.00  0.00     0.047 C 
ATOM      5  C   UNL     1     -38.969  16.779  10.192  1.00  0.00     0.025 C 
ATOM      6  C   UNL     1     -39.799  16.071  11.270  1.00  0.00    -0.073 C 
ATOM      7  C   UNL     1     -39.919  14.731  11.357  1.00  0.00     0.008 C 
ATOM      8  C   UNL     1     -40.655  16.941  12.161  1.00  0.00     0.031 C 
ATOM      9  C   UNL     1     -39.834  18.083  12.756  1.00  0.00     0.005 C 
ATOM     10  C   UNL     1     -39.096  18.863  11.660  1.00  0.00     0.008 C 
ATOM     11  C   UNL     1     -38.157  17.961  10.804  1.00  0.00    -0.018 C 
ATOM     12  C   UNL     1     -37.607  18.819   9.641  1.00  0.00     0.088 C 
ATOM     13  C   UNL     1     -36.900  18.028   8.574  1.00  0.00     0.159 C 
ATOM     14  O   UNL     1     -36.201  18.684   7.757  1.00  0.00    -0.295 OA
ATOM     15  C   UNL     1     -36.975  17.462  11.683  1.00  0.00     0.012 C 
ATOM     16  C   UNL     1     -36.535  14.281   7.478  1.00  0.00     0.039 C 
ENDROOT
TORSDOF 0
ENDMDL
MODEL 6
REMARK VINA RESULT:    -4.841      4.586      9.092
REMARK INTER + INTRA:          -4.841
REMARK INTER:                  -4.841
REMARK INTRA:                   0.000
REMARK UNBOUND:                 0.000
REMARK SMILES C=C1CCC[C@]2(C)CC(=O)C(=C(C)C)C[C@@H]12
REMARK SMILES IDX 13 1 12 2 11 3 15 4 16 5 2 6 1 7 3 8 4 9 5 10 6 11 8 12 9 13
REMARK SMILES IDX 10 14 7 15 14 16
REMARK H PARENT
REMARK Flexibility Score: inf
ROOT
ATOM      1  C   UNL     1     -40.243  16.748  12.864  1.00  0.00     0.039 C 
ATOM      2  C   UNL     1     -39.476  16.068  11.751  1.00  0.00    -0.070 C 
ATOM      3  C   UNL     1     -38.468  16.689  11.058  1.00  0.00    -0.006 C 
ATOM      4  C   UNL     1     -37.831  15.961   9.878  1.00  0.00     0.047 C 
ATOM      5  C   UNL     1     -36.601  16.663   9.257  1.00  0.00     0.025 C 
ATOM      6  C   UNL     1     -36.097  16.026   7.956  1.00  0.00    -0.073 C 
ATOM      7  C   UNL     1     -36.523  14.832   7.498  1.00  0.00     0.008 C 
ATOM      8  C   UNL     1     -34.943  16.707   7.258  1.00  0.00     0.031 C 
ATOM      9  C   UNL     1     -35.223  18.197   7.074  1.00  0.00     0.005 C 
ATOM     10  C   UNL     1     -35.613  18.856   8.404  1.00  0.00     0.008 C 
ATOM     11  C   UNL     1     -36.856  18.189   9.067  1.00  0.00    -0.018 C 
ATOM     12  C   UNL     1     -37.044  18.823  10.465  1.00  0.00     0.088 C 
ATOM     13  C   UNL     1     -38.034  18.101  11.338  1.00  0.00     0.159 C 
ATOM     14  O   UNL     1     -38.432  18.716  12.364  1.00  0.00    -0.295 OA
ATOM     15  C   UNL     1     -38.116  18.464   8.200  1.00  0.00     0.012 C 
ATOM     16  C   UNL     1     -39.896  14.652  11.408  1.00  0.00     0.039 C 
ENDROOT
TORSDOF 0
ENDMDL
MODEL 7
REMARK VINA RESULT:    -4.822      5.993      8.616
REMARK INTER + INTRA:          -4.822
REMARK INTER:                  -4.822
REMARK INTRA:                   0.000
REMARK UNBOUND:                 0.000
REMARK SMILES C=C1CCC[C@]2(C)CC(=O)C(=C(C)C)C[C@@H]12
REMARK SMILES IDX 13 1 12 2 11 3 15 4 16 5 2 6 1 7 3 8 4 9 5 10 6 11 8 12 9 13
REMARK SMILES IDX 10 14 7 15 14 16
REMARK H PARENT
REMARK Flexibility Score: inf
ROOT
ATOM      1  C   UNL     1     -34.466  17.808   5.756  1.00  0.00     0.039 C 
ATOM      2  C   UNL     1     -34.873  18.319   7.120  1.00  0.00    -0.070 C 
ATOM      3  C   UNL     1     -35.681  17.605   7.969  1.00  0.00    -0.006 C 
ATOM      4  C   UNL     1     -36.128  18.253   9.276  1.00  0.00     0.047 C 
ATOM      5  C   UNL     1     -36.900  17.324  10.241  1.00  0.00     0.025 C 
ATOM      6  C   UNL     1     -37.514  18.038  11.453  1.00  0.00    -0.073 C 
ATOM      7  C   UNL     1     -37.228  19.311  11.790  1.00  0.00     0.008 C 
ATOM      8  C   UNL     1     -38.344  17.199  12.397  1.00  0.00     0.031 C 
ATOM      9  C   UNL     1     -39.397  16.401  11.631  1.00  0.00     0.005 C 
ATOM     10  C   UNL     1     -38.761  15.595  10.491  1.00  0.00     0.008 C 
ATOM     11  C   UNL     1     -37.977  16.489   9.484  1.00  0.00    -0.018 C 
ATOM     12  C   UNL     1     -37.248  15.555   8.489  1.00  0.00     0.088 C 
ATOM     13  C   UNL     1     -36.236  16.251   7.621  1.00  0.00     0.159 C 
ATOM     14  O   UNL     1     -35.818  15.611   6.620  1.00  0.00    -0.295 OA
ATOM     15  C   UNL     1     -38.975  17.394   8.708  1.00  0.00     0.012 C 
ATOM     16  C   UNL     1     -34.365  19.695   7.506  1.00  0.00     0.039 C 
ENDROOT
TORSDOF 0
ENDMDL
MODEL 8
REMARK VINA RESULT:    -4.711      7.258     10.263
REMARK INTER + INTRA:          -4.711
REMARK INTER:                  -4.711
REMARK INTRA:                   0.000
REMARK UNBOUND:                 0.000
REMARK SMILES C=C1CCC[C@]2(C)CC(=O)C(=C(C)C)C[C@@H]12
REMARK SMILES IDX 13 1 12 2 11 3 15 4 16 5 2 6 1 7 3 8 4 9 5 10 6 11 8 12 9 13
REMARK SMILES IDX 10 14 7 15 14 16
REMARK H PARENT
REMARK Flexibility Score: inf
ROOT
ATOM      1  C   UNL     1     -33.105  16.016   5.242  1.00  0.00     0.039 C 
ATOM      2  C   UNL     1     -34.202  17.013   5.542  1.00  0.00    -0.070 C 
ATOM      3  C   UNL     1     -34.856  17.056   6.748  1.00  0.00    -0.006 C 
ATOM      4  C   UNL     1     -36.025  18.022   6.915  1.00  0.00     0.047 C 
ATOM      5  C   UNL     1     -36.598  18.120   8.349  1.00  0.00     0.025 C 
ATOM      6  C   UNL     1     -37.892  18.937   8.460  1.00  0.00    -0.073 C 
ATOM      7  C   UNL     1     -38.379  19.699   7.461  1.00  0.00     0.008 C 
ATOM      8  C   UNL     1     -38.544  19.010   9.821  1.00  0.00     0.031 C 
ATOM      9  C   UNL     1     -38.716  17.615  10.417  1.00  0.00     0.005 C 
ATOM     10  C   UNL     1     -37.390  16.842  10.411  1.00  0.00     0.008 C 
ATOM     11  C   UNL     1     -36.775  16.708   8.986  1.00  0.00    -0.018 C 
ATOM     12  C   UNL     1     -35.375  16.068   9.132  1.00  0.00     0.088 C 
ATOM     13  C   UNL     1     -34.542  16.117   7.880  1.00  0.00     0.159 C 
ATOM     14  O   UNL     1     -33.521  15.380   7.854  1.00  0.00    -0.295 OA
ATOM     15  C   UNL     1     -37.677  15.787   8.117  1.00  0.00     0.012 C 
ATOM     16  C   UNL     1     -34.578  17.963   4.421  1.00  0.00     0.039 C 
ENDROOT
TORSDOF 0
ENDMDL
MODEL 9
REMARK VINA RESULT:    -4.655      7.052      9.337
REMARK INTER + INTRA:          -4.655
REMARK INTER:                  -4.655
REMARK INTRA:                   0.000
REMARK UNBOUND:                 0.000
REMARK SMILES C=C1CCC[C@]2(C)CC(=O)C(=C(C)C)C[C@@H]12
REMARK SMILES IDX 13 1 12 2 11 3 15 4 16 5 2 6 1 7 3 8 4 9 5 10 6 11 8 12 9 13
REMARK SMILES IDX 10 14 7 15 14 16
REMARK H PARENT
REMARK Flexibility Score: inf
ROOT
ATOM      1  C   UNL     1     -33.537  17.242   5.614  1.00  0.00     0.039 C 
ATOM      2  C   UNL     1     -34.497  16.585   6.581  1.00  0.00    -0.070 C 
ATOM      3  C   UNL     1     -35.627  17.210   7.044  1.00  0.00    -0.006 C 
ATOM      4  C   UNL     1     -36.472  16.509   8.104  1.00  0.00     0.047 C 
ATOM      5  C   UNL     1     -37.807  17.209   8.451  1.00  0.00     0.025 C 
ATOM      6  C   UNL     1     -38.545  16.606   9.652  1.00  0.00    -0.073 C 
ATOM      7  C   UNL     1     -38.203  15.435  10.225  1.00  0.00     0.008 C 
ATOM      8  C   UNL     1     -39.820  17.289  10.090  1.00  0.00     0.031 C 
ATOM      9  C   UNL     1     -39.598  18.789  10.272  1.00  0.00     0.005 C 
ATOM     10  C   UNL     1     -38.965  19.411   9.020  1.00  0.00     0.008 C 
ATOM     11  C   UNL     1     -37.610  18.745   8.633  1.00  0.00    -0.018 C 
ATOM     12  C   UNL     1     -37.162  19.336   7.276  1.00  0.00     0.088 C 
ATOM     13  C   UNL     1     -36.014  18.605   6.636  1.00  0.00     0.159 C 
ATOM     14  O   UNL     1     -35.433  19.193   5.685  1.00  0.00    -0.295 OA
ATOM     15  C   UNL     1     -36.544  19.070   9.717  1.00  0.00     0.012 C 
ATOM     16  C   UNL     1     -34.136  15.189   7.048  1.00  0.00     0.039 C 
ENDROOT
TORSDOF 0
ENDMDL
