MODEL 1
REMARK VINA RESULT:    -3.166      0.000      0.000
REMARK INTER + INTRA:          -3.478
REMARK INTER:                  -3.443
REMARK INTRA:                  -0.035
REMARK UNBOUND:                -0.035
REMARK SMILES O=C([O-])c1ccc(O)cc1
REMARK SMILES IDX 4 1 5 2 10 3 6 4 9 5 7 6 2 7 1 8 3 9 8 10
REMARK H PARENT 8 11
REMARK Flexibility Score: inf
ROOT
ATOM      1  C   UNL     1     137.877 127.695 130.323  1.00  0.00    -0.003 A 
ATOM      2  C   UNL     1     138.848 127.942 129.335  1.00  0.00     0.014 A 
ATOM      3  C   UNL     1     138.255 127.741 131.677  1.00  0.00     0.014 A 
ATOM      4  C   UNL     1     140.168 128.227 129.696  1.00  0.00     0.047 A 
ATOM      5  C   UNL     1     139.577 128.027 132.034  1.00  0.00     0.047 A 
ATOM      6  C   UNL     1     140.536 128.271 131.044  1.00  0.00     0.115 A 
ENDROOT
BRANCH   1   7
ATOM      7  C   UNL     1     136.481 127.392 129.938  1.00  0.00     0.071 C 
ATOM      8  O   UNL     1     135.546 127.509 130.776  1.00  0.00    -0.545 OA
ATOM      9  O   UNL     1     136.181 126.975 128.646  1.00  0.00    -0.545 OA
ENDBRANCH   1   7
BRANCH   6  10
ATOM     10  O   UNL     1     141.855 128.558 131.388  1.00  0.00    -0.508 OA
ATOM     11  H   UNL     1     142.570 127.839 131.391  1.00  0.00     0.293 HD
ENDBRANCH   6  10
TORSDOF 2
ENDMDL
MODEL 2
REMARK VINA RESULT:    -2.417      0.521      1.591
REMARK INTER + INTRA:          -2.664
REMARK INTER:                  -2.629
REMARK INTRA:                  -0.035
REMARK UNBOUND:                -0.035
REMARK SMILES O=C([O-])c1ccc(O)cc1
REMARK SMILES IDX 4 1 5 2 10 3 6 4 9 5 7 6 2 7 1 8 3 9 8 10
REMARK H PARENT 8 11
REMARK Flexibility Score: inf
ROOT
ATOM      1  C   UNL     1     137.939 127.728 130.380  1.00  0.00    -0.003 A 
ATOM      2  C   UNL     1     138.498 127.512 131.653  1.00  0.00     0.014 A 
ATOM      3  C   UNL     1     138.745 128.276 129.365  1.00  0.00     0.014 A 
ATOM      4  C   UNL     1     139.834 127.838 131.903  1.00  0.00     0.047 A 
ATOM      5  C   UNL     1     140.081 128.600 129.620  1.00  0.00     0.047 A 
ATOM      6  C   UNL     1     140.629 128.381 130.890  1.00  0.00     0.115 A 
ENDROOT
BRANCH   1   7
ATOM      7  C   UNL     1     136.524 127.383 130.118  1.00  0.00     0.071 C 
ATOM      8  O   UNL     1     135.899 126.612 130.895  1.00  0.00    -0.545 OA
ATOM      9  O   UNL     1     135.866 127.904 129.010  1.00  0.00    -0.545 OA
ENDBRANCH   1   7
BRANCH   6  10
ATOM     10  O   UNL     1     141.959 128.700 131.154  1.00  0.00    -0.508 OA
ATOM     11  H   UNL     1     142.707 128.042 130.972  1.00  0.00     0.293 HD
ENDBRANCH   6  10
TORSDOF 2
ENDMDL
MODEL 3
REMARK VINA RESULT:    -2.261      1.153      4.093
REMARK INTER + INTRA:          -2.494
REMARK INTER:                  -2.462
REMARK INTRA:                  -0.032
REMARK UNBOUND:                -0.035
REMARK SMILES O=C([O-])c1ccc(O)cc1
REMARK SMILES IDX 4 1 5 2 10 3 6 4 9 5 7 6 2 7 1 8 3 9 8 10
REMARK H PARENT 8 11
REMARK Flexibility Score: inf
ROOT
ATOM      1  C   UNL     1     138.684 127.951 130.740  1.00  0.00    -0.003 A 
ATOM      2  C   UNL     1     138.743 128.006 129.336  1.00  0.00     0.014 A 
ATOM      3  C   UNL     1     137.500 127.503 131.356  1.00  0.00     0.014 A 
ATOM      4  C   UNL     1     137.641 127.621 128.566  1.00  0.00     0.047 A 
ATOM      5  C   UNL     1     136.400 127.120 130.582  1.00  0.00     0.047 A 
ATOM      6  C   UNL     1     136.469 127.178 129.184  1.00  0.00     0.115 A 
ENDROOT
BRANCH   1   7
ATOM      7  C   UNL     1     139.851 128.358 131.554  1.00  0.00     0.071 C 
ATOM      8  O   UNL     1     139.690 128.998 132.628  1.00  0.00    -0.545 OA
ATOM      9  O   UNL     1     141.140 128.041 131.143  1.00  0.00    -0.545 OA
ENDBRANCH   1   7
BRANCH   6  10
ATOM     10  O   UNL     1     135.380 126.798 128.403  1.00  0.00    -0.508 OA
ATOM     11  H   UNL     1     134.442 127.123 128.608  1.00  0.00     0.293 HD
ENDBRANCH   6  10
TORSDOF 2
ENDMDL
MODEL 4
REMARK VINA RESULT:    -2.235      0.991      4.099
REMARK INTER + INTRA:          -2.466
REMARK INTER:                  -2.432
REMARK INTRA:                  -0.034
REMARK UNBOUND:                -0.035
REMARK SMILES O=C([O-])c1ccc(O)cc1
REMARK SMILES IDX 4 1 5 2 10 3 6 4 9 5 7 6 2 7 1 8 3 9 8 10
REMARK H PARENT 8 11
REMARK Flexibility Score: inf
ROOT
ATOM      1  C   UNL     1     139.601 128.010 130.431  1.00  0.00    -0.003 A 
ATOM      2  C   UNL     1     138.870 127.714 129.266  1.00  0.00     0.014 A 
ATOM      3  C   UNL     1     138.920 128.101 131.659  1.00  0.00     0.014 A 
ATOM      4  C   UNL     1     137.488 127.514 129.330  1.00  0.00     0.047 A 
ATOM      5  C   UNL     1     137.537 127.900 131.718  1.00  0.00     0.047 A 
ATOM      6  C   UNL     1     136.818 127.606 130.554  1.00  0.00     0.115 A 
ENDROOT
BRANCH   1   7
ATOM      7  C   UNL     1     141.064 128.221 130.361  1.00  0.00     0.071 C 
ATOM      8  O   UNL     1     141.790 128.007 131.369  1.00  0.00    -0.545 OA
ATOM      9  O   UNL     1     141.657 128.660 129.183  1.00  0.00    -0.545 OA
ENDBRANCH   1   7
BRANCH   6  10
ATOM     10  O   UNL     1     135.441 127.404 130.601  1.00  0.00    -0.508 OA
ATOM     11  H   UNL     1     135.042 126.472 130.594  1.00  0.00     0.293 HD
ENDBRANCH   6  10
TORSDOF 2
ENDMDL
