MODEL 1
REMARK VINA RESULT:    -6.764      0.000      0.000
REMARK INTER + INTRA:          -8.449
REMARK INTER:                  -8.148
REMARK INTRA:                  -0.301
REMARK UNBOUND:                -0.301
REMARK SMILES O=c1c(O)c(-c2ccc(O)c(O)c2)oc2cc(O)cc(O)c12
REMARK SMILES IDX 5 1 3 2 2 3 1 4 22 5 20 6 19 7 17 8 16 9 15 10 14 11 6 12
REMARK SMILES IDX 7 13 8 14 9 15 13 16 11 17 10 18 12 20 4 22 21 24 18 26
REMARK H PARENT 10 19 12 21 4 23 21 25 18 27
REMARK Flexibility Score: inf
ROOT
ATOM      1  C   UNL     1     120.597 126.104 132.723  1.00  0.00     0.180 A 
ATOM      2  C   UNL     1     121.516 126.851 133.478  1.00  0.00     0.208 A 
ATOM      3  C   UNL     1     122.455 127.654 132.809  1.00  0.00     0.238 A 
ATOM      4  O   UNL     1     123.310 128.279 133.489  1.00  0.00    -0.285 OA
ATOM      5  C   UNL     1     122.452 127.710 131.394  1.00  0.00     0.111 A 
ATOM      6  C   UNL     1     123.331 128.519 130.614  1.00  0.00     0.134 A 
ATOM      7  C   UNL     1     123.327 128.397 129.219  1.00  0.00     0.093 A 
ATOM      8  C   UNL     1     122.429 127.542 128.574  1.00  0.00     0.123 A 
ATOM      9  C   UNL     1     121.527 126.793 129.324  1.00  0.00     0.094 A 
ATOM     10  C   UNL     1     121.532 126.866 130.719  1.00  0.00     0.146 A 
ATOM     11  O   UNL     1     120.662 126.126 131.397  1.00  0.00    -0.452 OA
ENDROOT
BRANCH   1  12
ATOM     12  C   UNL     1     119.562 125.255 133.357  1.00  0.00     0.025 A 
ATOM     13  C   UNL     1     119.726 123.861 133.371  1.00  0.00     0.016 A 
ATOM     14  C   UNL     1     118.751 123.040 133.946  1.00  0.00     0.051 A 
ATOM     15  C   UNL     1     117.595 123.596 134.499  1.00  0.00     0.157 A 
ATOM     16  C   UNL     1     118.388 125.811 133.896  1.00  0.00     0.062 A 
ATOM     17  C   UNL     1     117.409 124.989 134.472  1.00  0.00     0.158 A 
BRANCH  15  18
ATOM     18  O   UNL     1     116.641 122.751 135.068  1.00  0.00    -0.504 OA
ATOM     19  H   UNL     1     116.523 122.672 136.071  1.00  0.00     0.293 HD
ENDBRANCH  15  18
BRANCH  17  20
ATOM     20  O   UNL     1     116.251 125.549 135.009  1.00  0.00    -0.504 OA
ATOM     21  H   UNL     1     116.248 126.479 135.412  1.00  0.00     0.293 HD
ENDBRANCH  17  20
ENDBRANCH   1  12
BRANCH   2  22
ATOM     22  O   UNL     1     121.515 126.765 134.873  1.00  0.00    -0.502 OA
ATOM     23  H   UNL     1     120.733 126.388 135.394  1.00  0.00     0.293 HD
ENDBRANCH   2  22
BRANCH   6  24
ATOM     24  O   UNL     1     124.201 129.471 131.154  1.00  0.00    -0.507 OA
ATOM     25  H   UNL     1     124.721 130.146 130.613  1.00  0.00     0.293 HD
ENDBRANCH   6  24
BRANCH   8  26
ATOM     26  O   UNL     1     122.421 127.438 127.185  1.00  0.00    -0.508 OA
ATOM     27  H   UNL     1     123.227 127.094 126.674  1.00  0.00     0.293 HD
ENDBRANCH   8  26
TORSDOF 6
ENDMDL
MODEL 2
REMARK VINA RESULT:    -6.510      1.846      3.449
REMARK INTER + INTRA:          -8.144
REMARK INTER:                  -8.085
REMARK INTRA:                  -0.059
REMARK UNBOUND:                -0.301
REMARK SMILES O=c1c(O)c(-c2ccc(O)c(O)c2)oc2cc(O)cc(O)c12
REMARK SMILES IDX 5 1 3 2 2 3 1 4 22 5 20 6 19 7 17 8 16 9 15 10 14 11 6 12
REMARK SMILES IDX 7 13 8 14 9 15 13 16 11 17 10 18 12 20 4 22 21 24 18 26
REMARK H PARENT 10 19 12 21 4 23 21 25 18 27
REMARK Flexibility Score: inf
ROOT
ATOM      1  C   UNL     1     119.862 125.988 133.733  1.00  0.00     0.180 A 
ATOM      2  C   UNL     1     119.963 126.215 132.350  1.00  0.00     0.208 A 
ATOM      3  C   UNL     1     120.992 127.039 131.868  1.00  0.00     0.238 A 
ATOM      4  O   UNL     1     121.045 127.282 130.634  1.00  0.00    -0.285 OA
ATOM      5  C   UNL     1     121.916 127.615 132.773  1.00  0.00     0.111 A 
ATOM      6  C   UNL     1     123.021 128.434 132.393  1.00  0.00     0.134 A 
ATOM      7  C   UNL     1     123.793 129.056 133.382  1.00  0.00     0.093 A 
ATOM      8  C   UNL     1     123.539 128.836 134.738  1.00  0.00     0.123 A 
ATOM      9  C   UNL     1     122.500 127.991 135.119  1.00  0.00     0.094 A 
ATOM     10  C   UNL     1     121.689 127.384 134.156  1.00  0.00     0.146 A 
ATOM     11  O   UNL     1     120.703 126.594 134.563  1.00  0.00    -0.452 OA
ENDROOT
BRANCH   1  12
ATOM     12  C   UNL     1     118.820 125.111 134.313  1.00  0.00     0.025 A 
ATOM     13  C   UNL     1     119.202 123.993 135.073  1.00  0.00     0.016 A 
ATOM     14  C   UNL     1     118.236 123.140 135.613  1.00  0.00     0.051 A 
ATOM     15  C   UNL     1     116.877 123.380 135.390  1.00  0.00     0.157 A 
ATOM     16  C   UNL     1     117.453 125.338 134.073  1.00  0.00     0.062 A 
ATOM     17  C   UNL     1     116.482 124.482 134.613  1.00  0.00     0.158 A 
BRANCH  15  18
ATOM     18  O   UNL     1     115.936 122.513 135.944  1.00  0.00    -0.504 OA
ATOM     19  H   UNL     1     116.169 121.875 136.697  1.00  0.00     0.293 HD
ENDBRANCH  15  18
BRANCH  17  20
ATOM     20  O   UNL     1     115.128 124.719 134.375  1.00  0.00    -0.504 OA
ATOM     21  H   UNL     1     114.696 124.486 133.489  1.00  0.00     0.293 HD
ENDBRANCH  17  20
ENDBRANCH   1  12
BRANCH   2  22
ATOM     22  O   UNL     1     119.028 125.654 131.475  1.00  0.00    -0.502 OA
ATOM     23  H   UNL     1     118.036 125.852 131.539  1.00  0.00     0.293 HD
ENDBRANCH   2  22
BRANCH   6  24
ATOM     24  O   UNL     1     123.417 128.645 131.069  1.00  0.00    -0.507 OA
ATOM     25  H   UNL     1     123.488 127.922 130.368  1.00  0.00     0.293 HD
ENDBRANCH   6  24
BRANCH   8  26
ATOM     26  O   UNL     1     124.321 129.446 135.716  1.00  0.00    -0.508 OA
ATOM     27  H   UNL     1     125.332 129.470 135.647  1.00  0.00     0.293 HD
ENDBRANCH   8  26
TORSDOF 6
ENDMDL
MODEL 3
REMARK VINA RESULT:    -6.353      2.804      6.797
REMARK INTER + INTRA:          -7.954
REMARK INTER:                  -7.877
REMARK INTRA:                  -0.077
REMARK UNBOUND:                -0.301
REMARK SMILES O=c1c(O)c(-c2ccc(O)c(O)c2)oc2cc(O)cc(O)c12
REMARK SMILES IDX 5 1 3 2 2 3 1 4 22 5 20 6 19 7 17 8 16 9 15 10 14 11 6 12
REMARK SMILES IDX 7 13 8 14 9 15 13 16 11 17 10 18 12 20 4 22 21 24 18 26
REMARK H PARENT 10 19 12 21 4 23 21 25 18 27
REMARK Flexibility Score: inf
ROOT
ATOM      1  C   UNL     1     119.771 126.976 131.357  1.00  0.00     0.180 A 
ATOM      2  C   UNL     1     119.164 125.896 132.021  1.00  0.00     0.208 A 
ATOM      3  C   UNL     1     117.908 126.083 132.619  1.00  0.00     0.238 A 
ATOM      4  O   UNL     1     117.394 125.127 133.258  1.00  0.00    -0.285 OA
ATOM      5  C   UNL     1     117.267 127.343 132.533  1.00  0.00     0.111 A 
ATOM      6  C   UNL     1     115.976 127.633 133.067  1.00  0.00     0.134 A 
ATOM      7  C   UNL     1     115.496 128.949 133.038  1.00  0.00     0.093 A 
ATOM      8  C   UNL     1     116.234 129.971 132.435  1.00  0.00     0.123 A 
ATOM      9  C   UNL     1     117.468 129.685 131.858  1.00  0.00     0.094 A 
ATOM     10  C   UNL     1     117.990 128.389 131.903  1.00  0.00     0.146 A 
ATOM     11  O   UNL     1     119.175 128.163 131.350  1.00  0.00    -0.452 OA
ENDROOT
BRANCH   1  12
ATOM     12  C   UNL     1     121.082 126.849 130.681  1.00  0.00     0.025 A 
ATOM     13  C   UNL     1     122.212 126.478 131.427  1.00  0.00     0.016 A 
ATOM     14  C   UNL     1     123.462 126.373 130.813  1.00  0.00     0.051 A 
ATOM     15  C   UNL     1     123.607 126.650 129.451  1.00  0.00     0.157 A 
ATOM     16  C   UNL     1     121.234 127.147 129.315  1.00  0.00     0.062 A 
ATOM     17  C   UNL     1     122.488 127.043 128.697  1.00  0.00     0.158 A 
BRANCH  15  18
ATOM     18  O   UNL     1     124.868 126.533 128.865  1.00  0.00    -0.504 OA
ATOM     19  H   UNL     1     125.464 127.338 128.707  1.00  0.00     0.293 HD
ENDBRANCH  15  18
BRANCH  17  20
ATOM     20  O   UNL     1     122.629 127.335 127.341  1.00  0.00    -0.504 OA
ATOM     21  H   UNL     1     123.164 128.135 127.022  1.00  0.00     0.293 HD
ENDBRANCH  17  20
ENDBRANCH   1  12
BRANCH   2  22
ATOM     22  O   UNL     1     119.823 124.667 132.112  1.00  0.00    -0.502 OA
ATOM     23  H   UNL     1     120.361 124.397 132.927  1.00  0.00     0.293 HD
ENDBRANCH   2  22
BRANCH   6  24
ATOM     24  O   UNL     1     115.120 126.670 133.609  1.00  0.00    -0.507 OA
ATOM     25  H   UNL     1     114.585 126.788 134.456  1.00  0.00     0.293 HD
ENDBRANCH   6  24
BRANCH   8  26
ATOM     26  O   UNL     1     115.743 131.274 132.396  1.00  0.00    -0.508 OA
ATOM     27  H   UNL     1     116.195 132.026 132.904  1.00  0.00     0.293 HD
ENDBRANCH   8  26
TORSDOF 6
ENDMDL
MODEL 4
REMARK VINA RESULT:    -6.297      1.718      6.742
REMARK INTER + INTRA:          -7.886
REMARK INTER:                  -7.603
REMARK INTRA:                  -0.284
REMARK UNBOUND:                -0.301
REMARK SMILES O=c1c(O)c(-c2ccc(O)c(O)c2)oc2cc(O)cc(O)c12
REMARK SMILES IDX 5 1 3 2 2 3 1 4 22 5 20 6 19 7 17 8 16 9 15 10 14 11 6 12
REMARK SMILES IDX 7 13 8 14 9 15 13 16 11 17 10 18 12 20 4 22 21 24 18 26
REMARK H PARENT 10 19 12 21 4 23 21 25 18 27
REMARK Flexibility Score: inf
ROOT
ATOM      1  C   UNL     1     120.943 126.300 132.802  1.00  0.00     0.180 A 
ATOM      2  C   UNL     1     121.293 127.060 133.931  1.00  0.00     0.208 A 
ATOM      3  C   UNL     1     120.701 126.754 135.167  1.00  0.00     0.238 A 
ATOM      4  O   UNL     1     120.977 127.473 136.163  1.00  0.00    -0.285 OA
ATOM      5  C   UNL     1     119.779 125.684 135.262  1.00  0.00     0.111 A 
ATOM      6  C   UNL     1     119.150 125.261 136.471  1.00  0.00     0.134 A 
ATOM      7  C   UNL     1     118.156 124.275 136.424  1.00  0.00     0.093 A 
ATOM      8  C   UNL     1     117.817 123.651 135.221  1.00  0.00     0.123 A 
ATOM      9  C   UNL     1     118.468 124.015 134.045  1.00  0.00     0.094 A 
ATOM     10  C   UNL     1     119.438 125.021 134.054  1.00  0.00     0.146 A 
ATOM     11  O   UNL     1     120.027 125.345 132.908  1.00  0.00    -0.452 OA
ENDROOT
BRANCH   1  12
ATOM     12  C   UNL     1     121.544 126.545 131.471  1.00  0.00     0.025 A 
ATOM     13  C   UNL     1     120.772 127.149 130.465  1.00  0.00     0.016 A 
ATOM     14  C   UNL     1     121.312 127.371 129.195  1.00  0.00     0.051 A 
ATOM     15  C   UNL     1     122.622 126.980 128.906  1.00  0.00     0.157 A 
ATOM     16  C   UNL     1     122.855 126.134 131.171  1.00  0.00     0.062 A 
ATOM     17  C   UNL     1     123.398 126.355 129.897  1.00  0.00     0.158 A 
BRANCH  15  18
ATOM     18  O   UNL     1     123.134 127.217 127.631  1.00  0.00    -0.504 OA
ATOM     19  H   UNL     1     123.384 126.462 127.002  1.00  0.00     0.293 HD
ENDBRANCH  15  18
BRANCH  17  20
ATOM     20  O   UNL     1     124.701 125.950 129.611  1.00  0.00    -0.504 OA
ATOM     21  H   UNL     1     124.971 125.646 128.682  1.00  0.00     0.293 HD
ENDBRANCH  17  20
ENDBRANCH   1  12
BRANCH   2  22
ATOM     22  O   UNL     1     122.188 128.125 133.811  1.00  0.00    -0.502 OA
ATOM     23  H   UNL     1     121.885 129.072 133.612  1.00  0.00     0.293 HD
ENDBRANCH   2  22
BRANCH   6  24
ATOM     24  O   UNL     1     119.480 125.753 137.737  1.00  0.00    -0.507 OA
ATOM     25  H   UNL     1     120.362 126.182 137.974  1.00  0.00     0.293 HD
ENDBRANCH   6  24
BRANCH   8  26
ATOM     26  O   UNL     1     116.839 122.660 135.185  1.00  0.00    -0.508 OA
ATOM     27  H   UNL     1     115.862 122.873 135.354  1.00  0.00     0.293 HD
ENDBRANCH   8  26
TORSDOF 6
ENDMDL
MODEL 5
REMARK VINA RESULT:    -6.267      2.075      7.193
REMARK INTER + INTRA:          -7.851
REMARK INTER:                  -7.610
REMARK INTRA:                  -0.241
REMARK UNBOUND:                -0.301
REMARK SMILES O=c1c(O)c(-c2ccc(O)c(O)c2)oc2cc(O)cc(O)c12
REMARK SMILES IDX 5 1 3 2 2 3 1 4 22 5 20 6 19 7 17 8 16 9 15 10 14 11 6 12
REMARK SMILES IDX 7 13 8 14 9 15 13 16 11 17 10 18 12 20 4 22 21 24 18 26
REMARK H PARENT 10 19 12 21 4 23 21 25 18 27
REMARK Flexibility Score: inf
ROOT
ATOM      1  C   UNL     1     119.535 126.781 131.288  1.00  0.00     0.180 A 
ATOM      2  C   UNL     1     118.481 127.661 130.990  1.00  0.00     0.208 A 
ATOM      3  C   UNL     1     117.247 127.490 131.637  1.00  0.00     0.238 A 
ATOM      4  O   UNL     1     116.291 128.248 131.326  1.00  0.00    -0.285 OA
ATOM      5  C   UNL     1     117.087 126.451 132.585  1.00  0.00     0.111 A 
ATOM      6  C   UNL     1     115.893 126.211 133.330  1.00  0.00     0.134 A 
ATOM      7  C   UNL     1     115.805 125.075 134.144  1.00  0.00     0.093 A 
ATOM      8  C   UNL     1     116.890 124.208 134.291  1.00  0.00     0.123 A 
ATOM      9  C   UNL     1     118.079 124.467 133.615  1.00  0.00     0.094 A 
ATOM     10  C   UNL     1     118.186 125.572 132.767  1.00  0.00     0.146 A 
ATOM     11  O   UNL     1     119.335 125.777 132.133  1.00  0.00    -0.452 OA
ENDROOT
BRANCH   1  12
ATOM     12  C   UNL     1     120.872 126.914 130.666  1.00  0.00     0.025 A 
ATOM     13  C   UNL     1     121.935 127.440 131.418  1.00  0.00     0.016 A 
ATOM     14  C   UNL     1     123.200 127.593 130.844  1.00  0.00     0.051 A 
ATOM     15  C   UNL     1     123.419 127.239 129.510  1.00  0.00     0.157 A 
ATOM     16  C   UNL     1     121.090 126.577 129.318  1.00  0.00     0.062 A 
ATOM     17  C   UNL     1     122.358 126.731 128.741  1.00  0.00     0.158 A 
BRANCH  15  18
ATOM     18  O   UNL     1     124.693 127.400 128.966  1.00  0.00    -0.504 OA
ATOM     19  H   UNL     1     125.308 126.613 128.792  1.00  0.00     0.293 HD
ENDBRANCH  15  18
BRANCH  17  20
ATOM     20  O   UNL     1     122.567 126.388 127.405  1.00  0.00    -0.504 OA
ATOM     21  H   UNL     1     122.768 125.435 127.126  1.00  0.00     0.293 HD
ENDBRANCH  17  20
ENDBRANCH   1  12
BRANCH   2  22
ATOM     22  O   UNL     1     118.654 128.667 130.035  1.00  0.00    -0.502 OA
ATOM     23  H   UNL     1     118.058 128.753 129.220  1.00  0.00     0.293 HD
ENDBRANCH   2  22
BRANCH   6  24
ATOM     24  O   UNL     1     114.785 127.063 133.326  1.00  0.00    -0.507 OA
ATOM     25  H   UNL     1     114.238 127.290 132.510  1.00  0.00     0.293 HD
ENDBRANCH   6  24
BRANCH   8  26
ATOM     26  O   UNL     1     116.799 123.088 135.116  1.00  0.00    -0.508 OA
ATOM     27  H   UNL     1     117.607 122.729 135.613  1.00  0.00     0.293 HD
ENDBRANCH   8  26
TORSDOF 6
ENDMDL
MODEL 6
REMARK VINA RESULT:    -6.050      4.471      6.828
REMARK INTER + INTRA:          -7.589
REMARK INTER:                  -7.257
REMARK INTRA:                  -0.332
REMARK UNBOUND:                -0.301
REMARK SMILES O=c1c(O)c(-c2ccc(O)c(O)c2)oc2cc(O)cc(O)c12
REMARK SMILES IDX 5 1 3 2 2 3 1 4 22 5 20 6 19 7 17 8 16 9 15 10 14 11 6 12
REMARK SMILES IDX 7 13 8 14 9 15 13 16 11 17 10 18 12 20 4 22 21 24 18 26
REMARK H PARENT 10 19 12 21 4 23 21 25 18 27
REMARK Flexibility Score: inf
ROOT
ATOM      1  C   UNL     1     117.101 127.355 132.437  1.00  0.00     0.180 A 
ATOM      2  C   UNL     1     116.356 127.390 131.246  1.00  0.00     0.208 A 
ATOM      3  C   UNL     1     115.507 128.481 131.005  1.00  0.00     0.238 A 
ATOM      4  O   UNL     1     114.802 128.481 129.962  1.00  0.00    -0.285 OA
ATOM      5  C   UNL     1     115.425 129.532 131.951  1.00  0.00     0.111 A 
ATOM      6  C   UNL     1     114.628 130.705 131.791  1.00  0.00     0.134 A 
ATOM      7  C   UNL     1     114.522 131.617 132.849  1.00  0.00     0.093 A 
ATOM      8  C   UNL     1     115.236 131.431 134.035  1.00  0.00     0.123 A 
ATOM      9  C   UNL     1     116.063 130.319 134.177  1.00  0.00     0.094 A 
ATOM     10  C   UNL     1     116.161 129.373 133.154  1.00  0.00     0.146 A 
ATOM     11  O   UNL     1     116.953 128.322 133.335  1.00  0.00    -0.452 OA
ENDROOT
BRANCH   1  12
ATOM     12  C   UNL     1     118.036 126.250 132.750  1.00  0.00     0.025 A 
ATOM     13  C   UNL     1     117.602 125.185 133.555  1.00  0.00     0.016 A 
ATOM     14  C   UNL     1     118.475 124.143 133.880  1.00  0.00     0.051 A 
ATOM     15  C   UNL     1     119.794 124.155 133.419  1.00  0.00     0.157 A 
ATOM     16  C   UNL     1     119.370 126.271 132.304  1.00  0.00     0.062 A 
ATOM     17  C   UNL     1     120.246 125.226 132.630  1.00  0.00     0.158 A 
BRANCH  15  18
ATOM     18  O   UNL     1     120.641 123.099 133.757  1.00  0.00    -0.504 OA
ATOM     19  H   UNL     1     121.334 123.180 134.492  1.00  0.00     0.293 HD
ENDBRANCH  15  18
BRANCH  17  20
ATOM     20  O   UNL     1     121.566 125.252 132.179  1.00  0.00    -0.504 OA
ATOM     21  H   UNL     1     122.332 124.935 132.761  1.00  0.00     0.293 HD
ENDBRANCH  17  20
ENDBRANCH   1  12
BRANCH   2  22
ATOM     22  O   UNL     1     116.436 126.332 130.336  1.00  0.00    -0.502 OA
ATOM     23  H   UNL     1     115.644 125.736 130.123  1.00  0.00     0.293 HD
ENDBRANCH   2  22
BRANCH   6  24
ATOM     24  O   UNL     1     113.948 131.034 130.615  1.00  0.00    -0.507 OA
ATOM     25  H   UNL     1     113.086 131.556 130.577  1.00  0.00     0.293 HD
ENDBRANCH   6  24
BRANCH   8  26
ATOM     26  O   UNL     1     115.138 132.351 135.076  1.00  0.00    -0.508 OA
ATOM     27  H   UNL     1     114.271 132.483 135.586  1.00  0.00     0.293 HD
ENDBRANCH   8  26
TORSDOF 6
ENDMDL
MODEL 7
REMARK VINA RESULT:    -6.018      1.901      7.096
REMARK INTER + INTRA:          -7.551
REMARK INTER:                  -7.259
REMARK INTRA:                  -0.292
REMARK UNBOUND:                -0.301
REMARK SMILES O=c1c(O)c(-c2ccc(O)c(O)c2)oc2cc(O)cc(O)c12
REMARK SMILES IDX 5 1 3 2 2 3 1 4 22 5 20 6 19 7 17 8 16 9 15 10 14 11 6 12
REMARK SMILES IDX 7 13 8 14 9 15 13 16 11 17 10 18 12 20 4 22 21 24 18 26
REMARK H PARENT 10 19 12 21 4 23 21 25 18 27
REMARK Flexibility Score: inf
ROOT
ATOM      1  C   UNL     1     119.540 126.389 132.436  1.00  0.00     0.180 A 
ATOM      2  C   UNL     1     119.426 125.075 132.922  1.00  0.00     0.208 A 
ATOM      3  C   UNL     1     118.267 124.708 133.625  1.00  0.00     0.238 A 
ATOM      4  O   UNL     1     118.193 123.546 134.104  1.00  0.00    -0.285 OA
ATOM      5  C   UNL     1     117.231 125.654 133.819  1.00  0.00     0.111 A 
ATOM      6  C   UNL     1     115.997 125.380 134.481  1.00  0.00     0.134 A 
ATOM      7  C   UNL     1     115.100 126.425 134.731  1.00  0.00     0.093 A 
ATOM      8  C   UNL     1     115.364 127.723 134.284  1.00  0.00     0.123 A 
ATOM      9  C   UNL     1     116.539 127.988 133.586  1.00  0.00     0.094 A 
ATOM     10  C   UNL     1     117.470 126.973 133.352  1.00  0.00     0.146 A 
ATOM     11  O   UNL     1     118.582 127.272 132.691  1.00  0.00    -0.452 OA
ENDROOT
BRANCH   1  12
ATOM     12  C   UNL     1     120.720 126.843 131.665  1.00  0.00     0.025 A 
ATOM     13  C   UNL     1     121.891 127.214 132.346  1.00  0.00     0.016 A 
ATOM     14  C   UNL     1     123.008 127.666 131.639  1.00  0.00     0.051 A 
ATOM     15  C   UNL     1     122.970 127.767 130.247  1.00  0.00     0.157 A 
ATOM     16  C   UNL     1     120.677 126.966 130.265  1.00  0.00     0.062 A 
ATOM     17  C   UNL     1     121.797 127.420 129.554  1.00  0.00     0.158 A 
BRANCH  15  18
ATOM     18  O   UNL     1     124.102 128.219 129.568  1.00  0.00    -0.504 OA
ATOM     19  H   UNL     1     124.992 128.351 130.035  1.00  0.00     0.293 HD
ENDBRANCH  15  18
BRANCH  17  20
ATOM     20  O   UNL     1     121.748 127.533 128.165  1.00  0.00    -0.504 OA
ATOM     21  H   UNL     1     121.688 128.435 127.707  1.00  0.00     0.293 HD
ENDBRANCH  17  20
ENDBRANCH   1  12
BRANCH   2  22
ATOM     22  O   UNL     1     120.469 124.164 132.738  1.00  0.00    -0.502 OA
ATOM     23  H   UNL     1     120.327 123.161 132.769  1.00  0.00     0.293 HD
ENDBRANCH   2  22
BRANCH   6  24
ATOM     24  O   UNL     1     115.595 124.103 134.886  1.00  0.00    -0.507 OA
ATOM     25  H   UNL     1     116.151 123.267 134.786  1.00  0.00     0.293 HD
ENDBRANCH   6  24
BRANCH   8  26
ATOM     26  O   UNL     1     114.459 128.755 134.524  1.00  0.00    -0.508 OA
ATOM     27  H   UNL     1     113.461 128.621 134.409  1.00  0.00     0.293 HD
ENDBRANCH   8  26
TORSDOF 6
ENDMDL
MODEL 8
REMARK VINA RESULT:    -5.949      1.570      2.120
REMARK INTER + INTRA:          -7.467
REMARK INTER:                  -7.260
REMARK INTRA:                  -0.207
REMARK UNBOUND:                -0.301
REMARK SMILES O=c1c(O)c(-c2ccc(O)c(O)c2)oc2cc(O)cc(O)c12
REMARK SMILES IDX 5 1 3 2 2 3 1 4 22 5 20 6 19 7 17 8 16 9 15 10 14 11 6 12
REMARK SMILES IDX 7 13 8 14 9 15 13 16 11 17 10 18 12 20 4 22 21 24 18 26
REMARK H PARENT 10 19 12 21 4 23 21 25 18 27
REMARK Flexibility Score: inf
ROOT
ATOM      1  C   UNL     1     119.230 126.897 132.647  1.00  0.00     0.180 A 
ATOM      2  C   UNL     1     119.982 127.591 133.609  1.00  0.00     0.208 A 
ATOM      3  C   UNL     1     121.242 128.099 133.252  1.00  0.00     0.238 A 
ATOM      4  O   UNL     1     121.934 128.673 134.133  1.00  0.00    -0.285 OA
ATOM      5  C   UNL     1     121.726 127.920 131.933  1.00  0.00     0.111 A 
ATOM      6  C   UNL     1     122.969 128.427 131.451  1.00  0.00     0.134 A 
ATOM      7  C   UNL     1     123.406 128.078 130.167  1.00  0.00     0.093 A 
ATOM      8  C   UNL     1     122.613 127.294 129.325  1.00  0.00     0.123 A 
ATOM      9  C   UNL     1     121.371 126.844 129.766  1.00  0.00     0.094 A 
ATOM     10  C   UNL     1     120.924 127.146 131.054  1.00  0.00     0.146 A 
ATOM     11  O   UNL     1     119.738 126.688 131.438  1.00  0.00    -0.452 OA
ENDROOT
BRANCH   1  12
ATOM     12  C   UNL     1     117.883 126.355 132.940  1.00  0.00     0.025 A 
ATOM     13  C   UNL     1     116.753 126.969 132.377  1.00  0.00     0.016 A 
ATOM     14  C   UNL     1     115.472 126.486 132.658  1.00  0.00     0.051 A 
ATOM     15  C   UNL     1     115.299 125.396 133.514  1.00  0.00     0.157 A 
ATOM     16  C   UNL     1     117.705 125.271 133.818  1.00  0.00     0.062 A 
ATOM     17  C   UNL     1     116.420 124.786 134.102  1.00  0.00     0.158 A 
BRANCH  15  18
ATOM     18  O   UNL     1     114.008 124.935 133.774  1.00  0.00    -0.504 OA
ATOM     19  H   UNL     1     113.820 124.227 134.474  1.00  0.00     0.293 HD
ENDBRANCH  15  18
BRANCH  17  20
ATOM     20  O   UNL     1     116.254 123.707 134.969  1.00  0.00    -0.504 OA
ATOM     21  H   UNL     1     116.147 122.760 134.624  1.00  0.00     0.293 HD
ENDBRANCH  17  20
ENDBRANCH   1  12
BRANCH   2  22
ATOM     22  O   UNL     1     119.495 127.739 134.910  1.00  0.00    -0.502 OA
ATOM     23  H   UNL     1     118.987 128.562 135.212  1.00  0.00     0.293 HD
ENDBRANCH   2  22
BRANCH   6  24
ATOM     24  O   UNL     1     123.794 129.292 132.176  1.00  0.00    -0.507 OA
ATOM     25  H   UNL     1     123.472 129.933 132.885  1.00  0.00     0.293 HD
ENDBRANCH   6  24
BRANCH   8  26
ATOM     26  O   UNL     1     123.048 126.963 128.043  1.00  0.00    -0.508 OA
ATOM     27  H   UNL     1     124.030 126.811 127.839  1.00  0.00     0.293 HD
ENDBRANCH   8  26
TORSDOF 6
ENDMDL
MODEL 9
REMARK VINA RESULT:    -5.917      4.233      6.910
REMARK INTER + INTRA:          -7.430
REMARK INTER:                  -7.114
REMARK INTRA:                  -0.316
REMARK UNBOUND:                -0.301
REMARK SMILES O=c1c(O)c(-c2ccc(O)c(O)c2)oc2cc(O)cc(O)c12
REMARK SMILES IDX 5 1 3 2 2 3 1 4 22 5 20 6 19 7 17 8 16 9 15 10 14 11 6 12
REMARK SMILES IDX 7 13 8 14 9 15 13 16 11 17 10 18 12 20 4 22 21 24 18 26
REMARK H PARENT 10 19 12 21 4 23 21 25 18 27
REMARK Flexibility Score: inf
ROOT
ATOM      1  C   UNL     1     116.706 127.582 131.931  1.00  0.00     0.180 A 
ATOM      2  C   UNL     1     118.027 127.577 131.451  1.00  0.00     0.208 A 
ATOM      3  C   UNL     1     118.893 126.547 131.850  1.00  0.00     0.238 A 
ATOM      4  O   UNL     1     120.089 126.577 131.459  1.00  0.00    -0.285 OA
ATOM      5  C   UNL     1     118.424 125.526 132.712  1.00  0.00     0.111 A 
ATOM      6  C   UNL     1     119.203 124.413 133.148  1.00  0.00     0.134 A 
ATOM      7  C   UNL     1     118.677 123.534 134.104  1.00  0.00     0.093 A 
ATOM      8  C   UNL     1     117.377 123.693 134.590  1.00  0.00     0.123 A 
ATOM      9  C   UNL     1     116.588 124.742 134.125  1.00  0.00     0.094 A 
ATOM     10  C   UNL     1     117.097 125.656 133.199  1.00  0.00     0.146 A 
ATOM     11  O   UNL     1     116.315 126.648 132.790  1.00  0.00    -0.452 OA
ENDROOT
BRANCH   1  12
ATOM     12  C   UNL     1     115.727 128.620 131.536  1.00  0.00     0.025 A 
ATOM     13  C   UNL     1     114.891 128.396 130.430  1.00  0.00     0.016 A 
ATOM     14  C   UNL     1     113.975 129.371 130.027  1.00  0.00     0.051 A 
ATOM     15  C   UNL     1     113.890 130.587 130.709  1.00  0.00     0.157 A 
ATOM     16  C   UNL     1     115.654 129.853 132.208  1.00  0.00     0.062 A 
ATOM     17  C   UNL     1     114.736 130.833 131.804  1.00  0.00     0.158 A 
BRANCH  15  18
ATOM     18  O   UNL     1     112.964 131.540 130.285  1.00  0.00    -0.504 OA
ATOM     19  H   UNL     1     112.924 131.861 129.324  1.00  0.00     0.293 HD
ENDBRANCH  15  18
BRANCH  17  20
ATOM     20  O   UNL     1     114.666 132.050 132.481  1.00  0.00    -0.504 OA
ATOM     21  H   UNL     1     114.129 132.829 132.118  1.00  0.00     0.293 HD
ENDBRANCH  17  20
ENDBRANCH   1  12
BRANCH   2  22
ATOM     22  O   UNL     1     118.475 128.606 130.618  1.00  0.00    -0.502 OA
ATOM     23  H   UNL     1     118.259 129.580 130.791  1.00  0.00     0.293 HD
ENDBRANCH   2  22
BRANCH   6  24
ATOM     24  O   UNL     1     120.476 124.110 132.657  1.00  0.00    -0.507 OA
ATOM     25  H   UNL     1     120.736 124.131 131.683  1.00  0.00     0.293 HD
ENDBRANCH   6  24
BRANCH   8  26
ATOM     26  O   UNL     1     116.856 122.806 135.529  1.00  0.00    -0.508 OA
ATOM     27  H   UNL     1     116.392 123.135 136.369  1.00  0.00     0.293 HD
ENDBRANCH   8  26
TORSDOF 6
ENDMDL
