MODEL 1
REMARK VINA RESULT:    -4.973      0.000      0.000
REMARK INTER + INTRA:          -9.486
REMARK INTER:                  -8.753
REMARK INTRA:                  -0.733
REMARK UNBOUND:                -0.733
REMARK SMILES CCCCCCCCCCCCCCC(=O)[O-]
REMARK SMILES IDX 9 1 10 2 11 3 12 4 13 5 14 6 15 7 16 8 17 9 8 10 7 11 6 12
REMARK SMILES IDX 5 13 4 14 3 15 2 16 1 17
REMARK H PARENT
REMARK Flexibility Score: inf
ROOT
ATOM      1  C   UNL     1      -8.178  27.734 -25.311  1.00  0.00     0.000 C 
ENDROOT
BRANCH   1   2
ATOM      2  C   UNL     1      -7.599  28.097 -23.931  1.00  0.00     0.000 C 
BRANCH   2   3
ATOM      3  C   UNL     1      -6.214  28.766 -23.965  1.00  0.00     0.000 C 
BRANCH   3   4
ATOM      4  C   UNL     1      -5.643  29.033 -22.564  1.00  0.00     0.000 C 
BRANCH   4   5
ATOM      5  C   UNL     1      -6.263  28.088 -21.529  1.00  0.00     0.006 C 
BRANCH   5   6
ATOM      6  C   UNL     1      -5.512  28.163 -20.196  1.00  0.00     0.053 C 
BRANCH   6   7
ATOM      7  C   UNL     1      -6.394  28.728 -19.128  1.00  0.00     0.041 C 
ATOM      8  O   UNL     1      -6.803  27.995 -18.190  1.00  0.00    -0.550 OA
ATOM      9  O   UNL     1      -6.724  30.078 -19.141  1.00  0.00    -0.550 OA
ENDBRANCH   6   7
ENDBRANCH   5   6
ENDBRANCH   4   5
ENDBRANCH   3   4
ENDBRANCH   2   3
ENDBRANCH   1   2
BRANCH   1  10
ATOM     10  C   UNL     1      -7.096  27.613 -26.399  1.00  0.00     0.000 C 
BRANCH  10  11
ATOM     11  C   UNL     1      -7.636  26.995 -27.698  1.00  0.00    -0.000 C 
BRANCH  11  12
ATOM     12  C   UNL     1      -8.973  26.263 -27.489  1.00  0.00    -0.000 C 
BRANCH  12  13
ATOM     13  C   UNL     1      -8.788  24.773 -27.147  1.00  0.00    -0.000 C 
BRANCH  13  14
ATOM     14  C   UNL     1      -9.746  24.232 -26.067  1.00  0.00    -0.000 C 
BRANCH  14  15
ATOM     15  C   UNL     1      -9.831  22.695 -25.977  1.00  0.00    -0.000 C 
BRANCH  15  16
ATOM     16  C   UNL     1     -10.176  22.148 -24.580  1.00  0.00    -0.003 C 
ATOM     17  C   UNL     1      -9.524  22.944 -23.452  1.00  0.00     0.004 C 
ENDBRANCH  15  16
ENDBRANCH  14  15
ENDBRANCH  13  14
ENDBRANCH  12  13
ENDBRANCH  11  12
ENDBRANCH  10  11
ENDBRANCH   1  10
TORSDOF 13
ENDMDL
MODEL 2
REMARK VINA RESULT:    -4.965      1.117      1.979
REMARK INTER + INTRA:          -9.471
REMARK INTER:                  -8.891
REMARK INTRA:                  -0.580
REMARK UNBOUND:                -0.733
REMARK SMILES CCCCCCCCCCCCCCC(=O)[O-]
REMARK SMILES IDX 9 1 10 2 11 3 12 4 13 5 14 6 15 7 16 8 17 9 8 10 7 11 6 12
REMARK SMILES IDX 5 13 4 14 3 15 2 16 1 17
REMARK H PARENT
REMARK Flexibility Score: inf
ROOT
ATOM      1  C   UNL     1      -8.761  27.311 -25.952  1.00  0.00     0.000 C 
ENDROOT
BRANCH   1   2
ATOM      2  C   UNL     1      -7.435  27.848 -25.380  1.00  0.00     0.000 C 
BRANCH   2   3
ATOM      3  C   UNL     1      -7.474  28.210 -23.885  1.00  0.00     0.000 C 
BRANCH   3   4
ATOM      4  C   UNL     1      -6.167  28.847 -23.389  1.00  0.00     0.000 C 
BRANCH   4   5
ATOM      5  C   UNL     1      -6.242  29.156 -21.889  1.00  0.00     0.006 C 
BRANCH   5   6
ATOM      6  C   UNL     1      -5.861  27.929 -21.055  1.00  0.00     0.053 C 
BRANCH   6   7
ATOM      7  C   UNL     1      -5.684  28.306 -19.618  1.00  0.00     0.041 C 
ATOM      8  O   UNL     1      -4.633  27.984 -19.004  1.00  0.00    -0.550 OA
ATOM      9  O   UNL     1      -6.657  29.056 -18.972  1.00  0.00    -0.550 OA
ENDBRANCH   6   7
ENDBRANCH   5   6
ENDBRANCH   4   5
ENDBRANCH   3   4
ENDBRANCH   2   3
ENDBRANCH   1   2
BRANCH   1  10
ATOM     10  C   UNL     1      -8.560  26.408 -27.181  1.00  0.00     0.000 C 
BRANCH  10  11
ATOM     11  C   UNL     1      -9.462  25.164 -27.150  1.00  0.00    -0.000 C 
BRANCH  11  12
ATOM     12  C   UNL     1      -9.064  24.176 -26.040  1.00  0.00    -0.000 C 
BRANCH  12  13
ATOM     13  C   UNL     1     -10.044  22.996 -25.915  1.00  0.00    -0.000 C 
BRANCH  13  14
ATOM     14  C   UNL     1     -10.478  22.662 -24.474  1.00  0.00    -0.000 C 
BRANCH  14  15
ATOM     15  C   UNL     1      -9.571  23.237 -23.366  1.00  0.00    -0.000 C 
BRANCH  15  16
ATOM     16  C   UNL     1      -9.982  22.856 -21.933  1.00  0.00    -0.003 C 
ATOM     17  C   UNL     1      -8.823  22.935 -20.941  1.00  0.00     0.004 C 
ENDBRANCH  15  16
ENDBRANCH  14  15
ENDBRANCH  13  14
ENDBRANCH  12  13
ENDBRANCH  11  12
ENDBRANCH  10  11
ENDBRANCH   1  10
TORSDOF 13
ENDMDL
MODEL 3
REMARK VINA RESULT:    -4.856      3.259      7.524
REMARK INTER + INTRA:          -9.280
REMARK INTER:                  -8.499
REMARK INTRA:                  -0.781
REMARK UNBOUND:                -0.733
REMARK SMILES CCCCCCCCCCCCCCC(=O)[O-]
REMARK SMILES IDX 9 1 10 2 11 3 12 4 13 5 14 6 15 7 16 8 17 9 8 10 7 11 6 12
REMARK SMILES IDX 5 13 4 14 3 15 2 16 1 17
REMARK H PARENT
REMARK Flexibility Score: inf
ROOT
ATOM      1  C   UNL     1      -8.471  27.595 -24.896  1.00  0.00     0.000 C 
ENDROOT
BRANCH   1   2
ATOM      2  C   UNL     1      -8.719  27.608 -26.416  1.00  0.00     0.000 C 
BRANCH   2   3
ATOM      3  C   UNL     1      -7.726  26.770 -27.241  1.00  0.00     0.000 C 
BRANCH   3   4
ATOM      4  C   UNL     1      -8.375  25.538 -27.888  1.00  0.00     0.000 C 
BRANCH   4   5
ATOM      5  C   UNL     1      -9.573  25.051 -27.064  1.00  0.00     0.006 C 
BRANCH   5   6
ATOM      6  C   UNL     1      -9.233  23.762 -26.310  1.00  0.00     0.053 C 
BRANCH   6   7
ATOM      7  C   UNL     1     -10.208  23.532 -25.199  1.00  0.00     0.041 C 
ATOM      8  O   UNL     1      -9.877  23.767 -24.007  1.00  0.00    -0.550 OA
ATOM      9  O   UNL     1     -11.500  23.107 -25.483  1.00  0.00    -0.550 OA
ENDBRANCH   6   7
ENDBRANCH   5   6
ENDBRANCH   4   5
ENDBRANCH   3   4
ENDBRANCH   2   3
ENDBRANCH   1   2
BRANCH   1  10
ATOM     10  C   UNL     1      -7.083  28.137 -24.513  1.00  0.00     0.000 C 
BRANCH  10  11
ATOM     11  C   UNL     1      -7.085  28.845 -23.149  1.00  0.00    -0.000 C 
BRANCH  11  12
ATOM     12  C   UNL     1      -5.690  28.871 -22.499  1.00  0.00    -0.000 C 
BRANCH  12  13
ATOM     13  C   UNL     1      -5.620  28.035 -21.209  1.00  0.00    -0.000 C 
BRANCH  13  14
ATOM     14  C   UNL     1      -5.240  28.828 -19.942  1.00  0.00    -0.000 C 
BRANCH  14  15
ATOM     15  C   UNL     1      -6.383  29.028 -18.926  1.00  0.00    -0.000 C 
BRANCH  15  16
ATOM     16  C   UNL     1      -6.721  30.497 -18.614  1.00  0.00    -0.003 C 
ATOM     17  C   UNL     1      -6.705  31.388 -19.855  1.00  0.00     0.004 C 
ENDBRANCH  15  16
ENDBRANCH  14  15
ENDBRANCH  13  14
ENDBRANCH  12  13
ENDBRANCH  11  12
ENDBRANCH  10  11
ENDBRANCH   1  10
TORSDOF 13
ENDMDL
MODEL 4
REMARK VINA RESULT:    -4.840      2.601      6.066
REMARK INTER + INTRA:          -9.251
REMARK INTER:                  -8.629
REMARK INTRA:                  -0.622
REMARK UNBOUND:                -0.733
REMARK SMILES CCCCCCCCCCCCCCC(=O)[O-]
REMARK SMILES IDX 9 1 10 2 11 3 12 4 13 5 14 6 15 7 16 8 17 9 8 10 7 11 6 12
REMARK SMILES IDX 5 13 4 14 3 15 2 16 1 17
REMARK H PARENT
REMARK Flexibility Score: inf
ROOT
ATOM      1  C   UNL     1      -9.134  25.823 -27.222  1.00  0.00     0.000 C 
ENDROOT
BRANCH   1   2
ATOM      2  C   UNL     1      -8.975  24.326 -26.895  1.00  0.00     0.000 C 
BRANCH   2   3
ATOM      3  C   UNL     1      -9.973  23.781 -25.857  1.00  0.00     0.000 C 
BRANCH   3   4
ATOM      4  C   UNL     1      -9.342  22.760 -24.899  1.00  0.00     0.000 C 
BRANCH   4   5
ATOM      5  C   UNL     1      -9.961  22.866 -23.500  1.00  0.00     0.006 C 
BRANCH   5   6
ATOM      6  C   UNL     1      -8.875  22.900 -22.420  1.00  0.00     0.053 C 
BRANCH   6   7
ATOM      7  C   UNL     1      -9.482  22.754 -21.061  1.00  0.00     0.041 C 
ATOM      8  O   UNL     1      -8.933  22.022 -20.197  1.00  0.00    -0.550 OA
ATOM      9  O   UNL     1     -10.627  23.469 -20.731  1.00  0.00    -0.550 OA
ENDBRANCH   6   7
ENDBRANCH   5   6
ENDBRANCH   4   5
ENDBRANCH   3   4
ENDBRANCH   2   3
ENDBRANCH   1   2
BRANCH   1  10
ATOM     10  C   UNL     1      -7.938  26.392 -28.005  1.00  0.00     0.000 C 
BRANCH  10  11
ATOM     11  C   UNL     1      -7.298  27.601 -27.303  1.00  0.00    -0.000 C 
BRANCH  11  12
ATOM     12  C   UNL     1      -7.756  27.742 -25.841  1.00  0.00    -0.000 C 
BRANCH  12  13
ATOM     13  C   UNL     1      -6.645  28.274 -24.918  1.00  0.00    -0.000 C 
BRANCH  13  14
ATOM     14  C   UNL     1      -7.077  28.521 -23.459  1.00  0.00    -0.000 C 
BRANCH  14  15
ATOM     15  C   UNL     1      -5.951  28.983 -22.511  1.00  0.00    -0.000 C 
BRANCH  15  16
ATOM     16  C   UNL     1      -6.227  28.744 -21.016  1.00  0.00    -0.003 C 
ATOM     17  C   UNL     1      -5.656  27.421 -20.509  1.00  0.00     0.004 C 
ENDBRANCH  15  16
ENDBRANCH  14  15
ENDBRANCH  13  14
ENDBRANCH  12  13
ENDBRANCH  11  12
ENDBRANCH  10  11
ENDBRANCH   1  10
TORSDOF 13
ENDMDL
MODEL 5
REMARK VINA RESULT:    -4.796      4.397      7.300
REMARK INTER + INTRA:          -9.174
REMARK INTER:                  -7.741
REMARK INTRA:                  -1.433
REMARK UNBOUND:                -0.733
REMARK SMILES CCCCCCCCCCCCCCC(=O)[O-]
REMARK SMILES IDX 9 1 10 2 11 3 12 4 13 5 14 6 15 7 16 8 17 9 8 10 7 11 6 12
REMARK SMILES IDX 5 13 4 14 3 15 2 16 1 17
REMARK H PARENT
REMARK Flexibility Score: inf
ROOT
ATOM      1  C   UNL     1      -7.000  31.373 -17.880  1.00  0.00     0.000 C 
ENDROOT
BRANCH   1   2
ATOM      2  C   UNL     1      -7.006  29.846 -17.678  1.00  0.00     0.000 C 
BRANCH   2   3
ATOM      3  C   UNL     1      -6.069  29.065 -18.616  1.00  0.00     0.000 C 
BRANCH   3   4
ATOM      4  C   UNL     1      -6.462  27.588 -18.761  1.00  0.00     0.000 C 
BRANCH   4   5
ATOM      5  C   UNL     1      -5.888  26.992 -20.052  1.00  0.00     0.006 C 
BRANCH   5   6
ATOM      6  C   UNL     1      -4.591  26.225 -19.775  1.00  0.00     0.053 C 
BRANCH   6   7
ATOM      7  C   UNL     1      -3.430  27.167 -19.704  1.00  0.00     0.041 C 
ATOM      8  O   UNL     1      -2.903  27.440 -18.594  1.00  0.00    -0.550 OA
ATOM      9  O   UNL     1      -2.899  27.703 -20.870  1.00  0.00    -0.550 OA
ENDBRANCH   6   7
ENDBRANCH   5   6
ENDBRANCH   4   5
ENDBRANCH   3   4
ENDBRANCH   2   3
ENDBRANCH   1   2
BRANCH   1  10
ATOM     10  C   UNL     1      -6.986  31.779 -19.364  1.00  0.00     0.000 C 
BRANCH  10  11
ATOM     11  C   UNL     1      -6.311  33.140 -19.596  1.00  0.00    -0.000 C 
BRANCH  11  12
ATOM     12  C   UNL     1      -5.082  33.037 -20.516  1.00  0.00    -0.000 C 
BRANCH  12  13
ATOM     13  C   UNL     1      -4.534  31.603 -20.618  1.00  0.00    -0.000 C 
BRANCH  13  14
ATOM     14  C   UNL     1      -4.164  31.150 -22.044  1.00  0.00    -0.000 C 
BRANCH  14  15
ATOM     15  C   UNL     1      -4.735  29.781 -22.467  1.00  0.00    -0.000 C 
BRANCH  15  16
ATOM     16  C   UNL     1      -6.256  29.631 -22.283  1.00  0.00    -0.003 C 
ATOM     17  C   UNL     1      -6.877  28.629 -23.255  1.00  0.00     0.004 C 
ENDBRANCH  15  16
ENDBRANCH  14  15
ENDBRANCH  13  14
ENDBRANCH  12  13
ENDBRANCH  11  12
ENDBRANCH  10  11
ENDBRANCH   1  10
TORSDOF 13
ENDMDL
MODEL 6
REMARK VINA RESULT:    -4.775      5.258      8.184
REMARK INTER + INTRA:          -9.137
REMARK INTER:                  -7.340
REMARK INTRA:                  -1.797
REMARK UNBOUND:                -0.733
REMARK SMILES CCCCCCCCCCCCCCC(=O)[O-]
REMARK SMILES IDX 9 1 10 2 11 3 12 4 13 5 14 6 15 7 16 8 17 9 8 10 7 11 6 12
REMARK SMILES IDX 5 13 4 14 3 15 2 16 1 17
REMARK H PARENT
REMARK Flexibility Score: inf
ROOT
ATOM      1  C   UNL     1      -3.203  27.836 -20.420  1.00  0.00     0.000 C 
ENDROOT
BRANCH   1   2
ATOM      2  C   UNL     1      -3.964  28.524 -21.568  1.00  0.00     0.000 C 
BRANCH   2   3
ATOM      3  C   UNL     1      -5.489  28.326 -21.545  1.00  0.00     0.000 C 
BRANCH   3   4
ATOM      4  C   UNL     1      -6.260  29.633 -21.305  1.00  0.00     0.000 C 
BRANCH   4   5
ATOM      5  C   UNL     1      -6.482  29.872 -19.807  1.00  0.00     0.006 C 
BRANCH   5   6
ATOM      6  C   UNL     1      -6.467  28.551 -19.031  1.00  0.00     0.053 C 
BRANCH   6   7
ATOM      7  C   UNL     1      -6.984  28.753 -17.642  1.00  0.00     0.041 C 
ATOM      8  O   UNL     1      -7.231  27.761 -16.908  1.00  0.00    -0.550 OA
ATOM      9  O   UNL     1      -7.144  30.038 -17.140  1.00  0.00    -0.550 OA
ENDBRANCH   6   7
ENDBRANCH   5   6
ENDBRANCH   4   5
ENDBRANCH   3   4
ENDBRANCH   2   3
ENDBRANCH   1   2
BRANCH   1  10
ATOM     10  C   UNL     1      -2.548  28.838 -19.453  1.00  0.00     0.000 C 
BRANCH  10  11
ATOM     11  C   UNL     1      -2.974  30.288 -19.731  1.00  0.00    -0.000 C 
BRANCH  11  12
ATOM     12  C   UNL     1      -1.785  31.186 -20.118  1.00  0.00    -0.000 C 
BRANCH  12  13
ATOM     13  C   UNL     1      -2.168  32.271 -21.140  1.00  0.00    -0.000 C 
BRANCH  13  14
ATOM     14  C   UNL     1      -3.649  32.264 -21.569  1.00  0.00    -0.000 C 
BRANCH  14  15
ATOM     15  C   UNL     1      -4.472  33.484 -21.105  1.00  0.00    -0.000 C 
BRANCH  15  16
ATOM     16  C   UNL     1      -5.252  33.276 -19.795  1.00  0.00    -0.003 C 
ATOM     17  C   UNL     1      -6.463  34.199 -19.671  1.00  0.00     0.004 C 
ENDBRANCH  15  16
ENDBRANCH  14  15
ENDBRANCH  13  14
ENDBRANCH  12  13
ENDBRANCH  11  12
ENDBRANCH  10  11
ENDBRANCH   1  10
TORSDOF 13
ENDMDL
MODEL 7
REMARK VINA RESULT:    -4.773      5.902      7.624
REMARK INTER + INTRA:          -9.133
REMARK INTER:                  -7.169
REMARK INTRA:                  -1.964
REMARK UNBOUND:                -0.733
REMARK SMILES CCCCCCCCCCCCCCC(=O)[O-]
REMARK SMILES IDX 9 1 10 2 11 3 12 4 13 5 14 6 15 7 16 8 17 9 8 10 7 11 6 12
REMARK SMILES IDX 5 13 4 14 3 15 2 16 1 17
REMARK H PARENT
REMARK Flexibility Score: inf
ROOT
ATOM      1  C   UNL     1      -2.284  29.087 -19.385  1.00  0.00     0.000 C 
ENDROOT
BRANCH   1   2
ATOM      2  C   UNL     1      -3.149  30.317 -19.716  1.00  0.00     0.000 C 
BRANCH   2   3
ATOM      3  C   UNL     1      -3.301  30.617 -21.218  1.00  0.00     0.000 C 
BRANCH   3   4
ATOM      4  C   UNL     1      -4.228  31.808 -21.501  1.00  0.00     0.000 C 
BRANCH   4   5
ATOM      5  C   UNL     1      -4.486  32.618 -20.225  1.00  0.00     0.006 C 
BRANCH   5   6
ATOM      6  C   UNL     1      -5.485  33.750 -20.485  1.00  0.00     0.053 C 
BRANCH   6   7
ATOM      7  C   UNL     1      -4.784  34.951 -21.037  1.00  0.00     0.041 C 
ATOM      8  O   UNL     1      -5.240  35.538 -22.053  1.00  0.00    -0.550 OA
ATOM      9  O   UNL     1      -3.657  35.452 -20.399  1.00  0.00    -0.550 OA
ENDBRANCH   6   7
ENDBRANCH   5   6
ENDBRANCH   4   5
ENDBRANCH   3   4
ENDBRANCH   2   3
ENDBRANCH   1   2
BRANCH   1  10
ATOM     10  C   UNL     1      -3.121  27.845 -19.034  1.00  0.00     0.000 C 
BRANCH  10  11
ATOM     11  C   UNL     1      -3.327  26.915 -20.240  1.00  0.00    -0.000 C 
BRANCH  11  12
ATOM     12  C   UNL     1      -4.600  26.060 -20.112  1.00  0.00    -0.000 C 
BRANCH  12  13
ATOM     13  C   UNL     1      -5.861  26.905 -19.861  1.00  0.00    -0.000 C 
BRANCH  13  14
ATOM     14  C   UNL     1      -6.053  28.088 -20.832  1.00  0.00    -0.000 C 
BRANCH  14  15
ATOM     15  C   UNL     1      -6.569  29.390 -20.186  1.00  0.00    -0.000 C 
BRANCH  15  16
ATOM     16  C   UNL     1      -6.554  29.398 -18.647  1.00  0.00    -0.003 C 
ATOM     17  C   UNL     1      -6.797  30.786 -18.057  1.00  0.00     0.004 C 
ENDBRANCH  15  16
ENDBRANCH  14  15
ENDBRANCH  13  14
ENDBRANCH  12  13
ENDBRANCH  11  12
ENDBRANCH  10  11
ENDBRANCH   1  10
TORSDOF 13
ENDMDL
MODEL 8
REMARK VINA RESULT:    -4.707      3.335      7.400
REMARK INTER + INTRA:          -9.017
REMARK INTER:                  -8.198
REMARK INTRA:                  -0.819
REMARK UNBOUND:                -0.733
REMARK SMILES CCCCCCCCCCCCCCC(=O)[O-]
REMARK SMILES IDX 9 1 10 2 11 3 12 4 13 5 14 6 15 7 16 8 17 9 8 10 7 11 6 12
REMARK SMILES IDX 5 13 4 14 3 15 2 16 1 17
REMARK H PARENT
REMARK Flexibility Score: inf
ROOT
ATOM      1  C   UNL     1      -6.900  28.105 -24.913  1.00  0.00     0.000 C 
ENDROOT
BRANCH   1   2
ATOM      2  C   UNL     1      -8.062  27.696 -25.838  1.00  0.00     0.000 C 
BRANCH   2   3
ATOM      3  C   UNL     1      -7.648  27.330 -27.274  1.00  0.00     0.000 C 
BRANCH   3   4
ATOM      4  C   UNL     1      -8.091  25.918 -27.684  1.00  0.00     0.000 C 
BRANCH   4   5
ATOM      5  C   UNL     1      -9.299  25.460 -26.859  1.00  0.00     0.006 C 
BRANCH   5   6
ATOM      6  C   UNL     1      -9.242  23.953 -26.589  1.00  0.00     0.053 C 
BRANCH   6   7
ATOM      7  C   UNL     1     -10.041  23.607 -25.373  1.00  0.00     0.041 C 
ATOM      8  O   UNL     1      -9.587  23.857 -24.225  1.00  0.00    -0.550 OA
ATOM      9  O   UNL     1     -11.308  23.055 -25.507  1.00  0.00    -0.550 OA
ENDBRANCH   6   7
ENDBRANCH   5   6
ENDBRANCH   4   5
ENDBRANCH   3   4
ENDBRANCH   2   3
ENDBRANCH   1   2
BRANCH   1  10
ATOM     10  C   UNL     1      -7.371  28.505 -23.504  1.00  0.00     0.000 C 
BRANCH  10  11
ATOM     11  C   UNL     1      -6.248  28.411 -22.459  1.00  0.00    -0.000 C 
BRANCH  11  12
ATOM     12  C   UNL     1      -5.222  29.549 -22.595  1.00  0.00    -0.000 C 
BRANCH  12  13
ATOM     13  C   UNL     1      -3.999  29.360 -21.680  1.00  0.00    -0.000 C 
BRANCH  13  14
ATOM     14  C   UNL     1      -4.306  29.410 -20.170  1.00  0.00    -0.000 C 
BRANCH  14  15
ATOM     15  C   UNL     1      -3.752  28.227 -19.348  1.00  0.00    -0.000 C 
BRANCH  15  16
ATOM     16  C   UNL     1      -3.396  26.978 -20.174  1.00  0.00    -0.003 C 
ATOM     17  C   UNL     1      -4.467  25.891 -20.101  1.00  0.00     0.004 C 
ENDBRANCH  15  16
ENDBRANCH  14  15
ENDBRANCH  13  14
ENDBRANCH  12  13
ENDBRANCH  11  12
ENDBRANCH  10  11
ENDBRANCH   1  10
TORSDOF 13
ENDMDL
MODEL 9
REMARK VINA RESULT:    -4.670      5.125      7.693
REMARK INTER + INTRA:          -8.952
REMARK INTER:                  -7.183
REMARK INTRA:                  -1.769
REMARK UNBOUND:                -0.733
REMARK SMILES CCCCCCCCCCCCCCC(=O)[O-]
REMARK SMILES IDX 9 1 10 2 11 3 12 4 13 5 14 6 15 7 16 8 17 9 8 10 7 11 6 12
REMARK SMILES IDX 5 13 4 14 3 15 2 16 1 17
REMARK H PARENT
REMARK Flexibility Score: inf
ROOT
ATOM      1  C   UNL     1      -4.505  33.707 -20.112  1.00  0.00     0.000 C 
ENDROOT
BRANCH   1   2
ATOM      2  C   UNL     1      -5.933  33.132 -20.157  1.00  0.00     0.000 C 
BRANCH   2   3
ATOM      3  C   UNL     1      -6.372  32.390 -18.882  1.00  0.00     0.000 C 
BRANCH   3   4
ATOM      4  C   UNL     1      -6.717  30.915 -19.136  1.00  0.00     0.000 C 
BRANCH   4   5
ATOM      5  C   UNL     1      -6.697  30.597 -20.636  1.00  0.00     0.006 C 
BRANCH   5   6
ATOM      6  C   UNL     1      -6.409  29.113 -20.880  1.00  0.00     0.053 C 
BRANCH   6   7
ATOM      7  C   UNL     1      -5.996  28.885 -22.299  1.00  0.00     0.041 C 
ATOM      8  O   UNL     1      -6.866  28.733 -23.196  1.00  0.00    -0.550 OA
ATOM      9  O   UNL     1      -4.650  28.891 -22.641  1.00  0.00    -0.550 OA
ENDBRANCH   6   7
ENDBRANCH   5   6
ENDBRANCH   4   5
ENDBRANCH   3   4
ENDBRANCH   2   3
ENDBRANCH   1   2
BRANCH   1  10
ATOM     10  C   UNL     1      -3.645  33.262 -21.308  1.00  0.00     0.000 C 
BRANCH  10  11
ATOM     11  C   UNL     1      -3.250  31.779 -21.229  1.00  0.00    -0.000 C 
BRANCH  11  12
ATOM     12  C   UNL     1      -2.307  31.484 -20.050  1.00  0.00    -0.000 C 
BRANCH  12  13
ATOM     13  C   UNL     1      -2.126  29.976 -19.796  1.00  0.00    -0.000 C 
BRANCH  13  14
ATOM     14  C   UNL     1      -3.403  29.235 -19.355  1.00  0.00    -0.000 C 
BRANCH  14  15
ATOM     15  C   UNL     1      -3.197  27.766 -18.932  1.00  0.00    -0.000 C 
BRANCH  15  16
ATOM     16  C   UNL     1      -3.323  26.741 -20.074  1.00  0.00    -0.003 C 
ATOM     17  C   UNL     1      -4.658  25.999 -20.063  1.00  0.00     0.004 C 
ENDBRANCH  15  16
ENDBRANCH  14  15
ENDBRANCH  13  14
ENDBRANCH  12  13
ENDBRANCH  11  12
ENDBRANCH  10  11
ENDBRANCH   1  10
TORSDOF 13
ENDMDL
