MODEL 1
REMARK VINA RESULT:    -6.366      0.000      0.000
REMARK INTER + INTRA:          -7.393
REMARK INTER:                  -7.668
REMARK INTRA:                   0.275
REMARK UNBOUND:                 0.275
REMARK SMILES O=c1c(O)c(-c2ccc(O)c(O)c2)oc2cc(O)cc(O)c12
REMARK SMILES IDX 5 1 3 2 2 3 1 4 22 5 20 6 19 7 17 8 16 9 15 10 14 11 6 12
REMARK SMILES IDX 7 13 8 14 9 15 13 16 11 17 10 18 12 20 4 22 21 24 18 26
REMARK H PARENT 10 19 12 21 4 23 21 25 18 27
REMARK Flexibility Score: inf
ROOT
ATOM      1  C   UNL     1     117.684  73.246  44.734  1.00  0.00     0.180 A 
ATOM      2  C   UNL     1     118.518  72.705  45.732  1.00  0.00     0.208 A 
ATOM      3  C   UNL     1     119.842  72.376  45.403  1.00  0.00     0.238 A 
ATOM      4  O   UNL     1     120.602  71.901  46.291  1.00  0.00    -0.285 OA
ATOM      5  C   UNL     1     120.304  72.574  44.086  1.00  0.00     0.111 A 
ATOM      6  C   UNL     1     121.622  72.265  43.672  1.00  0.00     0.134 A 
ATOM      7  C   UNL     1     122.002  72.483  42.339  1.00  0.00     0.093 A 
ATOM      8  C   UNL     1     121.089  73.000  41.414  1.00  0.00     0.123 A 
ATOM      9  C   UNL     1     119.789  73.307  41.817  1.00  0.00     0.094 A 
ATOM     10  C   UNL     1     119.391  73.100  43.141  1.00  0.00     0.146 A 
ATOM     11  O   UNL     1     118.149  73.405  43.499  1.00  0.00    -0.452 OA
ENDROOT
BRANCH   1  12
ATOM     12  C   UNL     1     116.282  73.634  45.006  1.00  0.00     0.025 A 
ATOM     13  C   UNL     1     115.867  74.029  46.291  1.00  0.00     0.016 A 
ATOM     14  C   UNL     1     114.544  74.415  46.520  1.00  0.00     0.051 A 
ATOM     15  C   UNL     1     113.620  74.425  45.467  1.00  0.00     0.157 A 
ATOM     16  C   UNL     1     115.355  73.668  43.951  1.00  0.00     0.062 A 
ATOM     17  C   UNL     1     114.027  74.054  44.180  1.00  0.00     0.158 A 
BRANCH  15  18
ATOM     18  O   UNL     1     112.299  74.808  45.692  1.00  0.00    -0.504 OA
ATOM     19  H   UNL     1     111.961  75.727  45.429  1.00  0.00     0.293 HD
ENDBRANCH  15  18
BRANCH  17  20
ATOM     20  O   UNL     1     113.108  74.073  43.133  1.00  0.00    -0.504 OA
ATOM     21  H   UNL     1     112.865  73.230  42.625  1.00  0.00     0.293 HD
ENDBRANCH  17  20
ENDBRANCH   1  12
BRANCH   2  22
ATOM     22  O   UNL     1     118.022  72.473  47.017  1.00  0.00    -0.502 OA
ATOM     23  H   UNL     1     117.164  71.963  47.184  1.00  0.00     0.293 HD
ENDBRANCH   2  22
BRANCH   6  24
ATOM     24  O   UNL     1     122.554  71.747  44.572  1.00  0.00    -0.507 OA
ATOM     25  H   UNL     1     123.151  70.964  44.331  1.00  0.00     0.293 HD
ENDBRANCH   6  24
BRANCH   8  26
ATOM     26  O   UNL     1     121.466  73.216  40.090  1.00  0.00    -0.508 OA
ATOM     27  H   UNL     1     122.131  72.610  39.623  1.00  0.00     0.293 HD
ENDBRANCH   8  26
TORSDOF 6
ENDMDL
MODEL 2
REMARK VINA RESULT:    -6.251      1.303      2.817
REMARK INTER + INTRA:          -7.254
REMARK INTER:                  -7.259
REMARK INTRA:                   0.005
REMARK UNBOUND:                 0.275
REMARK SMILES O=c1c(O)c(-c2ccc(O)c(O)c2)oc2cc(O)cc(O)c12
REMARK SMILES IDX 5 1 3 2 2 3 1 4 22 5 20 6 19 7 17 8 16 9 15 10 14 11 6 12
REMARK SMILES IDX 7 13 8 14 9 15 13 16 11 17 10 18 12 20 4 22 21 24 18 26
REMARK H PARENT 10 19 12 21 4 23 21 25 18 27
REMARK Flexibility Score: inf
ROOT
ATOM      1  C   UNL     1     118.035  73.452  44.137  1.00  0.00     0.180 A 
ATOM      2  C   UNL     1     118.619  74.125  43.046  1.00  0.00     0.208 A 
ATOM      3  C   UNL     1     119.931  73.799  42.672  1.00  0.00     0.238 A 
ATOM      4  O   UNL     1     120.461  74.386  41.689  1.00  0.00    -0.285 OA
ATOM      5  C   UNL     1     120.643  72.825  43.403  1.00  0.00     0.111 A 
ATOM      6  C   UNL     1     121.970  72.441  43.094  1.00  0.00     0.134 A 
ATOM      7  C   UNL     1     122.614  71.470  43.876  1.00  0.00     0.093 A 
ATOM      8  C   UNL     1     121.956  70.878  44.960  1.00  0.00     0.123 A 
ATOM      9  C   UNL     1     120.648  71.253  45.268  1.00  0.00     0.094 A 
ATOM     10  C   UNL     1     119.988  72.217  44.500  1.00  0.00     0.146 A 
ATOM     11  O   UNL     1     118.741  72.551  44.812  1.00  0.00    -0.452 OA
ENDROOT
BRANCH   1  12
ATOM     12  C   UNL     1     116.650  73.728  44.581  1.00  0.00     0.025 A 
ATOM     13  C   UNL     1     116.362  74.065  45.916  1.00  0.00     0.016 A 
ATOM     14  C   UNL     1     115.050  74.346  46.307  1.00  0.00     0.051 A 
ATOM     15  C   UNL     1     114.010  74.308  45.368  1.00  0.00     0.157 A 
ATOM     16  C   UNL     1     115.606  73.713  43.641  1.00  0.00     0.062 A 
ATOM     17  C   UNL     1     114.289  73.994  44.033  1.00  0.00     0.158 A 
BRANCH  15  18
ATOM     18  O   UNL     1     112.700  74.587  45.755  1.00  0.00    -0.504 OA
ATOM     19  H   UNL     1     111.927  74.505  45.106  1.00  0.00     0.293 HD
ENDBRANCH  15  18
BRANCH  17  20
ATOM     20  O   UNL     1     113.254  73.964  43.100  1.00  0.00    -0.504 OA
ATOM     21  H   UNL     1     112.535  74.679  43.082  1.00  0.00     0.293 HD
ENDBRANCH  17  20
ENDBRANCH   1  12
BRANCH   2  22
ATOM     22  O   UNL     1     117.910  75.121  42.368  1.00  0.00    -0.502 OA
ATOM     23  H   UNL     1     116.936  75.319  42.560  1.00  0.00     0.293 HD
ENDBRANCH   2  22
BRANCH   6  24
ATOM     24  O   UNL     1     122.652  73.015  42.019  1.00  0.00    -0.507 OA
ATOM     25  H   UNL     1     123.211  72.457  41.384  1.00  0.00     0.293 HD
ENDBRANCH   6  24
BRANCH   8  26
ATOM     26  O   UNL     1     122.595  69.914  45.737  1.00  0.00    -0.508 OA
ATOM     27  H   UNL     1     122.095  69.111  46.101  1.00  0.00     0.293 HD
ENDBRANCH   8  26
TORSDOF 6
ENDMDL
MODEL 3
REMARK VINA RESULT:    -6.066      1.456      6.695
REMARK INTER + INTRA:          -7.032
REMARK INTER:                  -6.829
REMARK INTRA:                  -0.203
REMARK UNBOUND:                 0.275
REMARK SMILES O=c1c(O)c(-c2ccc(O)c(O)c2)oc2cc(O)cc(O)c12
REMARK SMILES IDX 5 1 3 2 2 3 1 4 22 5 20 6 19 7 17 8 16 9 15 10 14 11 6 12
REMARK SMILES IDX 7 13 8 14 9 15 13 16 11 17 10 18 12 20 4 22 21 24 18 26
REMARK H PARENT 10 19 12 21 4 23 21 25 18 27
REMARK Flexibility Score: inf
ROOT
ATOM      1  C   UNL     1     118.243  73.826  44.730  1.00  0.00     0.180 A 
ATOM      2  C   UNL     1     118.165  73.946  46.131  1.00  0.00     0.208 A 
ATOM      3  C   UNL     1     116.931  74.270  46.716  1.00  0.00     0.238 A 
ATOM      4  O   UNL     1     116.845  74.368  47.970  1.00  0.00    -0.285 OA
ATOM      5  C   UNL     1     115.806  74.488  45.894  1.00  0.00     0.111 A 
ATOM      6  C   UNL     1     114.527  74.822  46.403  1.00  0.00     0.134 A 
ATOM      7  C   UNL     1     113.459  75.031  45.518  1.00  0.00     0.093 A 
ATOM      8  C   UNL     1     113.645  74.916  44.136  1.00  0.00     0.123 A 
ATOM      9  C   UNL     1     114.903  74.586  43.630  1.00  0.00     0.094 A 
ATOM     10  C   UNL     1     115.980  74.370  44.495  1.00  0.00     0.146 A 
ATOM     11  O   UNL     1     117.165  74.053  43.986  1.00  0.00    -0.452 OA
ENDROOT
BRANCH   1  12
ATOM     12  C   UNL     1     119.504  73.470  44.041  1.00  0.00     0.025 A 
ATOM     13  C   UNL     1     120.100  72.207  44.209  1.00  0.00     0.016 A 
ATOM     14  C   UNL     1     121.277  71.883  43.528  1.00  0.00     0.051 A 
ATOM     15  C   UNL     1     121.868  72.812  42.661  1.00  0.00     0.157 A 
ATOM     16  C   UNL     1     120.091  74.388  43.154  1.00  0.00     0.062 A 
ATOM     17  C   UNL     1     121.273  74.064  42.471  1.00  0.00     0.158 A 
BRANCH  15  18
ATOM     18  O   UNL     1     123.043  72.494  41.982  1.00  0.00    -0.504 OA
ATOM     19  H   UNL     1     123.882  72.214  42.477  1.00  0.00     0.293 HD
ENDBRANCH  15  18
BRANCH  17  20
ATOM     20  O   UNL     1     121.859  74.983  41.602  1.00  0.00    -0.504 OA
ATOM     21  H   UNL     1     121.559  75.950  41.572  1.00  0.00     0.293 HD
ENDBRANCH  17  20
ENDBRANCH   1  12
BRANCH   2  22
ATOM     22  O   UNL     1     119.305  73.773  46.920  1.00  0.00    -0.502 OA
ATOM     23  H   UNL     1     119.771  72.880  47.011  1.00  0.00     0.293 HD
ENDBRANCH   2  22
BRANCH   6  24
ATOM     24  O   UNL     1     114.311  74.945  47.776  1.00  0.00    -0.507 OA
ATOM     25  H   UNL     1     113.394  75.148  48.156  1.00  0.00     0.293 HD
ENDBRANCH   6  24
BRANCH   8  26
ATOM     26  O   UNL     1     112.585  75.124  43.257  1.00  0.00    -0.508 OA
ATOM     27  H   UNL     1     112.024  74.354  42.911  1.00  0.00     0.293 HD
ENDBRANCH   8  26
TORSDOF 6
ENDMDL
MODEL 4
REMARK VINA RESULT:    -6.062      1.348      2.914
REMARK INTER + INTRA:          -7.027
REMARK INTER:                  -7.130
REMARK INTRA:                   0.103
REMARK UNBOUND:                 0.275
REMARK SMILES O=c1c(O)c(-c2ccc(O)c(O)c2)oc2cc(O)cc(O)c12
REMARK SMILES IDX 5 1 3 2 2 3 1 4 22 5 20 6 19 7 17 8 16 9 15 10 14 11 6 12
REMARK SMILES IDX 7 13 8 14 9 15 13 16 11 17 10 18 12 20 4 22 21 24 18 26
REMARK H PARENT 10 19 12 21 4 23 21 25 18 27
REMARK Flexibility Score: inf
ROOT
ATOM      1  C   UNL     1     118.056  73.694  44.189  1.00  0.00     0.180 A 
ATOM      2  C   UNL     1     118.022  73.861  42.790  1.00  0.00     0.208 A 
ATOM      3  C   UNL     1     119.148  73.498  42.036  1.00  0.00     0.238 A 
ATOM      4  O   UNL     1     119.125  73.632  40.782  1.00  0.00    -0.285 OA
ATOM      5  C   UNL     1     120.292  72.995  42.689  1.00  0.00     0.111 A 
ATOM      6  C   UNL     1     121.469  72.609  42.004  1.00  0.00     0.134 A 
ATOM      7  C   UNL     1     122.569  72.126  42.727  1.00  0.00     0.093 A 
ATOM      8  C   UNL     1     122.515  72.023  44.122  1.00  0.00     0.123 A 
ATOM      9  C   UNL     1     121.357  72.401  44.802  1.00  0.00     0.094 A 
ATOM     10  C   UNL     1     120.249  72.883  44.099  1.00  0.00     0.146 A 
ATOM     11  O   UNL     1     119.157  73.231  44.772  1.00  0.00    -0.452 OA
ENDROOT
BRANCH   1  12
ATOM     12  C   UNL     1     116.902  74.038  45.050  1.00  0.00     0.025 A 
ATOM     13  C   UNL     1     117.066  74.790  46.228  1.00  0.00     0.016 A 
ATOM     14  C   UNL     1     115.959  75.124  47.013  1.00  0.00     0.051 A 
ATOM     15  C   UNL     1     114.673  74.725  46.626  1.00  0.00     0.157 A 
ATOM     16  C   UNL     1     115.608  73.659  44.657  1.00  0.00     0.062 A 
ATOM     17  C   UNL     1     114.497  73.994  45.445  1.00  0.00     0.158 A 
BRANCH  15  18
ATOM     18  O   UNL     1     113.567  75.055  47.407  1.00  0.00    -0.504 OA
ATOM     19  H   UNL     1     113.238  76.010  47.484  1.00  0.00     0.293 HD
ENDBRANCH  15  18
BRANCH  17  20
ATOM     20  O   UNL     1     113.216  73.604  45.059  1.00  0.00    -0.504 OA
ATOM     21  H   UNL     1     112.667  72.960  45.616  1.00  0.00     0.293 HD
ENDBRANCH  17  20
ENDBRANCH   1  12
BRANCH   2  22
ATOM     22  O   UNL     1     116.894  74.408  42.172  1.00  0.00    -0.502 OA
ATOM     23  H   UNL     1     116.932  75.264  41.634  1.00  0.00     0.293 HD
ENDBRANCH   2  22
BRANCH   6  24
ATOM     24  O   UNL     1     121.553  72.702  40.614  1.00  0.00    -0.507 OA
ATOM     25  H   UNL     1     122.417  72.516  40.118  1.00  0.00     0.293 HD
ENDBRANCH   6  24
BRANCH   8  26
ATOM     26  O   UNL     1     123.608  71.544  44.841  1.00  0.00    -0.508 OA
ATOM     27  H   UNL     1     124.495  71.351  44.391  1.00  0.00     0.293 HD
ENDBRANCH   8  26
TORSDOF 6
ENDMDL
MODEL 5
REMARK VINA RESULT:    -5.792      3.277      6.768
REMARK INTER + INTRA:          -6.702
REMARK INTER:                  -6.503
REMARK INTRA:                  -0.199
REMARK UNBOUND:                 0.275
REMARK SMILES O=c1c(O)c(-c2ccc(O)c(O)c2)oc2cc(O)cc(O)c12
REMARK SMILES IDX 5 1 3 2 2 3 1 4 22 5 20 6 19 7 17 8 16 9 15 10 14 11 6 12
REMARK SMILES IDX 7 13 8 14 9 15 13 16 11 17 10 18 12 20 4 22 21 24 18 26
REMARK H PARENT 10 19 12 21 4 23 21 25 18 27
REMARK Flexibility Score: inf
ROOT
ATOM      1  C   UNL     1     121.481  70.777  45.011  1.00  0.00     0.180 A 
ATOM      2  C   UNL     1     122.436  71.072  44.018  1.00  0.00     0.208 A 
ATOM      3  C   UNL     1     122.217  72.171  43.172  1.00  0.00     0.238 A 
ATOM      4  O   UNL     1     123.070  72.452  42.287  1.00  0.00    -0.285 OA
ATOM      5  C   UNL     1     121.044  72.940  43.318  1.00  0.00     0.111 A 
ATOM      6  C   UNL     1     120.746  74.060  42.505  1.00  0.00     0.134 A 
ATOM      7  C   UNL     1     119.552  74.769  42.707  1.00  0.00     0.093 A 
ATOM      8  C   UNL     1     118.652  74.379  43.704  1.00  0.00     0.123 A 
ATOM      9  C   UNL     1     118.942  73.276  44.509  1.00  0.00     0.094 A 
ATOM     10  C   UNL     1     120.127  72.558  44.325  1.00  0.00     0.146 A 
ATOM     11  O   UNL     1     120.380  71.515  45.109  1.00  0.00    -0.452 OA
ENDROOT
BRANCH   1  12
ATOM     12  C   UNL     1     121.649  69.646  45.951  1.00  0.00     0.025 A 
ATOM     13  C   UNL     1     122.689  69.630  46.899  1.00  0.00     0.016 A 
ATOM     14  C   UNL     1     122.813  68.564  47.794  1.00  0.00     0.051 A 
ATOM     15  C   UNL     1     121.894  67.507  47.765  1.00  0.00     0.157 A 
ATOM     16  C   UNL     1     120.719  68.594  45.942  1.00  0.00     0.062 A 
ATOM     17  C   UNL     1     120.844  67.524  46.839  1.00  0.00     0.158 A 
BRANCH  15  18
ATOM     18  O   UNL     1     122.016  66.442  48.655  1.00  0.00    -0.504 OA
ATOM     19  H   UNL     1     121.235  66.131  49.220  1.00  0.00     0.293 HD
ENDBRANCH  15  18
BRANCH  17  20
ATOM     20  O   UNL     1     119.927  66.474  46.817  1.00  0.00    -0.504 OA
ATOM     21  H   UNL     1     120.193  65.532  47.077  1.00  0.00     0.293 HD
ENDBRANCH  17  20
ENDBRANCH   1  12
BRANCH   2  22
ATOM     22  O   UNL     1     123.566  70.265  43.862  1.00  0.00    -0.502 OA
ATOM     23  H   UNL     1     124.293  70.209  44.563  1.00  0.00     0.293 HD
ENDBRANCH   2  22
BRANCH   6  24
ATOM     24  O   UNL     1     121.624  74.472  41.501  1.00  0.00    -0.507 OA
ATOM     25  H   UNL     1     121.326  75.084  40.750  1.00  0.00     0.293 HD
ENDBRANCH   6  24
BRANCH   8  26
ATOM     26  O   UNL     1     117.466  75.082  43.905  1.00  0.00    -0.508 OA
ATOM     27  H   UNL     1     116.960  75.498  43.133  1.00  0.00     0.293 HD
ENDBRANCH   8  26
TORSDOF 6
ENDMDL
MODEL 6
REMARK VINA RESULT:    -5.712      3.294      5.910
REMARK INTER + INTRA:          -6.606
REMARK INTER:                  -6.273
REMARK INTRA:                  -0.332
REMARK UNBOUND:                 0.275
REMARK SMILES O=c1c(O)c(-c2ccc(O)c(O)c2)oc2cc(O)cc(O)c12
REMARK SMILES IDX 5 1 3 2 2 3 1 4 22 5 20 6 19 7 17 8 16 9 15 10 14 11 6 12
REMARK SMILES IDX 7 13 8 14 9 15 13 16 11 17 10 18 12 20 4 22 21 24 18 26
REMARK H PARENT 10 19 12 21 4 23 21 25 18 27
REMARK Flexibility Score: inf
ROOT
ATOM      1  C   UNL     1     121.099  71.310  44.739  1.00  0.00     0.180 A 
ATOM      2  C   UNL     1     122.203  71.931  45.355  1.00  0.00     0.208 A 
ATOM      3  C   UNL     1     122.864  71.261  46.396  1.00  0.00     0.238 A 
ATOM      4  O   UNL     1     123.862  71.801  46.947  1.00  0.00    -0.285 OA
ATOM      5  C   UNL     1     122.400  69.998  46.818  1.00  0.00     0.111 A 
ATOM      6  C   UNL     1     123.006  69.259  47.862  1.00  0.00     0.134 A 
ATOM      7  C   UNL     1     122.479  68.012  48.229  1.00  0.00     0.093 A 
ATOM      8  C   UNL     1     121.357  67.492  47.574  1.00  0.00     0.123 A 
ATOM      9  C   UNL     1     120.757  68.216  46.543  1.00  0.00     0.094 A 
ATOM     10  C   UNL     1     121.268  69.460  46.161  1.00  0.00     0.146 A 
ATOM     11  O   UNL     1     120.680  70.125  45.173  1.00  0.00    -0.452 OA
ENDROOT
BRANCH   1  12
ATOM     12  C   UNL     1     120.361  71.945  43.623  1.00  0.00     0.025 A 
ATOM     13  C   UNL     1     120.745  71.746  42.285  1.00  0.00     0.016 A 
ATOM     14  C   UNL     1     120.019  72.335  41.246  1.00  0.00     0.051 A 
ATOM     15  C   UNL     1     118.892  73.118  41.528  1.00  0.00     0.157 A 
ATOM     16  C   UNL     1     119.218  72.713  43.898  1.00  0.00     0.062 A 
ATOM     17  C   UNL     1     118.490  73.305  42.856  1.00  0.00     0.158 A 
BRANCH  15  18
ATOM     18  O   UNL     1     118.167  73.708  40.495  1.00  0.00    -0.504 OA
ATOM     19  H   UNL     1     118.628  74.138  39.702  1.00  0.00     0.293 HD
ENDBRANCH  15  18
BRANCH  17  20
ATOM     20  O   UNL     1     117.364  74.079  43.133  1.00  0.00    -0.504 OA
ATOM     21  H   UNL     1     117.423  74.916  43.701  1.00  0.00     0.293 HD
ENDBRANCH  17  20
ENDBRANCH   1  12
BRANCH   2  22
ATOM     22  O   UNL     1     122.613  73.204  44.952  1.00  0.00    -0.502 OA
ATOM     23  H   UNL     1     122.485  73.541  44.006  1.00  0.00     0.293 HD
ENDBRANCH   2  22
BRANCH   6  24
ATOM     24  O   UNL     1     124.125  69.752  48.535  1.00  0.00    -0.507 OA
ATOM     25  H   UNL     1     124.864  69.140  48.861  1.00  0.00     0.293 HD
ENDBRANCH   6  24
BRANCH   8  26
ATOM     26  O   UNL     1     120.832  66.253  47.938  1.00  0.00    -0.508 OA
ATOM     27  H   UNL     1     120.223  66.152  48.741  1.00  0.00     0.293 HD
ENDBRANCH   8  26
TORSDOF 6
ENDMDL
MODEL 7
REMARK VINA RESULT:    -5.586      1.614      7.134
REMARK INTER + INTRA:          -6.454
REMARK INTER:                  -6.431
REMARK INTRA:                  -0.023
REMARK UNBOUND:                 0.275
REMARK SMILES O=c1c(O)c(-c2ccc(O)c(O)c2)oc2cc(O)cc(O)c12
REMARK SMILES IDX 5 1 3 2 2 3 1 4 22 5 20 6 19 7 17 8 16 9 15 10 14 11 6 12
REMARK SMILES IDX 7 13 8 14 9 15 13 16 11 17 10 18 12 20 4 22 21 24 18 26
REMARK H PARENT 10 19 12 21 4 23 21 25 18 27
REMARK Flexibility Score: inf
ROOT
ATOM      1  C   UNL     1     117.746  73.732  44.124  1.00  0.00     0.180 A 
ATOM      2  C   UNL     1     116.728  74.384  43.400  1.00  0.00     0.208 A 
ATOM      3  C   UNL     1     115.464  74.532  43.992  1.00  0.00     0.238 A 
ATOM      4  O   UNL     1     114.547  75.124  43.359  1.00  0.00    -0.285 OA
ATOM      5  C   UNL     1     115.233  74.011  45.282  1.00  0.00     0.111 A 
ATOM      6  C   UNL     1     113.987  74.114  45.947  1.00  0.00     0.134 A 
ATOM      7  C   UNL     1     113.834  73.562  47.228  1.00  0.00     0.093 A 
ATOM      8  C   UNL     1     114.901  72.908  47.853  1.00  0.00     0.123 A 
ATOM      9  C   UNL     1     116.131  72.804  47.202  1.00  0.00     0.094 A 
ATOM     10  C   UNL     1     116.304  73.350  45.927  1.00  0.00     0.146 A 
ATOM     11  O   UNL     1     117.487  73.241  45.332  1.00  0.00    -0.452 OA
ENDROOT
BRANCH   1  12
ATOM     12  C   UNL     1     119.109  73.553  43.575  1.00  0.00     0.025 A 
ATOM     13  C   UNL     1     120.248  73.953  44.298  1.00  0.00     0.016 A 
ATOM     14  C   UNL     1     121.526  73.751  43.771  1.00  0.00     0.051 A 
ATOM     15  C   UNL     1     121.686  73.135  42.522  1.00  0.00     0.157 A 
ATOM     16  C   UNL     1     119.277  72.917  42.334  1.00  0.00     0.062 A 
ATOM     17  C   UNL     1     120.560  72.715  41.805  1.00  0.00     0.158 A 
BRANCH  15  18
ATOM     18  O   UNL     1     122.959  72.934  41.993  1.00  0.00    -0.504 OA
ATOM     19  H   UNL     1     123.093  72.568  41.058  1.00  0.00     0.293 HD
ENDBRANCH  15  18
BRANCH  17  20
ATOM     20  O   UNL     1     120.722  72.096  40.566  1.00  0.00    -0.504 OA
ATOM     21  H   UNL     1     120.239  72.429  39.740  1.00  0.00     0.293 HD
ENDBRANCH  17  20
ENDBRANCH   1  12
BRANCH   2  22
ATOM     22  O   UNL     1     116.968  74.847  42.104  1.00  0.00    -0.502 OA
ATOM     23  H   UNL     1     116.317  75.446  41.613  1.00  0.00     0.293 HD
ENDBRANCH   2  22
BRANCH   6  24
ATOM     24  O   UNL     1     112.905  74.760  45.348  1.00  0.00    -0.507 OA
ATOM     25  H   UNL     1     112.995  75.239  44.459  1.00  0.00     0.293 HD
ENDBRANCH   6  24
BRANCH   8  26
ATOM     26  O   UNL     1     114.750  72.358  49.125  1.00  0.00    -0.508 OA
ATOM     27  H   UNL     1     113.840  72.284  49.565  1.00  0.00     0.293 HD
ENDBRANCH   8  26
TORSDOF 6
ENDMDL
MODEL 8
REMARK VINA RESULT:    -5.391      2.172      3.072
REMARK INTER + INTRA:          -6.219
REMARK INTER:                  -5.964
REMARK INTRA:                  -0.255
REMARK UNBOUND:                 0.275
REMARK SMILES O=c1c(O)c(-c2ccc(O)c(O)c2)oc2cc(O)cc(O)c12
REMARK SMILES IDX 5 1 3 2 2 3 1 4 22 5 20 6 19 7 17 8 16 9 15 10 14 11 6 12
REMARK SMILES IDX 7 13 8 14 9 15 13 16 11 17 10 18 12 20 4 22 21 24 18 26
REMARK H PARENT 10 19 12 21 4 23 21 25 18 27
REMARK Flexibility Score: inf
ROOT
ATOM      1  C   UNL     1     119.613  73.336  45.010  1.00  0.00     0.180 A 
ATOM      2  C   UNL     1     120.124  73.729  46.262  1.00  0.00     0.208 A 
ATOM      3  C   UNL     1     121.398  73.283  46.644  1.00  0.00     0.238 A 
ATOM      4  O   UNL     1     121.872  73.638  47.758  1.00  0.00    -0.285 OA
ATOM      5  C   UNL     1     122.129  72.439  45.783  1.00  0.00     0.111 A 
ATOM      6  C   UNL     1     123.418  71.942  46.094  1.00  0.00     0.134 A 
ATOM      7  C   UNL     1     124.076  71.099  45.186  1.00  0.00     0.093 A 
ATOM      8  C   UNL     1     123.470  70.743  43.976  1.00  0.00     0.123 A 
ATOM      9  C   UNL     1     122.201  71.230  43.665  1.00  0.00     0.094 A 
ATOM     10  C   UNL     1     121.529  72.074  44.555  1.00  0.00     0.146 A 
ATOM     11  O   UNL     1     120.323  72.528  44.230  1.00  0.00    -0.452 OA
ENDROOT
BRANCH   1  12
ATOM     12  C   UNL     1     118.284  73.780  44.529  1.00  0.00     0.025 A 
ATOM     13  C   UNL     1     118.158  74.733  43.502  1.00  0.00     0.016 A 
ATOM     14  C   UNL     1     116.895  75.119  43.047  1.00  0.00     0.051 A 
ATOM     15  C   UNL     1     115.741  74.548  43.600  1.00  0.00     0.157 A 
ATOM     16  C   UNL     1     117.124  73.196  45.064  1.00  0.00     0.062 A 
ATOM     17  C   UNL     1     115.856  73.583  44.608  1.00  0.00     0.158 A 
BRANCH  15  18
ATOM     18  O   UNL     1     114.479  74.931  43.149  1.00  0.00    -0.504 OA
ATOM     19  H   UNL     1     114.318  75.841  42.732  1.00  0.00     0.293 HD
ENDBRANCH  15  18
BRANCH  17  20
ATOM     20  O   UNL     1     114.707  73.012  45.151  1.00  0.00    -0.504 OA
ATOM     21  H   UNL     1     113.781  73.331  44.890  1.00  0.00     0.293 HD
ENDBRANCH  17  20
ENDBRANCH   1  12
BRANCH   2  22
ATOM     22  O   UNL     1     119.360  74.526  47.119  1.00  0.00    -0.502 OA
ATOM     23  H   UNL     1     118.552  75.045  46.800  1.00  0.00     0.293 HD
ENDBRANCH   2  22
BRANCH   6  24
ATOM     24  O   UNL     1     124.047  72.279  47.293  1.00  0.00    -0.507 OA
ATOM     25  H   UNL     1     124.410  71.572  47.922  1.00  0.00     0.293 HD
ENDBRANCH   6  24
BRANCH   8  26
ATOM     26  O   UNL     1     124.124  69.905  43.075  1.00  0.00    -0.508 OA
ATOM     27  H   UNL     1     124.465  68.992  43.352  1.00  0.00     0.293 HD
ENDBRANCH   8  26
TORSDOF 6
ENDMDL
