MODEL 1
REMARK VINA RESULT:    -4.678      0.000      0.000
REMARK INTER + INTRA:          -7.364
REMARK INTER:                  -6.319
REMARK INTRA:                  -1.046
REMARK UNBOUND:                -1.046
REMARK SMILES CC(=O)CCC=C(C)CCC=C(C)C
REMARK SMILES IDX 7 1 6 2 8 3 9 4 10 5 11 6 13 7 12 8 14 9 5 10 4 11 2 12 3 13
REMARK SMILES IDX 1 14
REMARK H PARENT
REMARK Flexibility Score: inf
ROOT
ATOM      1  C   UNL     1       8.943  -3.394  42.405  1.00  0.00    -0.077 C 
ATOM      2  C   UNL     1       7.812  -4.102  42.630  1.00  0.00    -0.028 C 
ATOM      3  C   UNL     1      10.298  -4.058  42.331  1.00  0.00     0.039 C 
ENDROOT
BRANCH   1   4
ATOM      4  C   UNL     1       8.842  -1.898  42.209  1.00  0.00     0.034 C 
BRANCH   4   5
ATOM      5  C   UNL     1       9.215  -1.508  40.773  1.00  0.00     0.032 C 
BRANCH   5   6
ATOM      6  C   UNL     1       7.998  -1.523  39.882  1.00  0.00    -0.028 C 
ATOM      7  C   UNL     1       8.639  -3.680  38.779  1.00  0.00     0.039 C 
ATOM      8  C   UNL     1       7.714  -2.505  38.998  1.00  0.00    -0.080 C 
ATOM      9  C   UNL     1       6.440  -2.405  38.198  1.00  0.00     0.039 C 
ENDBRANCH   5   6
ENDBRANCH   4   5
ENDBRANCH   1   4
BRANCH   2  10
ATOM     10  C   UNL     1       7.768  -5.591  42.882  1.00  0.00     0.035 C 
BRANCH  10  11
ATOM     11  C   UNL     1       7.506  -6.386  41.596  1.00  0.00     0.079 C 
BRANCH  11  12
ATOM     12  C   UNL     1       8.235  -7.706  41.596  1.00  0.00     0.130 C 
ATOM     13  O   UNL     1       9.456  -7.720  41.624  1.00  0.00    -0.300 OA
ATOM     14  C   UNL     1       7.492  -9.007  41.546  1.00  0.00     0.087 C 
ENDBRANCH  11  12
ENDBRANCH  10  11
ENDBRANCH   2  10
TORSDOF 6
ENDMDL
MODEL 2
REMARK VINA RESULT:    -4.631      3.425      6.625
REMARK INTER + INTRA:          -7.301
REMARK INTER:                  -6.609
REMARK INTRA:                  -0.692
REMARK UNBOUND:                -1.046
REMARK SMILES CC(=O)CCC=C(C)CCC=C(C)C
REMARK SMILES IDX 7 1 6 2 8 3 9 4 10 5 11 6 13 7 12 8 14 9 5 10 4 11 2 12 3 13
REMARK SMILES IDX 1 14
REMARK H PARENT
REMARK Flexibility Score: inf
ROOT
ATOM      1  C   UNL     1       7.757  -3.065  38.157  1.00  0.00    -0.077 C 
ATOM      2  C   UNL     1       6.743  -2.218  38.448  1.00  0.00    -0.028 C 
ATOM      3  C   UNL     1       7.854  -3.765  36.822  1.00  0.00     0.039 C 
ENDROOT
BRANCH   1   4
ATOM      4  C   UNL     1       8.830  -3.306  39.196  1.00  0.00     0.034 C 
BRANCH   4   5
ATOM      5  C   UNL     1       8.209  -3.683  40.546  1.00  0.00     0.032 C 
BRANCH   5   6
ATOM      6  C   UNL     1       8.204  -5.180  40.733  1.00  0.00    -0.028 C 
ATOM      7  C   UNL     1       7.213  -5.048  43.030  1.00  0.00     0.039 C 
ATOM      8  C   UNL     1       7.737  -5.809  41.834  1.00  0.00    -0.080 C 
ATOM      9  C   UNL     1       7.762  -7.316  41.866  1.00  0.00     0.039 C 
ENDBRANCH   5   6
ENDBRANCH   4   5
ENDBRANCH   1   4
BRANCH   2  10
ATOM     10  C   UNL     1       5.587  -1.916  37.525  1.00  0.00     0.035 C 
BRANCH  10  11
ATOM     11  C   UNL     1       5.651  -0.487  36.969  1.00  0.00     0.079 C 
BRANCH  11  12
ATOM     12  C   UNL     1       6.059  -0.470  35.517  1.00  0.00     0.130 C 
ATOM     13  O   UNL     1       6.654   0.499  35.070  1.00  0.00    -0.300 OA
ATOM     14  C   UNL     1       5.736  -1.613  34.602  1.00  0.00     0.087 C 
ENDBRANCH  11  12
ENDBRANCH  10  11
ENDBRANCH   2  10
TORSDOF 6
ENDMDL
MODEL 3
REMARK VINA RESULT:    -4.577      2.228      5.663
REMARK INTER + INTRA:          -7.228
REMARK INTER:                  -6.734
REMARK INTRA:                  -0.494
REMARK UNBOUND:                -1.046
REMARK SMILES CC(=O)CCC=C(C)CCC=C(C)C
REMARK SMILES IDX 7 1 6 2 8 3 9 4 10 5 11 6 13 7 12 8 14 9 5 10 4 11 2 12 3 13
REMARK SMILES IDX 1 14
REMARK H PARENT
REMARK Flexibility Score: inf
ROOT
ATOM      1  C   UNL     1       8.045  -4.327  42.053  1.00  0.00    -0.077 C 
ATOM      2  C   UNL     1       7.864  -4.391  40.713  1.00  0.00    -0.028 C 
ATOM      3  C   UNL     1       8.455  -3.047  42.743  1.00  0.00     0.039 C 
ENDROOT
BRANCH   1   4
ATOM      4  C   UNL     1       7.816  -5.571  42.882  1.00  0.00     0.034 C 
BRANCH   4   5
ATOM      5  C   UNL     1       8.775  -6.692  42.462  1.00  0.00     0.032 C 
BRANCH   5   6
ATOM      6  C   UNL     1       8.049  -7.744  41.661  1.00  0.00    -0.028 C 
ATOM      7  C   UNL     1       7.772  -9.274  43.626  1.00  0.00     0.039 C 
ATOM      8  C   UNL     1       7.571  -8.899  42.175  1.00  0.00    -0.080 C 
ATOM      9  C   UNL     1       6.833  -9.842  41.261  1.00  0.00     0.039 C 
ENDBRANCH   5   6
ENDBRANCH   4   5
ENDBRANCH   1   4
BRANCH   2  10
ATOM     10  C   UNL     1       8.095  -3.241  39.762  1.00  0.00     0.035 C 
BRANCH  10  11
ATOM     11  C   UNL     1       8.320  -3.720  38.321  1.00  0.00     0.079 C 
BRANCH  11  12
ATOM     12  C   UNL     1       7.181  -3.323  37.416  1.00  0.00     0.130 C 
ATOM     13  O   UNL     1       7.131  -3.769  36.279  1.00  0.00    -0.300 OA
ATOM     14  C   UNL     1       6.112  -2.377  37.875  1.00  0.00     0.087 C 
ENDBRANCH  11  12
ENDBRANCH  10  11
ENDBRANCH   2  10
TORSDOF 6
ENDMDL
MODEL 4
REMARK VINA RESULT:    -4.576      1.783      3.036
REMARK INTER + INTRA:          -7.227
REMARK INTER:                  -6.455
REMARK INTRA:                  -0.772
REMARK UNBOUND:                -1.046
REMARK SMILES CC(=O)CCC=C(C)CCC=C(C)C
REMARK SMILES IDX 7 1 6 2 8 3 9 4 10 5 11 6 13 7 12 8 14 9 5 10 4 11 2 12 3 13
REMARK SMILES IDX 1 14
REMARK H PARENT
REMARK Flexibility Score: inf
ROOT
ATOM      1  C   UNL     1       7.842  -6.361  42.906  1.00  0.00    -0.077 C 
ATOM      2  C   UNL     1       8.038  -7.038  41.751  1.00  0.00    -0.028 C 
ATOM      3  C   UNL     1       7.938  -7.036  44.254  1.00  0.00     0.039 C 
ENDROOT
BRANCH   1   4
ATOM      4  C   UNL     1       7.531  -4.882  42.843  1.00  0.00     0.034 C 
BRANCH   4   5
ATOM      5  C   UNL     1       8.757  -4.084  42.381  1.00  0.00     0.032 C 
BRANCH   5   6
ATOM      6  C   UNL     1       8.339  -2.895  41.553  1.00  0.00    -0.028 C 
ATOM      7  C   UNL     1       8.439  -4.165  39.395  1.00  0.00     0.039 C 
ATOM      8  C   UNL     1       8.169  -2.922  40.212  1.00  0.00    -0.080 C 
ATOM      9  C   UNL     1       7.713  -1.663  39.520  1.00  0.00     0.039 C 
ENDBRANCH   5   6
ENDBRANCH   4   5
ENDBRANCH   1   4
BRANCH   2  10
ATOM     10  C   UNL     1       8.316  -8.520  41.664  1.00  0.00     0.035 C 
BRANCH  10  11
ATOM     11  C   UNL     1       7.079  -9.313  41.220  1.00  0.00     0.079 C 
BRANCH  11  12
ATOM     12  C   UNL     1       6.819 -10.494  42.121  1.00  0.00     0.130 C 
ATOM     13  O   UNL     1       6.424 -11.545  41.639  1.00  0.00    -0.300 OA
ATOM     14  C   UNL     1       7.019 -10.402  43.605  1.00  0.00     0.087 C 
ENDBRANCH  11  12
ENDBRANCH  10  11
ENDBRANCH   2  10
TORSDOF 6
ENDMDL
MODEL 5
REMARK VINA RESULT:    -4.527      3.435      7.990
REMARK INTER + INTRA:          -7.161
REMARK INTER:                  -6.276
REMARK INTRA:                  -0.885
REMARK UNBOUND:                -1.046
REMARK SMILES CC(=O)CCC=C(C)CCC=C(C)C
REMARK SMILES IDX 7 1 6 2 8 3 9 4 10 5 11 6 13 7 12 8 14 9 5 10 4 11 2 12 3 13
REMARK SMILES IDX 1 14
REMARK H PARENT
REMARK Flexibility Score: inf
ROOT
ATOM      1  C   UNL     1       6.345 -10.579  42.518  1.00  0.00    -0.077 C 
ATOM      2  C   UNL     1       6.824  -9.736  41.573  1.00  0.00    -0.028 C 
ATOM      3  C   UNL     1       7.042 -10.769  43.844  1.00  0.00     0.039 C 
ENDROOT
BRANCH   1   4
ATOM      4  C   UNL     1       5.069 -11.341  42.239  1.00  0.00     0.034 C 
BRANCH   4   5
ATOM      5  C   UNL     1       4.875 -11.550  40.732  1.00  0.00     0.032 C 
BRANCH   5   6
ATOM      6  C   UNL     1       5.278 -12.947  40.330  1.00  0.00    -0.028 C 
ATOM      7  C   UNL     1       7.065 -12.150  38.765  1.00  0.00     0.039 C 
ATOM      8  C   UNL     1       6.277 -13.233  39.465  1.00  0.00    -0.080 C 
ATOM      9  C   UNL     1       6.592 -14.680  39.185  1.00  0.00     0.039 C 
ENDBRANCH   5   6
ENDBRANCH   4   5
ENDBRANCH   1   4
BRANCH   2  10
ATOM     10  C   UNL     1       8.103  -8.944  41.700  1.00  0.00     0.035 C 
BRANCH  10  11
ATOM     11  C   UNL     1       7.867  -7.436  41.541  1.00  0.00     0.079 C 
BRANCH  11  12
ATOM     12  C   UNL     1       7.888  -6.723  42.870  1.00  0.00     0.130 C 
ATOM     13  O   UNL     1       8.250  -7.324  43.871  1.00  0.00    -0.300 OA
ATOM     14  C   UNL     1       7.457  -5.293  42.995  1.00  0.00     0.087 C 
ENDBRANCH  11  12
ENDBRANCH  10  11
ENDBRANCH   2  10
TORSDOF 6
ENDMDL
MODEL 6
REMARK VINA RESULT:    -4.517      2.244      6.576
REMARK INTER + INTRA:          -7.147
REMARK INTER:                  -6.288
REMARK INTRA:                  -0.858
REMARK UNBOUND:                -1.046
REMARK SMILES CC(=O)CCC=C(C)CCC=C(C)C
REMARK SMILES IDX 7 1 6 2 8 3 9 4 10 5 11 6 13 7 12 8 14 9 5 10 4 11 2 12 3 13
REMARK SMILES IDX 1 14
REMARK H PARENT
REMARK Flexibility Score: inf
ROOT
ATOM      1  C   UNL     1       8.000  -7.204  42.071  1.00  0.00    -0.077 C 
ATOM      2  C   UNL     1       7.497  -5.950  42.005  1.00  0.00    -0.028 C 
ATOM      3  C   UNL     1       9.235  -7.528  42.879  1.00  0.00     0.039 C 
ENDROOT
BRANCH   1   4
ATOM      4  C   UNL     1       7.297  -8.315  41.323  1.00  0.00     0.034 C 
BRANCH   4   5
ATOM      5  C   UNL     1       7.851  -9.685  41.730  1.00  0.00     0.032 C 
BRANCH   5   6
ATOM      6  C   UNL     1       6.746 -10.585  42.223  1.00  0.00    -0.028 C 
ATOM      7  C   UNL     1       7.281 -10.183  44.637  1.00  0.00     0.039 C 
ATOM      8  C   UNL     1       6.462 -10.799  43.527  1.00  0.00    -0.080 C 
ATOM      9  C   UNL     1       5.301 -11.697  43.871  1.00  0.00     0.039 C 
ENDBRANCH   5   6
ENDBRANCH   4   5
ENDBRANCH   1   4
BRANCH   2  10
ATOM     10  C   UNL     1       8.117  -4.742  42.667  1.00  0.00     0.035 C 
BRANCH  10  11
ATOM     11  C   UNL     1       8.804  -3.818  41.652  1.00  0.00     0.079 C 
BRANCH  11  12
ATOM     12  C   UNL     1      10.248  -4.196  41.438  1.00  0.00     0.130 C 
ATOM     13  O   UNL     1      10.526  -5.098  40.662  1.00  0.00    -0.300 OA
ATOM     14  C   UNL     1      11.354  -3.499  42.172  1.00  0.00     0.087 C 
ENDBRANCH  11  12
ENDBRANCH  10  11
ENDBRANCH   2  10
TORSDOF 6
ENDMDL
MODEL 7
REMARK VINA RESULT:    -4.502      1.838      3.164
REMARK INTER + INTRA:          -7.126
REMARK INTER:                  -6.336
REMARK INTRA:                  -0.790
REMARK UNBOUND:                -1.046
REMARK SMILES CC(=O)CCC=C(C)CCC=C(C)C
REMARK SMILES IDX 7 1 6 2 8 3 9 4 10 5 11 6 13 7 12 8 14 9 5 10 4 11 2 12 3 13
REMARK SMILES IDX 1 14
REMARK H PARENT
REMARK Flexibility Score: inf
ROOT
ATOM      1  C   UNL     1       8.162  -2.781  40.023  1.00  0.00    -0.077 C 
ATOM      2  C   UNL     1       8.342  -4.080  39.689  1.00  0.00    -0.028 C 
ATOM      3  C   UNL     1       8.580  -2.238  41.369  1.00  0.00     0.039 C 
ENDROOT
BRANCH   1   4
ATOM      4  C   UNL     1       7.535  -1.846  39.013  1.00  0.00     0.034 C 
BRANCH   4   5
ATOM      5  C   UNL     1       6.401  -2.544  38.251  1.00  0.00     0.032 C 
BRANCH   5   6
ATOM      6  C   UNL     1       6.120  -1.839  36.948  1.00  0.00    -0.028 C 
ATOM      7  C   UNL     1       7.243  -3.604  35.569  1.00  0.00     0.039 C 
ATOM      8  C   UNL     1       6.470  -2.315  35.733  1.00  0.00    -0.080 C 
ATOM      9  C   UNL     1       6.089  -1.518  34.512  1.00  0.00     0.039 C 
ENDBRANCH   5   6
ENDBRANCH   4   5
ENDBRANCH   1   4
BRANCH   2  10
ATOM     10  C   UNL     1       8.917  -5.130  40.610  1.00  0.00     0.035 C 
BRANCH  10  11
ATOM     11  C   UNL     1       7.824  -5.996  41.251  1.00  0.00     0.079 C 
BRANCH  11  12
ATOM     12  C   UNL     1       7.813  -5.863  42.753  1.00  0.00     0.130 C 
ATOM     13  O   UNL     1       8.476  -6.633  43.431  1.00  0.00    -0.300 OA
ATOM     14  C   UNL     1       6.992  -4.811  43.437  1.00  0.00     0.087 C 
ENDBRANCH  11  12
ENDBRANCH  10  11
ENDBRANCH   2  10
TORSDOF 6
ENDMDL
MODEL 8
REMARK VINA RESULT:    -4.450      2.797      5.683
REMARK INTER + INTRA:          -7.057
REMARK INTER:                  -6.515
REMARK INTRA:                  -0.542
REMARK UNBOUND:                -1.046
REMARK SMILES CC(=O)CCC=C(C)CCC=C(C)C
REMARK SMILES IDX 7 1 6 2 8 3 9 4 10 5 11 6 13 7 12 8 14 9 5 10 4 11 2 12 3 13
REMARK SMILES IDX 1 14
REMARK H PARENT
REMARK Flexibility Score: inf
ROOT
ATOM      1  C   UNL     1       8.275  -3.012  40.511  1.00  0.00    -0.077 C 
ATOM      2  C   UNL     1       7.773  -3.301  39.288  1.00  0.00    -0.028 C 
ATOM      3  C   UNL     1       8.257  -1.609  41.070  1.00  0.00     0.039 C 
ENDROOT
BRANCH   1   4
ATOM      4  C   UNL     1       8.860  -4.130  41.344  1.00  0.00     0.034 C 
BRANCH   4   5
ATOM      5  C   UNL     1       7.766  -4.842  42.150  1.00  0.00     0.032 C 
BRANCH   5   6
ATOM      6  C   UNL     1       7.496  -6.215  41.588  1.00  0.00    -0.028 C 
ATOM      7  C   UNL     1       8.878  -7.371  43.329  1.00  0.00     0.039 C 
ATOM      8  C   UNL     1       7.970  -7.363  42.121  1.00  0.00    -0.080 C 
ATOM      9  C   UNL     1       7.587  -8.669  41.472  1.00  0.00     0.039 C 
ENDBRANCH   5   6
ENDBRANCH   4   5
ENDBRANCH   1   4
BRANCH   2  10
ATOM     10  C   UNL     1       7.197  -2.280  38.336  1.00  0.00     0.035 C 
BRANCH  10  11
ATOM     11  C   UNL     1       6.409  -2.937  37.194  1.00  0.00     0.079 C 
BRANCH  11  12
ATOM     12  C   UNL     1       7.209  -2.983  35.916  1.00  0.00     0.130 C 
ATOM     13  O   UNL     1       7.112  -2.068  35.112  1.00  0.00    -0.300 OA
ATOM     14  C   UNL     1       8.111  -4.138  35.602  1.00  0.00     0.087 C 
ENDBRANCH  11  12
ENDBRANCH  10  11
ENDBRANCH   2  10
TORSDOF 6
ENDMDL
MODEL 9
REMARK VINA RESULT:    -4.396      2.343      4.242
REMARK INTER + INTRA:          -6.984
REMARK INTER:                  -6.346
REMARK INTRA:                  -0.639
REMARK UNBOUND:                -1.046
REMARK SMILES CC(=O)CCC=C(C)CCC=C(C)C
REMARK SMILES IDX 7 1 6 2 8 3 9 4 10 5 11 6 13 7 12 8 14 9 5 10 4 11 2 12 3 13
REMARK SMILES IDX 1 14
REMARK H PARENT
REMARK Flexibility Score: inf
ROOT
ATOM      1  C   UNL     1       7.613  -2.636  39.066  1.00  0.00    -0.077 C 
ATOM      2  C   UNL     1       7.829  -1.982  40.231  1.00  0.00    -0.028 C 
ATOM      3  C   UNL     1       8.539  -3.725  38.577  1.00  0.00     0.039 C 
ENDROOT
BRANCH   1   4
ATOM      4  C   UNL     1       6.401  -2.272  38.237  1.00  0.00     0.034 C 
BRANCH   4   5
ATOM      5  C   UNL     1       6.801  -1.960  36.790  1.00  0.00     0.032 C 
BRANCH   5   6
ATOM      6  C   UNL     1       6.311  -0.594  36.382  1.00  0.00    -0.028 C 
ATOM      7  C   UNL     1       5.479  -1.384  34.155  1.00  0.00     0.039 C 
ATOM      8  C   UNL     1       5.693  -0.324  35.211  1.00  0.00    -0.080 C 
ATOM      9  C   UNL     1       5.223   1.085  34.954  1.00  0.00     0.039 C 
ENDBRANCH   5   6
ENDBRANCH   4   5
ENDBRANCH   1   4
BRANCH   2  10
ATOM     10  C   UNL     1       9.016  -2.214  41.136  1.00  0.00     0.035 C 
BRANCH  10  11
ATOM     11  C   UNL     1       8.604  -2.829  42.480  1.00  0.00     0.079 C 
BRANCH  11  12
ATOM     12  C   UNL     1       8.666  -4.336  42.448  1.00  0.00     0.130 C 
ATOM     13  O   UNL     1       9.753  -4.894  42.423  1.00  0.00    -0.300 OA
ATOM     14  C   UNL     1       7.419  -5.168  42.431  1.00  0.00     0.087 C 
ENDBRANCH  11  12
ENDBRANCH  10  11
ENDBRANCH   2  10
TORSDOF 6
ENDMDL
