MODEL 1
REMARK VINA RESULT:    -3.751      0.000      0.000
REMARK INTER + INTRA:          -4.922
REMARK INTER:                  -5.286
REMARK INTRA:                   0.364
REMARK UNBOUND:                 0.364
REMARK SMILES CC1=CCC(=C(C)C)C(=O)CC(C)=CCC1
REMARK SMILES IDX 12 1 14 2 13 3 15 4 16 5 2 6 1 7 3 8 11 10 9 11 10 12 5 13
REMARK SMILES IDX 6 14 7 15 8 16 4 17
REMARK H PARENT
REMARK Flexibility Score: 60.00
ROOT
ATOM      1  C   UNL     1      -1.563   2.320  -3.757  1.00  0.00    -0.070 C 
ATOM      2  C   UNL     1      -2.839   2.627  -4.089  1.00  0.00    -0.027 C 
ATOM      3  C   UNL     1      -0.837   3.271  -2.837  1.00  0.00     0.039 C 
ENDROOT
BRANCH   2   4
ATOM      4  C   UNL     1      -3.781   1.772  -4.904  1.00  0.00     0.032 C 
BRANCH   4   5
ATOM      5  C   UNL     1      -4.447   0.664  -4.067  1.00  0.00     0.034 C 
BRANCH   5   6
ATOM      6  C   UNL     1      -4.526  -0.651  -4.818  1.00  0.00    -0.077 C 
ATOM      7  C   UNL     1      -5.455  -0.744  -6.003  1.00  0.00     0.039 C 
ATOM      8  C   UNL     1      -3.830  -1.757  -4.471  1.00  0.00    -0.023 CG0
ATOM      9  G   UNL     1      -2.882  -1.872  -3.302  1.00  0.00     0.000 G0
ENDBRANCH   5   6
ENDBRANCH   4   5
ENDBRANCH   2   4
BRANCH   1  10
ATOM     10  C   UNL     1      -0.856   1.051  -4.202  1.00  0.00     0.111 C 
BRANCH  10  11
ATOM     11  C   UNL     1      -1.067  -0.076  -3.221  1.00  0.00     0.163 C 
ATOM     12  O   UNL     1      -0.843   0.151  -2.001  1.00  0.00    -0.294 OA
BRANCH  11  13
ATOM     13  C   UNL     1      -1.477  -1.445  -3.663  1.00  0.00    -0.002 C 
ATOM     14  C   UNL     1      -0.614  -2.277  -4.320  1.00  0.00    -0.069 C 
ATOM     15  C   UNL     1      -1.049  -3.645  -4.799  1.00  0.00     0.039 C 
ATOM     16  C   UNL     1       0.826  -1.887  -4.570  1.00  0.00     0.039 C 
BRANCH  13  17
ATOM     17  C   UNL     1      -2.875  -1.901  -3.286  1.00  0.00     0.066 CG0
ATOM     18  G   UNL     1      -3.801  -1.741  -4.468  1.00  0.00     0.000 G0
ENDBRANCH  13  17
ENDBRANCH  11  13
ENDBRANCH  10  11
ENDBRANCH   1  10
TORSDOF 0
ENDMDL
MODEL 2
REMARK VINA RESULT:    -3.595      1.510      3.728
REMARK INTER + INTRA:          -4.701
REMARK INTER:                  -5.434
REMARK INTRA:                   0.733
REMARK UNBOUND:                 0.364
REMARK SMILES CC1=CCC(=C(C)C)C(=O)CC(C)=CCC1
REMARK SMILES IDX 12 1 14 2 13 3 15 4 16 5 2 6 1 7 3 8 11 10 9 11 10 12 5 13
REMARK SMILES IDX 6 14 7 15 8 16 4 17
REMARK H PARENT
REMARK Flexibility Score: 60.00
ROOT
ATOM      1  C   UNL     1      -4.494   0.404  -4.887  1.00  0.00    -0.070 C 
ATOM      2  C   UNL     1      -4.094   1.594  -5.396  1.00  0.00    -0.027 C 
ATOM      3  C   UNL     1      -4.823  -0.696  -5.867  1.00  0.00     0.039 C 
ENDROOT
BRANCH   2   4
ATOM      4  C   UNL     1      -3.618   2.789  -4.605  1.00  0.00     0.032 C 
BRANCH   4   5
ATOM      5  C   UNL     1      -2.143   3.132  -4.882  1.00  0.00     0.034 C 
BRANCH   5   6
ATOM      6  C   UNL     1      -1.230   2.690  -3.755  1.00  0.00    -0.077 C 
ATOM      7  C   UNL     1      -0.705   3.739  -2.806  1.00  0.00     0.039 C 
ATOM      8  C   UNL     1      -0.836   1.411  -3.565  1.00  0.00    -0.023 CG0
ATOM      9  G   UNL     1      -1.224   0.232  -4.424  1.00  0.00     0.000 G0
ENDBRANCH   5   6
ENDBRANCH   4   5
ENDBRANCH   2   4
BRANCH   1  10
ATOM     10  C   UNL     1      -4.565   0.103  -3.400  1.00  0.00     0.111 C 
BRANCH  10  11
ATOM     11  C   UNL     1      -3.195  -0.148  -2.818  1.00  0.00     0.163 C 
ATOM     12  O   UNL     1      -2.983   0.206  -1.627  1.00  0.00    -0.294 OA
BRANCH  11  13
ATOM     13  C   UNL     1      -2.089  -0.748  -3.627  1.00  0.00    -0.002 C 
ATOM     14  C   UNL     1      -1.909  -2.102  -3.706  1.00  0.00    -0.069 C 
ATOM     15  C   UNL     1      -0.764  -2.699  -4.496  1.00  0.00     0.039 C 
ATOM     16  C   UNL     1      -2.862  -3.068  -3.040  1.00  0.00     0.039 C 
BRANCH  13  17
ATOM     17  C   UNL     1      -1.216   0.208  -4.420  1.00  0.00     0.066 CG0
ATOM     18  G   UNL     1      -0.850   1.396  -3.562  1.00  0.00     0.000 G0
ENDBRANCH  13  17
ENDBRANCH  11  13
ENDBRANCH  10  11
ENDBRANCH   1  10
TORSDOF 0
ENDMDL
MODEL 3
REMARK VINA RESULT:    -3.573      2.805      5.950
REMARK INTER + INTRA:          -4.670
REMARK INTER:                  -4.999
REMARK INTRA:                   0.329
REMARK UNBOUND:                 0.364
REMARK SMILES CC1=CCC(=C(C)C)C(=O)CC(C)=CCC1
REMARK SMILES IDX 12 1 14 2 13 3 15 4 16 5 2 6 1 7 3 8 11 10 9 11 10 12 5 13
REMARK SMILES IDX 6 14 7 15 8 16 4 17
REMARK H PARENT
REMARK Flexibility Score: 60.00
ROOT
ATOM      1  C   UNL     1      -0.424  -2.220  -4.829  1.00  0.00    -0.070 C 
ATOM      2  C   UNL     1       0.776  -2.666  -5.272  1.00  0.00    -0.027 C 
ATOM      3  C   UNL     1      -1.364  -3.237  -4.227  1.00  0.00     0.039 C 
ENDROOT
BRANCH   2   4
ATOM      4  C   UNL     1       1.902  -1.815  -5.808  1.00  0.00     0.032 C 
BRANCH   4   5
ATOM      5  C   UNL     1       2.699  -1.116  -4.691  1.00  0.00     0.034 C 
BRANCH   5   6
ATOM      6  C   UNL     1       2.974   0.341  -5.009  1.00  0.00    -0.077 C 
ATOM      7  C   UNL     1       3.885   0.661  -6.168  1.00  0.00     0.039 C 
ATOM      8  C   UNL     1       2.470   1.373  -4.296  1.00  0.00    -0.023 CG0
ATOM      9  G   UNL     1       1.573   1.257  -3.087  1.00  0.00     0.000 G0
ENDBRANCH   5   6
ENDBRANCH   4   5
ENDBRANCH   2   4
BRANCH   1  10
ATOM     10  C   UNL     1      -0.841  -0.760  -4.845  1.00  0.00     0.111 C 
BRANCH  10  11
ATOM     11  C   UNL     1      -0.554  -0.086  -3.526  1.00  0.00     0.163 C 
ATOM     12  O   UNL     1      -0.936  -0.660  -2.471  1.00  0.00    -0.294 OA
BRANCH  11  13
ATOM     13  C   UNL     1       0.116   1.250  -3.448  1.00  0.00    -0.002 C 
ATOM     14  C   UNL     1      -0.573   2.413  -3.654  1.00  0.00    -0.069 C 
ATOM     15  C   UNL     1       0.120   3.758  -3.613  1.00  0.00     0.039 C 
ATOM     16  C   UNL     1      -2.066   2.417  -3.899  1.00  0.00     0.039 C 
BRANCH  13  17
ATOM     17  C   UNL     1       1.583   1.265  -3.058  1.00  0.00     0.066 CG0
ATOM     18  G   UNL     1       2.440   1.390  -4.294  1.00  0.00     0.000 G0
ENDBRANCH  13  17
ENDBRANCH  11  13
ENDBRANCH  10  11
ENDBRANCH   1  10
TORSDOF 0
ENDMDL
MODEL 4
REMARK VINA RESULT:    -3.563      5.403      6.844
REMARK INTER + INTRA:          -4.656
REMARK INTER:                  -5.078
REMARK INTRA:                   0.422
REMARK UNBOUND:                 0.364
REMARK SMILES CC1=CCC(=C(C)C)C(=O)CC(C)=CCC1
REMARK SMILES IDX 12 1 14 2 13 3 15 4 16 5 2 6 1 7 3 8 11 10 9 11 10 12 5 13
REMARK SMILES IDX 6 14 7 15 8 16 4 17
REMARK H PARENT
REMARK Flexibility Score: 60.00
ROOT
ATOM      1  C   UNL     1       5.344   3.640  -1.623  1.00  0.00    -0.070 C 
ATOM      2  C   UNL     1       4.382   4.412  -1.062  1.00  0.00    -0.027 C 
ATOM      3  C   UNL     1       6.499   3.223  -0.745  1.00  0.00     0.039 C 
ENDROOT
BRANCH   2   4
ATOM      4  C   UNL     1       3.096   4.854  -1.718  1.00  0.00     0.032 C 
BRANCH   4   5
ATOM      5  C   UNL     1       2.004   3.769  -1.671  1.00  0.00     0.034 C 
BRANCH   5   6
ATOM      6  C   UNL     1       1.434   3.470  -3.044  1.00  0.00    -0.077 C 
ATOM      7  C   UNL     1       0.563   4.511  -3.700  1.00  0.00     0.039 C 
ATOM      8  C   UNL     1       1.640   2.309  -3.705  1.00  0.00    -0.023 CG0
ATOM      9  G   UNL     1       2.449   1.138  -3.202  1.00  0.00     0.000 G0
ENDBRANCH   5   6
ENDBRANCH   4   5
ENDBRANCH   2   4
BRANCH   1  10
ATOM     10  C   UNL     1       5.287   3.124  -3.050  1.00  0.00     0.111 C 
BRANCH  10  11
ATOM     11  C   UNL     1       4.975   1.648  -3.095  1.00  0.00     0.163 C 
ATOM     12  O   UNL     1       5.745   0.861  -2.481  1.00  0.00    -0.294 OA
BRANCH  11  13
ATOM     13  C   UNL     1       3.823   1.106  -3.881  1.00  0.00    -0.002 C 
ATOM     14  C   UNL     1       3.993   0.562  -5.124  1.00  0.00    -0.069 C 
ATOM     15  C   UNL     1       2.817   0.052  -5.928  1.00  0.00     0.039 C 
ATOM     16  C   UNL     1       5.365   0.412  -5.742  1.00  0.00     0.039 C 
BRANCH  13  17
ATOM     17  C   UNL     1       2.462   1.118  -3.208  1.00  0.00     0.066 CG0
ATOM     18  G   UNL     1       1.664   2.306  -3.689  1.00  0.00     0.000 G0
ENDBRANCH  13  17
ENDBRANCH  11  13
ENDBRANCH  10  11
ENDBRANCH   1  10
TORSDOF 0
ENDMDL
MODEL 5
REMARK VINA RESULT:    -3.552      4.019      7.174
REMARK INTER + INTRA:          -4.641
REMARK INTER:                  -4.985
REMARK INTRA:                   0.344
REMARK UNBOUND:                 0.364
REMARK SMILES CC1=CCC(=C(C)C)C(=O)CC(C)=CCC1
REMARK SMILES IDX 12 1 14 2 13 3 15 4 16 5 2 6 1 7 3 8 11 10 9 11 10 12 5 13
REMARK SMILES IDX 6 14 7 15 8 16 4 17
REMARK H PARENT
REMARK Flexibility Score: 60.00
ROOT
ATOM      1  C   UNL     1       1.334  -0.308  -4.692  1.00  0.00    -0.070 C 
ATOM      2  C   UNL     1       2.626  -0.665  -4.888  1.00  0.00    -0.027 C 
ATOM      3  C   UNL     1       0.334  -1.416  -4.467  1.00  0.00     0.039 C 
ENDROOT
BRANCH   2   4
ATOM      4  C   UNL     1       3.801   0.273  -5.027  1.00  0.00     0.032 C 
BRANCH   4   5
ATOM      5  C   UNL     1       4.258   0.854  -3.676  1.00  0.00     0.034 C 
BRANCH   5   6
ATOM      6  C   UNL     1       4.393   2.364  -3.717  1.00  0.00    -0.077 C 
ATOM      7  C   UNL     1       5.451   2.963  -4.611  1.00  0.00     0.039 C 
ATOM      8  C   UNL     1       3.638   3.206  -2.978  1.00  0.00    -0.023 CG0
ATOM      9  G   UNL     1       2.559   2.799  -2.003  1.00  0.00     0.000 G0
ENDBRANCH   5   6
ENDBRANCH   4   5
ENDBRANCH   2   4
BRANCH   1  10
ATOM     10  C   UNL     1       0.857   1.132  -4.623  1.00  0.00     0.111 C 
BRANCH  10  11
ATOM     11  C   UNL     1       0.636   1.576  -3.198  1.00  0.00     0.163 C 
ATOM     12  O   UNL     1      -0.072   0.845  -2.453  1.00  0.00    -0.294 OA
BRANCH  11  13
ATOM     13  C   UNL     1       1.184   2.867  -2.676  1.00  0.00    -0.002 C 
ATOM     14  C   UNL     1       0.473   4.032  -2.751  1.00  0.00    -0.069 C 
ATOM     15  C   UNL     1       1.051   5.341  -2.256  1.00  0.00     0.039 C 
ATOM     16  C   UNL     1      -0.936   4.067  -3.299  1.00  0.00     0.039 C 
BRANCH  13  17
ATOM     17  C   UNL     1       2.538   2.814  -1.990  1.00  0.00     0.066 CG0
ATOM     18  G   UNL     1       3.621   3.206  -2.966  1.00  0.00     0.000 G0
ENDBRANCH  13  17
ENDBRANCH  11  13
ENDBRANCH  10  11
ENDBRANCH   1  10
TORSDOF 0
ENDMDL
MODEL 6
REMARK VINA RESULT:    -3.477      3.634      5.788
REMARK INTER + INTRA:          -4.536
REMARK INTER:                  -5.005
REMARK INTRA:                   0.469
REMARK UNBOUND:                 0.364
REMARK SMILES CC1=CCC(=C(C)C)C(=O)CC(C)=CCC1
REMARK SMILES IDX 12 1 14 2 13 3 15 4 16 5 2 6 1 7 3 8 11 10 9 11 10 12 5 13
REMARK SMILES IDX 6 14 7 15 8 16 4 17
REMARK H PARENT
REMARK Flexibility Score: 60.00
ROOT
ATOM      1  C   UNL     1      -1.257   1.712  -3.633  1.00  0.00    -0.070 C 
ATOM      2  C   UNL     1      -1.640   2.986  -3.380  1.00  0.00    -0.027 C 
ATOM      3  C   UNL     1      -2.133   0.605  -3.099  1.00  0.00     0.039 C 
ENDROOT
BRANCH   2   4
ATOM      4  C   UNL     1      -0.977   4.239  -3.903  1.00  0.00     0.032 C 
BRANCH   4   5
ATOM      5  C   UNL     1       0.113   4.772  -2.955  1.00  0.00     0.034 C 
BRANCH   5   6
ATOM      6  C   UNL     1       1.480   4.797  -3.611  1.00  0.00    -0.077 C 
ATOM      7  C   UNL     1       1.794   5.918  -4.570  1.00  0.00     0.039 C 
ATOM      8  C   UNL     1       2.428   3.855  -3.406  1.00  0.00    -0.023 CG0
ATOM      9  G   UNL     1       2.291   2.643  -2.515  1.00  0.00     0.000 G0
ENDBRANCH   5   6
ENDBRANCH   4   5
ENDBRANCH   2   4
BRANCH   1  10
ATOM     10  C   UNL     1      -0.046   1.345  -4.472  1.00  0.00     0.111 C 
BRANCH  10  11
ATOM     11  C   UNL     1       1.030   0.691  -3.638  1.00  0.00     0.163 C 
ATOM     12  O   UNL     1       0.781  -0.433  -3.126  1.00  0.00    -0.294 OA
BRANCH  11  13
ATOM     13  C   UNL     1       2.340   1.362  -3.369  1.00  0.00    -0.002 C 
ATOM     14  C   UNL     1       3.508   0.903  -3.912  1.00  0.00    -0.069 C 
ATOM     15  C   UNL     1       4.833   1.564  -3.604  1.00  0.00     0.039 C 
ATOM     16  C   UNL     1       3.529  -0.263  -4.875  1.00  0.00     0.039 C 
BRANCH  13  17
ATOM     17  C   UNL     1       2.309   2.622  -2.522  1.00  0.00     0.066 CG0
ATOM     18  G   UNL     1       2.411   3.838  -3.411  1.00  0.00     0.000 G0
ENDBRANCH  13  17
ENDBRANCH  11  13
ENDBRANCH  10  11
ENDBRANCH   1  10
TORSDOF 0
ENDMDL
MODEL 7
REMARK VINA RESULT:    -3.476      2.650      4.435
REMARK INTER + INTRA:          -4.534
REMARK INTER:                  -5.052
REMARK INTRA:                   0.518
REMARK UNBOUND:                 0.364
REMARK SMILES CC1=CCC(=C(C)C)C(=O)CC(C)=CCC1
REMARK SMILES IDX 12 1 14 2 13 3 15 4 16 5 2 6 1 7 3 8 11 10 9 11 10 12 5 13
REMARK SMILES IDX 6 14 7 15 8 16 4 17
REMARK H PARENT
REMARK Flexibility Score: 60.00
ROOT
ATOM      1  C   UNL     1      -2.166  -0.554  -3.366  1.00  0.00    -0.070 C 
ATOM      2  C   UNL     1      -2.531   0.678  -2.937  1.00  0.00    -0.027 C 
ATOM      3  C   UNL     1      -2.711  -1.742  -2.612  1.00  0.00     0.039 C 
ENDROOT
BRANCH   2   4
ATOM      4  C   UNL     1      -2.193   1.992  -3.601  1.00  0.00     0.032 C 
BRANCH   4   5
ATOM      5  C   UNL     1      -0.890   2.609  -3.061  1.00  0.00     0.034 C 
BRANCH   5   6
ATOM      6  C   UNL     1       0.170   2.743  -4.138  1.00  0.00    -0.077 C 
ATOM      7  C   UNL     1       0.076   3.906  -5.093  1.00  0.00     0.039 C 
ATOM      8  C   UNL     1       1.181   1.863  -4.309  1.00  0.00    -0.023 CG0
ATOM      9  G   UNL     1       1.423   0.623  -3.482  1.00  0.00     0.000 G0
ENDBRANCH   5   6
ENDBRANCH   4   5
ENDBRANCH   2   4
BRANCH   1  10
ATOM     10  C   UNL     1      -1.301  -0.800  -4.590  1.00  0.00     0.111 C 
BRANCH  10  11
ATOM     11  C   UNL     1       0.036  -1.392  -4.215  1.00  0.00     0.163 C 
ATOM     12  O   UNL     1       0.055  -2.558  -3.738  1.00  0.00    -0.294 OA
BRANCH  11  13
ATOM     13  C   UNL     1       1.310  -0.618  -4.348  1.00  0.00    -0.002 C 
ATOM     14  C   UNL     1       2.276  -0.972  -5.248  1.00  0.00    -0.069 C 
ATOM     15  C   UNL     1       3.578  -0.208  -5.348  1.00  0.00     0.039 C 
ATOM     16  C   UNL     1       2.079  -2.122  -6.210  1.00  0.00     0.039 C 
BRANCH  13  17
ATOM     17  C   UNL     1       1.454   0.626  -3.489  1.00  0.00     0.066 CG0
ATOM     18  G   UNL     1       1.180   1.856  -4.320  1.00  0.00     0.000 G0
ENDBRANCH  13  17
ENDBRANCH  11  13
ENDBRANCH  10  11
ENDBRANCH   1  10
TORSDOF 0
ENDMDL
MODEL 8
REMARK VINA RESULT:    -3.426      1.996      5.128
REMARK INTER + INTRA:          -4.464
REMARK INTER:                  -4.856
REMARK INTRA:                   0.392
REMARK UNBOUND:                 0.364
REMARK SMILES CC1=CCC(=C(C)C)C(=O)CC(C)=CCC1
REMARK SMILES IDX 12 1 14 2 13 3 15 4 16 5 2 6 1 7 3 8 11 10 9 11 10 12 5 13
REMARK SMILES IDX 6 14 7 15 8 16 4 17
REMARK H PARENT
REMARK Flexibility Score: 60.00
ROOT
ATOM      1  C   UNL     1      -2.329  -2.913  -3.634  1.00  0.00    -0.070 C 
ATOM      2  C   UNL     1      -1.168  -3.479  -4.043  1.00  0.00    -0.027 C 
ATOM      3  C   UNL     1      -3.145  -3.664  -2.611  1.00  0.00     0.039 C 
ENDROOT
BRANCH   2   4
ATOM      4  C   UNL     1      -0.151  -2.860  -4.972  1.00  0.00     0.032 C 
BRANCH   4   5
ATOM      5  C   UNL     1       0.751  -1.834  -4.262  1.00  0.00     0.034 C 
BRANCH   5   6
ATOM      6  C   UNL     1       0.942  -0.574  -5.084  1.00  0.00    -0.077 C 
ATOM      7  C   UNL     1       1.696  -0.677  -6.387  1.00  0.00     0.039 C 
ATOM      8  C   UNL     1       0.499   0.645  -4.703  1.00  0.00    -0.023 CG0
ATOM      9  G   UNL     1      -0.240   0.956  -3.424  1.00  0.00     0.000 G0
ENDBRANCH   5   6
ENDBRANCH   4   5
ENDBRANCH   2   4
BRANCH   1  10
ATOM     10  C   UNL     1      -2.811  -1.548  -4.096  1.00  0.00     0.111 C 
BRANCH  10  11
ATOM     11  C   UNL     1      -2.372  -0.456  -3.151  1.00  0.00     0.163 C 
ATOM     12  O   UNL     1      -2.587  -0.615  -1.919  1.00  0.00    -0.294 OA
BRANCH  11  13
ATOM     13  C   UNL     1      -1.746   0.811  -3.643  1.00  0.00    -0.002 C 
ATOM     14  C   UNL     1      -2.491   1.810  -4.205  1.00  0.00    -0.069 C 
ATOM     15  C   UNL     1      -1.845   3.072  -4.735  1.00  0.00     0.039 C 
ATOM     16  C   UNL     1      -3.998   1.720  -4.294  1.00  0.00     0.039 C 
BRANCH  13  17
ATOM     17  C   UNL     1      -0.252   0.973  -3.423  1.00  0.00     0.066 CG0
ATOM     18  G   UNL     1       0.488   0.671  -4.703  1.00  0.00     0.000 G0
ENDBRANCH  13  17
ENDBRANCH  11  13
ENDBRANCH  10  11
ENDBRANCH   1  10
TORSDOF 0
ENDMDL
MODEL 9
REMARK VINA RESULT:    -3.340      1.451      3.796
REMARK INTER + INTRA:          -4.342
REMARK INTER:                  -4.714
REMARK INTRA:                   0.372
REMARK UNBOUND:                 0.364
REMARK SMILES CC1=CCC(=C(C)C)C(=O)CC(C)=CCC1
REMARK SMILES IDX 12 1 14 2 13 3 15 4 16 5 2 6 1 7 3 8 11 10 9 11 10 12 5 13
REMARK SMILES IDX 6 14 7 15 8 16 4 17
REMARK H PARENT
REMARK Flexibility Score: 60.00
ROOT
ATOM      1  C   UNL     1       1.091   1.047  -3.821  1.00  0.00    -0.070 C 
ATOM      2  C   UNL     1       1.650  -0.180  -3.948  1.00  0.00    -0.027 C 
ATOM      3  C   UNL     1       1.843   2.072  -3.008  1.00  0.00     0.039 C 
ENDROOT
BRANCH   2   4
ATOM      4  C   UNL     1       1.129  -1.316  -4.797  1.00  0.00     0.032 C 
BRANCH   4   5
ATOM      5  C   UNL     1       0.036  -2.133  -4.084  1.00  0.00     0.034 C 
BRANCH   5   6
ATOM      6  C   UNL     1      -1.228  -2.246  -4.914  1.00  0.00    -0.077 C 
ATOM      7  C   UNL     1      -1.178  -3.054  -6.187  1.00  0.00     0.039 C 
ATOM      8  C   UNL     1      -2.393  -1.641  -4.593  1.00  0.00    -0.023 CG0
ATOM      9  G   UNL     1      -2.631  -0.767  -3.385  1.00  0.00     0.000 G0
ENDBRANCH   5   6
ENDBRANCH   4   5
ENDBRANCH   2   4
BRANCH   1  10
ATOM     10  C   UNL     1      -0.204   1.460  -4.500  1.00  0.00     0.111 C 
BRANCH  10  11
ATOM     11  C   UNL     1      -1.362   1.460  -3.532  1.00  0.00     0.163 C 
ATOM     12  O   UNL     1      -1.229   2.090  -2.448  1.00  0.00    -0.294 OA
BRANCH  11  13
ATOM     13  C   UNL     1      -2.622   0.700  -3.804  1.00  0.00    -0.002 C 
ATOM     14  C   UNL     1      -3.681   1.272  -4.452  1.00  0.00    -0.069 C 
ATOM     15  C   UNL     1      -4.966   0.508  -4.689  1.00  0.00     0.039 C 
ATOM     16  C   UNL     1      -3.611   2.682  -4.994  1.00  0.00     0.039 C 
BRANCH  13  17
ATOM     17  C   UNL     1      -2.647  -0.762  -3.395  1.00  0.00     0.066 CG0
ATOM     18  G   UNL     1      -2.388  -1.635  -4.599  1.00  0.00     0.000 G0
ENDBRANCH  13  17
ENDBRANCH  11  13
ENDBRANCH  10  11
ENDBRANCH   1  10
TORSDOF 0
ENDMDL
