MODEL 1
REMARK VINA RESULT:     5.537      0.000      0.000
REMARK INTER + INTRA:          13.508
REMARK INTER:                   7.640
REMARK INTRA:                   5.868
REMARK UNBOUND:                 5.868
REMARK SMILES CCCCc1cccc(O)c1CCCC
REMARK SMILES IDX 5 1 11 2 9 3 8 4 7 5 6 6 4 7 3 8 2 9 1 10 12 11 13 12 14 13
REMARK SMILES IDX 15 14 10 15
REMARK H PARENT 10 16
REMARK Flexibility Score: inf
ROOT
ATOM      1  C   UNL     1     -18.357   6.441  -3.214  1.00  0.00    -0.041 A 
ATOM      2  C   UNL     1     -19.484   5.590  -3.028  1.00  0.00    -0.003 A 
ATOM      3  C   UNL     1     -19.299   4.189  -3.052  1.00  0.00     0.119 A 
ATOM      4  C   UNL     1     -18.019   3.649  -3.224  1.00  0.00     0.046 A 
ATOM      5  C   UNL     1     -16.918   4.484  -3.389  1.00  0.00     0.004 A 
ATOM      6  C   UNL     1     -17.085   5.867  -3.388  1.00  0.00     0.004 A 
ENDROOT
BRANCH   1   7
ATOM      7  C   UNL     1     -18.462   7.953  -3.205  1.00  0.00     0.036 C 
BRANCH   7   8
ATOM      8  C   UNL     1     -17.120   8.629  -2.875  1.00  0.00     0.004 C 
BRANCH   8   9
ATOM      9  C   UNL     1     -15.989   8.175  -3.808  1.00  0.00    -0.003 C 
ATOM     10  C   UNL     1     -14.731   7.826  -3.018  1.00  0.00     0.004 C 
ENDBRANCH   8   9
ENDBRANCH   7   8
ENDBRANCH   1   7
BRANCH   2  11
ATOM     11  C   UNL     1     -20.891   6.139  -2.887  1.00  0.00     0.040 C 
BRANCH  11  12
ATOM     12  C   UNL     1     -21.925   5.011  -3.014  1.00  0.00     0.005 C 
BRANCH  12  13
ATOM     13  C   UNL     1     -22.101   4.529  -4.461  1.00  0.00    -0.003 C 
ATOM     14  C   UNL     1     -21.518   3.136  -4.695  1.00  0.00     0.004 C 
ENDBRANCH  12  13
ENDBRANCH  11  12
ENDBRANCH   2  11
BRANCH   3  15
ATOM     15  O   UNL     1     -20.392   3.334  -2.908  1.00  0.00    -0.508 OA
ATOM     16  H   UNL     1     -20.318   2.340  -3.091  1.00  0.00     0.293 HD
ENDBRANCH   3  15
TORSDOF 7
ENDMDL
MODEL 2
REMARK VINA RESULT:     6.672     14.447     16.715
REMARK INTER + INTRA:          15.075
REMARK INTER:                  14.393
REMARK INTRA:                   0.681
REMARK UNBOUND:                 5.868
REMARK SMILES CCCCc1cccc(O)c1CCCC
REMARK SMILES IDX 5 1 11 2 9 3 8 4 7 5 6 6 4 7 3 8 2 9 1 10 12 11 13 12 14 13
REMARK SMILES IDX 15 14 10 15
REMARK H PARENT 10 16
REMARK Flexibility Score: inf
ROOT
ATOM      1  C   UNL     1     -12.947  18.686 -10.742  1.00  0.00    -0.041 A 
ATOM      2  C   UNL     1     -13.040  18.872  -9.333  1.00  0.00    -0.003 A 
ATOM      3  C   UNL     1     -12.571  17.853  -8.472  1.00  0.00     0.119 A 
ATOM      4  C   UNL     1     -11.995  16.692  -9.001  1.00  0.00     0.046 A 
ATOM      5  C   UNL     1     -11.891  16.522 -10.379  1.00  0.00     0.004 A 
ATOM      6  C   UNL     1     -12.365  17.507 -11.242  1.00  0.00     0.004 A 
ENDROOT
BRANCH   1   7
ATOM      7  C   UNL     1     -13.426  19.723 -11.739  1.00  0.00     0.036 C 
BRANCH   7   8
ATOM      8  C   UNL     1     -13.105  19.328 -13.190  1.00  0.00     0.004 C 
BRANCH   8   9
ATOM      9  C   UNL     1     -11.775  19.916 -13.679  1.00  0.00    -0.003 C 
ATOM     10  C   UNL     1     -11.223  19.123 -14.860  1.00  0.00     0.004 C 
ENDBRANCH   8   9
ENDBRANCH   7   8
ENDBRANCH   1   7
BRANCH   2  11
ATOM     11  C   UNL     1     -13.701  20.094  -8.725  1.00  0.00     0.040 C 
BRANCH  11  12
ATOM     12  C   UNL     1     -13.204  20.319  -7.289  1.00  0.00     0.005 C 
BRANCH  12  13
ATOM     13  C   UNL     1     -12.102  21.385  -7.205  1.00  0.00    -0.003 C 
ATOM     14  C   UNL     1     -11.372  21.588  -8.532  1.00  0.00     0.004 C 
ENDBRANCH  12  13
ENDBRANCH  11  12
ENDBRANCH   2  11
BRANCH   3  15
ATOM     15  O   UNL     1     -12.683  17.995  -7.089  1.00  0.00    -0.508 OA
ATOM     16  H   UNL     1     -12.551  18.890  -6.633  1.00  0.00     0.293 HD
ENDBRANCH   3  15
TORSDOF 7
ENDMDL
MODEL 3
REMARK VINA RESULT:     6.804     14.528     16.466
REMARK INTER + INTRA:          15.257
REMARK INTER:                  15.317
REMARK INTRA:                  -0.060
REMARK UNBOUND:                 5.868
REMARK SMILES CCCCc1cccc(O)c1CCCC
REMARK SMILES IDX 5 1 11 2 9 3 8 4 7 5 6 6 4 7 3 8 2 9 1 10 12 11 13 12 14 13
REMARK SMILES IDX 15 14 10 15
REMARK H PARENT 10 16
REMARK Flexibility Score: inf
ROOT
ATOM      1  C   UNL     1     -12.994  18.792  -8.907  1.00  0.00    -0.041 A 
ATOM      2  C   UNL     1     -12.931  18.386 -10.271  1.00  0.00    -0.003 A 
ATOM      3  C   UNL     1     -12.219  17.211 -10.606  1.00  0.00     0.119 A 
ATOM      4  C   UNL     1     -11.612  16.444  -9.606  1.00  0.00     0.046 A 
ATOM      5  C   UNL     1     -11.689  16.836  -8.273  1.00  0.00     0.004 A 
ATOM      6  C   UNL     1     -12.371  18.001  -7.926  1.00  0.00     0.004 A 
ENDROOT
BRANCH   1   7
ATOM      7  C   UNL     1     -13.733  20.036  -8.456  1.00  0.00     0.036 C 
BRANCH   7   8
ATOM      8  C   UNL     1     -13.312  20.486  -7.047  1.00  0.00     0.004 C 
BRANCH   8   9
ATOM      9  C   UNL     1     -12.013  21.303  -7.054  1.00  0.00    -0.003 C 
ATOM     10  C   UNL     1     -11.585  21.642  -8.479  1.00  0.00     0.004 C 
ENDBRANCH   8   9
ENDBRANCH   7   8
ENDBRANCH   1   7
BRANCH   2  11
ATOM     11  C   UNL     1     -13.535  19.217 -11.386  1.00  0.00     0.040 C 
BRANCH  11  12
ATOM     12  C   UNL     1     -12.439  19.734 -12.329  1.00  0.00     0.005 C 
BRANCH  12  13
ATOM     13  C   UNL     1     -12.714  19.391 -13.801  1.00  0.00    -0.003 C 
ATOM     14  C   UNL     1     -11.436  19.289 -14.633  1.00  0.00     0.004 C 
ENDBRANCH  12  13
ENDBRANCH  11  12
ENDBRANCH   2  11
BRANCH   3  15
ATOM     15  O   UNL     1     -12.112  16.811 -11.939  1.00  0.00    -0.508 OA
ATOM     16  H   UNL     1     -11.722  17.420 -12.648  1.00  0.00     0.293 HD
ENDBRANCH   3  15
TORSDOF 7
ENDMDL
MODEL 4
REMARK VINA RESULT:     7.777     13.941     16.675
REMARK INTER + INTRA:          16.599
REMARK INTER:                  16.982
REMARK INTRA:                  -0.382
REMARK UNBOUND:                 5.868
REMARK SMILES CCCCc1cccc(O)c1CCCC
REMARK SMILES IDX 5 1 11 2 9 3 8 4 7 5 6 6 4 7 3 8 2 9 1 10 12 11 13 12 14 13
REMARK SMILES IDX 15 14 10 15
REMARK H PARENT 10 16
REMARK Flexibility Score: inf
ROOT
ATOM      1  C   UNL     1     -12.901  19.991  -9.767  1.00  0.00    -0.041 A 
ATOM      2  C   UNL     1     -13.546  19.624  -8.552  1.00  0.00    -0.003 A 
ATOM      3  C   UNL     1     -13.160  20.258  -7.349  1.00  0.00     0.119 A 
ATOM      4  C   UNL     1     -12.179  21.256  -7.360  1.00  0.00     0.046 A 
ATOM      5  C   UNL     1     -11.562  21.623  -8.553  1.00  0.00     0.004 A 
ATOM      6  C   UNL     1     -11.916  20.995  -9.745  1.00  0.00     0.004 A 
ENDROOT
BRANCH   1   7
ATOM      7  C   UNL     1     -13.249  19.363 -11.102  1.00  0.00     0.036 C 
BRANCH   7   8
ATOM      8  C   UNL     1     -12.262  19.767 -12.211  1.00  0.00     0.004 C 
BRANCH   8   9
ATOM      9  C   UNL     1     -12.707  19.281 -13.597  1.00  0.00    -0.003 C 
ATOM     10  C   UNL     1     -11.544  19.297 -14.585  1.00  0.00     0.004 C 
ENDBRANCH   8   9
ENDBRANCH   7   8
ENDBRANCH   1   7
BRANCH   2  11
ATOM     11  C   UNL     1     -14.579  18.515  -8.493  1.00  0.00     0.040 C 
BRANCH  11  12
ATOM     12  C   UNL     1     -13.894  17.142  -8.430  1.00  0.00     0.005 C 
BRANCH  12  13
ATOM     13  C   UNL     1     -12.415  17.236  -8.028  1.00  0.00    -0.003 C 
ATOM     14  C   UNL     1     -11.468  16.840  -9.161  1.00  0.00     0.004 C 
ENDBRANCH  12  13
ENDBRANCH  11  12
ENDBRANCH   2  11
BRANCH   3  15
ATOM     15  O   UNL     1     -13.752  19.891  -6.140  1.00  0.00    -0.508 OA
ATOM     16  H   UNL     1     -14.651  20.259  -5.853  1.00  0.00     0.293 HD
ENDBRANCH   3  15
TORSDOF 7
ENDMDL
