MODEL 1
REMARK VINA RESULT:    -4.292      0.000      0.000
REMARK INTER + INTRA:          -6.523
REMARK INTER:                  -5.798
REMARK INTRA:                  -0.725
REMARK UNBOUND:                -0.725
REMARK SMILES O=C[C@H](O)[C@@H](O)[C@@H](O)CO
REMARK SMILES IDX 7 1 9 2 10 3 5 5 3 6 2 7 1 8 4 9 6 11 8 13
REMARK H PARENT 10 4 4 10 6 12 8 14
REMARK Flexibility Score: inf
ROOT
ATOM      1  C   UNL     1     -21.572  -0.816 -12.433  1.00  0.00     0.171 C 
ENDROOT
BRANCH   1   2
ATOM      2  C   UNL     1     -22.577  -1.119 -11.307  1.00  0.00     0.190 C 
BRANCH   2   3
ATOM      3  O   UNL     1     -21.890  -1.505 -10.149  1.00  0.00    -0.394 OA
ATOM      4  H   UNL     1     -22.302  -2.358  -9.854  1.00  0.00     0.210 HD
ENDBRANCH   2   3
ENDBRANCH   1   2
BRANCH   1   5
ATOM      5  C   UNL     1     -20.988  -2.101 -13.080  1.00  0.00     0.181 C 
BRANCH   5   6
ATOM      6  C   UNL     1     -19.533  -2.419 -12.654  1.00  0.00     0.209 C 
BRANCH   6   7
ATOM      7  C   UNL     1     -18.915  -3.482 -13.519  1.00  0.00     0.258 C 
ATOM      8  O   UNL     1     -19.330  -4.631 -13.484  1.00  0.00    -0.300 OA
ENDBRANCH   6   7
BRANCH   6   9
ATOM      9  O   UNL     1     -19.513  -2.865 -11.323  1.00  0.00    -0.383 OA
ATOM     10  H   UNL     1     -20.439  -2.785 -10.974  1.00  0.00     0.211 HD
ENDBRANCH   6   9
ENDBRANCH   5   6
BRANCH   5  11
ATOM     11  O   UNL     1     -21.804  -3.206 -12.780  1.00  0.00    -0.387 OA
ATOM     12  H   UNL     1     -21.342  -3.727 -12.071  1.00  0.00     0.211 HD
ENDBRANCH   5  11
ENDBRANCH   1   5
BRANCH   1  13
ATOM     13  O   UNL     1     -22.205  -0.060 -13.434  1.00  0.00    -0.388 OA
ATOM     14  H   UNL     1     -22.615   0.730 -12.993  1.00  0.00     0.211 HD
ENDBRANCH   1  13
TORSDOF 8
ENDMDL
MODEL 2
REMARK VINA RESULT:    -4.004      1.661      3.970
REMARK INTER + INTRA:          -6.134
REMARK INTER:                  -5.432
REMARK INTRA:                  -0.703
REMARK UNBOUND:                -0.725
REMARK SMILES O=C[C@H](O)[C@@H](O)[C@@H](O)CO
REMARK SMILES IDX 7 1 9 2 10 3 5 5 3 6 2 7 1 8 4 9 6 11 8 13
REMARK H PARENT 10 4 4 10 6 12 8 14
REMARK Flexibility Score: inf
ROOT
ATOM      1  C   UNL     1     -22.074  -1.567 -13.027  1.00  0.00     0.171 C 
ENDROOT
BRANCH   1   2
ATOM      2  C   UNL     1     -20.621  -2.059 -12.884  1.00  0.00     0.190 C 
BRANCH   2   3
ATOM      3  O   UNL     1     -20.612  -3.383 -12.426  1.00  0.00    -0.394 OA
ATOM      4  H   UNL     1     -21.093  -3.377 -11.558  1.00  0.00     0.210 HD
ENDBRANCH   2   3
ENDBRANCH   1   2
BRANCH   1   5
ATOM      5  C   UNL     1     -22.642  -0.975 -11.709  1.00  0.00     0.181 C 
BRANCH   5   6
ATOM      6  C   UNL     1     -24.097  -1.405 -11.398  1.00  0.00     0.209 C 
BRANCH   6   7
ATOM      7  C   UNL     1     -24.178  -2.848 -10.984  1.00  0.00     0.258 C 
ATOM      8  O   UNL     1     -23.649  -3.229  -9.951  1.00  0.00    -0.300 OA
ENDBRANCH   6   7
BRANCH   6   9
ATOM      9  O   UNL     1     -24.900  -1.227 -12.536  1.00  0.00    -0.383 OA
ATOM     10  H   UNL     1     -25.131  -2.131 -12.875  1.00  0.00     0.211 HD
ENDBRANCH   6   9
ENDBRANCH   5   6
BRANCH   5  11
ATOM     11  O   UNL     1     -21.819  -1.332 -10.627  1.00  0.00    -0.387 OA
ATOM     12  H   UNL     1     -22.066  -2.256 -10.362  1.00  0.00     0.211 HD
ENDBRANCH   5  11
ENDBRANCH   1   5
BRANCH   1  13
ATOM     13  O   UNL     1     -22.136  -0.579 -14.025  1.00  0.00    -0.388 OA
ATOM     14  H   UNL     1     -21.879   0.282 -13.604  1.00  0.00     0.211 HD
ENDBRANCH   1  13
TORSDOF 8
ENDMDL
MODEL 3
REMARK VINA RESULT:    -3.987      1.915      4.109
REMARK INTER + INTRA:          -6.111
REMARK INTER:                  -5.588
REMARK INTRA:                  -0.522
REMARK UNBOUND:                -0.725
REMARK SMILES O=C[C@H](O)[C@@H](O)[C@@H](O)CO
REMARK SMILES IDX 7 1 9 2 10 3 5 5 3 6 2 7 1 8 4 9 6 11 8 13
REMARK H PARENT 10 4 4 10 6 12 8 14
REMARK Flexibility Score: inf
ROOT
ATOM      1  C   UNL     1     -17.726  -3.598 -11.577  1.00  0.00     0.171 C 
ENDROOT
BRANCH   1   2
ATOM      2  C   UNL     1     -16.768  -2.484 -11.114  1.00  0.00     0.190 C 
BRANCH   2   3
ATOM      3  O   UNL     1     -17.014  -1.314 -11.844  1.00  0.00    -0.394 OA
ATOM      4  H   UNL     1     -17.841  -0.919 -11.463  1.00  0.00     0.210 HD
ENDBRANCH   2   3
ENDBRANCH   1   2
BRANCH   1   5
ATOM      5  C   UNL     1     -19.217  -3.169 -11.525  1.00  0.00     0.181 C 
BRANCH   5   6
ATOM      6  C   UNL     1     -19.889  -3.048 -12.916  1.00  0.00     0.209 C 
BRANCH   6   7
ATOM      7  C   UNL     1     -21.057  -2.101 -12.894  1.00  0.00     0.258 C 
ATOM      8  O   UNL     1     -21.730  -1.967 -11.883  1.00  0.00    -0.300 OA
ENDBRANCH   6   7
BRANCH   6   9
ATOM      9  O   UNL     1     -20.349  -4.307 -13.333  1.00  0.00    -0.383 OA
ATOM     10  H   UNL     1     -20.348  -4.899 -12.536  1.00  0.00     0.211 HD
ENDBRANCH   6   9
ENDBRANCH   5   6
BRANCH   5  11
ATOM     11  O   UNL     1     -19.952  -4.074 -10.740  1.00  0.00    -0.387 OA
ATOM     12  H   UNL     1     -20.842  -4.179 -11.167  1.00  0.00     0.211 HD
ENDBRANCH   5  11
ENDBRANCH   1   5
BRANCH   1  13
ATOM     13  O   UNL     1     -17.412  -3.965 -12.896  1.00  0.00    -0.388 OA
ATOM     14  H   UNL     1     -16.424  -4.050 -12.953  1.00  0.00     0.211 HD
ENDBRANCH   1  13
TORSDOF 8
ENDMDL
MODEL 4
REMARK VINA RESULT:    -3.917      2.033      2.873
REMARK INTER + INTRA:          -6.017
REMARK INTER:                  -5.332
REMARK INTRA:                  -0.685
REMARK UNBOUND:                -0.725
REMARK SMILES O=C[C@H](O)[C@@H](O)[C@@H](O)CO
REMARK SMILES IDX 7 1 9 2 10 3 5 5 3 6 2 7 1 8 4 9 6 11 8 13
REMARK H PARENT 10 4 4 10 6 12 8 14
REMARK Flexibility Score: inf
ROOT
ATOM      1  C   UNL     1     -24.098  -0.964 -11.573  1.00  0.00     0.171 C 
ENDROOT
BRANCH   1   2
ATOM      2  C   UNL     1     -24.701  -1.563 -10.289  1.00  0.00     0.190 C 
BRANCH   2   3
ATOM      3  O   UNL     1     -25.418  -2.726 -10.600  1.00  0.00    -0.394 OA
ATOM      4  H   UNL     1     -26.369  -2.527 -10.399  1.00  0.00     0.210 HD
ENDBRANCH   2   3
ENDBRANCH   1   2
BRANCH   1   5
ATOM      5  C   UNL     1     -23.230  -1.981 -12.362  1.00  0.00     0.181 C 
BRANCH   5   6
ATOM      6  C   UNL     1     -22.096  -1.332 -13.195  1.00  0.00     0.209 C 
BRANCH   6   7
ATOM      7  C   UNL     1     -20.738  -1.799 -12.751  1.00  0.00     0.258 C 
ATOM      8  O   UNL     1     -20.230  -2.795 -13.243  1.00  0.00    -0.300 OA
ENDBRANCH   6   7
BRANCH   6   9
ATOM      9  O   UNL     1     -22.148   0.064 -13.064  1.00  0.00    -0.383 OA
ATOM     10  H   UNL     1     -21.729   0.292 -12.193  1.00  0.00     0.211 HD
ENDBRANCH   6   9
ENDBRANCH   5   6
BRANCH   5  11
ATOM     11  O   UNL     1     -22.669  -2.921 -11.481  1.00  0.00    -0.387 OA
ATOM     12  H   UNL     1     -23.032  -3.811 -11.731  1.00  0.00     0.211 HD
ENDBRANCH   5  11
ENDBRANCH   1   5
BRANCH   1  13
ATOM     13  O   UNL     1     -25.134  -0.515 -12.410  1.00  0.00    -0.388 OA
ATOM     14  H   UNL     1     -25.959  -0.468 -11.861  1.00  0.00     0.211 HD
ENDBRANCH   1  13
TORSDOF 8
ENDMDL
MODEL 5
REMARK VINA RESULT:    -3.829      1.054      1.851
REMARK INTER + INTRA:          -5.897
REMARK INTER:                  -5.231
REMARK INTRA:                  -0.666
REMARK UNBOUND:                -0.725
REMARK SMILES O=C[C@H](O)[C@@H](O)[C@@H](O)CO
REMARK SMILES IDX 7 1 9 2 10 3 5 5 3 6 2 7 1 8 4 9 6 11 8 13
REMARK H PARENT 10 4 4 10 6 12 8 14
REMARK Flexibility Score: inf
ROOT
ATOM      1  C   UNL     1     -22.212  -1.734 -11.625  1.00  0.00     0.171 C 
ENDROOT
BRANCH   1   2
ATOM      2  C   UNL     1     -23.345  -0.897 -12.247  1.00  0.00     0.190 C 
BRANCH   2   3
ATOM      3  O   UNL     1     -22.803   0.187 -12.950  1.00  0.00    -0.394 OA
ATOM      4  H   UNL     1     -23.371   0.306 -13.755  1.00  0.00     0.210 HD
ENDBRANCH   2   3
ENDBRANCH   1   2
BRANCH   1   5
ATOM      5  C   UNL     1     -20.910  -1.707 -12.470  1.00  0.00     0.181 C 
BRANCH   5   6
ATOM      6  C   UNL     1     -19.887  -2.807 -12.090  1.00  0.00     0.209 C 
BRANCH   6   7
ATOM      7  C   UNL     1     -19.661  -3.775 -13.218  1.00  0.00     0.258 C 
ATOM      8  O   UNL     1     -18.791  -3.569 -14.051  1.00  0.00    -0.300 OA
ENDBRANCH   6   7
BRANCH   6   9
ATOM      9  O   UNL     1     -20.351  -3.525 -10.978  1.00  0.00    -0.383 OA
ATOM     10  H   UNL     1     -21.257  -3.863 -11.204  1.00  0.00     0.211 HD
ENDBRANCH   6   9
ENDBRANCH   5   6
BRANCH   5  11
ATOM     11  O   UNL     1     -21.220  -1.824 -13.837  1.00  0.00    -0.387 OA
ATOM     12  H   UNL     1     -21.024  -2.760 -14.103  1.00  0.00     0.211 HD
ENDBRANCH   5  11
ENDBRANCH   1   5
BRANCH   1  13
ATOM     13  O   UNL     1     -21.921  -1.244 -10.340  1.00  0.00    -0.388 OA
ATOM     14  H   UNL     1     -22.682  -0.670 -10.063  1.00  0.00     0.211 HD
ENDBRANCH   1  13
TORSDOF 8
ENDMDL
MODEL 6
REMARK VINA RESULT:    -3.666      1.864      2.807
REMARK INTER + INTRA:          -5.677
REMARK INTER:                  -4.996
REMARK INTRA:                  -0.681
REMARK UNBOUND:                -0.725
REMARK SMILES O=C[C@H](O)[C@@H](O)[C@@H](O)CO
REMARK SMILES IDX 7 1 9 2 10 3 5 5 3 6 2 7 1 8 4 9 6 11 8 13
REMARK H PARENT 10 4 4 10 6 12 8 14
REMARK Flexibility Score: inf
ROOT
ATOM      1  C   UNL     1     -20.589  -2.704 -11.949  1.00  0.00     0.171 C 
ENDROOT
BRANCH   1   2
ATOM      2  C   UNL     1     -21.833  -2.500 -11.065  1.00  0.00     0.190 C 
BRANCH   2   3
ATOM      3  O   UNL     1     -21.684  -1.336 -10.299  1.00  0.00    -0.394 OA
ATOM      4  H   UNL     1     -22.092  -1.532  -9.417  1.00  0.00     0.210 HD
ENDBRANCH   2   3
ENDBRANCH   1   2
BRANCH   1   5
ATOM      5  C   UNL     1     -19.502  -3.579 -11.266  1.00  0.00     0.181 C 
BRANCH   5   6
ATOM      6  C   UNL     1     -18.159  -3.635 -12.036  1.00  0.00     0.209 C 
BRANCH   6   7
ATOM      7  C   UNL     1     -17.023  -3.084 -11.221  1.00  0.00     0.258 C 
ATOM      8  O   UNL     1     -16.769  -1.889 -11.235  1.00  0.00    -0.300 OA
ENDBRANCH   6   7
BRANCH   6   9
ATOM      9  O   UNL     1     -18.257  -2.887 -13.219  1.00  0.00    -0.383 OA
ATOM     10  H   UNL     1     -19.222  -2.710 -13.375  1.00  0.00     0.211 HD
ENDBRANCH   6   9
ENDBRANCH   5   6
BRANCH   5  11
ATOM     11  O   UNL     1     -19.262  -3.116  -9.960  1.00  0.00    -0.387 OA
ATOM     12  H   UNL     1     -18.841  -3.862  -9.457  1.00  0.00     0.211 HD
ENDBRANCH   5  11
ENDBRANCH   1   5
BRANCH   1  13
ATOM     13  O   UNL     1     -20.967  -3.321 -13.154  1.00  0.00    -0.388 OA
ATOM     14  H   UNL     1     -20.259  -3.124 -13.821  1.00  0.00     0.211 HD
ENDBRANCH   1  13
TORSDOF 8
ENDMDL
MODEL 7
REMARK VINA RESULT:    -3.617      1.378      4.199
REMARK INTER + INTRA:          -5.611
REMARK INTER:                  -5.549
REMARK INTRA:                  -0.062
REMARK UNBOUND:                -0.725
REMARK SMILES O=C[C@H](O)[C@@H](O)[C@@H](O)CO
REMARK SMILES IDX 7 1 9 2 10 3 5 5 3 6 2 7 1 8 4 9 6 11 8 13
REMARK H PARENT 10 4 4 10 6 12 8 14
REMARK Flexibility Score: inf
ROOT
ATOM      1  C   UNL     1     -18.910  -2.872 -13.064  1.00  0.00     0.171 C 
ENDROOT
BRANCH   1   2
ATOM      2  C   UNL     1     -18.874  -4.330 -13.557  1.00  0.00     0.190 C 
BRANCH   2   3
ATOM      3  O   UNL     1     -17.994  -4.442 -14.641  1.00  0.00    -0.394 OA
ATOM      4  H   UNL     1     -17.801  -3.515 -14.937  1.00  0.00     0.210 HD
ENDBRANCH   2   3
ENDBRANCH   1   2
BRANCH   1   5
ATOM      5  C   UNL     1     -20.116  -2.582 -12.130  1.00  0.00     0.181 C 
BRANCH   5   6
ATOM      6  C   UNL     1     -21.469  -2.436 -12.870  1.00  0.00     0.209 C 
BRANCH   6   7
ATOM      7  C   UNL     1     -21.736  -1.013 -13.274  1.00  0.00     0.258 C 
ATOM      8  O   UNL     1     -22.495  -0.313 -12.620  1.00  0.00    -0.300 OA
ENDBRANCH   6   7
BRANCH   6   9
ATOM      9  O   UNL     1     -22.516  -2.863 -12.038  1.00  0.00    -0.383 OA
ATOM     10  H   UNL     1     -22.885  -2.055 -11.594  1.00  0.00     0.211 HD
ENDBRANCH   6   9
ENDBRANCH   5   6
BRANCH   5  11
ATOM     11  O   UNL     1     -20.231  -3.596 -11.163  1.00  0.00    -0.387 OA
ATOM     12  H   UNL     1     -20.156  -4.464 -11.638  1.00  0.00     0.211 HD
ENDBRANCH   5  11
ENDBRANCH   1   5
BRANCH   1  13
ATOM     13  O   UNL     1     -17.725  -2.584 -12.366  1.00  0.00    -0.388 OA
ATOM     14  H   UNL     1     -17.888  -2.792 -11.409  1.00  0.00     0.211 HD
ENDBRANCH   1  13
TORSDOF 8
ENDMDL
MODEL 8
REMARK VINA RESULT:    -3.572      1.827      3.693
REMARK INTER + INTRA:          -5.551
REMARK INTER:                  -4.966
REMARK INTRA:                  -0.585
REMARK UNBOUND:                -0.725
REMARK SMILES O=C[C@H](O)[C@@H](O)[C@@H](O)CO
REMARK SMILES IDX 7 1 9 2 10 3 5 5 3 6 2 7 1 8 4 9 6 11 8 13
REMARK H PARENT 10 4 4 10 6 12 8 14
REMARK Flexibility Score: inf
ROOT
ATOM      1  C   UNL     1     -21.919  -1.565 -13.215  1.00  0.00     0.171 C 
ENDROOT
BRANCH   1   2
ATOM      2  C   UNL     1     -20.644  -2.406 -13.022  1.00  0.00     0.190 C 
BRANCH   2   3
ATOM      3  O   UNL     1     -19.745  -1.720 -12.195  1.00  0.00    -0.394 OA
ATOM      4  H   UNL     1     -19.320  -1.027 -12.763  1.00  0.00     0.210 HD
ENDBRANCH   2   3
ENDBRANCH   1   2
BRANCH   1   5
ATOM      5  C   UNL     1     -23.114  -2.081 -12.368  1.00  0.00     0.181 C 
BRANCH   5   6
ATOM      6  C   UNL     1     -22.759  -2.386 -10.892  1.00  0.00     0.209 C 
BRANCH   6   7
ATOM      7  C   UNL     1     -23.976  -2.742 -10.084  1.00  0.00     0.258 C 
ATOM      8  O   UNL     1     -24.831  -3.485 -10.543  1.00  0.00    -0.300 OA
ENDBRANCH   6   7
BRANCH   6   9
ATOM      9  O   UNL     1     -22.154  -1.263 -10.306  1.00  0.00    -0.383 OA
ATOM     10  H   UNL     1     -22.491  -1.202  -9.373  1.00  0.00     0.211 HD
ENDBRANCH   6   9
ENDBRANCH   5   6
BRANCH   5  11
ATOM     11  O   UNL     1     -24.166  -1.149 -12.402  1.00  0.00    -0.387 OA
ATOM     12  H   UNL     1     -24.566  -1.125 -11.493  1.00  0.00     0.211 HD
ENDBRANCH   5  11
ENDBRANCH   1   5
BRANCH   1  13
ATOM     13  O   UNL     1     -21.659  -0.232 -12.855  1.00  0.00    -0.388 OA
ATOM     14  H   UNL     1     -20.702  -0.177 -12.598  1.00  0.00     0.211 HD
ENDBRANCH   1  13
TORSDOF 8
ENDMDL
MODEL 9
REMARK VINA RESULT:    -3.549      1.386      3.907
REMARK INTER + INTRA:          -5.519
REMARK INTER:                  -5.006
REMARK INTRA:                  -0.512
REMARK UNBOUND:                -0.725
REMARK SMILES O=C[C@H](O)[C@@H](O)[C@@H](O)CO
REMARK SMILES IDX 7 1 9 2 10 3 5 5 3 6 2 7 1 8 4 9 6 11 8 13
REMARK H PARENT 10 4 4 10 6 12 8 14
REMARK Flexibility Score: inf
ROOT
ATOM      1  C   UNL     1     -20.041  -2.147 -12.787  1.00  0.00     0.171 C 
ENDROOT
BRANCH   1   2
ATOM      2  C   UNL     1     -20.018  -3.612 -13.261  1.00  0.00     0.190 C 
BRANCH   2   3
ATOM      3  O   UNL     1     -19.507  -4.430 -12.245  1.00  0.00    -0.394 OA
ATOM      4  H   UNL     1     -19.430  -3.855 -11.440  1.00  0.00     0.210 HD
ENDBRANCH   2   3
ENDBRANCH   1   2
BRANCH   1   5
ATOM      5  C   UNL     1     -21.284  -1.815 -11.916  1.00  0.00     0.181 C 
BRANCH   5   6
ATOM      6  C   UNL     1     -22.223  -0.750 -12.534  1.00  0.00     0.209 C 
BRANCH   6   7
ATOM      7  C   UNL     1     -23.638  -0.901 -12.048  1.00  0.00     0.258 C 
ATOM      8  O   UNL     1     -24.380  -1.736 -12.543  1.00  0.00    -0.300 OA
ENDBRANCH   6   7
BRANCH   6   9
ATOM      9  O   UNL     1     -22.222  -0.868 -13.933  1.00  0.00    -0.383 OA
ATOM     10  H   UNL     1     -23.167  -0.799 -14.233  1.00  0.00     0.211 HD
ENDBRANCH   6   9
ENDBRANCH   5   6
BRANCH   5  11
ATOM     11  O   UNL     1     -22.022  -2.985 -11.665  1.00  0.00    -0.387 OA
ATOM     12  H   UNL     1     -22.877  -2.708 -11.244  1.00  0.00     0.211 HD
ENDBRANCH   5  11
ENDBRANCH   1   5
BRANCH   1  13
ATOM     13  O   UNL     1     -18.884  -1.880 -12.036  1.00  0.00    -0.388 OA
ATOM     14  H   UNL     1     -18.308  -1.284 -12.582  1.00  0.00     0.211 HD
ENDBRANCH   1  13
TORSDOF 8
ENDMDL
