MODEL 1
REMARK VINA RESULT:    -3.915      0.000      0.000
REMARK INTER + INTRA:          -5.843
REMARK INTER:                  -5.517
REMARK INTRA:                  -0.325
REMARK UNBOUND:                -0.325
REMARK SMILES CCCCCCCCC(=O)[O-]
REMARK SMILES IDX 6 1 7 2 8 3 9 4 10 5 11 6 5 7 4 8 3 9 2 10 1 11
REMARK H PARENT
REMARK Flexibility Score: inf
ROOT
ATOM      1  C   UNL     1      -7.631  18.710 -10.350  1.00  0.00     0.000 C 
ENDROOT
BRANCH   1   2
ATOM      2  C   UNL     1      -8.505  18.444 -11.585  1.00  0.00     0.006 C 
BRANCH   2   3
ATOM      3  C   UNL     1      -9.988  18.642 -11.260  1.00  0.00     0.053 C 
BRANCH   3   4
ATOM      4  C   UNL     1     -10.706  17.329 -11.262  1.00  0.00     0.041 C 
ATOM      5  O   UNL     1     -10.317  16.393 -10.516  1.00  0.00    -0.550 OA
ATOM      6  O   UNL     1     -11.776  17.124 -12.125  1.00  0.00    -0.550 OA
ENDBRANCH   3   4
ENDBRANCH   2   3
ENDBRANCH   1   2
BRANCH   1   7
ATOM      7  C   UNL     1      -6.638  17.569 -10.069  1.00  0.00     0.000 C 
BRANCH   7   8
ATOM      8  C   UNL     1      -7.118  16.630  -8.949  1.00  0.00    -0.000 C 
BRANCH   8   9
ATOM      9  C   UNL     1      -6.608  17.046  -7.558  1.00  0.00    -0.000 C 
BRANCH   9  10
ATOM     10  C   UNL     1      -5.192  16.555  -7.210  1.00  0.00    -0.003 C 
ATOM     11  C   UNL     1      -4.742  16.967  -5.809  1.00  0.00     0.004 C 
ENDBRANCH   9  10
ENDBRANCH   8   9
ENDBRANCH   7   8
ENDBRANCH   1   7
TORSDOF 7
ENDMDL
MODEL 2
REMARK VINA RESULT:    -3.780      1.045      1.333
REMARK INTER + INTRA:          -5.652
REMARK INTER:                  -5.363
REMARK INTRA:                  -0.289
REMARK UNBOUND:                -0.325
REMARK SMILES CCCCCCCCC(=O)[O-]
REMARK SMILES IDX 6 1 7 2 8 3 9 4 10 5 11 6 5 7 4 8 3 9 2 10 1 11
REMARK H PARENT
REMARK Flexibility Score: inf
ROOT
ATOM      1  C   UNL     1      -7.096  18.095 -10.034  1.00  0.00     0.000 C 
ENDROOT
BRANCH   1   2
ATOM      2  C   UNL     1      -8.315  18.187 -10.965  1.00  0.00     0.006 C 
BRANCH   2   3
ATOM      3  C   UNL     1      -9.292  17.037 -10.702  1.00  0.00     0.053 C 
BRANCH   3   4
ATOM      4  C   UNL     1     -10.580  17.265 -11.429  1.00  0.00     0.041 C 
ATOM      5  O   UNL     1     -11.023  16.393 -12.222  1.00  0.00    -0.550 OA
ATOM      6  O   UNL     1     -11.265  18.463 -11.270  1.00  0.00    -0.550 OA
ENDBRANCH   3   4
ENDBRANCH   2   3
ENDBRANCH   1   2
BRANCH   1   7
ATOM      7  C   UNL     1      -6.945  16.707  -9.390  1.00  0.00     0.000 C 
BRANCH   7   8
ATOM      8  C   UNL     1      -5.484  16.227  -9.357  1.00  0.00    -0.000 C 
BRANCH   8   9
ATOM      9  C   UNL     1      -4.709  16.752  -8.135  1.00  0.00    -0.000 C 
BRANCH   9  10
ATOM     10  C   UNL     1      -5.488  16.728  -6.809  1.00  0.00    -0.003 C 
ATOM     11  C   UNL     1      -4.615  17.043  -5.595  1.00  0.00     0.004 C 
ENDBRANCH   9  10
ENDBRANCH   8   9
ENDBRANCH   7   8
ENDBRANCH   1   7
TORSDOF 7
ENDMDL
MODEL 3
REMARK VINA RESULT:    -3.606      4.225      6.619
REMARK INTER + INTRA:          -5.406
REMARK INTER:                  -5.123
REMARK INTRA:                  -0.284
REMARK UNBOUND:                -0.325
REMARK SMILES CCCCCCCCC(=O)[O-]
REMARK SMILES IDX 6 1 7 2 8 3 9 4 10 5 11 6 5 7 4 8 3 9 2 10 1 11
REMARK H PARENT
REMARK Flexibility Score: inf
ROOT
ATOM      1  C   UNL     1      -6.693  17.101  -7.595  1.00  0.00     0.000 C 
ENDROOT
BRANCH   1   2
ATOM      2  C   UNL     1      -5.441  16.454  -6.983  1.00  0.00     0.006 C 
BRANCH   2   3
ATOM      3  C   UNL     1      -4.311  17.477  -6.839  1.00  0.00     0.053 C 
BRANCH   3   4
ATOM      4  C   UNL     1      -4.181  17.920  -5.416  1.00  0.00     0.041 C 
ATOM      5  O   UNL     1      -4.009  19.137  -5.143  1.00  0.00    -0.550 OA
ATOM      6  O   UNL     1      -4.198  16.980  -4.392  1.00  0.00    -0.550 OA
ENDBRANCH   3   4
ENDBRANCH   2   3
ENDBRANCH   1   2
BRANCH   1   7
ATOM      7  C   UNL     1      -6.966  16.623  -9.031  1.00  0.00     0.000 C 
BRANCH   7   8
ATOM      8  C   UNL     1      -6.950  17.775 -10.050  1.00  0.00    -0.000 C 
BRANCH   8   9
ATOM      9  C   UNL     1      -8.293  17.946 -10.783  1.00  0.00    -0.000 C 
BRANCH   9  10
ATOM     10  C   UNL     1      -9.307  16.812 -10.555  1.00  0.00    -0.003 C 
ATOM     11  C   UNL     1     -10.415  16.779 -11.607  1.00  0.00     0.004 C 
ENDBRANCH   9  10
ENDBRANCH   8   9
ENDBRANCH   7   8
ENDBRANCH   1   7
TORSDOF 7
ENDMDL
MODEL 4
REMARK VINA RESULT:    -3.591      3.168      5.525
REMARK INTER + INTRA:          -5.386
REMARK INTER:                  -4.828
REMARK INTRA:                  -0.558
REMARK UNBOUND:                -0.325
REMARK SMILES CCCCCCCCC(=O)[O-]
REMARK SMILES IDX 6 1 7 2 8 3 9 4 10 5 11 6 5 7 4 8 3 9 2 10 1 11
REMARK H PARENT
REMARK Flexibility Score: inf
ROOT
ATOM      1  C   UNL     1      -6.867  18.893  -9.477  1.00  0.00     0.000 C 
ENDROOT
BRANCH   1   2
ATOM      2  C   UNL     1      -6.892  17.381  -9.749  1.00  0.00     0.006 C 
BRANCH   2   3
ATOM      3  C   UNL     1      -6.944  16.590  -8.439  1.00  0.00     0.053 C 
BRANCH   3   4
ATOM      4  C   UNL     1      -5.572  16.435  -7.864  1.00  0.00     0.041 C 
ATOM      5  O   UNL     1      -4.581  16.272  -8.623  1.00  0.00    -0.550 OA
ATOM      6  O   UNL     1      -5.393  16.420  -6.486  1.00  0.00    -0.550 OA
ENDBRANCH   3   4
ENDBRANCH   2   3
ENDBRANCH   1   2
BRANCH   1   7
ATOM      7  C   UNL     1      -7.701  19.692 -10.493  1.00  0.00     0.000 C 
BRANCH   7   8
ATOM      8  C   UNL     1      -8.596  18.792 -11.362  1.00  0.00    -0.000 C 
BRANCH   8   9
ATOM      9  C   UNL     1     -10.095  19.096 -11.194  1.00  0.00    -0.000 C 
BRANCH   9  10
ATOM     10  C   UNL     1     -11.021  17.870 -11.281  1.00  0.00    -0.003 C 
ATOM     11  C   UNL     1     -10.322  16.564 -10.908  1.00  0.00     0.004 C 
ENDBRANCH   9  10
ENDBRANCH   8   9
ENDBRANCH   7   8
ENDBRANCH   1   7
TORSDOF 7
ENDMDL
MODEL 5
REMARK VINA RESULT:    -3.583      3.110      6.031
REMARK INTER + INTRA:          -5.374
REMARK INTER:                  -5.088
REMARK INTRA:                  -0.286
REMARK UNBOUND:                -0.325
REMARK SMILES CCCCCCCCC(=O)[O-]
REMARK SMILES IDX 6 1 7 2 8 3 9 4 10 5 11 6 5 7 4 8 3 9 2 10 1 11
REMARK H PARENT
REMARK Flexibility Score: inf
ROOT
ATOM      1  C   UNL     1      -7.216  18.010 -10.491  1.00  0.00     0.000 C 
ENDROOT
BRANCH   1   2
ATOM      2  C   UNL     1      -7.279  16.866  -9.468  1.00  0.00     0.006 C 
BRANCH   2   3
ATOM      3  C   UNL     1      -5.875  16.470  -9.002  1.00  0.00     0.053 C 
BRANCH   3   4
ATOM      4  C   UNL     1      -5.613  16.989  -7.623  1.00  0.00     0.041 C 
ATOM      5  O   UNL     1      -5.308  16.195  -6.695  1.00  0.00    -0.550 OA
ATOM      6  O   UNL     1      -5.756  18.344  -7.352  1.00  0.00    -0.550 OA
ENDBRANCH   3   4
ENDBRANCH   2   3
ENDBRANCH   1   2
BRANCH   1   7
ATOM      7  C   UNL     1      -8.521  18.165 -11.289  1.00  0.00     0.000 C 
BRANCH   7   8
ATOM      8  C   UNL     1      -9.549  17.068 -10.961  1.00  0.00    -0.000 C 
BRANCH   8   9
ATOM      9  C   UNL     1     -10.386  16.647 -12.182  1.00  0.00    -0.000 C 
BRANCH   9  10
ATOM     10  C   UNL     1     -11.802  17.246 -12.238  1.00  0.00    -0.003 C 
ATOM     11  C   UNL     1     -11.849  18.608 -12.930  1.00  0.00     0.004 C 
ENDBRANCH   9  10
ENDBRANCH   8   9
ENDBRANCH   7   8
ENDBRANCH   1   7
TORSDOF 7
ENDMDL
MODEL 6
REMARK VINA RESULT:    -3.541     19.206     20.207
REMARK INTER + INTRA:          -5.315
REMARK INTER:                  -5.087
REMARK INTRA:                  -0.228
REMARK UNBOUND:                -0.325
REMARK SMILES CCCCCCCCC(=O)[O-]
REMARK SMILES IDX 6 1 7 2 8 3 9 4 10 5 11 6 5 7 4 8 3 9 2 10 1 11
REMARK H PARENT
REMARK Flexibility Score: inf
ROOT
ATOM      1  C   UNL     1     -20.466   0.881  -8.942  1.00  0.00     0.000 C 
ENDROOT
BRANCH   1   2
ATOM      2  C   UNL     1     -21.392   1.776  -9.779  1.00  0.00     0.006 C 
BRANCH   2   3
ATOM      3  C   UNL     1     -20.847   1.952 -11.199  1.00  0.00     0.053 C 
BRANCH   3   4
ATOM      4  C   UNL     1     -20.946   3.382 -11.627  1.00  0.00     0.041 C 
ATOM      5  O   UNL     1     -20.246   3.808 -12.583  1.00  0.00    -0.550 OA
ATOM      6  O   UNL     1     -21.775   4.257 -10.937  1.00  0.00    -0.550 OA
ENDBRANCH   3   4
ENDBRANCH   2   3
ENDBRANCH   1   2
BRANCH   1   7
ATOM      7  C   UNL     1     -20.830   0.883  -7.448  1.00  0.00     0.000 C 
BRANCH   7   8
ATOM      8  C   UNL     1     -19.639   1.259  -6.550  1.00  0.00    -0.000 C 
BRANCH   8   9
ATOM      9  C   UNL     1     -20.071   1.761  -5.160  1.00  0.00    -0.000 C 
BRANCH   9  10
ATOM     10  C   UNL     1     -21.500   1.372  -4.744  1.00  0.00    -0.003 C 
ATOM     11  C   UNL     1     -21.884   1.897  -3.361  1.00  0.00     0.004 C 
ENDBRANCH   9  10
ENDBRANCH   8   9
ENDBRANCH   7   8
ENDBRANCH   1   7
TORSDOF 7
ENDMDL
MODEL 7
REMARK VINA RESULT:    -3.507      4.667      6.250
REMARK INTER + INTRA:          -5.267
REMARK INTER:                  -4.502
REMARK INTRA:                  -0.765
REMARK UNBOUND:                -0.325
REMARK SMILES CCCCCCCCC(=O)[O-]
REMARK SMILES IDX 6 1 7 2 8 3 9 4 10 5 11 6 5 7 4 8 3 9 2 10 1 11
REMARK H PARENT
REMARK Flexibility Score: inf
ROOT
ATOM      1  C   UNL     1      -6.570  16.982  -7.283  1.00  0.00     0.000 C 
ENDROOT
BRANCH   1   2
ATOM      2  C   UNL     1      -5.192  16.413  -6.909  1.00  0.00     0.006 C 
BRANCH   2   3
ATOM      3  C   UNL     1      -4.163  17.535  -6.745  1.00  0.00     0.053 C 
BRANCH   3   4
ATOM      4  C   UNL     1      -4.229  18.112  -5.367  1.00  0.00     0.041 C 
ATOM      5  O   UNL     1      -4.232  19.360  -5.202  1.00  0.00    -0.550 OA
ATOM      6  O   UNL     1      -4.236  17.271  -4.261  1.00  0.00    -0.550 OA
ENDBRANCH   3   4
ENDBRANCH   2   3
ENDBRANCH   1   2
BRANCH   1   7
ATOM      7  C   UNL     1      -6.518  17.901  -8.514  1.00  0.00     0.000 C 
BRANCH   7   8
ATOM      8  C   UNL     1      -6.375  17.119  -9.831  1.00  0.00    -0.000 C 
BRANCH   8   9
ATOM      9  C   UNL     1      -5.284  17.692 -10.753  1.00  0.00    -0.000 C 
BRANCH   9  10
ATOM     10  C   UNL     1      -3.936  16.951 -10.705  1.00  0.00    -0.003 C 
ATOM     11  C   UNL     1      -4.077  15.475 -10.332  1.00  0.00     0.004 C 
ENDBRANCH   9  10
ENDBRANCH   8   9
ENDBRANCH   7   8
ENDBRANCH   1   7
TORSDOF 7
ENDMDL
MODEL 8
REMARK VINA RESULT:    -3.498      3.647      4.290
REMARK INTER + INTRA:          -5.255
REMARK INTER:                  -4.544
REMARK INTRA:                  -0.711
REMARK UNBOUND:                -0.325
REMARK SMILES CCCCCCCCC(=O)[O-]
REMARK SMILES IDX 6 1 7 2 8 3 9 4 10 5 11 6 5 7 4 8 3 9 2 10 1 11
REMARK H PARENT
REMARK Flexibility Score: inf
ROOT
ATOM      1  C   UNL     1      -7.433  17.689 -10.210  1.00  0.00     0.000 C 
ENDROOT
BRANCH   1   2
ATOM      2  C   UNL     1      -6.976  19.141 -10.000  1.00  0.00     0.006 C 
BRANCH   2   3
ATOM      3  C   UNL     1      -7.066  19.534  -8.522  1.00  0.00     0.053 C 
BRANCH   3   4
ATOM      4  C   UNL     1      -5.801  20.194  -8.075  1.00  0.00     0.041 C 
ATOM      5  O   UNL     1      -5.005  20.679  -8.923  1.00  0.00    -0.550 OA
ATOM      6  O   UNL     1      -5.474  20.230  -6.725  1.00  0.00    -0.550 OA
ENDBRANCH   3   4
ENDBRANCH   2   3
ENDBRANCH   1   2
BRANCH   1   7
ATOM      7  C   UNL     1      -7.005  16.760  -9.062  1.00  0.00     0.000 C 
BRANCH   7   8
ATOM      8  C   UNL     1      -5.564  16.246  -9.222  1.00  0.00    -0.000 C 
BRANCH   8   9
ATOM      9  C   UNL     1      -4.686  16.533  -7.991  1.00  0.00    -0.000 C 
BRANCH   9  10
ATOM     10  C   UNL     1      -5.440  16.582  -6.650  1.00  0.00    -0.003 C 
ATOM     11  C   UNL     1      -4.573  17.074  -5.492  1.00  0.00     0.004 C 
ENDBRANCH   9  10
ENDBRANCH   8   9
ENDBRANCH   7   8
ENDBRANCH   1   7
TORSDOF 7
ENDMDL
MODEL 9
REMARK VINA RESULT:    -3.423      1.718      2.553
REMARK INTER + INTRA:          -5.149
REMARK INTER:                  -4.825
REMARK INTRA:                  -0.324
REMARK UNBOUND:                -0.325
REMARK SMILES CCCCCCCCC(=O)[O-]
REMARK SMILES IDX 6 1 7 2 8 3 9 4 10 5 11 6 5 7 4 8 3 9 2 10 1 11
REMARK H PARENT
REMARK Flexibility Score: inf
ROOT
ATOM      1  C   UNL     1      -9.505  16.957 -10.969  1.00  0.00     0.000 C 
ENDROOT
BRANCH   1   2
ATOM      2  C   UNL     1     -10.992  17.338 -11.024  1.00  0.00     0.006 C 
BRANCH   2   3
ATOM      3  C   UNL     1     -11.525  17.260 -12.457  1.00  0.00     0.053 C 
BRANCH   3   4
ATOM      4  C   UNL     1     -12.098  18.576 -12.878  1.00  0.00     0.041 C 
ATOM      5  O   UNL     1     -11.640  19.648 -12.403  1.00  0.00    -0.550 OA
ATOM      6  O   UNL     1     -13.174  18.616 -13.757  1.00  0.00    -0.550 OA
ENDBRANCH   3   4
ENDBRANCH   2   3
ENDBRANCH   1   2
BRANCH   1   7
ATOM      7  C   UNL     1      -8.580  18.117 -11.372  1.00  0.00     0.000 C 
BRANCH   7   8
ATOM      8  C   UNL     1      -7.257  18.118 -10.587  1.00  0.00    -0.000 C 
BRANCH   8   9
ATOM      9  C   UNL     1      -7.228  17.069  -9.461  1.00  0.00    -0.000 C 
BRANCH   9  10
ATOM     10  C   UNL     1      -5.822  16.621  -9.026  1.00  0.00    -0.003 C 
ATOM     11  C   UNL     1      -5.685  16.467  -7.511  1.00  0.00     0.004 C 
ENDBRANCH   9  10
ENDBRANCH   8   9
ENDBRANCH   7   8
ENDBRANCH   1   7
TORSDOF 7
ENDMDL
