MODEL 1
REMARK VINA RESULT:    -3.770      0.000      0.000
REMARK INTER + INTRA:          -5.936
REMARK INTER:                  -5.534
REMARK INTRA:                  -0.402
REMARK UNBOUND:                -0.402
REMARK SMILES O=C([O-])CCCCCCCC(=O)[O-]
REMARK SMILES IDX 7 1 6 2 5 3 4 4 2 5 1 6 3 7 8 8 9 9 10 10 11 11 12 12 13 13
REMARK H PARENT
REMARK Flexibility Score: inf
ROOT
ATOM      1  C   UNL     1      -4.876   2.932  -0.598  1.00  0.00     0.000 C 
ENDROOT
BRANCH   1   2
ATOM      2  C   UNL     1      -5.835   1.739  -0.432  1.00  0.00     0.000 C 
BRANCH   2   3
ATOM      3  C   UNL     1      -5.206   0.585   0.366  1.00  0.00     0.006 C 
BRANCH   3   4
ATOM      4  C   UNL     1      -6.251  -0.386   0.928  1.00  0.00     0.053 C 
BRANCH   4   5
ATOM      5  C   UNL     1      -6.019  -1.766   0.400  1.00  0.00     0.041 C 
ATOM      6  O   UNL     1      -6.976  -2.580   0.310  1.00  0.00    -0.550 OA
ATOM      7  O   UNL     1      -4.755  -2.140  -0.038  1.00  0.00    -0.550 OA
ENDBRANCH   4   5
ENDBRANCH   3   4
ENDBRANCH   2   3
ENDBRANCH   1   2
BRANCH   1   8
ATOM      8  C   UNL     1      -3.415   2.561  -0.291  1.00  0.00     0.000 C 
BRANCH   8   9
ATOM      9  C   UNL     1      -2.993   2.942   1.136  1.00  0.00     0.006 C 
BRANCH   9  10
ATOM     10  C   UNL     1      -3.751   4.182   1.617  1.00  0.00     0.053 C 
BRANCH  10  11
ATOM     11  C   UNL     1      -4.424   3.910   2.926  1.00  0.00     0.041 C 
ATOM     12  O   UNL     1      -5.332   3.041   3.003  1.00  0.00    -0.550 OA
ATOM     13  O   UNL     1      -4.083   4.651   4.050  1.00  0.00    -0.550 OA
ENDBRANCH  10  11
ENDBRANCH   9  10
ENDBRANCH   8   9
ENDBRANCH   1   8
TORSDOF 8
ENDMDL
MODEL 2
REMARK VINA RESULT:    -3.606      1.809      5.804
REMARK INTER + INTRA:          -5.695
REMARK INTER:                  -5.205
REMARK INTRA:                  -0.490
REMARK UNBOUND:                -0.402
REMARK SMILES O=C([O-])CCCCCCCC(=O)[O-]
REMARK SMILES IDX 7 1 6 2 5 3 4 4 2 5 1 6 3 7 8 8 9 9 10 10 11 11 12 12 13 13
REMARK H PARENT
REMARK Flexibility Score: inf
ROOT
ATOM      1  C   UNL     1      -6.519   0.734   0.371  1.00  0.00     0.000 C 
ENDROOT
BRANCH   1   2
ATOM      2  C   UNL     1      -6.362   1.851  -0.676  1.00  0.00     0.000 C 
BRANCH   2   3
ATOM      3  C   UNL     1      -4.961   2.485  -0.655  1.00  0.00     0.006 C 
BRANCH   3   4
ATOM      4  C   UNL     1      -4.863   3.674   0.311  1.00  0.00     0.053 C 
BRANCH   4   5
ATOM      5  C   UNL     1      -3.553   3.654   1.032  1.00  0.00     0.041 C 
ATOM      6  O   UNL     1      -2.789   2.658   0.929  1.00  0.00    -0.550 OA
ATOM      7  O   UNL     1      -3.153   4.754   1.779  1.00  0.00    -0.550 OA
ENDBRANCH   4   5
ENDBRANCH   3   4
ENDBRANCH   2   3
ENDBRANCH   1   2
BRANCH   1   8
ATOM      8  C   UNL     1      -5.182   0.056   0.715  1.00  0.00     0.000 C 
BRANCH   8   9
ATOM      9  C   UNL     1      -5.297  -1.474   0.802  1.00  0.00     0.006 C 
BRANCH   9  10
ATOM     10  C   UNL     1      -6.628  -1.955   0.220  1.00  0.00     0.053 C 
BRANCH  10  11
ATOM     11  C   UNL     1      -7.407  -2.713   1.249  1.00  0.00     0.041 C 
ATOM     12  O   UNL     1      -7.296  -2.423   2.468  1.00  0.00    -0.550 OA
ATOM     13  O   UNL     1      -8.218  -3.773   0.864  1.00  0.00    -0.550 OA
ENDBRANCH  10  11
ENDBRANCH   9  10
ENDBRANCH   8   9
ENDBRANCH   1   8
TORSDOF 8
ENDMDL
MODEL 3
REMARK VINA RESULT:    -3.596      1.218      5.879
REMARK INTER + INTRA:          -5.680
REMARK INTER:                  -5.201
REMARK INTRA:                  -0.479
REMARK UNBOUND:                -0.402
REMARK SMILES O=C([O-])CCCCCCCC(=O)[O-]
REMARK SMILES IDX 7 1 6 2 5 3 4 4 2 5 1 6 3 7 8 8 9 9 10 10 11 11 12 12 13 13
REMARK H PARENT
REMARK Flexibility Score: inf
ROOT
ATOM      1  C   UNL     1      -5.321   1.951  -0.363  1.00  0.00     0.000 C 
ENDROOT
BRANCH   1   2
ATOM      2  C   UNL     1      -3.827   1.881   0.004  1.00  0.00     0.000 C 
BRANCH   2   3
ATOM      3  C   UNL     1      -3.406   3.001   0.970  1.00  0.00     0.006 C 
BRANCH   3   4
ATOM      4  C   UNL     1      -4.509   3.368   1.971  1.00  0.00     0.053 C 
BRANCH   4   5
ATOM      5  C   UNL     1      -4.101   4.552   2.787  1.00  0.00     0.041 C 
ATOM      6  O   UNL     1      -4.126   4.494   4.045  1.00  0.00    -0.550 OA
ATOM      7  O   UNL     1      -3.645   5.705   2.162  1.00  0.00    -0.550 OA
ENDBRANCH   4   5
ENDBRANCH   3   4
ENDBRANCH   2   3
ENDBRANCH   1   2
BRANCH   1   8
ATOM      8  C   UNL     1      -6.084   0.675   0.031  1.00  0.00     0.000 C 
BRANCH   8   9
ATOM      9  C   UNL     1      -5.250  -0.270   0.909  1.00  0.00     0.006 C 
BRANCH   9  10
ATOM     10  C   UNL     1      -5.304  -1.703   0.373  1.00  0.00     0.053 C 
BRANCH  10  11
ATOM     11  C   UNL     1      -6.700  -2.238   0.447  1.00  0.00     0.041 C 
ATOM     12  O   UNL     1      -7.277  -2.648  -0.594  1.00  0.00    -0.550 OA
ATOM     13  O   UNL     1      -7.381  -2.237   1.658  1.00  0.00    -0.550 OA
ENDBRANCH  10  11
ENDBRANCH   9  10
ENDBRANCH   8   9
ENDBRANCH   1   8
TORSDOF 8
ENDMDL
MODEL 4
REMARK VINA RESULT:    -3.549      4.003      5.432
REMARK INTER + INTRA:          -5.611
REMARK INTER:                  -5.114
REMARK INTRA:                  -0.498
REMARK UNBOUND:                -0.402
REMARK SMILES O=C([O-])CCCCCCCC(=O)[O-]
REMARK SMILES IDX 7 1 6 2 5 3 4 4 2 5 1 6 3 7 8 8 9 9 10 10 11 11 12 12 13 13
REMARK H PARENT
REMARK Flexibility Score: inf
ROOT
ATOM      1  C   UNL     1      -5.963   3.967  -1.189  1.00  0.00     0.000 C 
ENDROOT
BRANCH   1   2
ATOM      2  C   UNL     1      -6.142   2.439  -1.160  1.00  0.00     0.000 C 
BRANCH   2   3
ATOM      3  C   UNL     1      -5.353   1.775  -0.019  1.00  0.00     0.006 C 
BRANCH   3   4
ATOM      4  C   UNL     1      -4.924   2.773   1.064  1.00  0.00     0.053 C 
BRANCH   4   5
ATOM      5  C   UNL     1      -3.434   2.895   1.101  1.00  0.00     0.041 C 
ATOM      6  O   UNL     1      -2.732   2.354   0.207  1.00  0.00    -0.550 OA
ATOM      7  O   UNL     1      -2.822   3.647   2.095  1.00  0.00    -0.550 OA
ENDBRANCH   4   5
ENDBRANCH   3   4
ENDBRANCH   2   3
ENDBRANCH   1   2
BRANCH   1   8
ATOM      8  C   UNL     1      -5.293   4.458  -2.483  1.00  0.00     0.000 C 
BRANCH   8   9
ATOM      9  C   UNL     1      -3.763   4.329  -2.446  1.00  0.00     0.006 C 
BRANCH   9  10
ATOM     10  C   UNL     1      -3.147   4.748  -3.784  1.00  0.00     0.053 C 
BRANCH  10  11
ATOM     11  C   UNL     1      -1.775   4.170  -3.933  1.00  0.00     0.041 C 
ATOM     12  O   UNL     1      -1.465   3.109  -3.331  1.00  0.00    -0.550 OA
ATOM     13  O   UNL     1      -0.822   4.830  -4.699  1.00  0.00    -0.550 OA
ENDBRANCH  10  11
ENDBRANCH   9  10
ENDBRANCH   8   9
ENDBRANCH   1   8
TORSDOF 8
ENDMDL
MODEL 5
REMARK VINA RESULT:    -3.470      1.259      1.633
REMARK INTER + INTRA:          -5.495
REMARK INTER:                  -4.835
REMARK INTRA:                  -0.660
REMARK UNBOUND:                -0.402
REMARK SMILES O=C([O-])CCCCCCCC(=O)[O-]
REMARK SMILES IDX 7 1 6 2 5 3 4 4 2 5 1 6 3 7 8 8 9 9 10 10 11 11 12 12 13 13
REMARK H PARENT
REMARK Flexibility Score: inf
ROOT
ATOM      1  C   UNL     1      -5.818   1.963  -0.710  1.00  0.00     0.000 C 
ENDROOT
BRANCH   1   2
ATOM      2  C   UNL     1      -6.359   0.809   0.152  1.00  0.00     0.000 C 
BRANCH   2   3
ATOM      3  C   UNL     1      -5.237   0.003   0.828  1.00  0.00     0.006 C 
BRANCH   3   4
ATOM      4  C   UNL     1      -5.249  -1.479   0.428  1.00  0.00     0.053 C 
BRANCH   4   5
ATOM      5  C   UNL     1      -6.588  -2.083   0.704  1.00  0.00     0.041 C 
ATOM      6  O   UNL     1      -7.010  -2.177   1.887  1.00  0.00    -0.550 OA
ATOM      7  O   UNL     1      -7.394  -2.498  -0.348  1.00  0.00    -0.550 OA
ENDBRANCH   4   5
ENDBRANCH   3   4
ENDBRANCH   2   3
ENDBRANCH   1   2
BRANCH   1   8
ATOM      8  C   UNL     1      -4.357   2.310  -0.380  1.00  0.00     0.000 C 
BRANCH   8   9
ATOM      9  C   UNL     1      -4.122   3.822  -0.242  1.00  0.00     0.006 C 
BRANCH   9  10
ATOM     10  C   UNL     1      -4.897   4.388   0.951  1.00  0.00     0.053 C 
BRANCH  10  11
ATOM     11  C   UNL     1      -4.423   3.767   2.227  1.00  0.00     0.041 C 
ATOM     12  O   UNL     1      -3.234   3.927   2.607  1.00  0.00    -0.550 OA
ATOM     13  O   UNL     1      -5.283   2.969   2.972  1.00  0.00    -0.550 OA
ENDBRANCH  10  11
ENDBRANCH   9  10
ENDBRANCH   8   9
ENDBRANCH   1   8
TORSDOF 8
ENDMDL
MODEL 6
REMARK VINA RESULT:    -3.461      3.183      4.167
REMARK INTER + INTRA:          -5.481
REMARK INTER:                  -4.885
REMARK INTRA:                  -0.596
REMARK UNBOUND:                -0.402
REMARK SMILES O=C([O-])CCCCCCCC(=O)[O-]
REMARK SMILES IDX 7 1 6 2 5 3 4 4 2 5 1 6 3 7 8 8 9 9 10 10 11 11 12 12 13 13
REMARK H PARENT
REMARK Flexibility Score: inf
ROOT
ATOM      1  C   UNL     1      -6.934   2.397   0.828  1.00  0.00     0.000 C 
ENDROOT
BRANCH   1   2
ATOM      2  C   UNL     1      -5.916   1.753  -0.130  1.00  0.00     0.000 C 
BRANCH   2   3
ATOM      3  C   UNL     1      -4.609   1.357   0.579  1.00  0.00     0.006 C 
BRANCH   3   4
ATOM      4  C   UNL     1      -3.404   2.177   0.102  1.00  0.00     0.053 C 
BRANCH   4   5
ATOM      5  C   UNL     1      -3.302   3.453   0.875  1.00  0.00     0.041 C 
ATOM      6  O   UNL     1      -3.715   4.532   0.375  1.00  0.00    -0.550 OA
ATOM      7  O   UNL     1      -2.796   3.444   2.168  1.00  0.00    -0.550 OA
ENDBRANCH   4   5
ENDBRANCH   3   4
ENDBRANCH   2   3
ENDBRANCH   1   2
BRANCH   1   8
ATOM      8  C   UNL     1      -6.468   2.362   2.293  1.00  0.00     0.000 C 
BRANCH   8   9
ATOM      9  C   UNL     1      -6.314   3.765   2.901  1.00  0.00     0.006 C 
BRANCH   9  10
ATOM     10  C   UNL     1      -6.304   3.700   4.430  1.00  0.00     0.053 C 
BRANCH  10  11
ATOM     11  C   UNL     1      -5.423   4.770   4.995  1.00  0.00     0.041 C 
ATOM     12  O   UNL     1      -4.222   4.861   4.629  1.00  0.00    -0.550 OA
ATOM     13  O   UNL     1      -5.917   5.637   5.962  1.00  0.00    -0.550 OA
ENDBRANCH  10  11
ENDBRANCH   9  10
ENDBRANCH   8   9
ENDBRANCH   1   8
TORSDOF 8
ENDMDL
MODEL 7
REMARK VINA RESULT:    -3.458      1.465      5.141
REMARK INTER + INTRA:          -5.477
REMARK INTER:                  -4.658
REMARK INTRA:                  -0.819
REMARK UNBOUND:                -0.402
REMARK SMILES O=C([O-])CCCCCCCC(=O)[O-]
REMARK SMILES IDX 7 1 6 2 5 3 4 4 2 5 1 6 3 7 8 8 9 9 10 10 11 11 12 12 13 13
REMARK H PARENT
REMARK Flexibility Score: inf
ROOT
ATOM      1  C   UNL     1      -6.319   2.188  -1.094  1.00  0.00     0.000 C 
ENDROOT
BRANCH   1   2
ATOM      2  C   UNL     1      -5.738   3.582  -1.392  1.00  0.00     0.000 C 
BRANCH   2   3
ATOM      3  C   UNL     1      -4.228   3.662  -1.113  1.00  0.00     0.006 C 
BRANCH   3   4
ATOM      4  C   UNL     1      -3.892   4.568   0.079  1.00  0.00     0.053 C 
BRANCH   4   5
ATOM      5  C   UNL     1      -3.585   3.745   1.289  1.00  0.00     0.041 C 
ATOM      6  O   UNL     1      -2.724   2.828   1.230  1.00  0.00    -0.550 OA
ATOM      7  O   UNL     1      -4.213   4.022   2.496  1.00  0.00    -0.550 OA
ENDBRANCH   4   5
ENDBRANCH   3   4
ENDBRANCH   2   3
ENDBRANCH   1   2
BRANCH   1   8
ATOM      8  C   UNL     1      -7.028   2.124   0.269  1.00  0.00     0.000 C 
BRANCH   8   9
ATOM      9  C   UNL     1      -6.257   1.287   1.301  1.00  0.00     0.006 C 
BRANCH   9  10
ATOM     10  C   UNL     1      -5.222   0.392   0.615  1.00  0.00     0.053 C 
BRANCH  10  11
ATOM     11  C   UNL     1      -5.616  -1.047   0.726  1.00  0.00     0.041 C 
ATOM     12  O   UNL     1      -4.881  -1.859   1.347  1.00  0.00    -0.550 OA
ATOM     13  O   UNL     1      -6.771  -1.501   0.103  1.00  0.00    -0.550 OA
ENDBRANCH  10  11
ENDBRANCH   9  10
ENDBRANCH   8   9
ENDBRANCH   1   8
TORSDOF 8
ENDMDL
MODEL 8
REMARK VINA RESULT:    -3.436      1.209      5.871
REMARK INTER + INTRA:          -5.444
REMARK INTER:                  -4.991
REMARK INTRA:                  -0.453
REMARK UNBOUND:                -0.402
REMARK SMILES O=C([O-])CCCCCCCC(=O)[O-]
REMARK SMILES IDX 7 1 6 2 5 3 4 4 2 5 1 6 3 7 8 8 9 9 10 10 11 11 12 12 13 13
REMARK H PARENT
REMARK Flexibility Score: inf
ROOT
ATOM      1  C   UNL     1      -3.344   2.968   0.053  1.00  0.00     0.000 C 
ENDROOT
BRANCH   1   2
ATOM      2  C   UNL     1      -3.268   3.407   1.526  1.00  0.00     0.000 C 
BRANCH   2   3
ATOM      3  C   UNL     1      -4.483   4.249   1.952  1.00  0.00     0.006 C 
BRANCH   3   4
ATOM      4  C   UNL     1      -5.061   3.814   3.305  1.00  0.00     0.053 C 
BRANCH   4   5
ATOM      5  C   UNL     1      -4.796   4.854   4.345  1.00  0.00     0.041 C 
ATOM      6  O   UNL     1      -4.079   5.854   4.074  1.00  0.00    -0.550 OA
ATOM      7  O   UNL     1      -5.379   4.748   5.601  1.00  0.00    -0.550 OA
ENDBRANCH   4   5
ENDBRANCH   3   4
ENDBRANCH   2   3
ENDBRANCH   1   2
BRANCH   1   8
ATOM      8  C   UNL     1      -4.604   2.142  -0.252  1.00  0.00     0.000 C 
BRANCH   8   9
ATOM      9  C   UNL     1      -4.654   0.823   0.535  1.00  0.00     0.006 C 
BRANCH   9  10
ATOM     10  C   UNL     1      -6.026   0.158   0.398  1.00  0.00     0.053 C 
BRANCH  10  11
ATOM     11  C   UNL     1      -5.937  -1.300   0.725  1.00  0.00     0.041 C 
ATOM     12  O   UNL     1      -5.001  -1.999   0.256  1.00  0.00    -0.550 OA
ATOM     13  O   UNL     1      -6.917  -1.898   1.508  1.00  0.00    -0.550 OA
ENDBRANCH  10  11
ENDBRANCH   9  10
ENDBRANCH   8   9
ENDBRANCH   1   8
TORSDOF 8
ENDMDL
MODEL 9
REMARK VINA RESULT:    -3.435      3.098      5.059
REMARK INTER + INTRA:          -5.443
REMARK INTER:                  -4.712
REMARK INTRA:                  -0.731
REMARK UNBOUND:                -0.402
REMARK SMILES O=C([O-])CCCCCCCC(=O)[O-]
REMARK SMILES IDX 7 1 6 2 5 3 4 4 2 5 1 6 3 7 8 8 9 9 10 10 11 11 12 12 13 13
REMARK H PARENT
REMARK Flexibility Score: inf
ROOT
ATOM      1  C   UNL     1      -6.564   1.163   1.518  1.00  0.00     0.000 C 
ENDROOT
BRANCH   1   2
ATOM      2  C   UNL     1      -6.708   2.655   1.870  1.00  0.00     0.000 C 
BRANCH   2   3
ATOM      3  C   UNL     1      -5.974   3.027   3.169  1.00  0.00     0.006 C 
BRANCH   3   4
ATOM      4  C   UNL     1      -6.281   4.456   3.636  1.00  0.00     0.053 C 
BRANCH   4   5
ATOM      5  C   UNL     1      -5.013   5.200   3.906  1.00  0.00     0.041 C 
ATOM      6  O   UNL     1      -4.219   4.798   4.797  1.00  0.00    -0.550 OA
ATOM      7  O   UNL     1      -4.682   6.311   3.142  1.00  0.00    -0.550 OA
ENDBRANCH   4   5
ENDBRANCH   3   4
ENDBRANCH   2   3
ENDBRANCH   1   2
BRANCH   1   8
ATOM      8  C   UNL     1      -5.218   0.843   0.847  1.00  0.00     0.000 C 
BRANCH   8   9
ATOM      9  C   UNL     1      -4.817   1.887  -0.208  1.00  0.00     0.006 C 
BRANCH   9  10
ATOM     10  C   UNL     1      -3.364   2.328  -0.015  1.00  0.00     0.053 C 
BRANCH  10  11
ATOM     11  C   UNL     1      -3.297   3.551   0.845  1.00  0.00     0.041 C 
ATOM     12  O   UNL     1      -3.747   4.648   0.424  1.00  0.00    -0.550 OA
ATOM     13  O   UNL     1      -2.692   3.489   2.095  1.00  0.00    -0.550 OA
ENDBRANCH  10  11
ENDBRANCH   9  10
ENDBRANCH   8   9
ENDBRANCH   1   8
TORSDOF 8
ENDMDL
