MODEL 1
REMARK VINA RESULT:    -4.514      0.000      0.000
REMARK INTER + INTRA:          -7.219
REMARK INTER:                  -6.097
REMARK INTRA:                  -1.122
REMARK UNBOUND:                -1.122
REMARK SMILES CC(=O)CCC=C(C)CCC=C(C)C
REMARK SMILES IDX 7 1 6 2 8 3 9 4 10 5 11 6 13 7 12 8 14 9 5 10 4 11 2 12 3 13
REMARK SMILES IDX 1 14
REMARK H PARENT
REMARK Flexibility Score: inf
ROOT
ATOM      1  C   UNL     1     198.865 209.496 217.130  1.00  0.00    -0.077 C 
ATOM      2  C   UNL     1     199.679 210.363 216.487  1.00  0.00    -0.028 C 
ATOM      3  C   UNL     1     197.411 209.335 216.752  1.00  0.00     0.039 C 
ENDROOT
BRANCH   1   4
ATOM      4  C   UNL     1     199.432 208.645 218.248  1.00  0.00     0.034 C 
BRANCH   4   5
ATOM      5  C   UNL     1     200.378 207.557 217.719  1.00  0.00     0.032 C 
BRANCH   5   6
ATOM      6  C   UNL     1     199.620 206.345 217.228  1.00  0.00    -0.028 C 
ATOM      7  C   UNL     1     200.029 206.857 214.811  1.00  0.00     0.039 C 
ATOM      8  C   UNL     1     199.491 205.997 215.928  1.00  0.00    -0.080 C 
ATOM      9  C   UNL     1     198.738 204.746 215.560  1.00  0.00     0.039 C 
ENDBRANCH   5   6
ENDBRANCH   4   5
ENDBRANCH   1   4
BRANCH   2  10
ATOM     10  C   UNL     1     199.238 211.298 215.385  1.00  0.00     0.035 C 
BRANCH  10  11
ATOM     11  C   UNL     1     198.872 212.684 215.931  1.00  0.00     0.079 C 
BRANCH  11  12
ATOM     12  C   UNL     1     197.410 212.992 215.731  1.00  0.00     0.130 C 
ATOM     13  O   UNL     1     196.863 213.811 216.455  1.00  0.00    -0.300 OA
ATOM     14  C   UNL     1     196.610 212.314 214.659  1.00  0.00     0.087 C 
ENDBRANCH  11  12
ENDBRANCH  10  11
ENDBRANCH   2  10
TORSDOF 6
ENDMDL
MODEL 2
REMARK VINA RESULT:    -4.493     14.871     17.174
REMARK INTER + INTRA:          -7.191
REMARK INTER:                  -6.103
REMARK INTRA:                  -1.088
REMARK UNBOUND:                -1.122
REMARK SMILES CC(=O)CCC=C(C)CCC=C(C)C
REMARK SMILES IDX 7 1 6 2 8 3 9 4 10 5 11 6 13 7 12 8 14 9 5 10 4 11 2 12 3 13
REMARK SMILES IDX 1 14
REMARK H PARENT
REMARK Flexibility Score: inf
ROOT
ATOM      1  C   UNL     1     213.505 202.898 217.102  1.00  0.00    -0.077 C 
ATOM      2  C   UNL     1     212.677 202.081 216.414  1.00  0.00    -0.028 C 
ATOM      3  C   UNL     1     214.970 203.027 216.754  1.00  0.00     0.039 C 
ENDROOT
BRANCH   1   4
ATOM      4  C   UNL     1     212.945 203.724 218.242  1.00  0.00     0.034 C 
BRANCH   4   5
ATOM      5  C   UNL     1     211.987 204.817 217.743  1.00  0.00     0.032 C 
BRANCH   5   6
ATOM      6  C   UNL     1     212.733 205.982 217.136  1.00  0.00    -0.028 C 
ATOM      7  C   UNL     1     212.062 205.411 214.791  1.00  0.00     0.039 C 
ATOM      8  C   UNL     1     212.741 206.283 215.818  1.00  0.00    -0.080 C 
ATOM      9  C   UNL     1     213.496 207.493 215.331  1.00  0.00     0.039 C 
ENDBRANCH   5   6
ENDBRANCH   4   5
ENDBRANCH   1   4
BRANCH   2  10
ATOM     10  C   UNL     1     213.108 201.174 215.286  1.00  0.00     0.035 C 
BRANCH  10  11
ATOM     11  C   UNL     1     213.016 199.695 215.682  1.00  0.00     0.079 C 
BRANCH  11  12
ATOM     12  C   UNL     1     214.357 199.147 216.099  1.00  0.00     0.130 C 
ATOM     13  O   UNL     1     215.378 199.640 215.641  1.00  0.00    -0.300 OA
ATOM     14  C   UNL     1     214.467 198.005 217.065  1.00  0.00     0.087 C 
ENDBRANCH  11  12
ENDBRANCH  10  11
ENDBRANCH   2  10
TORSDOF 6
ENDMDL
MODEL 3
REMARK VINA RESULT:    -4.379     14.445     16.354
REMARK INTER + INTRA:          -7.037
REMARK INTER:                  -6.318
REMARK INTRA:                  -0.719
REMARK UNBOUND:                -1.122
REMARK SMILES CC(=O)CCC=C(C)CCC=C(C)C
REMARK SMILES IDX 7 1 6 2 8 3 9 4 10 5 11 6 13 7 12 8 14 9 5 10 4 11 2 12 3 13
REMARK SMILES IDX 1 14
REMARK H PARENT
REMARK Flexibility Score: inf
ROOT
ATOM      1  C   UNL     1     213.010 205.291 217.172  1.00  0.00    -0.077 C 
ATOM      2  C   UNL     1     214.145 204.694 216.744  1.00  0.00    -0.028 C 
ATOM      3  C   UNL     1     211.979 204.550 217.993  1.00  0.00     0.039 C 
ENDROOT
BRANCH   1   4
ATOM      4  C   UNL     1     212.775 206.750 216.840  1.00  0.00     0.034 C 
BRANCH   4   5
ATOM      5  C   UNL     1     213.090 207.062 215.370  1.00  0.00     0.032 C 
BRANCH   5   6
ATOM      6  C   UNL     1     214.252 208.018 215.236  1.00  0.00    -0.028 C 
ATOM      7  C   UNL     1     213.092 209.460 213.548  1.00  0.00     0.039 C 
ATOM      8  C   UNL     1     214.250 209.121 214.453  1.00  0.00    -0.080 C 
ATOM      9  C   UNL     1     215.458 210.021 214.425  1.00  0.00     0.039 C 
ENDBRANCH   5   6
ENDBRANCH   4   5
ENDBRANCH   1   4
BRANCH   2  10
ATOM     10  C   UNL     1     214.487 203.239 216.967  1.00  0.00     0.035 C 
BRANCH  10  11
ATOM     11  C   UNL     1     214.216 202.395 215.716  1.00  0.00     0.079 C 
BRANCH  11  12
ATOM     12  C   UNL     1     212.828 201.808 215.731  1.00  0.00     0.130 C 
ATOM     13  O   UNL     1     211.987 202.231 214.952  1.00  0.00    -0.300 OA
ATOM     14  C   UNL     1     212.455 200.712 216.685  1.00  0.00     0.087 C 
ENDBRANCH  11  12
ENDBRANCH  10  11
ENDBRANCH   2  10
TORSDOF 6
ENDMDL
MODEL 4
REMARK VINA RESULT:    -4.360      2.152      3.701
REMARK INTER + INTRA:          -7.011
REMARK INTER:                  -6.336
REMARK INTRA:                  -0.675
REMARK UNBOUND:                -1.122
REMARK SMILES CC(=O)CCC=C(C)CCC=C(C)C
REMARK SMILES IDX 7 1 6 2 8 3 9 4 10 5 11 6 13 7 12 8 14 9 5 10 4 11 2 12 3 13
REMARK SMILES IDX 1 14
REMARK H PARENT
REMARK Flexibility Score: inf
ROOT
ATOM      1  C   UNL     1     199.319 206.968 217.176  1.00  0.00    -0.077 C 
ATOM      2  C   UNL     1     198.184 207.569 216.756  1.00  0.00    -0.028 C 
ATOM      3  C   UNL     1     200.350 207.698 218.004  1.00  0.00     0.039 C 
ENDROOT
BRANCH   1   4
ATOM      4  C   UNL     1     199.554 205.513 216.825  1.00  0.00     0.034 C 
BRANCH   4   5
ATOM      5  C   UNL     1     198.440 204.950 215.930  1.00  0.00     0.032 C 
BRANCH   5   6
ATOM      6  C   UNL     1     198.985 204.014 214.877  1.00  0.00    -0.028 C 
ATOM      7  C   UNL     1     196.856 202.708 214.691  1.00  0.00     0.039 C 
ATOM      8  C   UNL     1     198.273 203.030 214.283  1.00  0.00    -0.080 C 
ATOM      9  C   UNL     1     198.915 202.179 213.219  1.00  0.00     0.039 C 
ENDBRANCH   5   6
ENDBRANCH   4   5
ENDBRANCH   1   4
BRANCH   2  10
ATOM     10  C   UNL     1     197.841 209.021 216.997  1.00  0.00     0.035 C 
BRANCH  10  11
ATOM     11  C   UNL     1     198.158 209.889 215.773  1.00  0.00     0.079 C 
BRANCH  11  12
ATOM     12  C   UNL     1     199.537 210.492 215.861  1.00  0.00     0.130 C 
ATOM     13  O   UNL     1     200.439 210.033 215.176  1.00  0.00    -0.300 OA
ATOM     14  C   UNL     1     199.827 211.646 216.774  1.00  0.00     0.087 C 
ENDBRANCH  11  12
ENDBRANCH  10  11
ENDBRANCH   2  10
TORSDOF 6
ENDMDL
MODEL 5
REMARK VINA RESULT:    -4.318      3.000      6.091
REMARK INTER + INTRA:          -6.955
REMARK INTER:                  -6.138
REMARK INTRA:                  -0.816
REMARK UNBOUND:                -1.122
REMARK SMILES CC(=O)CCC=C(C)CCC=C(C)C
REMARK SMILES IDX 7 1 6 2 8 3 9 4 10 5 11 6 13 7 12 8 14 9 5 10 4 11 2 12 3 13
REMARK SMILES IDX 1 14
REMARK H PARENT
REMARK Flexibility Score: inf
ROOT
ATOM      1  C   UNL     1     198.979 207.997 217.265  1.00  0.00    -0.077 C 
ATOM      2  C   UNL     1     199.757 206.897 217.153  1.00  0.00    -0.028 C 
ATOM      3  C   UNL     1     197.473 207.924 217.156  1.00  0.00     0.039 C 
ENDROOT
BRANCH   1   4
ATOM      4  C   UNL     1     199.632 209.337 217.531  1.00  0.00     0.034 C 
BRANCH   4   5
ATOM      5  C   UNL     1     199.879 210.124 216.235  1.00  0.00     0.032 C 
BRANCH   5   6
ATOM      6  C   UNL     1     199.585 211.595 216.408  1.00  0.00    -0.028 C 
ATOM      7  C   UNL     1     197.246 211.405 215.531  1.00  0.00     0.039 C 
ATOM      8  C   UNL     1     198.395 212.176 216.134  1.00  0.00    -0.080 C 
ATOM      9  C   UNL     1     198.209 213.651 216.377  1.00  0.00     0.039 C 
ENDBRANCH   5   6
ENDBRANCH   4   5
ENDBRANCH   1   4
BRANCH   2  10
ATOM     10  C   UNL     1     199.244 205.509 216.849  1.00  0.00     0.035 C 
BRANCH  10  11
ATOM     11  C   UNL     1     199.425 205.150 215.368  1.00  0.00     0.079 C 
BRANCH  11  12
ATOM     12  C   UNL     1     198.124 204.726 214.736  1.00  0.00     0.130 C 
ATOM     13  O   UNL     1     197.699 203.597 214.933  1.00  0.00    -0.300 OA
ATOM     14  C   UNL     1     197.337 205.662 213.867  1.00  0.00     0.087 C 
ENDBRANCH  11  12
ENDBRANCH  10  11
ENDBRANCH   2  10
TORSDOF 6
ENDMDL
MODEL 6
REMARK VINA RESULT:    -4.299     14.523     15.917
REMARK INTER + INTRA:          -6.928
REMARK INTER:                  -6.312
REMARK INTRA:                  -0.616
REMARK UNBOUND:                -1.122
REMARK SMILES CC(=O)CCC=C(C)CCC=C(C)C
REMARK SMILES IDX 7 1 6 2 8 3 9 4 10 5 11 6 13 7 12 8 14 9 5 10 4 11 2 12 3 13
REMARK SMILES IDX 1 14
REMARK H PARENT
REMARK Flexibility Score: inf
ROOT
ATOM      1  C   UNL     1     213.383 204.634 217.223  1.00  0.00    -0.077 C 
ATOM      2  C   UNL     1     213.847 205.794 216.707  1.00  0.00    -0.028 C 
ATOM      3  C   UNL     1     211.989 204.515 217.794  1.00  0.00     0.039 C 
ENDROOT
BRANCH   1   4
ATOM      4  C   UNL     1     214.278 203.412 217.208  1.00  0.00     0.034 C 
BRANCH   4   5
ATOM      5  C   UNL     1     214.254 202.699 215.848  1.00  0.00     0.032 C 
BRANCH   5   6
ATOM      6  C   UNL     1     214.568 201.227 215.980  1.00  0.00    -0.028 C 
ATOM      7  C   UNL     1     212.159 200.548 216.076  1.00  0.00     0.039 C 
ATOM      8  C   UNL     1     213.637 200.248 216.043  1.00  0.00    -0.080 C 
ATOM      9  C   UNL     1     214.070 198.809 216.142  1.00  0.00     0.039 C 
ENDBRANCH   5   6
ENDBRANCH   4   5
ENDBRANCH   1   4
BRANCH   2  10
ATOM     10  C   UNL     1     213.080 207.096 216.694  1.00  0.00     0.035 C 
BRANCH  10  11
ATOM     11  C   UNL     1     212.865 207.613 215.266  1.00  0.00     0.079 C 
BRANCH  11  12
ATOM     12  C   UNL     1     214.165 208.016 214.619  1.00  0.00     0.130 C 
ATOM     13  O   UNL     1     214.722 209.043 214.976  1.00  0.00    -0.300 OA
ATOM     14  C   UNL     1     214.792 207.180 213.542  1.00  0.00     0.087 C 
ENDBRANCH  11  12
ENDBRANCH  10  11
ENDBRANCH   2  10
TORSDOF 6
ENDMDL
MODEL 7
REMARK VINA RESULT:    -4.289     14.210     15.888
REMARK INTER + INTRA:          -6.914
REMARK INTER:                  -5.543
REMARK INTRA:                  -1.372
REMARK UNBOUND:                -1.122
REMARK SMILES CC(=O)CCC=C(C)CCC=C(C)C
REMARK SMILES IDX 7 1 6 2 8 3 9 4 10 5 11 6 13 7 12 8 14 9 5 10 4 11 2 12 3 13
REMARK SMILES IDX 1 14
REMARK H PARENT
REMARK Flexibility Score: inf
ROOT
ATOM      1  C   UNL     1     213.170 205.302 217.113  1.00  0.00    -0.077 C 
ATOM      2  C   UNL     1     214.288 204.614 216.789  1.00  0.00    -0.028 C 
ATOM      3  C   UNL     1     212.004 204.645 217.814  1.00  0.00     0.039 C 
ENDROOT
BRANCH   1   4
ATOM      4  C   UNL     1     213.093 206.778 216.784  1.00  0.00     0.034 C 
BRANCH   4   5
ATOM      5  C   UNL     1     213.384 207.052 215.300  1.00  0.00     0.032 C 
BRANCH   5   6
ATOM      6  C   UNL     1     212.283 206.530 214.407  1.00  0.00    -0.028 C 
ATOM      7  C   UNL     1     213.798 204.970 213.165  1.00  0.00     0.039 C 
ATOM      8  C   UNL     1     212.447 205.566 213.473  1.00  0.00    -0.080 C 
ATOM      9  C   UNL     1     211.266 205.102 212.662  1.00  0.00     0.039 C 
ENDBRANCH   5   6
ENDBRANCH   4   5
ENDBRANCH   1   4
BRANCH   2  10
ATOM     10  C   UNL     1     214.483 203.134 217.021  1.00  0.00     0.035 C 
BRANCH  10  11
ATOM     11  C   UNL     1     214.223 202.321 215.746  1.00  0.00     0.079 C 
BRANCH  11  12
ATOM     12  C   UNL     1     212.807 201.808 215.693  1.00  0.00     0.130 C 
ATOM     13  O   UNL     1     211.987 202.379 214.989  1.00  0.00    -0.300 OA
ATOM     14  C   UNL     1     212.381 200.610 216.488  1.00  0.00     0.087 C 
ENDBRANCH  11  12
ENDBRANCH  10  11
ENDBRANCH   2  10
TORSDOF 6
ENDMDL
MODEL 8
REMARK VINA RESULT:    -4.272      2.067      3.524
REMARK INTER + INTRA:          -6.892
REMARK INTER:                  -5.536
REMARK INTRA:                  -1.356
REMARK UNBOUND:                -1.122
REMARK SMILES CC(=O)CCC=C(C)CCC=C(C)C
REMARK SMILES IDX 7 1 6 2 8 3 9 4 10 5 11 6 13 7 12 8 14 9 5 10 4 11 2 12 3 13
REMARK SMILES IDX 1 14
REMARK H PARENT
REMARK Flexibility Score: inf
ROOT
ATOM      1  C   UNL     1     199.130 206.840 217.097  1.00  0.00    -0.077 C 
ATOM      2  C   UNL     1     198.014 207.537 216.786  1.00  0.00    -0.028 C 
ATOM      3  C   UNL     1     200.281 207.470 217.848  1.00  0.00     0.039 C 
ENDROOT
BRANCH   1   4
ATOM      4  C   UNL     1     199.220 205.381 216.703  1.00  0.00     0.034 C 
BRANCH   4   5
ATOM      5  C   UNL     1     198.927 205.170 215.210  1.00  0.00     0.032 C 
BRANCH   5   6
ATOM      6  C   UNL     1     200.017 205.745 214.337  1.00  0.00    -0.028 C 
ATOM      7  C   UNL     1     198.474 207.325 213.156  1.00  0.00     0.039 C 
ATOM      8  C   UNL     1     199.835 206.741 213.440  1.00  0.00    -0.080 C 
ATOM      9  C   UNL     1     201.008 207.256 212.647  1.00  0.00     0.039 C 
ENDBRANCH   5   6
ENDBRANCH   4   5
ENDBRANCH   1   4
BRANCH   2  10
ATOM     10  C   UNL     1     197.807 209.004 217.081  1.00  0.00     0.035 C 
BRANCH  10  11
ATOM     11  C   UNL     1     198.090 209.875 215.851  1.00  0.00     0.079 C 
BRANCH  11  12
ATOM     12  C   UNL     1     199.504 210.399 215.854  1.00  0.00     0.130 C 
ATOM     13  O   UNL     1     200.354 209.839 215.179  1.00  0.00    -0.300 OA
ATOM     14  C   UNL     1     199.890 211.597 216.670  1.00  0.00     0.087 C 
ENDBRANCH  11  12
ENDBRANCH  10  11
ENDBRANCH   2  10
TORSDOF 6
ENDMDL
MODEL 9
REMARK VINA RESULT:    -4.220      1.409      2.654
REMARK INTER + INTRA:          -6.821
REMARK INTER:                  -5.902
REMARK INTRA:                  -0.920
REMARK UNBOUND:                -1.122
REMARK SMILES CC(=O)CCC=C(C)CCC=C(C)C
REMARK SMILES IDX 7 1 6 2 8 3 9 4 10 5 11 6 13 7 12 8 14 9 5 10 4 11 2 12 3 13
REMARK SMILES IDX 1 14
REMARK H PARENT
REMARK Flexibility Score: inf
ROOT
ATOM      1  C   UNL     1     199.122 207.702 217.309  1.00  0.00    -0.077 C 
ATOM      2  C   UNL     1     197.981 208.080 216.690  1.00  0.00    -0.028 C 
ATOM      3  C   UNL     1     199.899 208.646 218.197  1.00  0.00     0.039 C 
ENDROOT
BRANCH   1   4
ATOM      4  C   UNL     1     199.625 206.285 217.124  1.00  0.00     0.034 C 
BRANCH   4   5
ATOM      5  C   UNL     1     198.512 205.337 216.651  1.00  0.00     0.032 C 
BRANCH   5   6
ATOM      6  C   UNL     1     198.953 204.498 215.475  1.00  0.00    -0.028 C 
ATOM      7  C   UNL     1     197.655 205.845 213.809  1.00  0.00     0.039 C 
ATOM      8  C   UNL     1     198.609 204.740 214.189  1.00  0.00    -0.080 C 
ATOM      9  C   UNL     1     199.137 203.852 213.093  1.00  0.00     0.039 C 
ENDBRANCH   5   6
ENDBRANCH   4   5
ENDBRANCH   1   4
BRANCH   2  10
ATOM     10  C   UNL     1     197.389 209.468 216.753  1.00  0.00     0.035 C 
BRANCH  10  11
ATOM     11  C   UNL     1     197.824 210.325 215.558  1.00  0.00     0.079 C 
BRANCH  11  12
ATOM     12  C   UNL     1     198.505 211.594 216.001  1.00  0.00     0.130 C 
ATOM     13  O   UNL     1     197.827 212.554 216.339  1.00  0.00    -0.300 OA
ATOM     14  C   UNL     1     200.000 211.706 216.037  1.00  0.00     0.087 C 
ENDBRANCH  11  12
ENDBRANCH  10  11
ENDBRANCH   2  10
TORSDOF 6
ENDMDL
