MODEL 1
REMARK VINA RESULT:   131.116      0.000      0.000
REMARK INTER + INTRA:         144.451
REMARK INTER:                 142.614
REMARK INTRA:                   1.837
REMARK UNBOUND:                 1.837
REMARK SMILES CC1(C)CC[C@]2(C(=O)[O-])CC[C@@]3(C)C(=CC[C@@H]4[C@@]5(C)CC[C@@H](O)C(C)(C)[C@H]5CC[C@@]43C)[C@H]2C1
REMARK SMILES IDX 6 1 5 2 10 3 32 4 4 5 11 6 14 7 33 8 2 9 12 10 15 11 1 12
REMARK SMILES IDX 3 13 13 14 30 15 16 16 17 17 29 18 31 19 18 20 28 21 27 22
REMARK SMILES IDX 20 23 19 24 24 25 21 26 22 27 25 28 26 29 7 30 8 31 9 32
REMARK SMILES IDX 23 33
REMARK H PARENT 23 34
REMARK Flexibility Score: inf
ROOT
ATOM      1  C   UNL     1      11.973 -12.224 -12.103  1.00  0.00     0.017 C 
ATOM      2  C   UNL     1      12.180 -11.468 -10.764  1.00  0.00     0.014 C 
ATOM      3  C   UNL     1      11.763 -11.233 -13.278  1.00  0.00     0.014 C 
ATOM      4  C   UNL     1      10.634 -13.008 -11.962  1.00  0.00     0.028 C 
ATOM      5  C   UNL     1      12.247 -12.448  -9.566  1.00  0.00     0.007 C 
ATOM      6  C   UNL     1      11.408 -11.908 -14.643  1.00  0.00     0.013 C 
ATOM      7  C   UNL     1       9.965 -13.430 -13.280  1.00  0.00    -0.064 C 
ATOM      8  C   UNL     1      10.641 -14.057 -10.834  1.00  0.00     0.015 C 
ATOM      9  C   UNL     1      11.029 -13.425  -9.455  1.00  0.00    -0.035 C 
ATOM     10  C   UNL     1      10.720 -13.342 -14.614  1.00  0.00    -0.006 C 
ATOM     11  C   UNL     1       8.624 -13.468 -13.239  1.00  0.00    -0.027 C 
ATOM     12  C   UNL     1       9.819 -12.673  -8.847  1.00  0.00     0.011 C 
ATOM     13  C   UNL     1      11.402 -14.567  -8.487  1.00  0.00     0.011 C 
ATOM     14  C   UNL     1      11.843 -14.442 -14.620  1.00  0.00     0.017 C 
ATOM     15  C   UNL     1       9.764 -13.575 -15.915  1.00  0.00    -0.020 C 
ATOM     16  C   UNL     1       7.725 -13.225 -14.397  1.00  0.00     0.032 C 
ATOM     17  C   UNL     1       8.396 -12.800 -15.750  1.00  0.00     0.006 C 
ATOM     18  C   UNL     1       9.354 -15.073 -16.120  1.00  0.00     0.008 C 
ATOM     19  C   UNL     1      10.594 -13.101 -17.158  1.00  0.00     0.012 C 
ATOM     20  C   UNL     1       7.313 -12.949 -16.935  1.00  0.00    -0.025 C 
ATOM     21  C   UNL     1       8.369 -15.308 -17.283  1.00  0.00     0.005 C 
ATOM     22  C   UNL     1       7.047 -14.479 -17.263  1.00  0.00     0.003 C 
ATOM     23  C   UNL     1       7.731 -12.182 -18.232  1.00  0.00     0.010 C 
ATOM     24  C   UNL     1       6.004 -12.243 -16.430  1.00  0.00     0.012 C 
ATOM     25  C   UNL     1       6.157 -14.745 -18.565  1.00  0.00    -0.006 C 
ATOM     26  C   UNL     1       6.789 -12.391 -19.430  1.00  0.00     0.033 C 
ATOM     27  C   UNL     1       6.625 -13.879 -19.782  1.00  0.00     0.120 C 
ATOM     28  C   UNL     1       4.651 -14.468 -18.280  1.00  0.00     0.014 C 
ATOM     29  C   UNL     1       6.201 -16.246 -18.985  1.00  0.00     0.014 C 
ENDROOT
BRANCH   1  30
ATOM     30  C   UNL     1      13.251 -13.027 -12.333  1.00  0.00     0.048 C 
ATOM     31  O   UNL     1      14.389 -12.547 -12.094  1.00  0.00    -0.550 OA
ATOM     32  O   UNL     1      13.177 -14.286 -12.919  1.00  0.00    -0.550 OA
ENDBRANCH   1  30
BRANCH  27  33
ATOM     33  O   UNL     1       7.838 -14.365 -20.304  1.00  0.00    -0.393 OA
ATOM     34  H   UNL     1       7.804 -14.244 -21.288  1.00  0.00     0.210 HD
ENDBRANCH  27  33
TORSDOF 2
ENDMDL
