MODEL 1
REMARK VINA RESULT:    -5.774      0.000      0.000
REMARK INTER + INTRA:          -8.644
REMARK INTER:                  -7.293
REMARK INTRA:                  -1.350
REMARK UNBOUND:                -1.350
REMARK SMILES O=C(C=Cc1ccc(O)cc1)c1ccc(O)cc1O
REMARK SMILES IDX 4 1 3 2 5 3 6 4 7 5 8 6 11 7 10 8 9 9 2 11 1 12 12 13 18 14
REMARK SMILES IDX 13 15 17 16 14 17 15 18 19 19 16 21
REMARK H PARENT 9 10 19 20 16 22
REMARK Flexibility Score: inf
ROOT
ATOM      1  C   UNL     1      32.879 -34.751  33.599  1.00  0.00     0.012 C 
ATOM      2  C   UNL     1      31.801 -34.864  32.807  1.00  0.00     0.053 C 
ENDROOT
BRANCH   1   3
ATOM      3  C   UNL     1      33.894 -35.801  33.821  1.00  0.00    -0.025 A 
ATOM      4  C   UNL     1      34.870 -36.034  32.840  1.00  0.00     0.012 A 
ATOM      5  C   UNL     1      35.808 -37.058  33.008  1.00  0.00     0.047 A 
ATOM      6  C   UNL     1      35.762 -37.874  34.146  1.00  0.00     0.115 A 
ATOM      7  C   UNL     1      33.834 -36.641  34.946  1.00  0.00     0.012 A 
ATOM      8  C   UNL     1      34.771 -37.664  35.112  1.00  0.00     0.047 A 
BRANCH   6   9
ATOM      9  O   UNL     1      36.692 -38.896  34.325  1.00  0.00    -0.508 OA
ATOM     10  H   UNL     1      37.176 -39.313  33.540  1.00  0.00     0.293 HD
ENDBRANCH   6   9
ENDBRANCH   1   3
BRANCH   2  11
ATOM     11  C   UNL     1      31.335 -36.112  32.152  1.00  0.00     0.189 C 
ATOM     12  O   UNL     1      31.186 -36.168  30.902  1.00  0.00    -0.289 OA
BRANCH  11  13
ATOM     13  C   UNL     1      31.041 -37.319  32.954  1.00  0.00     0.064 A 
ATOM     14  C   UNL     1      31.704 -38.544  32.724  1.00  0.00     0.130 A 
ATOM     15  C   UNL     1      30.051 -37.250  33.949  1.00  0.00     0.020 A 
ATOM     16  C   UNL     1      31.400 -39.660  33.520  1.00  0.00     0.093 A 
ATOM     17  C   UNL     1      29.752 -38.368  34.731  1.00  0.00     0.047 A 
ATOM     18  C   UNL     1      30.427 -39.573  34.522  1.00  0.00     0.119 A 
BRANCH  14  19
ATOM     19  O   UNL     1      32.638 -38.661  31.697  1.00  0.00    -0.507 OA
ATOM     20  H   UNL     1      33.152 -39.521  31.540  1.00  0.00     0.293 HD
ENDBRANCH  14  19
BRANCH  18  21
ATOM     21  O   UNL     1      30.120 -40.679  35.313  1.00  0.00    -0.508 OA
ATOM     22  H   UNL     1      30.755 -41.008  36.030  1.00  0.00     0.293 HD
ENDBRANCH  18  21
ENDBRANCH  11  13
ENDBRANCH   2  11
TORSDOF 6
ENDMDL
MODEL 2
REMARK VINA RESULT:    -5.713      2.317      5.446
REMARK INTER + INTRA:          -8.567
REMARK INTER:                  -7.281
REMARK INTRA:                  -1.286
REMARK UNBOUND:                -1.350
REMARK SMILES O=C(C=Cc1ccc(O)cc1)c1ccc(O)cc1O
REMARK SMILES IDX 4 1 3 2 5 3 6 4 7 5 8 6 11 7 10 8 9 9 2 11 1 12 12 13 18 14
REMARK SMILES IDX 13 15 17 16 14 17 15 18 19 19 16 21
REMARK H PARENT 9 10 19 20 16 22
REMARK Flexibility Score: inf
ROOT
ATOM      1  C   UNL     1      32.720 -38.429  32.351  1.00  0.00     0.012 C 
ATOM      2  C   UNL     1      33.811 -37.865  32.896  1.00  0.00     0.053 C 
ENDROOT
BRANCH   1   3
ATOM      3  C   UNL     1      31.435 -38.653  33.043  1.00  0.00    -0.025 A 
ATOM      4  C   UNL     1      30.400 -37.718  32.892  1.00  0.00     0.012 A 
ATOM      5  C   UNL     1      29.193 -37.885  33.579  1.00  0.00     0.047 A 
ATOM      6  C   UNL     1      29.020 -38.975  34.443  1.00  0.00     0.115 A 
ATOM      7  C   UNL     1      31.268 -39.728  33.933  1.00  0.00     0.012 A 
ATOM      8  C   UNL     1      30.061 -39.893  34.619  1.00  0.00     0.047 A 
BRANCH   6   9
ATOM      9  O   UNL     1      27.822 -39.152  35.131  1.00  0.00    -0.508 OA
ATOM     10  H   UNL     1      27.554 -38.540  35.892  1.00  0.00     0.293 HD
ENDBRANCH   6   9
ENDBRANCH   1   3
BRANCH   2  11
ATOM     11  C   UNL     1      33.984 -37.526  34.330  1.00  0.00     0.189 C 
ATOM     12  O   UNL     1      34.657 -38.271  35.092  1.00  0.00    -0.289 OA
BRANCH  11  13
ATOM     13  C   UNL     1      33.376 -36.303  34.895  1.00  0.00     0.064 A 
ATOM     14  C   UNL     1      32.528 -36.346  36.023  1.00  0.00     0.130 A 
ATOM     15  C   UNL     1      33.626 -35.069  34.271  1.00  0.00     0.020 A 
ATOM     16  C   UNL     1      31.983 -35.157  36.531  1.00  0.00     0.093 A 
ATOM     17  C   UNL     1      33.073 -33.891  34.781  1.00  0.00     0.047 A 
ATOM     18  C   UNL     1      32.256 -33.931  35.913  1.00  0.00     0.119 A 
BRANCH  14  19
ATOM     19  O   UNL     1      32.205 -37.564  36.619  1.00  0.00    -0.507 OA
ATOM     20  H   UNL     1      31.712 -37.609  37.504  1.00  0.00     0.293 HD
ENDBRANCH  14  19
BRANCH  18  21
ATOM     21  O   UNL     1      31.717 -32.747  36.412  1.00  0.00    -0.508 OA
ATOM     22  H   UNL     1      32.029 -32.353  37.293  1.00  0.00     0.293 HD
ENDBRANCH  18  21
ENDBRANCH  11  13
ENDBRANCH   2  11
TORSDOF 6
ENDMDL
MODEL 3
REMARK VINA RESULT:    -5.632      1.506      4.775
REMARK INTER + INTRA:          -8.464
REMARK INTER:                  -7.169
REMARK INTRA:                  -1.295
REMARK UNBOUND:                -1.350
REMARK SMILES O=C(C=Cc1ccc(O)cc1)c1ccc(O)cc1O
REMARK SMILES IDX 4 1 3 2 5 3 6 4 7 5 8 6 11 7 10 8 9 9 2 11 1 12 12 13 18 14
REMARK SMILES IDX 13 15 17 16 14 17 15 18 19 19 16 21
REMARK H PARENT 9 10 19 20 16 22
REMARK Flexibility Score: inf
ROOT
ATOM      1  C   UNL     1      31.003 -36.080  32.080  1.00  0.00     0.012 C 
ATOM      2  C   UNL     1      31.780 -35.042  32.431  1.00  0.00     0.053 C 
ENDROOT
BRANCH   1   3
ATOM      3  C   UNL     1      30.770 -37.290  32.894  1.00  0.00    -0.025 A 
ATOM      4  C   UNL     1      29.832 -37.248  33.937  1.00  0.00     0.012 A 
ATOM      5  C   UNL     1      29.634 -38.366  34.753  1.00  0.00     0.047 A 
ATOM      6  C   UNL     1      30.389 -39.529  34.549  1.00  0.00     0.115 A 
ATOM      7  C   UNL     1      31.546 -38.448  32.713  1.00  0.00     0.012 A 
ATOM      8  C   UNL     1      31.347 -39.564  33.529  1.00  0.00     0.047 A 
BRANCH   6   9
ATOM      9  O   UNL     1      30.199 -40.650  35.354  1.00  0.00    -0.508 OA
ATOM     10  H   UNL     1      29.830 -41.514  34.978  1.00  0.00     0.293 HD
ENDBRANCH   6   9
ENDBRANCH   1   3
BRANCH   2  11
ATOM     11  C   UNL     1      32.680 -34.995  33.610  1.00  0.00     0.189 C 
ATOM     12  O   UNL     1      32.559 -34.088  34.477  1.00  0.00    -0.289 OA
BRANCH  11  13
ATOM     13  C   UNL     1      33.734 -36.014  33.796  1.00  0.00     0.064 A 
ATOM     14  C   UNL     1      33.843 -36.762  34.987  1.00  0.00     0.130 A 
ATOM     15  C   UNL     1      34.670 -36.218  32.768  1.00  0.00     0.020 A 
ATOM     16  C   UNL     1      34.854 -37.728  35.112  1.00  0.00     0.093 A 
ATOM     17  C   UNL     1      35.676 -37.178  32.905  1.00  0.00     0.047 A 
ATOM     18  C   UNL     1      35.769 -37.938  34.074  1.00  0.00     0.119 A 
BRANCH  14  19
ATOM     19  O   UNL     1      32.973 -36.531  36.051  1.00  0.00    -0.507 OA
ATOM     20  H   UNL     1      32.966 -35.648  36.551  1.00  0.00     0.293 HD
ENDBRANCH  14  19
BRANCH  18  21
ATOM     21  O   UNL     1      36.775 -38.894  34.194  1.00  0.00    -0.508 OA
ATOM     22  H   UNL     1      37.695 -38.653  34.543  1.00  0.00     0.293 HD
ENDBRANCH  18  21
ENDBRANCH  11  13
ENDBRANCH   2  11
TORSDOF 6
ENDMDL
MODEL 4
REMARK VINA RESULT:    -5.625      2.745      5.263
REMARK INTER + INTRA:          -8.455
REMARK INTER:                  -7.465
REMARK INTRA:                  -0.990
REMARK UNBOUND:                -1.350
REMARK SMILES O=C(C=Cc1ccc(O)cc1)c1ccc(O)cc1O
REMARK SMILES IDX 4 1 3 2 5 3 6 4 7 5 8 6 11 7 10 8 9 9 2 11 1 12 12 13 18 14
REMARK SMILES IDX 13 15 17 16 14 17 15 18 19 19 16 21
REMARK H PARENT 9 10 19 20 16 22
REMARK Flexibility Score: inf
ROOT
ATOM      1  C   UNL     1      31.707 -36.502  31.980  1.00  0.00     0.012 C 
ATOM      2  C   UNL     1      32.658 -35.618  32.326  1.00  0.00     0.053 C 
ENDROOT
BRANCH   1   3
ATOM      3  C   UNL     1      31.243 -37.630  32.812  1.00  0.00    -0.025 A 
ATOM      4  C   UNL     1      30.040 -37.510  33.525  1.00  0.00     0.012 A 
ATOM      5  C   UNL     1      29.609 -38.546  34.359  1.00  0.00     0.047 A 
ATOM      6  C   UNL     1      30.388 -39.701  34.508  1.00  0.00     0.115 A 
ATOM      7  C   UNL     1      32.035 -38.777  32.988  1.00  0.00     0.012 A 
ATOM      8  C   UNL     1      31.603 -39.811  33.822  1.00  0.00     0.047 A 
BRANCH   6   9
ATOM      9  O   UNL     1      29.967 -40.740  35.335  1.00  0.00    -0.508 OA
ATOM     10  H   UNL     1      29.141 -41.285  35.121  1.00  0.00     0.293 HD
ENDBRANCH   6   9
ENDBRANCH   1   3
BRANCH   2  11
ATOM     11  C   UNL     1      33.534 -35.713  33.519  1.00  0.00     0.189 C 
ATOM     12  O   UNL     1      34.517 -36.502  33.537  1.00  0.00    -0.289 OA
BRANCH  11  13
ATOM     13  C   UNL     1      33.277 -34.878  34.712  1.00  0.00     0.064 A 
ATOM     14  C   UNL     1      32.759 -35.425  35.905  1.00  0.00     0.130 A 
ATOM     15  C   UNL     1      33.525 -33.496  34.640  1.00  0.00     0.020 A 
ATOM     16  C   UNL     1      32.543 -34.594  37.016  1.00  0.00     0.093 A 
ATOM     17  C   UNL     1      33.300 -32.677  35.750  1.00  0.00     0.047 A 
ATOM     18  C   UNL     1      32.814 -33.223  36.940  1.00  0.00     0.119 A 
BRANCH  14  19
ATOM     19  O   UNL     1      32.436 -36.778  35.981  1.00  0.00    -0.507 OA
ATOM     20  H   UNL     1      32.831 -37.457  35.340  1.00  0.00     0.293 HD
ENDBRANCH  14  19
BRANCH  18  21
ATOM     21  O   UNL     1      32.599 -32.394  38.039  1.00  0.00    -0.508 OA
ATOM     22  H   UNL     1      33.366 -32.072  38.617  1.00  0.00     0.293 HD
ENDBRANCH  18  21
ENDBRANCH  11  13
ENDBRANCH   2  11
TORSDOF 6
ENDMDL
MODEL 5
REMARK VINA RESULT:    -5.530      3.338      5.570
REMARK INTER + INTRA:          -8.335
REMARK INTER:                  -7.348
REMARK INTRA:                  -0.987
REMARK UNBOUND:                -1.350
REMARK SMILES O=C(C=Cc1ccc(O)cc1)c1ccc(O)cc1O
REMARK SMILES IDX 4 1 3 2 5 3 6 4 7 5 8 6 11 7 10 8 9 9 2 11 1 12 12 13 18 14
REMARK SMILES IDX 13 15 17 16 14 17 15 18 19 19 16 21
REMARK H PARENT 9 10 19 20 16 22
REMARK Flexibility Score: inf
ROOT
ATOM      1  C   UNL     1      30.951 -35.635  32.769  1.00  0.00     0.012 C 
ATOM      2  C   UNL     1      31.812 -34.665  33.119  1.00  0.00     0.053 C 
ENDROOT
BRANCH   1   3
ATOM      3  C   UNL     1      30.788 -36.927  33.465  1.00  0.00    -0.025 A 
ATOM      4  C   UNL     1      31.408 -38.073  32.944  1.00  0.00     0.012 A 
ATOM      5  C   UNL     1      31.224 -39.316  33.558  1.00  0.00     0.047 A 
ATOM      6  C   UNL     1      30.399 -39.428  34.685  1.00  0.00     0.115 A 
ATOM      7  C   UNL     1      29.937 -37.051  34.577  1.00  0.00     0.012 A 
ATOM      8  C   UNL     1      29.755 -38.293  35.190  1.00  0.00     0.047 A 
BRANCH   6   9
ATOM      9  O   UNL     1      30.210 -40.661  35.306  1.00  0.00    -0.508 OA
ATOM     10  H   UNL     1      29.539 -40.778  36.056  1.00  0.00     0.293 HD
ENDBRANCH   6   9
ENDBRANCH   1   3
BRANCH   2  11
ATOM     11  C   UNL     1      32.873 -34.780  34.150  1.00  0.00     0.189 C 
ATOM     12  O   UNL     1      33.873 -35.524  33.965  1.00  0.00    -0.289 OA
BRANCH  11  13
ATOM     13  C   UNL     1      32.781 -34.019  35.414  1.00  0.00     0.064 A 
ATOM     14  C   UNL     1      32.635 -34.663  36.661  1.00  0.00     0.130 A 
ATOM     15  C   UNL     1      32.811 -32.615  35.365  1.00  0.00     0.020 A 
ATOM     16  C   UNL     1      32.565 -33.899  37.836  1.00  0.00     0.093 A 
ATOM     17  C   UNL     1      32.734 -31.863  36.541  1.00  0.00     0.047 A 
ATOM     18  C   UNL     1      32.616 -32.501  37.777  1.00  0.00     0.119 A 
BRANCH  14  19
ATOM     19  O   UNL     1      32.531 -36.051  36.733  1.00  0.00    -0.507 OA
ATOM     20  H   UNL     1      32.897 -36.573  37.521  1.00  0.00     0.293 HD
ENDBRANCH  14  19
BRANCH  18  21
ATOM     21  O   UNL     1      32.545 -31.737  38.941  1.00  0.00    -0.508 OA
ATOM     22  H   UNL     1      31.784 -31.847  39.601  1.00  0.00     0.293 HD
ENDBRANCH  18  21
ENDBRANCH  11  13
ENDBRANCH   2  11
TORSDOF 6
ENDMDL
MODEL 6
REMARK VINA RESULT:    -5.473      3.064      3.804
REMARK INTER + INTRA:          -8.263
REMARK INTER:                  -7.206
REMARK INTRA:                  -1.057
REMARK UNBOUND:                -1.350
REMARK SMILES O=C(C=Cc1ccc(O)cc1)c1ccc(O)cc1O
REMARK SMILES IDX 4 1 3 2 5 3 6 4 7 5 8 6 11 7 10 8 9 9 2 11 1 12 12 13 18 14
REMARK SMILES IDX 13 15 17 16 14 17 15 18 19 19 16 21
REMARK H PARENT 9 10 19 20 16 22
REMARK Flexibility Score: inf
ROOT
ATOM      1  C   UNL     1      30.519 -33.599  34.157  1.00  0.00     0.012 C 
ATOM      2  C   UNL     1      30.853 -34.511  33.229  1.00  0.00     0.053 C 
ENDROOT
BRANCH   1   3
ATOM      3  C   UNL     1      31.203 -33.404  35.451  1.00  0.00    -0.025 A 
ATOM      4  C   UNL     1      32.451 -32.763  35.482  1.00  0.00     0.012 A 
ATOM      5  C   UNL     1      33.139 -32.615  36.690  1.00  0.00     0.047 A 
ATOM      6  C   UNL     1      32.596 -33.128  37.876  1.00  0.00     0.115 A 
ATOM      7  C   UNL     1      30.677 -33.943  36.638  1.00  0.00     0.012 A 
ATOM      8  C   UNL     1      31.366 -33.794  37.845  1.00  0.00     0.047 A 
BRANCH   6   9
ATOM      9  O   UNL     1      33.271 -32.985  39.086  1.00  0.00    -0.508 OA
ATOM     10  H   UNL     1      33.082 -32.209  39.709  1.00  0.00     0.293 HD
ENDBRANCH   6   9
ENDBRANCH   1   3
BRANCH   2  11
ATOM     11  C   UNL     1      31.847 -35.598  33.403  1.00  0.00     0.189 C 
ATOM     12  O   UNL     1      33.069 -35.398  33.170  1.00  0.00    -0.289 OA
BRANCH  11  13
ATOM     13  C   UNL     1      31.425 -36.940  33.858  1.00  0.00     0.064 A 
ATOM     14  C   UNL     1      31.576 -38.083  33.045  1.00  0.00     0.130 A 
ATOM     15  C   UNL     1      30.829 -37.071  35.124  1.00  0.00     0.020 A 
ATOM     16  C   UNL     1      31.171 -39.338  33.526  1.00  0.00     0.093 A 
ATOM     17  C   UNL     1      30.425 -38.324  35.591  1.00  0.00     0.047 A 
ATOM     18  C   UNL     1      30.598 -39.460  34.797  1.00  0.00     0.119 A 
BRANCH  14  19
ATOM     19  O   UNL     1      32.097 -37.972  31.757  1.00  0.00    -0.507 OA
ATOM     20  H   UNL     1      31.929 -38.681  31.052  1.00  0.00     0.293 HD
ENDBRANCH  14  19
BRANCH  18  21
ATOM     21  O   UNL     1      30.194 -40.703  35.279  1.00  0.00    -0.508 OA
ATOM     22  H   UNL     1      29.819 -40.812  36.215  1.00  0.00     0.293 HD
ENDBRANCH  18  21
ENDBRANCH  11  13
ENDBRANCH   2  11
TORSDOF 6
ENDMDL
MODEL 7
REMARK VINA RESULT:    -5.328      1.964      3.696
REMARK INTER + INTRA:          -8.080
REMARK INTER:                  -6.673
REMARK INTRA:                  -1.407
REMARK UNBOUND:                -1.350
REMARK SMILES O=C(C=Cc1ccc(O)cc1)c1ccc(O)cc1O
REMARK SMILES IDX 4 1 3 2 5 3 6 4 7 5 8 6 11 7 10 8 9 9 2 11 1 12 12 13 18 14
REMARK SMILES IDX 13 15 17 16 14 17 15 18 19 19 16 21
REMARK H PARENT 9 10 19 20 16 22
REMARK Flexibility Score: inf
ROOT
ATOM      1  C   UNL     1      34.404 -37.635  34.824  1.00  0.00     0.012 C 
ATOM      2  C   UNL     1      34.127 -38.602  33.933  1.00  0.00     0.053 C 
ENDROOT
BRANCH   1   3
ATOM      3  C   UNL     1      33.529 -36.489  35.143  1.00  0.00    -0.025 A 
ATOM      4  C   UNL     1      32.555 -36.623  36.144  1.00  0.00     0.012 A 
ATOM      5  C   UNL     1      31.683 -35.567  36.426  1.00  0.00     0.047 A 
ATOM      6  C   UNL     1      31.760 -34.376  35.692  1.00  0.00     0.115 A 
ATOM      7  C   UNL     1      33.583 -35.304  34.389  1.00  0.00     0.012 A 
ATOM      8  C   UNL     1      32.710 -34.249  34.672  1.00  0.00     0.047 A 
BRANCH   6   9
ATOM      9  O   UNL     1      30.898 -33.316  35.965  1.00  0.00    -0.508 OA
ATOM     10  H   UNL     1      30.018 -33.210  35.473  1.00  0.00     0.293 HD
ENDBRANCH   6   9
ENDBRANCH   1   3
BRANCH   2  11
ATOM     11  C   UNL     1      32.985 -38.606  32.986  1.00  0.00     0.189 C 
ATOM     12  O   UNL     1      33.174 -38.464  31.748  1.00  0.00    -0.289 OA
BRANCH  11  13
ATOM     13  C   UNL     1      31.601 -38.782  33.474  1.00  0.00     0.064 A 
ATOM     14  C   UNL     1      30.588 -37.841  33.192  1.00  0.00     0.130 A 
ATOM     15  C   UNL     1      31.297 -39.902  34.265  1.00  0.00     0.020 A 
ATOM     16  C   UNL     1      29.285 -38.057  33.667  1.00  0.00     0.093 A 
ATOM     17  C   UNL     1      29.998 -40.105  34.738  1.00  0.00     0.047 A 
ATOM     18  C   UNL     1      28.989 -39.188  34.437  1.00  0.00     0.119 A 
BRANCH  14  19
ATOM     19  O   UNL     1      30.877 -36.684  32.471  1.00  0.00    -0.507 OA
ATOM     20  H   UNL     1      30.672 -36.609  31.480  1.00  0.00     0.293 HD
ENDBRANCH  14  19
BRANCH  18  21
ATOM     21  O   UNL     1      27.697 -39.407  34.912  1.00  0.00    -0.508 OA
ATOM     22  H   UNL     1      27.522 -40.003  35.713  1.00  0.00     0.293 HD
ENDBRANCH  18  21
ENDBRANCH  11  13
ENDBRANCH   2  11
TORSDOF 6
ENDMDL
MODEL 8
REMARK VINA RESULT:    -5.291      2.492      4.055
REMARK INTER + INTRA:          -8.033
REMARK INTER:                  -6.947
REMARK INTRA:                  -1.086
REMARK UNBOUND:                -1.350
REMARK SMILES O=C(C=Cc1ccc(O)cc1)c1ccc(O)cc1O
REMARK SMILES IDX 4 1 3 2 5 3 6 4 7 5 8 6 11 7 10 8 9 9 2 11 1 12 12 13 18 14
REMARK SMILES IDX 13 15 17 16 14 17 15 18 19 19 16 21
REMARK H PARENT 9 10 19 20 16 22
REMARK Flexibility Score: inf
ROOT
ATOM      1  C   UNL     1      32.242 -36.717  32.136  1.00  0.00     0.012 C 
ATOM      2  C   UNL     1      31.784 -37.942  32.444  1.00  0.00     0.053 C 
ENDROOT
BRANCH   1   3
ATOM      3  C   UNL     1      32.312 -35.571  33.064  1.00  0.00    -0.025 A 
ATOM      4  C   UNL     1      33.381 -35.480  33.968  1.00  0.00     0.012 A 
ATOM      5  C   UNL     1      33.439 -34.430  34.890  1.00  0.00     0.047 A 
ATOM      6  C   UNL     1      32.415 -33.474  34.933  1.00  0.00     0.115 A 
ATOM      7  C   UNL     1      31.273 -34.627  33.131  1.00  0.00     0.012 A 
ATOM      8  C   UNL     1      31.332 -33.578  34.053  1.00  0.00     0.047 A 
BRANCH   6   9
ATOM      9  O   UNL     1      32.462 -32.423  35.846  1.00  0.00    -0.508 OA
ATOM     10  H   UNL     1      32.438 -31.457  35.542  1.00  0.00     0.293 HD
ENDBRANCH   6   9
ENDBRANCH   1   3
BRANCH   2  11
ATOM     11  C   UNL     1      31.105 -38.319  33.708  1.00  0.00     0.189 C 
ATOM     12  O   UNL     1      31.773 -38.617  34.734  1.00  0.00    -0.289 OA
BRANCH  11  13
ATOM     13  C   UNL     1      29.629 -38.348  33.792  1.00  0.00     0.064 A 
ATOM     14  C   UNL     1      28.940 -39.418  34.403  1.00  0.00     0.130 A 
ATOM     15  C   UNL     1      28.896 -37.296  33.219  1.00  0.00     0.020 A 
ATOM     16  C   UNL     1      27.538 -39.395  34.470  1.00  0.00     0.093 A 
ATOM     17  C   UNL     1      27.500 -37.286  33.286  1.00  0.00     0.047 A 
ATOM     18  C   UNL     1      26.818 -38.331  33.914  1.00  0.00     0.119 A 
BRANCH  14  19
ATOM     19  O   UNL     1      29.639 -40.509  34.916  1.00  0.00    -0.507 OA
ATOM     20  H   UNL     1      30.502 -40.393  35.435  1.00  0.00     0.293 HD
ENDBRANCH  14  19
BRANCH  18  21
ATOM     21  O   UNL     1      25.427 -38.304  33.976  1.00  0.00    -0.508 OA
ATOM     22  H   UNL     1      24.929 -38.591  34.811  1.00  0.00     0.293 HD
ENDBRANCH  18  21
ENDBRANCH  11  13
ENDBRANCH   2  11
TORSDOF 6
ENDMDL
MODEL 9
REMARK VINA RESULT:    -5.222      1.301      4.506
REMARK INTER + INTRA:          -7.946
REMARK INTER:                  -6.539
REMARK INTRA:                  -1.407
REMARK UNBOUND:                -1.350
REMARK SMILES O=C(C=Cc1ccc(O)cc1)c1ccc(O)cc1O
REMARK SMILES IDX 4 1 3 2 5 3 6 4 7 5 8 6 11 7 10 8 9 9 2 11 1 12 12 13 18 14
REMARK SMILES IDX 13 15 17 16 14 17 15 18 19 19 16 21
REMARK H PARENT 9 10 19 20 16 22
REMARK Flexibility Score: inf
ROOT
ATOM      1  C   UNL     1      31.164 -35.356  33.896  1.00  0.00     0.012 C 
ATOM      2  C   UNL     1      32.213 -35.145  33.083  1.00  0.00     0.053 C 
ENDROOT
BRANCH   1   3
ATOM      3  C   UNL     1      30.552 -36.670  34.180  1.00  0.00    -0.025 A 
ATOM      4  C   UNL     1      31.079 -37.469  35.206  1.00  0.00     0.012 A 
ATOM      5  C   UNL     1      30.546 -38.737  35.456  1.00  0.00     0.047 A 
ATOM      6  C   UNL     1      29.497 -39.228  34.667  1.00  0.00     0.115 A 
ATOM      7  C   UNL     1      29.520 -37.179  33.372  1.00  0.00     0.012 A 
ATOM      8  C   UNL     1      28.989 -38.447  33.624  1.00  0.00     0.047 A 
BRANCH   6   9
ATOM      9  O   UNL     1      28.958 -40.490  34.909  1.00  0.00    -0.508 OA
ATOM     10  H   UNL     1      29.375 -41.327  34.520  1.00  0.00     0.293 HD
ENDBRANCH   6   9
ENDBRANCH   1   3
BRANCH   2  11
ATOM     11  C   UNL     1      32.833 -36.155  32.190  1.00  0.00     0.189 C 
ATOM     12  O   UNL     1      32.619 -36.136  30.949  1.00  0.00    -0.289 OA
BRANCH  11  13
ATOM     13  C   UNL     1      33.720 -37.203  32.739  1.00  0.00     0.064 A 
ATOM     14  C   UNL     1      33.425 -38.576  32.598  1.00  0.00     0.130 A 
ATOM     15  C   UNL     1      34.872 -36.816  33.445  1.00  0.00     0.020 A 
ATOM     16  C   UNL     1      34.305 -39.534  33.125  1.00  0.00     0.093 A 
ATOM     17  C   UNL     1      35.737 -37.779  33.971  1.00  0.00     0.047 A 
ATOM     18  C   UNL     1      35.460 -39.138  33.809  1.00  0.00     0.119 A 
BRANCH  14  19
ATOM     19  O   UNL     1      32.254 -38.987  31.965  1.00  0.00    -0.507 OA
ATOM     20  H   UNL     1      31.346 -38.885  32.405  1.00  0.00     0.293 HD
ENDBRANCH  14  19
BRANCH  18  21
ATOM     21  O   UNL     1      36.335 -40.086  34.335  1.00  0.00    -0.508 OA
ATOM     22  H   UNL     1      36.508 -40.150  35.332  1.00  0.00     0.293 HD
ENDBRANCH  18  21
ENDBRANCH  11  13
ENDBRANCH   2  11
TORSDOF 6
ENDMDL
