MODEL 1
REMARK VINA RESULT:    -6.933      0.000      0.000
REMARK INTER + INTRA:         -11.517
REMARK INTER:                  -9.567
REMARK INTRA:                  -1.950
REMARK UNBOUND:                -1.950
REMARK SMILES CC[C@@H](CC[C@H](C)[C@@H]1CC[C@@H]2C3=CC[C@H]4C[C@H](O)CC[C@]4(C)[C@@H]3CC[C@@]21C)C(C)C
REMARK SMILES IDX 5 1 4 2 3 3 2 4 1 5 28 6 29 7 30 8 6 9 7 10 8 11 9 12 26 13
REMARK SMILES IDX 10 14 11 15 25 16 27 17 12 18 24 19 23 20 13 21 21 22 14 23
REMARK SMILES IDX 15 24 20 25 22 26 16 27 19 28 17 29 18 30
REMARK H PARENT 18 31
REMARK Flexibility Score: inf
ROOT
ATOM      1  C   UNL     1     114.742 123.067 127.119  1.00  0.00     0.004 C 
ENDROOT
BRANCH   1   2
ATOM      2  C   UNL     1     116.110 123.638 126.681  1.00  0.00     0.004 C 
BRANCH   2   3
ATOM      3  C   UNL     1     117.003 124.165 127.847  1.00  0.00    -0.009 C 
BRANCH   3   4
ATOM      4  C   UNL     1     116.161 125.093 128.768  1.00  0.00     0.000 C 
ATOM      5  C   UNL     1     116.379 124.865 130.269  1.00  0.00     0.004 C 
ENDBRANCH   3   4
BRANCH   3   6
ATOM      6  C   UNL     1     118.349 124.817 127.370  1.00  0.00    -0.014 C 
ATOM      7  C   UNL     1     119.020 124.011 126.244  1.00  0.00     0.007 C 
ATOM      8  C   UNL     1     118.252 126.300 126.964  1.00  0.00     0.007 C 
ENDBRANCH   3   6
ENDBRANCH   2   3
ENDBRANCH   1   2
BRANCH   1   9
ATOM      9  C   UNL     1     114.704 121.529 127.365  1.00  0.00    -0.011 C 
ATOM     10  C   UNL     1     113.650 120.859 126.466  1.00  0.00     0.008 C 
BRANCH   9  11
ATOM     11  C   UNL     1     114.495 121.111 128.876  1.00  0.00    -0.002 C 
ATOM     12  C   UNL     1     113.956 122.165 129.854  1.00  0.00     0.005 C 
ATOM     13  C   UNL     1     115.732 120.465 129.579  1.00  0.00    -0.023 C 
ATOM     14  C   UNL     1     114.467 121.761 131.235  1.00  0.00     0.009 C 
ATOM     15  C   UNL     1     115.319 120.481 131.074  1.00  0.00     0.021 C 
ATOM     16  C   UNL     1     117.016 121.339 129.370  1.00  0.00     0.008 C 
ATOM     17  C   UNL     1     115.931 119.017 129.043  1.00  0.00     0.012 C 
ATOM     18  C   UNL     1     116.503 120.452 132.054  1.00  0.00    -0.067 C 
ATOM     19  C   UNL     1     118.202 121.075 130.326  1.00  0.00     0.009 C 
ATOM     20  C   UNL     1     117.891 120.129 131.500  1.00  0.00     0.021 C 
ATOM     21  C   UNL     1     116.303 120.784 133.358  1.00  0.00    -0.027 C 
ATOM     22  C   UNL     1     119.008 120.047 132.620  1.00  0.00    -0.023 C 
ATOM     23  C   UNL     1     117.424 121.013 134.350  1.00  0.00     0.031 C 
ATOM     24  C   UNL     1     118.767 121.206 133.627  1.00  0.00     0.002 C 
ATOM     25  C   UNL     1     120.438 120.215 132.042  1.00  0.00     0.010 C 
ATOM     26  C   UNL     1     118.886 118.631 133.270  1.00  0.00     0.012 C 
ATOM     27  C   UNL     1     119.939 121.534 134.595  1.00  0.00     0.036 C 
ATOM     28  C   UNL     1     121.551 120.132 133.104  1.00  0.00     0.032 C 
ATOM     29  C   UNL     1     121.163 120.594 134.532  1.00  0.00     0.114 C 
BRANCH  29  30
ATOM     30  O   UNL     1     122.278 121.208 135.125  1.00  0.00    -0.393 OA
ATOM     31  H   UNL     1     123.077 120.651 134.920  1.00  0.00     0.210 HD
ENDBRANCH  29  30
ENDBRANCH   9  11
ENDBRANCH   1   9
TORSDOF 7
ENDMDL
MODEL 2
REMARK VINA RESULT:    -6.865      4.645      8.150
REMARK INTER + INTRA:         -11.423
REMARK INTER:                 -10.974
REMARK INTRA:                  -0.450
REMARK UNBOUND:                -1.950
REMARK SMILES CC[C@@H](CC[C@H](C)[C@@H]1CC[C@@H]2C3=CC[C@H]4C[C@H](O)CC[C@]4(C)[C@@H]3CC[C@@]21C)C(C)C
REMARK SMILES IDX 5 1 4 2 3 3 2 4 1 5 28 6 29 7 30 8 6 9 7 10 8 11 9 12 26 13
REMARK SMILES IDX 10 14 11 15 25 16 27 17 12 18 24 19 23 20 13 21 21 22 14 23
REMARK SMILES IDX 15 24 20 25 22 26 16 27 19 28 17 29 18 30
REMARK H PARENT 18 31
REMARK Flexibility Score: inf
ROOT
ATOM      1  C   UNL     1     120.692 129.410 129.167  1.00  0.00     0.004 C 
ENDROOT
BRANCH   1   2
ATOM      2  C   UNL     1     120.911 130.515 128.109  1.00  0.00     0.004 C 
BRANCH   2   3
ATOM      3  C   UNL     1     120.662 131.969 128.619  1.00  0.00    -0.009 C 
BRANCH   3   4
ATOM      4  C   UNL     1     119.626 132.672 127.696  1.00  0.00     0.000 C 
ATOM      5  C   UNL     1     118.403 133.236 128.429  1.00  0.00     0.004 C 
ENDBRANCH   3   4
BRANCH   3   6
ATOM      6  C   UNL     1     121.976 132.802 128.828  1.00  0.00    -0.014 C 
ATOM      7  C   UNL     1     123.169 132.210 128.057  1.00  0.00     0.007 C 
ATOM      8  C   UNL     1     121.854 134.308 128.525  1.00  0.00     0.007 C 
ENDBRANCH   3   6
ENDBRANCH   2   3
ENDBRANCH   1   2
BRANCH   1   9
ATOM      9  C   UNL     1     119.247 128.834 129.246  1.00  0.00    -0.011 C 
ATOM     10  C   UNL     1     118.308 129.812 129.975  1.00  0.00     0.008 C 
BRANCH   9  11
ATOM     11  C   UNL     1     119.151 127.389 129.885  1.00  0.00    -0.002 C 
ATOM     12  C   UNL     1     120.236 126.363 129.528  1.00  0.00     0.005 C 
ATOM     13  C   UNL     1     117.785 126.654 129.696  1.00  0.00    -0.023 C 
ATOM     14  C   UNL     1     119.589 124.990 129.690  1.00  0.00     0.009 C 
ATOM     15  C   UNL     1     118.121 125.201 130.126  1.00  0.00     0.021 C 
ATOM     16  C   UNL     1     117.337 126.678 128.196  1.00  0.00     0.008 C 
ATOM     17  C   UNL     1     116.717 127.305 130.624  1.00  0.00     0.012 C 
ATOM     18  C   UNL     1     117.186 124.138 129.529  1.00  0.00    -0.067 C 
ATOM     19  C   UNL     1     116.251 125.660 127.776  1.00  0.00     0.009 C 
ATOM     20  C   UNL     1     115.902 124.607 128.844  1.00  0.00     0.021 C 
ATOM     21  C   UNL     1     117.554 122.829 129.557  1.00  0.00    -0.027 C 
ATOM     22  C   UNL     1     114.986 123.414 128.347  1.00  0.00    -0.023 C 
ATOM     23  C   UNL     1     116.830 121.734 128.803  1.00  0.00     0.031 C 
ATOM     24  C   UNL     1     115.905 122.326 127.726  1.00  0.00     0.002 C 
ATOM     25  C   UNL     1     113.978 123.858 127.253  1.00  0.00     0.010 C 
ATOM     26  C   UNL     1     114.191 122.911 129.595  1.00  0.00     0.012 C 
ATOM     27  C   UNL     1     115.204 121.241 126.860  1.00  0.00     0.036 C 
ATOM     28  C   UNL     1     113.064 122.723 126.752  1.00  0.00     0.032 C 
ATOM     29  C   UNL     1     113.661 121.294 126.814  1.00  0.00     0.114 C 
BRANCH  29  30
ATOM     30  O   UNL     1     113.183 120.560 125.716  1.00  0.00    -0.393 OA
ATOM     31  H   UNL     1     112.831 121.207 125.047  1.00  0.00     0.210 HD
ENDBRANCH  29  30
ENDBRANCH   9  11
ENDBRANCH   1   9
TORSDOF 7
ENDMDL
MODEL 3
REMARK VINA RESULT:    -6.627      2.423      6.851
REMARK INTER + INTRA:         -11.095
REMARK INTER:                  -9.146
REMARK INTRA:                  -1.949
REMARK UNBOUND:                -1.950
REMARK SMILES CC[C@@H](CC[C@H](C)[C@@H]1CC[C@@H]2C3=CC[C@H]4C[C@H](O)CC[C@]4(C)[C@@H]3CC[C@@]21C)C(C)C
REMARK SMILES IDX 5 1 4 2 3 3 2 4 1 5 28 6 29 7 30 8 6 9 7 10 8 11 9 12 26 13
REMARK SMILES IDX 10 14 11 15 25 16 27 17 12 18 24 19 23 20 13 21 21 22 14 23
REMARK SMILES IDX 15 24 20 25 22 26 16 27 19 28 17 29 18 30
REMARK H PARENT 18 31
REMARK Flexibility Score: inf
ROOT
ATOM      1  C   UNL     1     116.118 119.841 132.909  1.00  0.00     0.004 C 
ENDROOT
BRANCH   1   2
ATOM      2  C   UNL     1     117.075 120.594 133.861  1.00  0.00     0.004 C 
BRANCH   2   3
ATOM      3  C   UNL     1     118.442 121.002 133.228  1.00  0.00    -0.009 C 
BRANCH   3   4
ATOM      4  C   UNL     1     119.066 119.774 132.505  1.00  0.00     0.000 C 
ATOM      5  C   UNL     1     119.788 120.109 131.195  1.00  0.00     0.004 C 
ENDBRANCH   3   4
BRANCH   3   6
ATOM      6  C   UNL     1     119.425 121.697 134.236  1.00  0.00    -0.014 C 
ATOM      7  C   UNL     1     120.268 120.679 135.024  1.00  0.00     0.007 C 
ATOM      8  C   UNL     1     120.343 122.770 133.620  1.00  0.00     0.007 C 
ENDBRANCH   3   6
ENDBRANCH   2   3
ENDBRANCH   1   2
BRANCH   1   9
ATOM      9  C   UNL     1     115.001 120.709 132.256  1.00  0.00    -0.011 C 
ATOM     10  C   UNL     1     113.615 120.086 132.498  1.00  0.00     0.008 C 
BRANCH   9  11
ATOM     11  C   UNL     1     115.218 121.007 130.718  1.00  0.00    -0.002 C 
ATOM     12  C   UNL     1     116.325 120.243 129.977  1.00  0.00     0.005 C 
ATOM     13  C   UNL     1     115.405 122.511 130.337  1.00  0.00    -0.023 C 
ATOM     14  C   UNL     1     116.749 121.135 128.813  1.00  0.00     0.009 C 
ATOM     15  C   UNL     1     115.907 122.430 128.871  1.00  0.00     0.021 C 
ATOM     16  C   UNL     1     116.495 123.186 131.238  1.00  0.00     0.008 C 
ATOM     17  C   UNL     1     114.036 123.244 130.447  1.00  0.00     0.012 C 
ATOM     18  C   UNL     1     116.709 123.658 128.413  1.00  0.00    -0.067 C 
ATOM     19  C   UNL     1     117.091 124.519 130.731  1.00  0.00     0.009 C 
ATOM     20  C   UNL     1     116.688 124.906 129.296  1.00  0.00     0.021 C 
ATOM     21  C   UNL     1     117.468 123.581 127.287  1.00  0.00    -0.027 C 
ATOM     22  C   UNL     1     117.482 126.127 128.673  1.00  0.00    -0.023 C 
ATOM     23  C   UNL     1     118.469 124.639 126.872  1.00  0.00     0.031 C 
ATOM     24  C   UNL     1     118.793 125.579 128.045  1.00  0.00     0.002 C 
ATOM     25  C   UNL     1     117.876 127.182 129.741  1.00  0.00     0.010 C 
ATOM     26  C   UNL     1     116.529 126.793 127.629  1.00  0.00     0.012 C 
ATOM     27  C   UNL     1     119.885 126.632 127.700  1.00  0.00     0.036 C 
ATOM     28  C   UNL     1     118.643 128.389 129.168  1.00  0.00     0.032 C 
ATOM     29  C   UNL     1     119.497 128.112 127.905  1.00  0.00     0.114 C 
BRANCH  29  30
ATOM     30  O   UNL     1     120.650 128.913 127.958  1.00  0.00    -0.393 OA
ATOM     31  H   UNL     1     121.346 128.482 127.393  1.00  0.00     0.210 HD
ENDBRANCH  29  30
ENDBRANCH   9  11
ENDBRANCH   1   9
TORSDOF 7
ENDMDL
MODEL 4
REMARK VINA RESULT:    -6.465      2.743      7.004
REMARK INTER + INTRA:         -10.872
REMARK INTER:                  -9.140
REMARK INTRA:                  -1.732
REMARK UNBOUND:                -1.950
REMARK SMILES CC[C@@H](CC[C@H](C)[C@@H]1CC[C@@H]2C3=CC[C@H]4C[C@H](O)CC[C@]4(C)[C@@H]3CC[C@@]21C)C(C)C
REMARK SMILES IDX 5 1 4 2 3 3 2 4 1 5 28 6 29 7 30 8 6 9 7 10 8 11 9 12 26 13
REMARK SMILES IDX 10 14 11 15 25 16 27 17 12 18 24 19 23 20 13 21 21 22 14 23
REMARK SMILES IDX 15 24 20 25 22 26 16 27 19 28 17 29 18 30
REMARK H PARENT 18 31
REMARK Flexibility Score: inf
ROOT
ATOM      1  C   UNL     1     118.957 119.387 130.184  1.00  0.00     0.004 C 
ENDROOT
BRANCH   1   2
ATOM      2  C   UNL     1     118.700 119.388 131.708  1.00  0.00     0.004 C 
BRANCH   2   3
ATOM      3  C   UNL     1     117.870 120.602 132.230  1.00  0.00    -0.009 C 
BRANCH   3   4
ATOM      4  C   UNL     1     118.616 121.267 133.423  1.00  0.00     0.000 C 
ATOM      5  C   UNL     1     119.891 122.023 133.031  1.00  0.00     0.004 C 
ENDBRANCH   3   4
BRANCH   3   6
ATOM      6  C   UNL     1     116.372 120.257 132.548  1.00  0.00    -0.014 C 
ATOM      7  C   UNL     1     116.154 119.917 134.033  1.00  0.00     0.007 C 
ATOM      8  C   UNL     1     115.345 121.315 132.099  1.00  0.00     0.007 C 
ENDBRANCH   3   6
ENDBRANCH   2   3
ENDBRANCH   1   2
BRANCH   1   9
ATOM      9  C   UNL     1     117.703 119.626 129.292  1.00  0.00    -0.011 C 
ATOM     10  C   UNL     1     117.169 118.296 128.733  1.00  0.00     0.008 C 
BRANCH   9  11
ATOM     11  C   UNL     1     117.918 120.674 128.126  1.00  0.00    -0.002 C 
ATOM     12  C   UNL     1     119.319 120.799 127.510  1.00  0.00     0.005 C 
ATOM     13  C   UNL     1     117.450 122.133 128.430  1.00  0.00    -0.023 C 
ATOM     14  C   UNL     1     119.415 122.221 126.962  1.00  0.00     0.009 C 
ATOM     15  C   UNL     1     118.081 122.941 127.265  1.00  0.00     0.021 C 
ATOM     16  C   UNL     1     118.024 122.633 129.799  1.00  0.00     0.008 C 
ATOM     17  C   UNL     1     115.894 122.190 128.405  1.00  0.00     0.012 C 
ATOM     18  C   UNL     1     118.291 124.431 127.575  1.00  0.00    -0.067 C 
ATOM     19  C   UNL     1     118.008 124.159 130.047  1.00  0.00     0.009 C 
ATOM     20  C   UNL     1     117.623 125.011 128.823  1.00  0.00     0.021 C 
ATOM     21  C   UNL     1     119.114 125.172 126.785  1.00  0.00    -0.027 C 
ATOM     22  C   UNL     1     117.845 126.571 128.985  1.00  0.00    -0.023 C 
ATOM     23  C   UNL     1     119.571 126.574 127.127  1.00  0.00     0.031 C 
ATOM     24  C   UNL     1     119.319 126.890 128.610  1.00  0.00     0.002 C 
ATOM     25  C   UNL     1     117.615 127.053 130.442  1.00  0.00     0.010 C 
ATOM     26  C   UNL     1     116.807 127.269 128.049  1.00  0.00     0.012 C 
ATOM     27  C   UNL     1     119.853 128.286 129.037  1.00  0.00     0.036 C 
ATOM     28  C   UNL     1     117.814 128.568 130.633  1.00  0.00     0.032 C 
ATOM     29  C   UNL     1     118.825 129.247 129.674  1.00  0.00     0.114 C 
BRANCH  29  30
ATOM     30  O   UNL     1     119.486 130.273 130.370  1.00  0.00    -0.393 OA
ATOM     31  H   UNL     1     118.831 130.689 130.991  1.00  0.00     0.210 HD
ENDBRANCH  29  30
ENDBRANCH   9  11
ENDBRANCH   1   9
TORSDOF 7
ENDMDL
MODEL 5
REMARK VINA RESULT:    -6.418      2.999      5.309
REMARK INTER + INTRA:         -10.806
REMARK INTER:                  -8.435
REMARK INTRA:                  -2.371
REMARK UNBOUND:                -1.950
REMARK SMILES CC[C@@H](CC[C@H](C)[C@@H]1CC[C@@H]2C3=CC[C@H]4C[C@H](O)CC[C@]4(C)[C@@H]3CC[C@@]21C)C(C)C
REMARK SMILES IDX 5 1 4 2 3 3 2 4 1 5 28 6 29 7 30 8 6 9 7 10 8 11 9 12 26 13
REMARK SMILES IDX 10 14 11 15 25 16 27 17 12 18 24 19 23 20 13 21 21 22 14 23
REMARK SMILES IDX 15 24 20 25 22 26 16 27 19 28 17 29 18 30
REMARK H PARENT 18 31
REMARK Flexibility Score: inf
ROOT
ATOM      1  C   UNL     1     114.138 120.764 130.694  1.00  0.00     0.004 C 
ENDROOT
BRANCH   1   2
ATOM      2  C   UNL     1     114.381 119.746 129.557  1.00  0.00     0.004 C 
BRANCH   2   3
ATOM      3  C   UNL     1     114.458 120.368 128.127  1.00  0.00    -0.009 C 
BRANCH   3   4
ATOM      4  C   UNL     1     115.545 119.627 127.297  1.00  0.00     0.000 C 
ATOM      5  C   UNL     1     116.070 118.340 127.943  1.00  0.00     0.004 C 
ENDBRANCH   3   4
BRANCH   3   6
ATOM      6  C   UNL     1     114.626 121.929 128.122  1.00  0.00    -0.014 C 
ATOM      7  C   UNL     1     115.939 122.371 127.453  1.00  0.00     0.007 C 
ATOM      8  C   UNL     1     113.443 122.714 127.522  1.00  0.00     0.007 C 
ENDBRANCH   3   6
ENDBRANCH   2   3
ENDBRANCH   1   2
BRANCH   1   9
ATOM      9  C   UNL     1     115.168 120.724 131.861  1.00  0.00    -0.011 C 
ATOM     10  C   UNL     1     114.452 120.617 133.219  1.00  0.00     0.008 C 
BRANCH   9  11
ATOM     11  C   UNL     1     116.198 121.926 131.868  1.00  0.00    -0.002 C 
ATOM     12  C   UNL     1     115.865 123.173 131.036  1.00  0.00     0.005 C 
ATOM     13  C   UNL     1     117.675 121.556 131.517  1.00  0.00    -0.023 C 
ATOM     14  C   UNL     1     117.204 123.817 130.685  1.00  0.00     0.009 C 
ATOM     15  C   UNL     1     118.328 122.946 131.294  1.00  0.00     0.021 C 
ATOM     16  C   UNL     1     117.745 120.715 130.199  1.00  0.00     0.008 C 
ATOM     17  C   UNL     1     118.314 120.797 132.717  1.00  0.00     0.012 C 
ATOM     18  C   UNL     1     119.578 122.916 130.401  1.00  0.00    -0.067 C 
ATOM     19  C   UNL     1     119.120 120.628 129.499  1.00  0.00     0.009 C 
ATOM     20  C   UNL     1     120.202 121.559 130.077  1.00  0.00     0.021 C 
ATOM     21  C   UNL     1     120.050 124.075 129.867  1.00  0.00    -0.027 C 
ATOM     22  C   UNL     1     121.531 121.669 129.221  1.00  0.00    -0.023 C 
ATOM     23  C   UNL     1     121.122 124.136 128.801  1.00  0.00     0.031 C 
ATOM     24  C   UNL     1     121.318 122.762 128.138  1.00  0.00     0.002 C 
ATOM     25  C   UNL     1     121.875 120.343 128.491  1.00  0.00     0.010 C 
ATOM     26  C   UNL     1     122.680 122.009 130.224  1.00  0.00     0.012 C 
ATOM     27  C   UNL     1     122.346 122.788 126.972  1.00  0.00     0.036 C 
ATOM     28  C   UNL     1     123.168 120.412 127.656  1.00  0.00     0.032 C 
ATOM     29  C   UNL     1     123.533 121.806 127.084  1.00  0.00     0.114 C 
BRANCH  29  30
ATOM     30  O   UNL     1     124.139 121.632 125.829  1.00  0.00    -0.393 OA
ATOM     31  H   UNL     1     124.223 122.528 125.405  1.00  0.00     0.210 HD
ENDBRANCH  29  30
ENDBRANCH   9  11
ENDBRANCH   1   9
TORSDOF 7
ENDMDL
MODEL 6
REMARK VINA RESULT:    -6.412      3.434      6.327
REMARK INTER + INTRA:         -10.799
REMARK INTER:                  -8.656
REMARK INTRA:                  -2.142
REMARK UNBOUND:                -1.950
REMARK SMILES CC[C@@H](CC[C@H](C)[C@@H]1CC[C@@H]2C3=CC[C@H]4C[C@H](O)CC[C@]4(C)[C@@H]3CC[C@@]21C)C(C)C
REMARK SMILES IDX 5 1 4 2 3 3 2 4 1 5 28 6 29 7 30 8 6 9 7 10 8 11 9 12 26 13
REMARK SMILES IDX 10 14 11 15 25 16 27 17 12 18 24 19 23 20 13 21 21 22 14 23
REMARK SMILES IDX 15 24 20 25 22 26 16 27 19 28 17 29 18 30
REMARK H PARENT 18 31
REMARK Flexibility Score: inf
ROOT
ATOM      1  C   UNL     1     114.746 121.268 131.346  1.00  0.00     0.004 C 
ENDROOT
BRANCH   1   2
ATOM      2  C   UNL     1     114.403 120.168 130.317  1.00  0.00     0.004 C 
BRANCH   2   3
ATOM      3  C   UNL     1     114.049 120.694 128.891  1.00  0.00    -0.009 C 
BRANCH   3   4
ATOM      4  C   UNL     1     114.691 119.765 127.821  1.00  0.00     0.000 C 
ATOM      5  C   UNL     1     115.261 118.456 128.377  1.00  0.00     0.004 C 
ENDBRANCH   3   4
BRANCH   3   6
ATOM      6  C   UNL     1     114.377 122.214 128.675  1.00  0.00    -0.014 C 
ATOM      7  C   UNL     1     115.252 122.450 127.431  1.00  0.00     0.007 C 
ATOM      8  C   UNL     1     113.155 123.151 128.639  1.00  0.00     0.007 C 
ENDBRANCH   3   6
ENDBRANCH   2   3
ENDBRANCH   1   2
BRANCH   1   9
ATOM      9  C   UNL     1     116.142 121.138 132.026  1.00  0.00    -0.011 C 
ATOM     10  C   UNL     1     116.025 121.310 133.551  1.00  0.00     0.008 C 
BRANCH   9  11
ATOM     11  C   UNL     1     117.249 122.106 131.440  1.00  0.00    -0.002 C 
ATOM     12  C   UNL     1     116.792 123.339 130.648  1.00  0.00     0.005 C 
ATOM     13  C   UNL     1     118.356 121.424 130.573  1.00  0.00    -0.023 C 
ATOM     14  C   UNL     1     117.933 123.676 129.693  1.00  0.00     0.009 C 
ATOM     15  C   UNL     1     119.058 122.637 129.906  1.00  0.00     0.021 C 
ATOM     16  C   UNL     1     117.721 120.504 129.476  1.00  0.00     0.008 C 
ATOM     17  C   UNL     1     119.320 120.629 131.502  1.00  0.00     0.012 C 
ATOM     18  C   UNL     1     119.784 122.299 128.595  1.00  0.00    -0.067 C 
ATOM     19  C   UNL     1     118.633 120.097 128.295  1.00  0.00     0.009 C 
ATOM     20  C   UNL     1     119.989 120.825 128.241  1.00  0.00     0.021 C 
ATOM     21  C   UNL     1     120.156 123.303 127.756  1.00  0.00    -0.027 C 
ATOM     22  C   UNL     1     120.822 120.611 126.911  1.00  0.00    -0.023 C 
ATOM     23  C   UNL     1     120.664 123.078 126.347  1.00  0.00     0.031 C 
ATOM     24  C   UNL     1     120.340 121.654 125.866  1.00  0.00     0.002 C 
ATOM     25  C   UNL     1     120.609 119.200 126.301  1.00  0.00     0.010 C 
ATOM     26  C   UNL     1     122.328 120.775 127.297  1.00  0.00     0.012 C 
ATOM     27  C   UNL     1     120.760 121.398 124.391  1.00  0.00     0.036 C 
ATOM     28  C   UNL     1     121.413 118.954 125.010  1.00  0.00     0.032 C 
ATOM     29  C   UNL     1     121.710 120.206 124.147  1.00  0.00     0.114 C 
BRANCH  29  30
ATOM     30  O   UNL     1     121.685 119.834 122.792  1.00  0.00    -0.393 OA
ATOM     31  H   UNL     1     122.563 120.080 122.393  1.00  0.00     0.210 HD
ENDBRANCH  29  30
ENDBRANCH   9  11
ENDBRANCH   1   9
TORSDOF 7
ENDMDL
MODEL 7
REMARK VINA RESULT:    -6.350      6.555      9.504
REMARK INTER + INTRA:         -10.713
REMARK INTER:                  -9.532
REMARK INTRA:                  -1.181
REMARK UNBOUND:                -1.950
REMARK SMILES CC[C@@H](CC[C@H](C)[C@@H]1CC[C@@H]2C3=CC[C@H]4C[C@H](O)CC[C@]4(C)[C@@H]3CC[C@@]21C)C(C)C
REMARK SMILES IDX 5 1 4 2 3 3 2 4 1 5 28 6 29 7 30 8 6 9 7 10 8 11 9 12 26 13
REMARK SMILES IDX 10 14 11 15 25 16 27 17 12 18 24 19 23 20 13 21 21 22 14 23
REMARK SMILES IDX 15 24 20 25 22 26 16 27 19 28 17 29 18 30
REMARK H PARENT 18 31
REMARK Flexibility Score: inf
ROOT
ATOM      1  C   UNL     1     119.275 123.396 126.303  1.00  0.00     0.004 C 
ENDROOT
BRANCH   1   2
ATOM      2  C   UNL     1     117.881 124.023 126.530  1.00  0.00     0.004 C 
BRANCH   2   3
ATOM      3  C   UNL     1     117.892 125.557 126.818  1.00  0.00    -0.009 C 
BRANCH   3   4
ATOM      4  C   UNL     1     119.361 126.070 126.843  1.00  0.00     0.000 C 
ATOM      5  C   UNL     1     119.639 127.147 127.897  1.00  0.00     0.004 C 
ENDBRANCH   3   4
BRANCH   3   6
ATOM      6  C   UNL     1     117.067 125.970 128.088  1.00  0.00    -0.014 C 
ATOM      7  C   UNL     1     115.886 126.893 127.741  1.00  0.00     0.007 C 
ATOM      8  C   UNL     1     116.576 124.799 128.961  1.00  0.00     0.007 C 
ENDBRANCH   3   6
ENDBRANCH   2   3
ENDBRANCH   1   2
BRANCH   1   9
ATOM      9  C   UNL     1     119.393 121.881 126.648  1.00  0.00    -0.011 C 
ATOM     10  C   UNL     1     118.568 121.541 127.902  1.00  0.00     0.008 C 
BRANCH   9  11
ATOM     11  C   UNL     1     120.879 121.357 126.799  1.00  0.00    -0.002 C 
ATOM     12  C   UNL     1     121.996 122.390 127.008  1.00  0.00     0.005 C 
ATOM     13  C   UNL     1     121.380 120.403 125.668  1.00  0.00    -0.023 C 
ATOM     14  C   UNL     1     123.272 121.747 126.468  1.00  0.00     0.009 C 
ATOM     15  C   UNL     1     122.909 120.345 125.928  1.00  0.00     0.021 C 
ATOM     16  C   UNL     1     121.101 121.014 124.254  1.00  0.00     0.008 C 
ATOM     17  C   UNL     1     120.706 119.009 125.835  1.00  0.00     0.012 C 
ATOM     18  C   UNL     1     123.742 119.973 124.691  1.00  0.00    -0.067 C 
ATOM     19  C   UNL     1     121.890 120.415 123.067  1.00  0.00     0.009 C 
ATOM     20  C   UNL     1     123.010 119.434 123.462  1.00  0.00     0.021 C 
ATOM     21  C   UNL     1     125.083 120.199 124.693  1.00  0.00    -0.027 C 
ATOM     22  C   UNL     1     123.985 119.009 122.288  1.00  0.00    -0.023 C 
ATOM     23  C   UNL     1     125.957 120.089 123.461  1.00  0.00     0.031 C 
ATOM     24  C   UNL     1     125.106 120.080 122.181  1.00  0.00     0.002 C 
ATOM     25  C   UNL     1     123.265 118.943 120.915  1.00  0.00     0.010 C 
ATOM     26  C   UNL     1     124.524 117.587 122.648  1.00  0.00     0.012 C 
ATOM     27  C   UNL     1     125.959 120.058 120.881  1.00  0.00     0.036 C 
ATOM     28  C   UNL     1     124.183 118.523 119.752  1.00  0.00     0.032 C 
ATOM     29  C   UNL     1     125.679 118.901 119.898  1.00  0.00     0.114 C 
BRANCH  29  30
ATOM     30  O   UNL     1     126.191 119.209 118.627  1.00  0.00    -0.393 OA
ATOM     31  H   UNL     1     125.457 119.092 117.966  1.00  0.00     0.210 HD
ENDBRANCH  29  30
ENDBRANCH   9  11
ENDBRANCH   1   9
TORSDOF 7
ENDMDL
MODEL 8
REMARK VINA RESULT:    -6.275      3.651      6.538
REMARK INTER + INTRA:         -10.610
REMARK INTER:                  -8.420
REMARK INTRA:                  -2.190
REMARK UNBOUND:                -1.950
REMARK SMILES CC[C@@H](CC[C@H](C)[C@@H]1CC[C@@H]2C3=CC[C@H]4C[C@H](O)CC[C@]4(C)[C@@H]3CC[C@@]21C)C(C)C
REMARK SMILES IDX 5 1 4 2 3 3 2 4 1 5 28 6 29 7 30 8 6 9 7 10 8 11 9 12 26 13
REMARK SMILES IDX 10 14 11 15 25 16 27 17 12 18 24 19 23 20 13 21 21 22 14 23
REMARK SMILES IDX 15 24 20 25 22 26 16 27 19 28 17 29 18 30
REMARK H PARENT 18 31
REMARK Flexibility Score: inf
ROOT
ATOM      1  C   UNL     1     116.000 125.061 129.955  1.00  0.00     0.004 C 
ENDROOT
BRANCH   1   2
ATOM      2  C   UNL     1     115.508 123.770 130.648  1.00  0.00     0.004 C 
BRANCH   2   3
ATOM      3  C   UNL     1     114.765 122.767 129.712  1.00  0.00    -0.009 C 
BRANCH   3   4
ATOM      4  C   UNL     1     115.410 121.358 129.844  1.00  0.00     0.000 C 
ATOM      5  C   UNL     1     114.403 120.209 129.977  1.00  0.00     0.004 C 
ENDBRANCH   3   4
BRANCH   3   6
ATOM      6  C   UNL     1     114.641 123.258 128.226  1.00  0.00    -0.014 C 
ATOM      7  C   UNL     1     115.498 122.419 127.262  1.00  0.00     0.007 C 
ATOM      8  C   UNL     1     113.201 123.364 127.688  1.00  0.00     0.007 C 
ENDBRANCH   3   6
ENDBRANCH   2   3
ENDBRANCH   1   2
BRANCH   1   9
ATOM      9  C   UNL     1     117.514 125.382 130.132  1.00  0.00    -0.011 C 
ATOM     10  C   UNL     1     117.707 126.747 130.814  1.00  0.00     0.008 C 
BRANCH   9  11
ATOM     11  C   UNL     1     118.362 125.301 128.798  1.00  0.00    -0.002 C 
ATOM     12  C   UNL     1     117.615 125.357 127.457  1.00  0.00     0.005 C 
ATOM     13  C   UNL     1     119.347 124.093 128.691  1.00  0.00    -0.023 C 
ATOM     14  C   UNL     1     118.497 124.623 126.451  1.00  0.00     0.009 C 
ATOM     15  C   UNL     1     119.755 124.120 127.194  1.00  0.00     0.021 C 
ATOM     16  C   UNL     1     118.620 122.746 129.022  1.00  0.00     0.008 C 
ATOM     17  C   UNL     1     120.563 124.336 129.633  1.00  0.00     0.012 C 
ATOM     18  C   UNL     1     120.241 122.767 126.651  1.00  0.00    -0.067 C 
ATOM     19  C   UNL     1     119.320 121.445 128.566  1.00  0.00     0.009 C 
ATOM     20  C   UNL     1     120.543 121.653 127.653  1.00  0.00     0.021 C 
ATOM     21  C   UNL     1     120.319 122.572 125.308  1.00  0.00    -0.027 C 
ATOM     22  C   UNL     1     121.116 120.340 126.976  1.00  0.00    -0.023 C 
ATOM     23  C   UNL     1     120.559 121.223 124.665  1.00  0.00     0.031 C 
ATOM     24  C   UNL     1     120.316 120.084 125.669  1.00  0.00     0.002 C 
ATOM     25  C   UNL     1     120.953 119.089 127.881  1.00  0.00     0.010 C 
ATOM     26  C   UNL     1     122.638 120.593 126.729  1.00  0.00     0.012 C 
ATOM     27  C   UNL     1     120.462 118.671 125.036  1.00  0.00     0.036 C 
ATOM     28  C   UNL     1     121.508 117.795 127.255  1.00  0.00     0.032 C 
ATOM     29  C   UNL     1     121.479 117.722 125.708  1.00  0.00     0.114 C 
BRANCH  29  30
ATOM     30  O   UNL     1     121.229 116.394 125.325  1.00  0.00    -0.393 OA
ATOM     31  H   UNL     1     121.363 116.331 124.341  1.00  0.00     0.210 HD
ENDBRANCH  29  30
ENDBRANCH   9  11
ENDBRANCH   1   9
TORSDOF 7
ENDMDL
MODEL 9
REMARK VINA RESULT:    -6.252      2.974      5.952
REMARK INTER + INTRA:         -10.578
REMARK INTER:                  -8.405
REMARK INTRA:                  -2.172
REMARK UNBOUND:                -1.950
REMARK SMILES CC[C@@H](CC[C@H](C)[C@@H]1CC[C@@H]2C3=CC[C@H]4C[C@H](O)CC[C@]4(C)[C@@H]3CC[C@@]21C)C(C)C
REMARK SMILES IDX 5 1 4 2 3 3 2 4 1 5 28 6 29 7 30 8 6 9 7 10 8 11 9 12 26 13
REMARK SMILES IDX 10 14 11 15 25 16 27 17 12 18 24 19 23 20 13 21 21 22 14 23
REMARK SMILES IDX 15 24 20 25 22 26 16 27 19 28 17 29 18 30
REMARK H PARENT 18 31
REMARK Flexibility Score: inf
ROOT
ATOM      1  C   UNL     1     115.118 118.855 128.899  1.00  0.00     0.004 C 
ENDROOT
BRANCH   1   2
ATOM      2  C   UNL     1     114.335 120.105 128.439  1.00  0.00     0.004 C 
BRANCH   2   3
ATOM      3  C   UNL     1     113.884 121.057 129.591  1.00  0.00    -0.009 C 
BRANCH   3   4
ATOM      4  C   UNL     1     113.793 122.514 129.055  1.00  0.00     0.000 C 
ATOM      5  C   UNL     1     113.797 122.630 127.526  1.00  0.00     0.004 C 
ENDBRANCH   3   4
BRANCH   3   6
ATOM      6  C   UNL     1     114.747 120.926 130.896  1.00  0.00    -0.014 C 
ATOM      7  C   UNL     1     115.409 122.257 131.293  1.00  0.00     0.007 C 
ATOM      8  C   UNL     1     114.012 120.326 132.110  1.00  0.00     0.007 C 
ENDBRANCH   3   6
ENDBRANCH   2   3
ENDBRANCH   1   2
BRANCH   1   9
ATOM      9  C   UNL     1     116.457 118.589 128.150  1.00  0.00    -0.011 C 
ATOM     10  C   UNL     1     116.632 117.088 127.861  1.00  0.00     0.008 C 
BRANCH   9  11
ATOM     11  C   UNL     1     117.740 119.170 128.872  1.00  0.00    -0.002 C 
ATOM     12  C   UNL     1     117.671 119.423 130.385  1.00  0.00     0.005 C 
ATOM     13  C   UNL     1     118.342 120.469 128.246  1.00  0.00    -0.023 C 
ATOM     14  C   UNL     1     118.682 120.529 130.676  1.00  0.00     0.009 C 
ATOM     15  C   UNL     1     119.338 120.941 129.338  1.00  0.00     0.021 C 
ATOM     16  C   UNL     1     117.232 121.553 128.029  1.00  0.00     0.008 C 
ATOM     17  C   UNL     1     119.063 120.111 126.913  1.00  0.00     0.012 C 
ATOM     18  C   UNL     1     119.654 122.444 129.292  1.00  0.00    -0.067 C 
ATOM     19  C   UNL     1     117.711 123.008 127.819  1.00  0.00     0.009 C 
ATOM     20  C   UNL     1     119.214 123.238 128.061  1.00  0.00     0.021 C 
ATOM     21  C   UNL     1     120.241 123.039 130.365  1.00  0.00    -0.027 C 
ATOM     22  C   UNL     1     119.672 124.753 128.098  1.00  0.00    -0.023 C 
ATOM     23  C   UNL     1     120.386 124.538 130.521  1.00  0.00     0.031 C 
ATOM     24  C   UNL     1     119.466 125.286 129.543  1.00  0.00     0.002 C 
ATOM     25  C   UNL     1     118.836 125.647 127.143  1.00  0.00     0.010 C 
ATOM     26  C   UNL     1     121.166 124.780 127.639  1.00  0.00     0.012 C 
ATOM     27  C   UNL     1     119.508 126.829 129.722  1.00  0.00     0.036 C 
ATOM     28  C   UNL     1     119.261 127.128 127.147  1.00  0.00     0.032 C 
ATOM     29  C   UNL     1     119.873 127.655 128.469  1.00  0.00     0.114 C 
BRANCH  29  30
ATOM     30  O   UNL     1     119.487 128.994 128.641  1.00  0.00    -0.393 OA
ATOM     31  H   UNL     1     119.808 129.507 127.852  1.00  0.00     0.210 HD
ENDBRANCH  29  30
ENDBRANCH   9  11
ENDBRANCH   1   9
TORSDOF 7
ENDMDL
