MODEL 1
REMARK VINA RESULT:    -4.719      0.000      0.000
REMARK INTER + INTRA:          -7.660
REMARK INTER:                  -7.202
REMARK INTRA:                  -0.458
REMARK UNBOUND:                -0.458
REMARK SMILES O=C([O-])CCCCCCCCC(=O)[O-]
REMARK SMILES IDX 7 1 6 2 5 3 4 4 2 5 1 6 3 7 8 8 9 9 10 10 11 11 12 12 13 13
REMARK SMILES IDX 14 14
REMARK H PARENT
REMARK Flexibility Score: inf
ROOT
ATOM      1  C   UNL     1       4.270  10.459   6.981  1.00  0.00     0.000 C 
ENDROOT
BRANCH   1   2
ATOM      2  C   UNL     1       4.006   9.713   8.294  1.00  0.00     0.000 C 
BRANCH   2   3
ATOM      3  C   UNL     1       3.904  10.692   9.473  1.00  0.00     0.006 C 
BRANCH   3   4
ATOM      4  C   UNL     1       2.925  11.839   9.192  1.00  0.00     0.053 C 
BRANCH   4   5
ATOM      5  C   UNL     1       1.503  11.427   9.419  1.00  0.00     0.041 C 
ATOM      6  O   UNL     1       0.722  11.284   8.442  1.00  0.00    -0.550 OA
ATOM      7  O   UNL     1       1.050  11.167  10.707  1.00  0.00    -0.550 OA
ENDBRANCH   4   5
ENDBRANCH   3   4
ENDBRANCH   2   3
ENDBRANCH   1   2
BRANCH   1   8
ATOM      8  C   UNL     1       5.718  10.966   6.917  1.00  0.00     0.000 C 
BRANCH   8   9
ATOM      9  C   UNL     1       6.385  10.682   5.562  1.00  0.00     0.000 C 
BRANCH   9  10
ATOM     10  C   UNL     1       6.009  11.719   4.489  1.00  0.00     0.006 C 
BRANCH  10  11
ATOM     11  C   UNL     1       6.942  12.937   4.508  1.00  0.00     0.053 C 
BRANCH  11  12
ATOM     12  C   UNL     1       8.357  12.557   4.196  1.00  0.00     0.041 C 
ATOM     13  O   UNL     1       9.226  12.552   5.107  1.00  0.00    -0.550 OA
ATOM     14  O   UNL     1       8.723  12.242   2.893  1.00  0.00    -0.550 OA
ENDBRANCH  11  12
ENDBRANCH  10  11
ENDBRANCH   9  10
ENDBRANCH   8   9
ENDBRANCH   1   8
TORSDOF 9
ENDMDL
MODEL 2
REMARK VINA RESULT:    -4.667      1.189      6.775
REMARK INTER + INTRA:          -7.581
REMARK INTER:                  -6.792
REMARK INTRA:                  -0.789
REMARK UNBOUND:                -0.458
REMARK SMILES O=C([O-])CCCCCCCCC(=O)[O-]
REMARK SMILES IDX 7 1 6 2 5 3 4 4 2 5 1 6 3 7 8 8 9 9 10 10 11 11 12 12 13 13
REMARK SMILES IDX 14 14
REMARK H PARENT
REMARK Flexibility Score: inf
ROOT
ATOM      1  C   UNL     1       6.383  10.488   6.566  1.00  0.00     0.000 C 
ENDROOT
BRANCH   1   2
ATOM      2  C   UNL     1       5.412  11.183   5.604  1.00  0.00     0.000 C 
BRANCH   2   3
ATOM      3  C   UNL     1       6.123  11.594   4.306  1.00  0.00     0.006 C 
BRANCH   3   4
ATOM      4  C   UNL     1       7.152  12.708   4.535  1.00  0.00     0.053 C 
BRANCH   4   5
ATOM      5  C   UNL     1       8.524  12.298   4.092  1.00  0.00     0.041 C 
ATOM      6  O   UNL     1       9.275  11.657   4.872  1.00  0.00    -0.550 OA
ATOM      7  O   UNL     1       8.959  12.595   2.806  1.00  0.00    -0.550 OA
ENDBRANCH   4   5
ENDBRANCH   3   4
ENDBRANCH   2   3
ENDBRANCH   1   2
BRANCH   1   8
ATOM      8  C   UNL     1       6.426  11.209   7.922  1.00  0.00     0.000 C 
BRANCH   8   9
ATOM      9  C   UNL     1       5.492  12.428   7.974  1.00  0.00     0.000 C 
BRANCH   9  10
ATOM     10  C   UNL     1       4.548  12.399   9.189  1.00  0.00     0.006 C 
BRANCH  10  11
ATOM     11  C   UNL     1       3.887  11.027   9.375  1.00  0.00     0.053 C 
BRANCH  11  12
ATOM     12  C   UNL     1       2.642  10.894   8.551  1.00  0.00     0.041 C 
ATOM     13  O   UNL     1       1.544  11.326   8.990  1.00  0.00    -0.550 OA
ATOM     14  O   UNL     1       2.689  10.263   7.314  1.00  0.00    -0.550 OA
ENDBRANCH  11  12
ENDBRANCH  10  11
ENDBRANCH   9  10
ENDBRANCH   8   9
ENDBRANCH   1   8
TORSDOF 9
ENDMDL
MODEL 3
REMARK VINA RESULT:    -4.658      0.799      7.149
REMARK INTER + INTRA:          -7.567
REMARK INTER:                  -7.035
REMARK INTRA:                  -0.532
REMARK UNBOUND:                -0.458
REMARK SMILES O=C([O-])CCCCCCCCC(=O)[O-]
REMARK SMILES IDX 7 1 6 2 5 3 4 4 2 5 1 6 3 7 8 8 9 9 10 10 11 11 12 12 13 13
REMARK SMILES IDX 14 14
REMARK H PARENT
REMARK Flexibility Score: inf
ROOT
ATOM      1  C   UNL     1       5.996  10.137   6.960  1.00  0.00     0.000 C 
ENDROOT
BRANCH   1   2
ATOM      2  C   UNL     1       5.505  11.034   5.818  1.00  0.00     0.000 C 
BRANCH   2   3
ATOM      3  C   UNL     1       6.336  12.323   5.733  1.00  0.00     0.006 C 
BRANCH   3   4
ATOM      4  C   UNL     1       6.827  12.605   4.307  1.00  0.00     0.053 C 
BRANCH   4   5
ATOM      5  C   UNL     1       8.236  12.139   4.101  1.00  0.00     0.041 C 
ATOM      6  O   UNL     1       8.818  12.349   3.005  1.00  0.00    -0.550 OA
ATOM      7  O   UNL     1       8.917  11.503   5.132  1.00  0.00    -0.550 OA
ENDBRANCH   4   5
ENDBRANCH   3   4
ENDBRANCH   2   3
ENDBRANCH   1   2
BRANCH   1   8
ATOM      8  C   UNL     1       4.815   9.561   7.755  1.00  0.00     0.000 C 
BRANCH   8   9
ATOM      9  C   UNL     1       3.650  10.555   7.887  1.00  0.00     0.000 C 
BRANCH   9  10
ATOM     10  C   UNL     1       3.769  11.445   9.135  1.00  0.00     0.006 C 
BRANCH  10  11
ATOM     11  C   UNL     1       2.581  12.406   9.277  1.00  0.00     0.053 C 
BRANCH  11  12
ATOM     12  C   UNL     1       1.300  11.671   9.526  1.00  0.00     0.041 C 
ATOM     13  O   UNL     1       0.380  11.694   8.666  1.00  0.00    -0.550 OA
ATOM     14  O   UNL     1       1.108  10.989  10.721  1.00  0.00    -0.550 OA
ENDBRANCH  11  12
ENDBRANCH  10  11
ENDBRANCH   9  10
ENDBRANCH   8   9
ENDBRANCH   1   8
TORSDOF 9
ENDMDL
MODEL 4
REMARK VINA RESULT:    -4.612      2.523      3.172
REMARK INTER + INTRA:          -7.497
REMARK INTER:                  -6.571
REMARK INTRA:                  -0.926
REMARK UNBOUND:                -0.458
REMARK SMILES O=C([O-])CCCCCCCCC(=O)[O-]
REMARK SMILES IDX 7 1 6 2 5 3 4 4 2 5 1 6 3 7 8 8 9 9 10 10 11 11 12 12 13 13
REMARK SMILES IDX 14 14
REMARK H PARENT
REMARK Flexibility Score: inf
ROOT
ATOM      1  C   UNL     1       6.484  12.745   9.261  1.00  0.00     0.000 C 
ENDROOT
BRANCH   1   2
ATOM      2  C   UNL     1       5.286  12.531   8.330  1.00  0.00     0.000 C 
BRANCH   2   3
ATOM      3  C   UNL     1       4.042  12.101   9.123  1.00  0.00     0.006 C 
BRANCH   3   4
ATOM      4  C   UNL     1       3.986  10.584   9.338  1.00  0.00     0.053 C 
BRANCH   4   5
ATOM      5  C   UNL     1       3.784   9.846   8.049  1.00  0.00     0.041 C 
ATOM      6  O   UNL     1       4.540   8.888   7.743  1.00  0.00    -0.550 OA
ATOM      7  O   UNL     1       2.738  10.196   7.203  1.00  0.00    -0.550 OA
ENDBRANCH   4   5
ENDBRANCH   3   4
ENDBRANCH   2   3
ENDBRANCH   1   2
BRANCH   1   8
ATOM      8  C   UNL     1       7.794  12.325   8.578  1.00  0.00     0.000 C 
BRANCH   8   9
ATOM      9  C   UNL     1       7.673  10.982   7.842  1.00  0.00     0.000 C 
BRANCH   9  10
ATOM     10  C   UNL     1       8.403  10.982   6.487  1.00  0.00     0.006 C 
BRANCH  10  11
ATOM     11  C   UNL     1       7.509  10.475   5.348  1.00  0.00     0.053 C 
BRANCH  11  12
ATOM     12  C   UNL     1       6.405  11.440   5.038  1.00  0.00     0.041 C 
ATOM     13  O   UNL     1       6.660  12.663   4.880  1.00  0.00    -0.550 OA
ATOM     14  O   UNL     1       5.092  10.993   4.957  1.00  0.00    -0.550 OA
ENDBRANCH  11  12
ENDBRANCH  10  11
ENDBRANCH   9  10
ENDBRANCH   8   9
ENDBRANCH   1   8
TORSDOF 9
ENDMDL
MODEL 5
REMARK VINA RESULT:    -4.607      1.837      6.640
REMARK INTER + INTRA:          -7.490
REMARK INTER:                  -6.609
REMARK INTRA:                  -0.881
REMARK UNBOUND:                -0.458
REMARK SMILES O=C([O-])CCCCCCCCC(=O)[O-]
REMARK SMILES IDX 7 1 6 2 5 3 4 4 2 5 1 6 3 7 8 8 9 9 10 10 11 11 12 12 13 13
REMARK SMILES IDX 14 14
REMARK H PARENT
REMARK Flexibility Score: inf
ROOT
ATOM      1  C   UNL     1       5.975  11.656   4.421  1.00  0.00     0.000 C 
ENDROOT
BRANCH   1   2
ATOM      2  C   UNL     1       6.764  12.930   4.744  1.00  0.00     0.000 C 
BRANCH   2   3
ATOM      3  C   UNL     1       8.235  12.788   4.326  1.00  0.00     0.006 C 
BRANCH   3   4
ATOM      4  C   UNL     1       9.197  13.017   5.499  1.00  0.00     0.053 C 
BRANCH   4   5
ATOM      5  C   UNL     1       9.296  11.811   6.381  1.00  0.00     0.041 C 
ATOM      6  O   UNL     1       9.479  11.945   7.619  1.00  0.00    -0.550 OA
ATOM      7  O   UNL     1       9.152  10.538   5.841  1.00  0.00    -0.550 OA
ENDBRANCH   4   5
ENDBRANCH   3   4
ENDBRANCH   2   3
ENDBRANCH   1   2
BRANCH   1   8
ATOM      8  C   UNL     1       5.490  10.967   5.705  1.00  0.00     0.000 C 
BRANCH   8   9
ATOM      9  C   UNL     1       5.694  11.836   6.956  1.00  0.00     0.000 C 
BRANCH   9  10
ATOM     10  C   UNL     1       5.953  10.999   8.221  1.00  0.00     0.006 C 
BRANCH  10  11
ATOM     11  C   UNL     1       4.852  11.185   9.273  1.00  0.00     0.053 C 
BRANCH  11  12
ATOM     12  C   UNL     1       3.832  10.089   9.209  1.00  0.00     0.041 C 
ATOM     13  O   UNL     1       2.834  10.109   9.976  1.00  0.00    -0.550 OA
ATOM     14  O   UNL     1       4.003   9.029   8.328  1.00  0.00    -0.550 OA
ENDBRANCH  11  12
ENDBRANCH  10  11
ENDBRANCH   9  10
ENDBRANCH   8   9
ENDBRANCH   1   8
TORSDOF 9
ENDMDL
MODEL 6
REMARK VINA RESULT:    -4.502      0.893      1.322
REMARK INTER + INTRA:          -7.329
REMARK INTER:                  -6.965
REMARK INTRA:                  -0.364
REMARK UNBOUND:                -0.458
REMARK SMILES O=C([O-])CCCCCCCCC(=O)[O-]
REMARK SMILES IDX 7 1 6 2 5 3 4 4 2 5 1 6 3 7 8 8 9 9 10 10 11 11 12 12 13 13
REMARK SMILES IDX 14 14
REMARK H PARENT
REMARK Flexibility Score: inf
ROOT
ATOM      1  C   UNL     1       4.326   9.551   7.693  1.00  0.00     0.000 C 
ENDROOT
BRANCH   1   2
ATOM      2  C   UNL     1       3.224  10.594   7.913  1.00  0.00     0.000 C 
BRANCH   2   3
ATOM      3  C   UNL     1       3.499  11.429   9.172  1.00  0.00     0.006 C 
BRANCH   3   4
ATOM      4  C   UNL     1       2.524  12.604   9.315  1.00  0.00     0.053 C 
BRANCH   4   5
ATOM      5  C   UNL     1       1.170  12.151   9.769  1.00  0.00     0.041 C 
ATOM      6  O   UNL     1       0.132  12.646   9.256  1.00  0.00    -0.550 OA
ATOM      7  O   UNL     1       1.054  11.159  10.735  1.00  0.00    -0.550 OA
ENDBRANCH   4   5
ENDBRANCH   3   4
ENDBRANCH   2   3
ENDBRANCH   1   2
BRANCH   1   8
ATOM      8  C   UNL     1       5.689  10.226   7.478  1.00  0.00     0.000 C 
BRANCH   8   9
ATOM      9  C   UNL     1       5.731  11.081   6.202  1.00  0.00     0.000 C 
BRANCH   9  10
ATOM     10  C   UNL     1       7.164  11.307   5.689  1.00  0.00     0.006 C 
BRANCH  10  11
ATOM     11  C   UNL     1       7.192  12.140   4.400  1.00  0.00     0.053 C 
BRANCH  11  12
ATOM     12  C   UNL     1       8.588  12.316   3.883  1.00  0.00     0.041 C 
ATOM     13  O   UNL     1       8.803  12.351   2.643  1.00  0.00    -0.550 OA
ATOM     14  O   UNL     1       9.653  12.406   4.770  1.00  0.00    -0.550 OA
ENDBRANCH  11  12
ENDBRANCH  10  11
ENDBRANCH   9  10
ENDBRANCH   8   9
ENDBRANCH   1   8
TORSDOF 9
ENDMDL
MODEL 7
REMARK VINA RESULT:    -4.471      1.781      2.700
REMARK INTER + INTRA:          -7.282
REMARK INTER:                  -6.591
REMARK INTRA:                  -0.691
REMARK UNBOUND:                -0.458
REMARK SMILES O=C([O-])CCCCCCCCC(=O)[O-]
REMARK SMILES IDX 7 1 6 2 5 3 4 4 2 5 1 6 3 7 8 8 9 9 10 10 11 11 12 12 13 13
REMARK SMILES IDX 14 14
REMARK H PARENT
REMARK Flexibility Score: inf
ROOT
ATOM      1  C   UNL     1       5.347  10.978   5.759  1.00  0.00     0.000 C 
ENDROOT
BRANCH   1   2
ATOM      2  C   UNL     1       5.972  11.617   7.005  1.00  0.00     0.000 C 
BRANCH   2   3
ATOM      3  C   UNL     1       4.891  12.005   8.026  1.00  0.00     0.006 C 
BRANCH   3   4
ATOM      4  C   UNL     1       4.902  11.091   9.258  1.00  0.00     0.053 C 
BRANCH   4   5
ATOM      5  C   UNL     1       3.811  10.066   9.200  1.00  0.00     0.041 C 
ATOM      6  O   UNL     1       3.916   9.072   8.435  1.00  0.00    -0.550 OA
ATOM      7  O   UNL     1       2.693  10.191  10.016  1.00  0.00    -0.550 OA
ENDBRANCH   4   5
ENDBRANCH   3   4
ENDBRANCH   2   3
ENDBRANCH   1   2
BRANCH   1   8
ATOM      8  C   UNL     1       5.893  11.623   4.477  1.00  0.00     0.000 C 
BRANCH   8   9
ATOM      9  C   UNL     1       6.833  12.805   4.762  1.00  0.00     0.000 C 
BRANCH   9  10
ATOM     10  C   UNL     1       8.190  12.668   4.050  1.00  0.00     0.006 C 
BRANCH  10  11
ATOM     11  C   UNL     1       9.370  12.849   5.014  1.00  0.00     0.053 C 
BRANCH  11  12
ATOM     12  C   UNL     1       9.415  11.765   6.047  1.00  0.00     0.041 C 
ATOM     13  O   UNL     1       9.192  10.570   5.719  1.00  0.00    -0.550 OA
ATOM     14  O   UNL     1       9.670  12.078   7.376  1.00  0.00    -0.550 OA
ENDBRANCH  11  12
ENDBRANCH  10  11
ENDBRANCH   9  10
ENDBRANCH   8   9
ENDBRANCH   1   8
TORSDOF 9
ENDMDL
MODEL 8
REMARK VINA RESULT:    -4.439      2.290      6.463
REMARK INTER + INTRA:          -7.233
REMARK INTER:                  -6.544
REMARK INTRA:                  -0.689
REMARK UNBOUND:                -0.458
REMARK SMILES O=C([O-])CCCCCCCCC(=O)[O-]
REMARK SMILES IDX 7 1 6 2 5 3 4 4 2 5 1 6 3 7 8 8 9 9 10 10 11 11 12 12 13 13
REMARK SMILES IDX 14 14
REMARK H PARENT
REMARK Flexibility Score: inf
ROOT
ATOM      1  C   UNL     1       8.319  12.251   8.050  1.00  0.00     0.000 C 
ENDROOT
BRANCH   1   2
ATOM      2  C   UNL     1       8.231  10.845   7.446  1.00  0.00     0.000 C 
BRANCH   2   3
ATOM      3  C   UNL     1       8.903  10.795   6.065  1.00  0.00     0.006 C 
BRANCH   3   4
ATOM      4  C   UNL     1       8.996  12.181   5.415  1.00  0.00     0.053 C 
BRANCH   4   5
ATOM      5  C   UNL     1       8.124  12.286   4.201  1.00  0.00     0.041 C 
ATOM      6  O   UNL     1       8.632  12.239   3.050  1.00  0.00    -0.550 OA
ATOM      7  O   UNL     1       6.746  12.404   4.341  1.00  0.00    -0.550 OA
ENDBRANCH   4   5
ENDBRANCH   3   4
ENDBRANCH   2   3
ENDBRANCH   1   2
BRANCH   1   8
ATOM      8  C   UNL     1       7.035  12.602   8.817  1.00  0.00     0.000 C 
BRANCH   8   9
ATOM      9  C   UNL     1       5.766  12.383   7.979  1.00  0.00     0.000 C 
BRANCH   9  10
ATOM     10  C   UNL     1       4.483  12.422   8.827  1.00  0.00     0.006 C 
BRANCH  10  11
ATOM     11  C   UNL     1       4.041  11.021   9.272  1.00  0.00     0.053 C 
BRANCH  11  12
ATOM     12  C   UNL     1       3.829  10.109   8.103  1.00  0.00     0.041 C 
ATOM     13  O   UNL     1       2.861  10.299   7.320  1.00  0.00    -0.550 OA
ATOM     14  O   UNL     1       4.679   9.029   7.898  1.00  0.00    -0.550 OA
ENDBRANCH  11  12
ENDBRANCH  10  11
ENDBRANCH   9  10
ENDBRANCH   8   9
ENDBRANCH   1   8
TORSDOF 9
ENDMDL
MODEL 9
REMARK VINA RESULT:    -4.342      1.983      2.704
REMARK INTER + INTRA:          -7.085
REMARK INTER:                  -6.570
REMARK INTRA:                  -0.515
REMARK UNBOUND:                -0.458
REMARK SMILES O=C([O-])CCCCCCCCC(=O)[O-]
REMARK SMILES IDX 7 1 6 2 5 3 4 4 2 5 1 6 3 7 8 8 9 9 10 10 11 11 12 12 13 13
REMARK SMILES IDX 14 14
REMARK H PARENT
REMARK Flexibility Score: inf
ROOT
ATOM      1  C   UNL     1       6.806  10.484   6.604  1.00  0.00     0.000 C 
ENDROOT
BRANCH   1   2
ATOM      2  C   UNL     1       5.502  11.284   6.689  1.00  0.00     0.000 C 
BRANCH   2   3
ATOM      3  C   UNL     1       5.195  11.687   8.139  1.00  0.00     0.006 C 
BRANCH   3   4
ATOM      4  C   UNL     1       3.739  11.402   8.526  1.00  0.00     0.053 C 
BRANCH   4   5
ATOM      5  C   UNL     1       3.576  10.035   9.116  1.00  0.00     0.041 C 
ATOM      6  O   UNL     1       2.973   9.885  10.210  1.00  0.00    -0.550 OA
ATOM      7  O   UNL     1       4.061   8.922   8.439  1.00  0.00    -0.550 OA
ENDBRANCH   4   5
ENDBRANCH   3   4
ENDBRANCH   2   3
ENDBRANCH   1   2
BRANCH   1   8
ATOM      8  C   UNL     1       7.784  10.905   7.711  1.00  0.00     0.000 C 
BRANCH   8   9
ATOM      9  C   UNL     1       9.016  11.643   7.163  1.00  0.00     0.000 C 
BRANCH   9  10
ATOM     10  C   UNL     1       9.409  11.172   5.752  1.00  0.00     0.006 C 
BRANCH  10  11
ATOM     11  C   UNL     1       9.835  12.337   4.850  1.00  0.00     0.053 C 
BRANCH  11  12
ATOM     12  C   UNL     1       8.876  12.541   3.717  1.00  0.00     0.041 C 
ATOM     13  O   UNL     1       9.298  12.922   2.593  1.00  0.00    -0.550 OA
ATOM     14  O   UNL     1       7.515  12.345   3.911  1.00  0.00    -0.550 OA
ENDBRANCH  11  12
ENDBRANCH  10  11
ENDBRANCH   9  10
ENDBRANCH   8   9
ENDBRANCH   1   8
TORSDOF 9
ENDMDL
