MODEL 1
REMARK VINA RESULT:    -4.661      0.000      0.000
REMARK INTER + INTRA:          -6.399
REMARK INTER:                  -6.023
REMARK INTRA:                  -0.376
REMARK UNBOUND:                -0.376
REMARK SMILES CCO[C@H]1O[C@H](CO)[C@@H](O)[C@H](O)[C@@H]1O
REMARK SMILES IDX 4 1 13 2 11 3 9 4 6 5 5 6 3 7 2 8 1 9 14 10 12 12 7 14 8 15
REMARK SMILES IDX 10 17
REMARK H PARENT 14 11 12 13 8 16 10 18
REMARK Flexibility Score: inf
ROOT
ATOM      1  C   UNL     1     -13.750  44.136  36.094  1.00  0.00     0.281 C 
ATOM      2  C   UNL     1     -14.619  43.473  37.183  1.00  0.00     0.202 C 
ATOM      3  C   UNL     1     -14.878  41.997  36.826  1.00  0.00     0.179 C 
ATOM      4  C   UNL     1     -15.421  41.884  35.392  1.00  0.00     0.177 C 
ATOM      5  C   UNL     1     -14.493  42.651  34.423  1.00  0.00     0.178 C 
ATOM      6  O   UNL     1     -14.360  44.010  34.818  1.00  0.00    -0.341 OA
ENDROOT
BRANCH   1   7
ATOM      7  O   UNL     1     -12.443  43.575  36.072  1.00  0.00    -0.350 OA
BRANCH   7   8
ATOM      8  C   UNL     1     -11.715  43.884  37.247  1.00  0.00     0.160 C 
ATOM      9  C   UNL     1     -10.222  43.940  36.946  1.00  0.00     0.035 C 
ENDBRANCH   7   8
ENDBRANCH   1   7
BRANCH   2  10
ATOM     10  O   UNL     1     -15.835  44.173  37.284  1.00  0.00    -0.385 OA
ATOM     11  H   UNL     1     -16.417  43.654  37.900  1.00  0.00     0.211 HD
ENDBRANCH   2  10
BRANCH   3  12
ATOM     12  O   UNL     1     -15.795  41.428  37.724  1.00  0.00    -0.387 OA
ATOM     13  H   UNL     1     -15.263  40.945  38.408  1.00  0.00     0.211 HD
ENDBRANCH   3  12
BRANCH   5  14
ATOM     14  C   UNL     1     -15.056  42.617  32.995  1.00  0.00     0.191 C 
BRANCH  14  15
ATOM     15  O   UNL     1     -16.452  42.490  33.022  1.00  0.00    -0.394 OA
ATOM     16  H   UNL     1     -16.748  42.790  33.921  1.00  0.00     0.210 HD
ENDBRANCH  14  15
ENDBRANCH   5  14
BRANCH   4  17
ATOM     17  O   UNL     1     -15.481  40.531  35.016  1.00  0.00    -0.387 OA
ATOM     18  H   UNL     1     -14.854  40.415  34.255  1.00  0.00     0.211 HD
ENDBRANCH   4  17
TORSDOF 7
ENDMDL
MODEL 2
REMARK VINA RESULT:    -4.484      1.906      4.248
REMARK INTER + INTRA:          -6.171
REMARK INTER:                  -5.823
REMARK INTRA:                  -0.348
REMARK UNBOUND:                -0.376
REMARK SMILES CCO[C@H]1O[C@H](CO)[C@@H](O)[C@H](O)[C@@H]1O
REMARK SMILES IDX 4 1 13 2 11 3 9 4 6 5 5 6 3 7 2 8 1 9 14 10 12 12 7 14 8 15
REMARK SMILES IDX 10 17
REMARK H PARENT 14 11 12 13 8 16 10 18
REMARK Flexibility Score: inf
ROOT
ATOM      1  C   UNL     1     -13.461  43.630  35.132  1.00  0.00     0.281 C 
ATOM      2  C   UNL     1     -14.388  42.437  35.441  1.00  0.00     0.202 C 
ATOM      3  C   UNL     1     -14.906  42.532  36.889  1.00  0.00     0.179 C 
ATOM      4  C   UNL     1     -13.732  42.722  37.863  1.00  0.00     0.177 C 
ATOM      5  C   UNL     1     -12.852  43.901  37.391  1.00  0.00     0.178 C 
ATOM      6  O   UNL     1     -12.391  43.691  36.064  1.00  0.00    -0.341 OA
ENDROOT
BRANCH   1   7
ATOM      7  O   UNL     1     -14.186  44.855  35.136  1.00  0.00    -0.350 OA
BRANCH   7   8
ATOM      8  C   UNL     1     -13.964  45.604  33.956  1.00  0.00     0.160 C 
ATOM      9  C   UNL     1     -15.292  46.052  33.355  1.00  0.00     0.035 C 
ENDBRANCH   7   8
ENDBRANCH   1   7
BRANCH   2  10
ATOM     10  O   UNL     1     -13.670  41.242  35.256  1.00  0.00    -0.385 OA
ATOM     11  H   UNL     1     -14.117  40.547  35.807  1.00  0.00     0.211 HD
ENDBRANCH   2  10
BRANCH   3  12
ATOM     12  O   UNL     1     -15.621  41.372  37.232  1.00  0.00    -0.387 OA
ATOM     13  H   UNL     1     -15.398  41.169  38.178  1.00  0.00     0.211 HD
ENDBRANCH   3  12
BRANCH   5  14
ATOM     14  C   UNL     1     -11.629  44.062  38.306  1.00  0.00     0.191 C 
BRANCH  14  15
ATOM     15  O   UNL     1     -11.997  44.670  39.514  1.00  0.00    -0.394 OA
ATOM     16  H   UNL     1     -12.598  44.033  39.982  1.00  0.00     0.210 HD
ENDBRANCH  14  15
ENDBRANCH   5  14
BRANCH   4  17
ATOM     17  O   UNL     1     -14.226  42.987  39.151  1.00  0.00    -0.387 OA
ATOM     18  H   UNL     1     -15.130  42.580  39.203  1.00  0.00     0.211 HD
ENDBRANCH   4  17
TORSDOF 7
ENDMDL
MODEL 3
REMARK VINA RESULT:    -4.324     10.266     12.512
REMARK INTER + INTRA:          -5.964
REMARK INTER:                  -5.582
REMARK INTRA:                  -0.382
REMARK UNBOUND:                -0.376
REMARK SMILES CCO[C@H]1O[C@H](CO)[C@@H](O)[C@H](O)[C@@H]1O
REMARK SMILES IDX 4 1 13 2 11 3 9 4 6 5 5 6 3 7 2 8 1 9 14 10 12 12 7 14 8 15
REMARK SMILES IDX 10 17
REMARK H PARENT 14 11 12 13 8 16 10 18
REMARK Flexibility Score: inf
ROOT
ATOM      1  C   UNL     1      -5.488  42.039  28.630  1.00  0.00     0.281 C 
ATOM      2  C   UNL     1      -4.440  41.132  27.954  1.00  0.00     0.202 C 
ATOM      3  C   UNL     1      -3.927  40.079  28.956  1.00  0.00     0.179 C 
ATOM      4  C   UNL     1      -3.466  40.762  30.254  1.00  0.00     0.177 C 
ATOM      5  C   UNL     1      -4.584  41.690  30.778  1.00  0.00     0.178 C 
ATOM      6  O   UNL     1      -4.949  42.649  29.793  1.00  0.00    -0.341 OA
ENDROOT
BRANCH   1   7
ATOM      7  O   UNL     1      -6.663  41.307  28.958  1.00  0.00    -0.350 OA
BRANCH   7   8
ATOM      8  C   UNL     1      -7.410  40.963  27.807  1.00  0.00     0.160 C 
ATOM      9  C   UNL     1      -8.896  41.207  28.047  1.00  0.00     0.035 C 
ENDBRANCH   7   8
ENDBRANCH   1   7
BRANCH   2  10
ATOM     10  O   UNL     1      -3.376  41.928  27.493  1.00  0.00    -0.385 OA
ATOM     11  H   UNL     1      -3.684  42.871  27.527  1.00  0.00     0.211 HD
ENDBRANCH   2  10
BRANCH   3  12
ATOM     12  O   UNL     1      -2.862  39.351  28.401  1.00  0.00    -0.387 OA
ATOM     13  H   UNL     1      -2.070  39.522  28.975  1.00  0.00     0.211 HD
ENDBRANCH   3  12
BRANCH   5  14
ATOM     14  C   UNL     1      -4.118  42.443  32.033  1.00  0.00     0.191 C 
BRANCH  14  15
ATOM     15  O   UNL     1      -2.724  42.589  32.027  1.00  0.00    -0.394 OA
ATOM     16  H   UNL     1      -2.362  41.897  32.641  1.00  0.00     0.210 HD
ENDBRANCH  14  15
ENDBRANCH   5  14
BRANCH   4  17
ATOM     17  O   UNL     1      -3.173  39.785  31.221  1.00  0.00    -0.387 OA
ATOM     18  H   UNL     1      -3.637  40.057  32.056  1.00  0.00     0.211 HD
ENDBRANCH   4  17
TORSDOF 7
ENDMDL
MODEL 4
REMARK VINA RESULT:    -4.297      9.749     11.142
REMARK INTER + INTRA:          -5.929
REMARK INTER:                  -5.575
REMARK INTRA:                  -0.354
REMARK UNBOUND:                -0.376
REMARK SMILES CCO[C@H]1O[C@H](CO)[C@@H](O)[C@H](O)[C@@H]1O
REMARK SMILES IDX 4 1 13 2 11 3 9 4 6 5 5 6 3 7 2 8 1 9 14 10 12 12 7 14 8 15
REMARK SMILES IDX 10 17
REMARK H PARENT 14 11 12 13 8 16 10 18
REMARK Flexibility Score: inf
ROOT
ATOM      1  C   UNL     1      -5.944  42.581  29.241  1.00  0.00     0.281 C 
ATOM      2  C   UNL     1      -5.058  41.601  28.444  1.00  0.00     0.202 C 
ATOM      3  C   UNL     1      -5.785  41.157  27.160  1.00  0.00     0.179 C 
ATOM      4  C   UNL     1      -7.194  40.642  27.499  1.00  0.00     0.177 C 
ATOM      5  C   UNL     1      -7.937  41.691  28.356  1.00  0.00     0.178 C 
ATOM      6  O   UNL     1      -7.203  41.995  29.535  1.00  0.00    -0.341 OA
ENDROOT
BRANCH   1   7
ATOM      7  O   UNL     1      -6.123  43.801  28.531  1.00  0.00    -0.350 OA
BRANCH   7   8
ATOM      8  C   UNL     1      -5.864  44.929  29.346  1.00  0.00     0.160 C 
ATOM      9  C   UNL     1      -4.363  45.116  29.531  1.00  0.00     0.035 C 
ENDBRANCH   7   8
ENDBRANCH   1   7
BRANCH   2  10
ATOM     10  O   UNL     1      -4.767  40.488  29.252  1.00  0.00    -0.385 OA
ATOM     11  H   UNL     1      -5.614  40.225  29.698  1.00  0.00     0.211 HD
ENDBRANCH   2  10
BRANCH   3  12
ATOM     12  O   UNL     1      -5.058  40.147  26.509  1.00  0.00    -0.387 OA
ATOM     13  H   UNL     1      -5.474  39.283  26.768  1.00  0.00     0.211 HD
ENDBRANCH   3  12
BRANCH   5  14
ATOM     14  C   UNL     1      -9.320  41.167  28.772  1.00  0.00     0.191 C 
BRANCH  14  15
ATOM     15  O   UNL     1     -10.185  41.138  27.669  1.00  0.00    -0.394 OA
ATOM     16  H   UNL     1      -9.916  41.888  27.077  1.00  0.00     0.210 HD
ENDBRANCH  14  15
ENDBRANCH   5  14
BRANCH   4  17
ATOM     17  O   UNL     1      -7.909  40.411  26.311  1.00  0.00    -0.387 OA
ATOM     18  H   UNL     1      -8.761  39.971  26.568  1.00  0.00     0.211 HD
ENDBRANCH   4  17
TORSDOF 7
ENDMDL
MODEL 5
REMARK VINA RESULT:    -4.279     10.404     12.189
REMARK INTER + INTRA:          -5.906
REMARK INTER:                  -5.533
REMARK INTRA:                  -0.373
REMARK UNBOUND:                -0.376
REMARK SMILES CCO[C@H]1O[C@H](CO)[C@@H](O)[C@H](O)[C@@H]1O
REMARK SMILES IDX 4 1 13 2 11 3 9 4 6 5 5 6 3 7 2 8 1 9 14 10 12 12 7 14 8 15
REMARK SMILES IDX 10 17
REMARK H PARENT 14 11 12 13 8 16 10 18
REMARK Flexibility Score: inf
ROOT
ATOM      1  C   UNL     1      -5.627  41.140  27.109  1.00  0.00     0.281 C 
ATOM      2  C   UNL     1      -4.368  40.886  27.964  1.00  0.00     0.202 C 
ATOM      3  C   UNL     1      -4.731  40.931  29.461  1.00  0.00     0.179 C 
ATOM      4  C   UNL     1      -5.495  42.224  29.785  1.00  0.00     0.177 C 
ATOM      5  C   UNL     1      -6.682  42.383  28.808  1.00  0.00     0.178 C 
ATOM      6  O   UNL     1      -6.233  42.375  27.460  1.00  0.00    -0.341 OA
ENDROOT
BRANCH   1   7
ATOM      7  O   UNL     1      -6.562  40.077  27.247  1.00  0.00    -0.350 OA
BRANCH   7   8
ATOM      8  C   UNL     1      -6.733  39.362  26.037  1.00  0.00     0.160 C 
ATOM      9  C   UNL     1      -5.850  38.120  26.025  1.00  0.00     0.035 C 
ENDBRANCH   7   8
ENDBRANCH   1   7
BRANCH   2  10
ATOM     10  O   UNL     1      -3.407  41.867  27.664  1.00  0.00    -0.385 OA
ATOM     11  H   UNL     1      -2.529  41.513  27.964  1.00  0.00     0.211 HD
ENDBRANCH   2  10
BRANCH   3  12
ATOM     12  O   UNL     1      -3.570  40.859  30.249  1.00  0.00    -0.387 OA
ATOM     13  H   UNL     1      -3.235  41.788  30.350  1.00  0.00     0.211 HD
ENDBRANCH   3  12
BRANCH   5  14
ATOM     14  C   UNL     1      -7.417  43.709  29.063  1.00  0.00     0.191 C 
BRANCH  14  15
ATOM     15  O   UNL     1      -6.541  44.656  29.610  1.00  0.00    -0.394 OA
ATOM     16  H   UNL     1      -5.624  44.383  29.346  1.00  0.00     0.210 HD
ENDBRANCH  14  15
ENDBRANCH   5  14
BRANCH   4  17
ATOM     17  O   UNL     1      -5.975  42.170  31.105  1.00  0.00    -0.387 OA
ATOM     18  H   UNL     1      -5.346  42.697  31.663  1.00  0.00     0.211 HD
ENDBRANCH   4  17
TORSDOF 7
ENDMDL
MODEL 6
REMARK VINA RESULT:    -4.276     10.051     11.941
REMARK INTER + INTRA:          -5.902
REMARK INTER:                  -5.502
REMARK INTRA:                  -0.401
REMARK UNBOUND:                -0.376
REMARK SMILES CCO[C@H]1O[C@H](CO)[C@@H](O)[C@H](O)[C@@H]1O
REMARK SMILES IDX 4 1 13 2 11 3 9 4 6 5 5 6 3 7 2 8 1 9 14 10 12 12 7 14 8 15
REMARK SMILES IDX 10 17
REMARK H PARENT 14 11 12 13 8 16 10 18
REMARK Flexibility Score: inf
ROOT
ATOM      1  C   UNL     1      -7.640  41.469  27.881  1.00  0.00     0.281 C 
ATOM      2  C   UNL     1      -6.862  40.467  27.004  1.00  0.00     0.202 C 
ATOM      3  C   UNL     1      -5.534  40.088  27.686  1.00  0.00     0.179 C 
ATOM      4  C   UNL     1      -4.759  41.356  28.082  1.00  0.00     0.177 C 
ATOM      5  C   UNL     1      -5.680  42.295  28.893  1.00  0.00     0.178 C 
ATOM      6  O   UNL     1      -6.851  42.617  28.155  1.00  0.00    -0.341 OA
ENDROOT
BRANCH   1   7
ATOM      7  O   UNL     1      -8.063  40.862  29.097  1.00  0.00    -0.350 OA
BRANCH   7   8
ATOM      8  C   UNL     1      -9.388  41.226  29.436  1.00  0.00     0.160 C 
ATOM      9  C   UNL     1     -10.218  41.440  28.176  1.00  0.00     0.035 C 
ENDBRANCH   7   8
ENDBRANCH   1   7
BRANCH   2  10
ATOM     10  O   UNL     1      -6.618  41.053  25.749  1.00  0.00    -0.385 OA
ATOM     11  H   UNL     1      -5.996  41.813  25.900  1.00  0.00     0.211 HD
ENDBRANCH   2  10
BRANCH   3  12
ATOM     12  O   UNL     1      -4.747  39.303  26.827  1.00  0.00    -0.387 OA
ATOM     13  H   UNL     1      -4.804  38.370  27.161  1.00  0.00     0.211 HD
ENDBRANCH   3  12
BRANCH   5  14
ATOM     14  C   UNL     1      -4.951  43.603  29.234  1.00  0.00     0.191 C 
BRANCH  14  15
ATOM     15  O   UNL     1      -4.194  43.451  30.404  1.00  0.00    -0.394 OA
ATOM     16  H   UNL     1      -3.961  42.488  30.469  1.00  0.00     0.210 HD
ENDBRANCH  14  15
ENDBRANCH   5  14
BRANCH   4  17
ATOM     17  O   UNL     1      -3.643  41.002  28.860  1.00  0.00    -0.387 OA
ATOM     18  H   UNL     1      -3.111  41.829  28.994  1.00  0.00     0.211 HD
ENDBRANCH   4  17
TORSDOF 7
ENDMDL
MODEL 7
REMARK VINA RESULT:    -4.275     10.215     11.380
REMARK INTER + INTRA:          -5.900
REMARK INTER:                  -5.530
REMARK INTRA:                  -0.370
REMARK UNBOUND:                -0.376
REMARK SMILES CCO[C@H]1O[C@H](CO)[C@@H](O)[C@H](O)[C@@H]1O
REMARK SMILES IDX 4 1 13 2 11 3 9 4 6 5 5 6 3 7 2 8 1 9 14 10 12 12 7 14 8 15
REMARK SMILES IDX 10 17
REMARK H PARENT 14 11 12 13 8 16 10 18
REMARK Flexibility Score: inf
ROOT
ATOM      1  C   UNL     1      -6.371  42.870  29.632  1.00  0.00     0.281 C 
ATOM      2  C   UNL     1      -5.225  42.028  30.230  1.00  0.00     0.202 C 
ATOM      3  C   UNL     1      -4.501  41.252  29.113  1.00  0.00     0.179 C 
ATOM      4  C   UNL     1      -5.518  40.470  28.265  1.00  0.00     0.177 C 
ATOM      5  C   UNL     1      -6.642  41.421  27.795  1.00  0.00     0.178 C 
ATOM      6  O   UNL     1      -7.271  42.049  28.904  1.00  0.00    -0.341 OA
ENDROOT
BRANCH   1   7
ATOM      7  O   UNL     1      -5.863  43.904  28.797  1.00  0.00    -0.350 OA
BRANCH   7   8
ATOM      8  C   UNL     1      -5.622  45.097  29.519  1.00  0.00     0.160 C 
ATOM      9  C   UNL     1      -4.130  45.406  29.550  1.00  0.00     0.035 C 
ENDBRANCH   7   8
ENDBRANCH   1   7
BRANCH   2  10
ATOM     10  O   UNL     1      -5.759  41.138  31.178  1.00  0.00    -0.385 OA
ATOM     11  H   UNL     1      -4.998  40.618  31.548  1.00  0.00     0.211 HD
ENDBRANCH   2  10
BRANCH   3  12
ATOM     12  O   UNL     1      -3.562  40.364  29.661  1.00  0.00    -0.387 OA
ATOM     13  H   UNL     1      -3.930  40.060  30.532  1.00  0.00     0.211 HD
ENDBRANCH   3  12
BRANCH   5  14
ATOM     14  C   UNL     1      -7.711  40.647  27.009  1.00  0.00     0.191 C 
BRANCH  14  15
ATOM     15  O   UNL     1      -7.348  40.544  25.659  1.00  0.00    -0.394 OA
ATOM     16  H   UNL     1      -6.941  39.647  25.541  1.00  0.00     0.210 HD
ENDBRANCH  14  15
ENDBRANCH   5  14
BRANCH   4  17
ATOM     17  O   UNL     1      -4.871  39.916  27.147  1.00  0.00    -0.387 OA
ATOM     18  H   UNL     1      -4.388  39.109  27.464  1.00  0.00     0.211 HD
ENDBRANCH   4  17
TORSDOF 7
ENDMDL
MODEL 8
REMARK VINA RESULT:    -4.254      2.162      4.160
REMARK INTER + INTRA:          -5.874
REMARK INTER:                  -5.700
REMARK INTRA:                  -0.174
REMARK UNBOUND:                -0.376
REMARK SMILES CCO[C@H]1O[C@H](CO)[C@@H](O)[C@H](O)[C@@H]1O
REMARK SMILES IDX 4 1 13 2 11 3 9 4 6 5 5 6 3 7 2 8 1 9 14 10 12 12 7 14 8 15
REMARK SMILES IDX 10 17
REMARK H PARENT 14 11 12 13 8 16 10 18
REMARK Flexibility Score: inf
ROOT
ATOM      1  C   UNL     1     -12.239  43.949  35.936  1.00  0.00     0.281 C 
ATOM      2  C   UNL     1     -13.090  42.803  35.351  1.00  0.00     0.202 C 
ATOM      3  C   UNL     1     -14.395  42.652  36.155  1.00  0.00     0.179 C 
ATOM      4  C   UNL     1     -14.086  42.540  37.657  1.00  0.00     0.177 C 
ATOM      5  C   UNL     1     -13.171  43.709  38.086  1.00  0.00     0.178 C 
ATOM      6  O   UNL     1     -11.977  43.729  37.314  1.00  0.00    -0.341 OA
ENDROOT
BRANCH   1   7
ATOM      7  O   UNL     1     -12.879  45.207  35.752  1.00  0.00    -0.350 OA
BRANCH   7   8
ATOM      8  C   UNL     1     -12.696  45.706  34.440  1.00  0.00     0.160 C 
ATOM      9  C   UNL     1     -11.736  46.889  34.453  1.00  0.00     0.035 C 
ENDBRANCH   7   8
ENDBRANCH   1   7
BRANCH   2  10
ATOM     10  O   UNL     1     -12.345  41.612  35.399  1.00  0.00    -0.385 OA
ATOM     11  H   UNL     1     -12.281  41.273  34.468  1.00  0.00     0.211 HD
ENDBRANCH   2  10
BRANCH   3  12
ATOM     12  O   UNL     1     -15.102  41.514  35.733  1.00  0.00    -0.387 OA
ATOM     13  H   UNL     1     -15.415  41.699  34.809  1.00  0.00     0.211 HD
ENDBRANCH   3  12
BRANCH   5  14
ATOM     14  C   UNL     1     -12.784  43.576  39.567  1.00  0.00     0.191 C 
BRANCH  14  15
ATOM     15  O   UNL     1     -11.603  44.285  39.830  1.00  0.00    -0.394 OA
ATOM     16  H   UNL     1     -10.930  43.972  39.171  1.00  0.00     0.210 HD
ENDBRANCH  14  15
ENDBRANCH   5  14
BRANCH   4  17
ATOM     17  O   UNL     1     -15.284  42.585  38.390  1.00  0.00    -0.387 OA
ATOM     18  H   UNL     1     -15.282  41.797  38.994  1.00  0.00     0.211 HD
ENDBRANCH   4  17
TORSDOF 7
ENDMDL
MODEL 9
REMARK VINA RESULT:    -4.182      1.731      2.108
REMARK INTER + INTRA:          -5.781
REMARK INTER:                  -5.414
REMARK INTRA:                  -0.367
REMARK UNBOUND:                -0.376
REMARK SMILES CCO[C@H]1O[C@H](CO)[C@@H](O)[C@H](O)[C@@H]1O
REMARK SMILES IDX 4 1 13 2 11 3 9 4 6 5 5 6 3 7 2 8 1 9 14 10 12 12 7 14 8 15
REMARK SMILES IDX 10 17
REMARK H PARENT 14 11 12 13 8 16 10 18
REMARK Flexibility Score: inf
ROOT
ATOM      1  C   UNL     1     -11.953  44.126  37.090  1.00  0.00     0.281 C 
ATOM      2  C   UNL     1     -12.936  43.622  38.168  1.00  0.00     0.202 C 
ATOM      3  C   UNL     1     -13.995  42.704  37.529  1.00  0.00     0.179 C 
ATOM      4  C   UNL     1     -14.644  43.400  36.322  1.00  0.00     0.177 C 
ATOM      5  C   UNL     1     -13.544  43.914  35.366  1.00  0.00     0.178 C 
ATOM      6  O   UNL     1     -12.650  44.786  36.044  1.00  0.00    -0.341 OA
ENDROOT
BRANCH   1   7
ATOM      7  O   UNL     1     -11.178  43.055  36.565  1.00  0.00    -0.350 OA
BRANCH   7   8
ATOM      8  C   UNL     1     -10.017  43.519  35.900  1.00  0.00     0.160 C 
ATOM      9  C   UNL     1      -9.098  44.239  36.880  1.00  0.00     0.035 C 
ENDBRANCH   7   8
ENDBRANCH   1   7
BRANCH   2  10
ATOM     10  O   UNL     1     -13.552  44.730  38.777  1.00  0.00    -0.385 OA
ATOM     11  H   UNL     1     -13.020  44.948  39.587  1.00  0.00     0.211 HD
ENDBRANCH   2  10
BRANCH   3  12
ATOM     12  O   UNL     1     -14.984  42.368  38.468  1.00  0.00    -0.387 OA
ATOM     13  H   UNL     1     -15.061  41.378  38.459  1.00  0.00     0.211 HD
ENDBRANCH   3  12
BRANCH   5  14
ATOM     14  C   UNL     1     -14.166  44.681  34.189  1.00  0.00     0.191 C 
BRANCH  14  15
ATOM     15  O   UNL     1     -15.374  45.276  34.577  1.00  0.00    -0.394 OA
ATOM     16  H   UNL     1     -15.986  45.213  33.798  1.00  0.00     0.210 HD
ENDBRANCH  14  15
ENDBRANCH   5  14
BRANCH   4  17
ATOM     17  O   UNL     1     -15.472  42.490  35.642  1.00  0.00    -0.387 OA
ATOM     18  H   UNL     1     -15.975  43.010  34.963  1.00  0.00     0.211 HD
ENDBRANCH   4  17
TORSDOF 7
ENDMDL
