MODEL 1
REMARK VINA RESULT:    -7.200      0.000      0.000
REMARK INTER + INTRA:          -8.574
REMARK INTER:                  -8.463
REMARK INTRA:                  -0.111
REMARK UNBOUND:                -0.111
REMARK SMILES O=c1c(O)c(-c2ccc(O)cc2)oc2cc(O)cc(O)c12
REMARK SMILES IDX 5 1 3 2 2 3 1 4 21 5 19 6 18 7 16 8 15 9 14 10 13 11 6 12
REMARK SMILES IDX 7 13 8 14 9 15 12 16 11 17 10 18 4 20 20 22 17 24
REMARK H PARENT 10 19 4 21 20 23 17 25
REMARK Flexibility Score: inf
ROOT
ATOM      1  C   UNL     1      -0.858  13.403   5.776  1.00  0.00     0.180 A 
ATOM      2  C   UNL     1      -1.380  12.354   6.558  1.00  0.00     0.208 A 
ATOM      3  C   UNL     1      -2.738  12.378   6.906  1.00  0.00     0.238 A 
ATOM      4  O   UNL     1      -3.220  11.438   7.596  1.00  0.00    -0.285 OA
ATOM      5  C   UNL     1      -3.547  13.455   6.487  1.00  0.00     0.111 A 
ATOM      6  C   UNL     1      -4.924  13.557   6.799  1.00  0.00     0.134 A 
ATOM      7  C   UNL     1      -5.658  14.667   6.353  1.00  0.00     0.093 A 
ATOM      8  C   UNL     1      -5.044  15.673   5.605  1.00  0.00     0.123 A 
ATOM      9  C   UNL     1      -3.684  15.577   5.293  1.00  0.00     0.094 A 
ATOM     10  C   UNL     1      -2.936  14.480   5.727  1.00  0.00     0.146 A 
ATOM     11  O   UNL     1      -1.646  14.411   5.413  1.00  0.00    -0.452 OA
ENDROOT
BRANCH   1  12
ATOM     12  C   UNL     1       0.560  13.440   5.352  1.00  0.00     0.021 A 
ATOM     13  C   UNL     1       0.876  13.342   3.987  1.00  0.00     0.016 A 
ATOM     14  C   UNL     1       2.209  13.352   3.566  1.00  0.00     0.047 A 
ATOM     15  C   UNL     1       3.243  13.446   4.506  1.00  0.00     0.115 A 
ATOM     16  C   UNL     1       1.605  13.515   6.292  1.00  0.00     0.016 A 
ATOM     17  C   UNL     1       2.937  13.524   5.868  1.00  0.00     0.047 A 
BRANCH  15  18
ATOM     18  O   UNL     1       4.576  13.459   4.098  1.00  0.00    -0.508 OA
ATOM     19  H   UNL     1       5.212  14.190   4.391  1.00  0.00     0.293 HD
ENDBRANCH  15  18
ENDBRANCH   1  12
BRANCH   2  20
ATOM     20  O   UNL     1      -0.547  11.323   7.001  1.00  0.00    -0.502 OA
ATOM     21  H   UNL     1      -0.472  10.439   6.513  1.00  0.00     0.293 HD
ENDBRANCH   2  20
BRANCH   6  22
ATOM     22  O   UNL     1      -5.566  12.569   7.546  1.00  0.00    -0.507 OA
ATOM     23  H   UNL     1      -6.314  12.007   7.156  1.00  0.00     0.293 HD
ENDBRANCH   6  22
BRANCH   8  24
ATOM     24  O   UNL     1      -5.796  16.765   5.175  1.00  0.00    -0.508 OA
ATOM     25  H   UNL     1      -6.056  16.878   4.202  1.00  0.00     0.293 HD
ENDBRANCH   8  24
TORSDOF 5
ENDMDL
MODEL 2
REMARK VINA RESULT:    -6.547      1.980      6.510
REMARK INTER + INTRA:          -7.807
REMARK INTER:                  -7.897
REMARK INTRA:                   0.090
REMARK UNBOUND:                -0.111
REMARK SMILES O=c1c(O)c(-c2ccc(O)cc2)oc2cc(O)cc(O)c12
REMARK SMILES IDX 5 1 3 2 2 3 1 4 21 5 19 6 18 7 16 8 15 9 14 10 13 11 6 12
REMARK SMILES IDX 7 13 8 14 9 15 12 16 11 17 10 18 4 20 20 22 17 24
REMARK H PARENT 10 19 4 21 20 23 17 25
REMARK Flexibility Score: inf
ROOT
ATOM      1  C   UNL     1      -0.419  13.253   5.285  1.00  0.00     0.180 A 
ATOM      2  C   UNL     1       0.876  13.110   5.819  1.00  0.00     0.208 A 
ATOM      3  C   UNL     1       1.978  13.481   5.034  1.00  0.00     0.238 A 
ATOM      4  O   UNL     1       3.143  13.368   5.505  1.00  0.00    -0.285 OA
ATOM      5  C   UNL     1       1.771  13.967   3.726  1.00  0.00     0.111 A 
ATOM      6  C   UNL     1       2.828  14.358   2.869  1.00  0.00     0.134 A 
ATOM      7  C   UNL     1       2.539  14.822   1.576  1.00  0.00     0.093 A 
ATOM      8  C   UNL     1       1.220  14.903   1.126  1.00  0.00     0.123 A 
ATOM      9  C   UNL     1       0.172  14.519   1.969  1.00  0.00     0.094 A 
ATOM     10  C   UNL     1       0.438  14.055   3.260  1.00  0.00     0.146 A 
ATOM     11  O   UNL     1      -0.576  13.700   4.042  1.00  0.00    -0.452 OA
ENDROOT
BRANCH   1  12
ATOM     12  C   UNL     1      -1.634  12.903   6.057  1.00  0.00     0.021 A 
ATOM     13  C   UNL     1      -2.700  13.814   6.121  1.00  0.00     0.016 A 
ATOM     14  C   UNL     1      -3.846  13.513   6.863  1.00  0.00     0.047 A 
ATOM     15  C   UNL     1      -3.934  12.302   7.561  1.00  0.00     0.115 A 
ATOM     16  C   UNL     1      -1.721  11.697   6.777  1.00  0.00     0.016 A 
ATOM     17  C   UNL     1      -2.868  11.399   7.519  1.00  0.00     0.047 A 
BRANCH  15  18
ATOM     18  O   UNL     1      -5.072  11.990   8.303  1.00  0.00    -0.508 OA
ATOM     19  H   UNL     1      -5.868  12.615   8.337  1.00  0.00     0.293 HD
ENDBRANCH  15  18
ENDBRANCH   1  12
BRANCH   2  20
ATOM     20  O   UNL     1       1.057  12.580   7.099  1.00  0.00    -0.502 OA
ATOM     21  H   UNL     1       1.860  12.012   7.342  1.00  0.00     0.293 HD
ENDBRANCH   2  20
BRANCH   6  22
ATOM     22  O   UNL     1       4.156  14.288   3.288  1.00  0.00    -0.507 OA
ATOM     23  H   UNL     1       4.780  13.557   2.966  1.00  0.00     0.293 HD
ENDBRANCH   6  22
BRANCH   8  24
ATOM     24  O   UNL     1       0.961  15.367  -0.162  1.00  0.00    -0.508 OA
ATOM     25  H   UNL     1       0.098  15.141  -0.643  1.00  0.00     0.293 HD
ENDBRANCH   8  24
TORSDOF 5
ENDMDL
MODEL 3
REMARK VINA RESULT:    -6.283      4.754      5.739
REMARK INTER + INTRA:          -7.496
REMARK INTER:                  -7.262
REMARK INTRA:                  -0.234
REMARK UNBOUND:                -0.111
REMARK SMILES O=c1c(O)c(-c2ccc(O)cc2)oc2cc(O)cc(O)c12
REMARK SMILES IDX 5 1 3 2 2 3 1 4 21 5 19 6 18 7 16 8 15 9 14 10 13 11 6 12
REMARK SMILES IDX 7 13 8 14 9 15 12 16 11 17 10 18 4 20 20 22 17 24
REMARK H PARENT 10 19 4 21 20 23 17 25
REMARK Flexibility Score: inf
ROOT
ATOM      1  C   UNL     1       0.716  14.358   1.168  1.00  0.00     0.180 A 
ATOM      2  C   UNL     1       0.606  13.389   0.152  1.00  0.00     0.208 A 
ATOM      3  C   UNL     1      -0.642  13.182  -0.455  1.00  0.00     0.238 A 
ATOM      4  O   UNL     1      -0.751  12.324  -1.374  1.00  0.00    -0.285 OA
ATOM      5  C   UNL     1      -1.759  13.928  -0.026  1.00  0.00     0.111 A 
ATOM      6  C   UNL     1      -3.052  13.776  -0.583  1.00  0.00     0.134 A 
ATOM      7  C   UNL     1      -4.115  14.550  -0.092  1.00  0.00     0.093 A 
ATOM      8  C   UNL     1      -3.912  15.468   0.939  1.00  0.00     0.123 A 
ATOM      9  C   UNL     1      -2.637  15.622   1.493  1.00  0.00     0.094 A 
ATOM     10  C   UNL     1      -1.565  14.862   1.018  1.00  0.00     0.146 A 
ATOM     11  O   UNL     1      -0.363  15.032   1.558  1.00  0.00    -0.452 OA
ENDROOT
BRANCH   1  12
ATOM     12  C   UNL     1       2.001  14.650   1.843  1.00  0.00     0.021 A 
ATOM     13  C   UNL     1       2.485  13.764   2.820  1.00  0.00     0.016 A 
ATOM     14  C   UNL     1       3.685  14.031   3.486  1.00  0.00     0.047 A 
ATOM     15  C   UNL     1       4.409  15.194   3.193  1.00  0.00     0.115 A 
ATOM     16  C   UNL     1       2.724  15.826   1.568  1.00  0.00     0.016 A 
ATOM     17  C   UNL     1       3.923  16.090   2.237  1.00  0.00     0.047 A 
BRANCH  15  18
ATOM     18  O   UNL     1       5.607  15.470   3.850  1.00  0.00    -0.508 OA
ATOM     19  H   UNL     1       5.982  16.409   3.892  1.00  0.00     0.293 HD
ENDBRANCH  15  18
ENDBRANCH   1  12
BRANCH   2  20
ATOM     20  O   UNL     1       1.717  12.629  -0.222  1.00  0.00    -0.502 OA
ATOM     21  H   UNL     1       1.790  11.639  -0.018  1.00  0.00     0.293 HD
ENDBRANCH   2  20
BRANCH   6  22
ATOM     22  O   UNL     1      -3.288  12.866  -1.614  1.00  0.00    -0.507 OA
ATOM     23  H   UNL     1      -2.595  12.678  -2.329  1.00  0.00     0.293 HD
ENDBRANCH   6  22
BRANCH   8  24
ATOM     24  O   UNL     1      -4.986  16.223   1.408  1.00  0.00    -0.508 OA
ATOM     25  H   UNL     1      -5.562  15.903   2.177  1.00  0.00     0.293 HD
ENDBRANCH   8  24
TORSDOF 5
ENDMDL
MODEL 4
REMARK VINA RESULT:    -6.272      3.386      6.819
REMARK INTER + INTRA:          -7.483
REMARK INTER:                  -7.191
REMARK INTRA:                  -0.293
REMARK UNBOUND:                -0.111
REMARK SMILES O=c1c(O)c(-c2ccc(O)cc2)oc2cc(O)cc(O)c12
REMARK SMILES IDX 5 1 3 2 2 3 1 4 21 5 19 6 18 7 16 8 15 9 14 10 13 11 6 12
REMARK SMILES IDX 7 13 8 14 9 15 12 16 11 17 10 18 4 20 20 22 17 24
REMARK H PARENT 10 19 4 21 20 23 17 25
REMARK Flexibility Score: inf
ROOT
ATOM      1  C   UNL     1      -0.874  14.500   2.726  1.00  0.00     0.180 A 
ATOM      2  C   UNL     1      -1.316  14.431   4.062  1.00  0.00     0.208 A 
ATOM      3  C   UNL     1      -0.388  14.125   5.068  1.00  0.00     0.238 A 
ATOM      4  O   UNL     1      -0.770  14.071   6.269  1.00  0.00    -0.285 OA
ATOM      5  C   UNL     1       0.957  13.874   4.724  1.00  0.00     0.111 A 
ATOM      6  C   UNL     1       1.953  13.555   5.678  1.00  0.00     0.134 A 
ATOM      7  C   UNL     1       3.268  13.309   5.254  1.00  0.00     0.093 A 
ATOM      8  C   UNL     1       3.604  13.375   3.901  1.00  0.00     0.123 A 
ATOM      9  C   UNL     1       2.624  13.691   2.954  1.00  0.00     0.094 A 
ATOM     10  C   UNL     1       1.309  13.940   3.356  1.00  0.00     0.146 A 
ATOM     11  O   UNL     1       0.398  14.242   2.437  1.00  0.00    -0.452 OA
ENDROOT
BRANCH   1  12
ATOM     12  C   UNL     1      -1.788  14.835   1.610  1.00  0.00     0.021 A 
ATOM     13  C   UNL     1      -2.326  13.804   0.823  1.00  0.00     0.016 A 
ATOM     14  C   UNL     1      -3.173  14.099  -0.249  1.00  0.00     0.047 A 
ATOM     15  C   UNL     1      -3.481  15.431  -0.556  1.00  0.00     0.115 A 
ATOM     16  C   UNL     1      -2.086  16.171   1.283  1.00  0.00     0.016 A 
ATOM     17  C   UNL     1      -2.933  16.464   0.210  1.00  0.00     0.047 A 
BRANCH  15  18
ATOM     18  O   UNL     1      -4.325  15.738  -1.622  1.00  0.00    -0.508 OA
ATOM     19  H   UNL     1      -3.975  15.810  -2.570  1.00  0.00     0.293 HD
ENDBRANCH  15  18
ENDBRANCH   1  12
BRANCH   2  20
ATOM     20  O   UNL     1      -2.664  14.635   4.370  1.00  0.00    -0.502 OA
ATOM     21  H   UNL     1      -3.286  15.155   3.764  1.00  0.00     0.293 HD
ENDBRANCH   2  20
BRANCH   6  22
ATOM     22  O   UNL     1       1.649  13.481   7.037  1.00  0.00    -0.507 OA
ATOM     23  H   UNL     1       0.869  13.988   7.439  1.00  0.00     0.293 HD
ENDBRANCH   6  22
BRANCH   8  24
ATOM     24  O   UNL     1       4.918  13.126   3.506  1.00  0.00    -0.508 OA
ATOM     25  H   UNL     1       5.701  13.593   3.949  1.00  0.00     0.293 HD
ENDBRANCH   8  24
TORSDOF 5
ENDMDL
MODEL 5
REMARK VINA RESULT:    -6.050      3.081      4.693
REMARK INTER + INTRA:          -7.223
REMARK INTER:                  -6.947
REMARK INTRA:                  -0.276
REMARK UNBOUND:                -0.111
REMARK SMILES O=c1c(O)c(-c2ccc(O)cc2)oc2cc(O)cc(O)c12
REMARK SMILES IDX 5 1 3 2 2 3 1 4 21 5 19 6 18 7 16 8 15 9 14 10 13 11 6 12
REMARK SMILES IDX 7 13 8 14 9 15 12 16 11 17 10 18 4 20 20 22 17 24
REMARK H PARENT 10 19 4 21 20 23 17 25
REMARK Flexibility Score: inf
ROOT
ATOM      1  C   UNL     1       1.204  14.432   2.556  1.00  0.00     0.180 A 
ATOM      2  C   UNL     1       1.866  13.584   3.466  1.00  0.00     0.208 A 
ATOM      3  C   UNL     1       1.171  13.123   4.593  1.00  0.00     0.238 A 
ATOM      4  O   UNL     1       1.750  12.355   5.409  1.00  0.00    -0.285 OA
ATOM      5  C   UNL     1      -0.163  13.530   4.805  1.00  0.00     0.111 A 
ATOM      6  C   UNL     1      -0.933  13.114   5.918  1.00  0.00     0.134 A 
ATOM      7  C   UNL     1      -2.251  13.571   6.062  1.00  0.00     0.093 A 
ATOM      8  C   UNL     1      -2.813  14.434   5.119  1.00  0.00     0.123 A 
ATOM      9  C   UNL     1      -2.058  14.848   4.017  1.00  0.00     0.094 A 
ATOM     10  C   UNL     1      -0.744  14.403   3.854  1.00  0.00     0.146 A 
ATOM     11  O   UNL     1      -0.050  14.807   2.796  1.00  0.00    -0.452 OA
ENDROOT
BRANCH   1  12
ATOM     12  C   UNL     1       1.863  14.945   1.333  1.00  0.00     0.021 A 
ATOM     13  C   UNL     1       2.661  16.098   1.410  1.00  0.00     0.016 A 
ATOM     14  C   UNL     1       3.275  16.612   0.264  1.00  0.00     0.047 A 
ATOM     15  C   UNL     1       3.085  15.987  -0.975  1.00  0.00     0.115 A 
ATOM     16  C   UNL     1       1.662  14.334   0.081  1.00  0.00     0.016 A 
ATOM     17  C   UNL     1       2.276  14.851  -1.063  1.00  0.00     0.047 A 
BRANCH  15  18
ATOM     18  O   UNL     1       3.693  16.491  -2.125  1.00  0.00    -0.508 OA
ATOM     19  H   UNL     1       4.663  16.295  -2.339  1.00  0.00     0.293 HD
ENDBRANCH  15  18
ENDBRANCH   1  12
BRANCH   2  20
ATOM     20  O   UNL     1       3.204  13.236   3.259  1.00  0.00    -0.502 OA
ATOM     21  H   UNL     1       3.614  12.400   3.659  1.00  0.00     0.293 HD
ENDBRANCH   2  20
BRANCH   6  22
ATOM     22  O   UNL     1      -0.400  12.253   6.878  1.00  0.00    -0.507 OA
ATOM     23  H   UNL     1       0.174  11.457   6.623  1.00  0.00     0.293 HD
ENDBRANCH   6  22
BRANCH   8  24
ATOM     24  O   UNL     1      -4.125  14.874   5.286  1.00  0.00    -0.508 OA
ATOM     25  H   UNL     1      -4.332  15.811   5.612  1.00  0.00     0.293 HD
ENDBRANCH   8  24
TORSDOF 5
ENDMDL
MODEL 6
REMARK VINA RESULT:    -6.043      5.143      8.531
REMARK INTER + INTRA:          -7.215
REMARK INTER:                  -6.920
REMARK INTRA:                  -0.294
REMARK UNBOUND:                -0.111
REMARK SMILES O=c1c(O)c(-c2ccc(O)cc2)oc2cc(O)cc(O)c12
REMARK SMILES IDX 5 1 3 2 2 3 1 4 21 5 19 6 18 7 16 8 15 9 14 10 13 11 6 12
REMARK SMILES IDX 7 13 8 14 9 15 12 16 11 17 10 18 4 20 20 22 17 24
REMARK H PARENT 10 19 4 21 20 23 17 25
REMARK Flexibility Score: inf
ROOT
ATOM      1  C   UNL     1      -0.038  14.293   0.497  1.00  0.00     0.180 A 
ATOM      2  C   UNL     1       0.566  15.393  -0.142  1.00  0.00     0.208 A 
ATOM      3  C   UNL     1       1.790  15.874   0.347  1.00  0.00     0.238 A 
ATOM      4  O   UNL     1       2.347  16.851  -0.224  1.00  0.00    -0.285 OA
ATOM      5  C   UNL     1       2.379  15.263   1.474  1.00  0.00     0.111 A 
ATOM      6  C   UNL     1       3.609  15.689   2.031  1.00  0.00     0.134 A 
ATOM      7  C   UNL     1       4.124  15.035   3.161  1.00  0.00     0.093 A 
ATOM      8  C   UNL     1       3.436  13.968   3.741  1.00  0.00     0.123 A 
ATOM      9  C   UNL     1       2.221  13.542   3.194  1.00  0.00     0.094 A 
ATOM     10  C   UNL     1       1.692  14.179   2.069  1.00  0.00     0.146 A 
ATOM     11  O   UNL     1       0.538  13.752   1.567  1.00  0.00    -0.452 OA
ENDROOT
BRANCH   1  12
ATOM     12  C   UNL     1      -1.319  13.716   0.029  1.00  0.00     0.021 A 
ATOM     13  C   UNL     1      -2.516  14.083   0.666  1.00  0.00     0.016 A 
ATOM     14  C   UNL     1      -3.734  13.533   0.255  1.00  0.00     0.047 A 
ATOM     15  C   UNL     1      -3.768  12.599  -0.788  1.00  0.00     0.115 A 
ATOM     16  C   UNL     1      -1.359  12.762  -1.005  1.00  0.00     0.016 A 
ATOM     17  C   UNL     1      -2.579  12.214  -1.413  1.00  0.00     0.047 A 
BRANCH  15  18
ATOM     18  O   UNL     1      -4.977  12.045  -1.207  1.00  0.00    -0.508 OA
ATOM     19  H   UNL     1      -5.214  11.974  -2.188  1.00  0.00     0.293 HD
ENDBRANCH  15  18
ENDBRANCH   1  12
BRANCH   2  20
ATOM     20  O   UNL     1      -0.062  16.011  -1.227  1.00  0.00    -0.502 OA
ATOM     21  H   UNL     1      -0.201  17.013  -1.274  1.00  0.00     0.293 HD
ENDBRANCH   2  20
BRANCH   6  22
ATOM     22  O   UNL     1       4.320  16.753   1.475  1.00  0.00    -0.507 OA
ATOM     23  H   UNL     1       5.316  16.865   1.624  1.00  0.00     0.293 HD
ENDBRANCH   6  22
BRANCH   8  24
ATOM     24  O   UNL     1       3.970  13.336   4.863  1.00  0.00    -0.508 OA
ATOM     25  H   UNL     1       4.871  13.602   5.242  1.00  0.00     0.293 HD
ENDBRANCH   8  24
TORSDOF 5
ENDMDL
MODEL 7
REMARK VINA RESULT:    -6.002      2.995      4.133
REMARK INTER + INTRA:          -7.167
REMARK INTER:                  -6.958
REMARK INTRA:                  -0.208
REMARK UNBOUND:                -0.111
REMARK SMILES O=c1c(O)c(-c2ccc(O)cc2)oc2cc(O)cc(O)c12
REMARK SMILES IDX 5 1 3 2 2 3 1 4 21 5 19 6 18 7 16 8 15 9 14 10 13 11 6 12
REMARK SMILES IDX 7 13 8 14 9 15 12 16 11 17 10 18 4 20 20 22 17 24
REMARK H PARENT 10 19 4 21 20 23 17 25
REMARK Flexibility Score: inf
ROOT
ATOM      1  C   UNL     1      -0.938  14.499   2.644  1.00  0.00     0.180 A 
ATOM      2  C   UNL     1      -1.537  14.163   1.415  1.00  0.00     0.208 A 
ATOM      3  C   UNL     1      -2.861  14.561   1.174  1.00  0.00     0.238 A 
ATOM      4  O   UNL     1      -3.405  14.275   0.072  1.00  0.00    -0.285 OA
ATOM      5  C   UNL     1      -3.567  15.270   2.168  1.00  0.00     0.111 A 
ATOM      6  C   UNL     1      -4.905  15.704   2.006  1.00  0.00     0.134 A 
ATOM      7  C   UNL     1      -5.543  16.395   3.047  1.00  0.00     0.093 A 
ATOM      8  C   UNL     1      -4.872  16.659   4.242  1.00  0.00     0.123 A 
ATOM      9  C   UNL     1      -3.550  16.233   4.408  1.00  0.00     0.094 A 
ATOM     10  C   UNL     1      -2.897  15.544   3.383  1.00  0.00     0.146 A 
ATOM     11  O   UNL     1      -1.640  15.154   3.564  1.00  0.00    -0.452 OA
ENDROOT
BRANCH   1  12
ATOM     12  C   UNL     1       0.460  14.131   2.966  1.00  0.00     0.021 A 
ATOM     13  C   UNL     1       0.712  13.194   3.980  1.00  0.00     0.016 A 
ATOM     14  C   UNL     1       2.025  12.848   4.316  1.00  0.00     0.047 A 
ATOM     15  C   UNL     1       3.102  13.448   3.650  1.00  0.00     0.115 A 
ATOM     16  C   UNL     1       1.548  14.744   2.315  1.00  0.00     0.016 A 
ATOM     17  C   UNL     1       2.859  14.397   2.653  1.00  0.00     0.047 A 
BRANCH  15  18
ATOM     18  O   UNL     1       4.415  13.111   3.975  1.00  0.00    -0.508 OA
ATOM     19  H   UNL     1       5.123  13.820   4.117  1.00  0.00     0.293 HD
ENDBRANCH  15  18
ENDBRANCH   1  12
BRANCH   2  20
ATOM     20  O   UNL     1      -0.832  13.417   0.466  1.00  0.00    -0.502 OA
ATOM     21  H   UNL     1      -0.646  13.765  -0.467  1.00  0.00     0.293 HD
ENDBRANCH   2  20
BRANCH   6  22
ATOM     22  O   UNL     1      -5.603  15.455   0.823  1.00  0.00    -0.507 OA
ATOM     23  H   UNL     1      -5.178  15.593  -0.086  1.00  0.00     0.293 HD
ENDBRANCH   6  22
BRANCH   8  24
ATOM     24  O   UNL     1      -5.529  17.347   5.261  1.00  0.00    -0.508 OA
ATOM     25  H   UNL     1      -5.099  18.136   5.730  1.00  0.00     0.293 HD
ENDBRANCH   8  24
TORSDOF 5
ENDMDL
MODEL 8
REMARK VINA RESULT:    -5.895      2.074      2.699
REMARK INTER + INTRA:          -7.040
REMARK INTER:                  -7.151
REMARK INTRA:                   0.111
REMARK UNBOUND:                -0.111
REMARK SMILES O=c1c(O)c(-c2ccc(O)cc2)oc2cc(O)cc(O)c12
REMARK SMILES IDX 5 1 3 2 2 3 1 4 21 5 19 6 18 7 16 8 15 9 14 10 13 11 6 12
REMARK SMILES IDX 7 13 8 14 9 15 12 16 11 17 10 18 4 20 20 22 17 24
REMARK H PARENT 10 19 4 21 20 23 17 25
REMARK Flexibility Score: inf
ROOT
ATOM      1  C   UNL     1      -0.545  14.203   4.113  1.00  0.00     0.180 A 
ATOM      2  C   UNL     1      -1.214  14.150   5.351  1.00  0.00     0.208 A 
ATOM      3  C   UNL     1      -2.560  14.540   5.412  1.00  0.00     0.238 A 
ATOM      4  O   UNL     1      -3.173  14.486   6.513  1.00  0.00    -0.285 OA
ATOM      5  C   UNL     1      -3.208  14.994   4.245  1.00  0.00     0.111 A 
ATOM      6  C   UNL     1      -4.561  15.409   4.223  1.00  0.00     0.134 A 
ATOM      7  C   UNL     1      -5.131  15.858   3.021  1.00  0.00     0.093 A 
ATOM      8  C   UNL     1      -4.377  15.901   1.847  1.00  0.00     0.123 A 
ATOM      9  C   UNL     1      -3.040  15.491   1.863  1.00  0.00     0.094 A 
ATOM     10  C   UNL     1      -2.454  15.040   3.049  1.00  0.00     0.146 A 
ATOM     11  O   UNL     1      -1.183  14.652   3.036  1.00  0.00    -0.452 OA
ENDROOT
BRANCH   1  12
ATOM     12  C   UNL     1       0.870  13.791   3.963  1.00  0.00     0.021 A 
ATOM     13  C   UNL     1       1.721  14.531   3.127  1.00  0.00     0.016 A 
ATOM     14  C   UNL     1       3.054  14.147   2.953  1.00  0.00     0.047 A 
ATOM     15  C   UNL     1       3.547  13.008   3.603  1.00  0.00     0.115 A 
ATOM     16  C   UNL     1       1.367  12.637   4.596  1.00  0.00     0.016 A 
ATOM     17  C   UNL     1       2.700  12.254   4.420  1.00  0.00     0.047 A 
BRANCH  15  18
ATOM     18  O   UNL     1       4.875  12.615   3.438  1.00  0.00    -0.508 OA
ATOM     19  H   UNL     1       5.469  13.040   2.737  1.00  0.00     0.293 HD
ENDBRANCH  15  18
ENDBRANCH   1  12
BRANCH   2  20
ATOM     20  O   UNL     1      -0.535  13.742   6.503  1.00  0.00    -0.502 OA
ATOM     21  H   UNL     1      -0.278  14.390   7.238  1.00  0.00     0.293 HD
ENDBRANCH   2  20
BRANCH   6  22
ATOM     22  O   UNL     1      -5.341  15.380   5.379  1.00  0.00    -0.507 OA
ATOM     23  H   UNL     1      -5.797  16.212   5.736  1.00  0.00     0.293 HD
ENDBRANCH   6  22
BRANCH   8  24
ATOM     24  O   UNL     1      -4.967  16.351   0.668  1.00  0.00    -0.508 OA
ATOM     25  H   UNL     1      -4.619  17.169   0.180  1.00  0.00     0.293 HD
ENDBRANCH   8  24
TORSDOF 5
ENDMDL
MODEL 9
REMARK VINA RESULT:    -5.148      3.780      7.187
REMARK INTER + INTRA:          -6.162
REMARK INTER:                  -5.865
REMARK INTRA:                  -0.297
REMARK UNBOUND:                -0.111
REMARK SMILES O=c1c(O)c(-c2ccc(O)cc2)oc2cc(O)cc(O)c12
REMARK SMILES IDX 5 1 3 2 2 3 1 4 21 5 19 6 18 7 16 8 15 9 14 10 13 11 6 12
REMARK SMILES IDX 7 13 8 14 9 15 12 16 11 17 10 18 4 20 20 22 17 24
REMARK H PARENT 10 19 4 21 20 23 17 25
REMARK Flexibility Score: inf
ROOT
ATOM      1  C   UNL     1      -0.037  14.669   1.739  1.00  0.00     0.180 A 
ATOM      2  C   UNL     1       1.335  14.918   1.544  1.00  0.00     0.208 A 
ATOM      3  C   UNL     1       2.240  14.556   2.553  1.00  0.00     0.238 A 
ATOM      4  O   UNL     1       3.473  14.764   2.386  1.00  0.00    -0.285 OA
ATOM      5  C   UNL     1       1.760  13.972   3.744  1.00  0.00     0.111 A 
ATOM      6  C   UNL     1       2.605  13.581   4.810  1.00  0.00     0.134 A 
ATOM      7  C   UNL     1       2.048  13.015   5.967  1.00  0.00     0.093 A 
ATOM      8  C   UNL     1       0.669  12.833   6.078  1.00  0.00     0.123 A 
ATOM      9  C   UNL     1      -0.171  13.216   5.027  1.00  0.00     0.094 A 
ATOM     10  C   UNL     1       0.364  13.780   3.866  1.00  0.00     0.146 A 
ATOM     11  O   UNL     1      -0.456  14.131   2.881  1.00  0.00    -0.452 OA
ENDROOT
BRANCH   1  12
ATOM     12  C   UNL     1      -1.052  15.005   0.714  1.00  0.00     0.021 A 
ATOM     13  C   UNL     1      -1.684  16.259   0.751  1.00  0.00     0.016 A 
ATOM     14  C   UNL     1      -2.661  16.588  -0.193  1.00  0.00     0.047 A 
ATOM     15  C   UNL     1      -3.028  15.662  -1.178  1.00  0.00     0.115 A 
ATOM     16  C   UNL     1      -1.440  14.073  -0.266  1.00  0.00     0.016 A 
ATOM     17  C   UNL     1      -2.418  14.404  -1.208  1.00  0.00     0.047 A 
BRANCH  15  18
ATOM     18  O   UNL     1      -4.000  15.979  -2.125  1.00  0.00    -0.508 OA
ATOM     19  H   UNL     1      -4.883  15.486  -2.162  1.00  0.00     0.293 HD
ENDBRANCH  15  18
ENDBRANCH   1  12
BRANCH   2  20
ATOM     20  O   UNL     1       1.780  15.544   0.376  1.00  0.00    -0.502 OA
ATOM     21  H   UNL     1       2.537  15.170  -0.184  1.00  0.00     0.293 HD
ENDBRANCH   2  20
BRANCH   6  22
ATOM     22  O   UNL     1       3.988  13.752   4.731  1.00  0.00    -0.507 OA
ATOM     23  H   UNL     1       4.462  13.864   3.842  1.00  0.00     0.293 HD
ENDBRANCH   6  22
BRANCH   8  24
ATOM     24  O   UNL     1       0.142  12.268   7.238  1.00  0.00    -0.508 OA
ATOM     25  H   UNL     1      -0.285  12.840   7.958  1.00  0.00     0.293 HD
ENDBRANCH   8  24
TORSDOF 5
ENDMDL
