MODEL 1
REMARK VINA RESULT:    38.490      0.000      0.000
REMARK INTER + INTRA:          46.611
REMARK INTER:                  46.366
REMARK INTRA:                   0.245
REMARK UNBOUND:                 0.245
REMARK SMILES O=c1c(O)c(-c2ccc(O)c(O)c2)oc2cc(O)cc(O)c12
REMARK SMILES IDX 5 1 3 2 2 3 1 4 22 5 20 6 19 7 17 8 16 9 15 10 14 11 6 12
REMARK SMILES IDX 7 13 8 14 9 15 13 16 11 17 10 18 12 20 4 22 21 24 18 26
REMARK H PARENT 10 19 12 21 4 23 21 25 18 27
REMARK Flexibility Score: inf
ROOT
ATOM      1  C   UNL     1      12.016  12.679   4.317  1.00  0.00     0.180 A 
ATOM      2  C   UNL     1      11.791  11.428   3.714  1.00  0.00     0.208 A 
ATOM      3  C   UNL     1      11.298  11.384   2.401  1.00  0.00     0.238 A 
ATOM      4  O   UNL     1      11.169  10.264   1.843  1.00  0.00    -0.285 OA
ATOM      5  C   UNL     1      10.982  12.587   1.725  1.00  0.00     0.111 A 
ATOM      6  C   UNL     1      10.434  12.661   0.408  1.00  0.00     0.134 A 
ATOM      7  C   UNL     1      10.262  13.911  -0.200  1.00  0.00     0.093 A 
ATOM      8  C   UNL     1      10.557  15.092   0.484  1.00  0.00     0.123 A 
ATOM      9  C   UNL     1      11.039  15.033   1.789  1.00  0.00     0.094 A 
ATOM     10  C   UNL     1      11.259  13.801   2.409  1.00  0.00     0.146 A 
ATOM     11  O   UNL     1      11.741  13.791   3.646  1.00  0.00    -0.452 OA
ENDROOT
BRANCH   1  12
ATOM     12  C   UNL     1      12.548  12.807   5.692  1.00  0.00     0.025 A 
ATOM     13  C   UNL     1      12.096  13.813   6.563  1.00  0.00     0.016 A 
ATOM     14  C   UNL     1      12.595  13.899   7.865  1.00  0.00     0.051 A 
ATOM     15  C   UNL     1      13.543  12.973   8.321  1.00  0.00     0.157 A 
ATOM     16  C   UNL     1      13.482  11.868   6.161  1.00  0.00     0.062 A 
ATOM     17  C   UNL     1      13.986  11.951   7.464  1.00  0.00     0.158 A 
BRANCH  15  18
ATOM     18  O   UNL     1      14.041  13.063   9.619  1.00  0.00    -0.504 OA
ATOM     19  H   UNL     1      13.468  12.841  10.424  1.00  0.00     0.293 HD
ENDBRANCH  15  18
BRANCH  17  20
ATOM     20  O   UNL     1      14.922  11.010   7.890  1.00  0.00    -0.504 OA
ATOM     21  H   UNL     1      15.059  10.131   7.406  1.00  0.00     0.293 HD
ENDBRANCH  17  20
ENDBRANCH   1  12
BRANCH   2  22
ATOM     22  O   UNL     1      12.037  10.251   4.426  1.00  0.00    -0.502 OA
ATOM     23  H   UNL     1      12.939   9.792   4.423  1.00  0.00     0.293 HD
ENDBRANCH   2  22
BRANCH   6  24
ATOM     24  O   UNL     1      10.022  11.548  -0.331  1.00  0.00    -0.507 OA
ATOM     25  H   UNL     1      10.372  10.610  -0.208  1.00  0.00     0.293 HD
ENDBRANCH   6  24
BRANCH   8  26
ATOM     26  O   UNL     1      10.366  16.331  -0.122  1.00  0.00    -0.508 OA
ATOM     27  H   UNL     1       9.442  16.659  -0.379  1.00  0.00     0.293 HD
ENDBRANCH   8  26
TORSDOF 6
ENDMDL
MODEL 2
REMARK VINA RESULT:    39.844      1.437      7.294
REMARK INTER + INTRA:          48.241
REMARK INTER:                  48.106
REMARK INTRA:                   0.135
REMARK UNBOUND:                 0.245
REMARK SMILES O=c1c(O)c(-c2ccc(O)c(O)c2)oc2cc(O)cc(O)c12
REMARK SMILES IDX 5 1 3 2 2 3 1 4 22 5 20 6 19 7 17 8 16 9 15 10 14 11 6 12
REMARK SMILES IDX 7 13 8 14 9 15 13 16 11 17 10 18 12 20 4 22 21 24 18 26
REMARK H PARENT 10 19 12 21 4 23 21 25 18 27
REMARK Flexibility Score: inf
ROOT
ATOM      1  C   UNL     1      11.872  12.902   4.538  1.00  0.00     0.180 A 
ATOM      2  C   UNL     1      11.230  13.749   5.459  1.00  0.00     0.208 A 
ATOM      3  C   UNL     1      11.736  13.842   6.765  1.00  0.00     0.238 A 
ATOM      4  O   UNL     1      11.202  14.657   7.561  1.00  0.00    -0.285 OA
ATOM      5  C   UNL     1      12.842  13.047   7.152  1.00  0.00     0.111 A 
ATOM      6  C   UNL     1      13.410  13.027   8.462  1.00  0.00     0.134 A 
ATOM      7  C   UNL     1      14.570  12.280   8.700  1.00  0.00     0.093 A 
ATOM      8  C   UNL     1      15.147  11.502   7.694  1.00  0.00     0.123 A 
ATOM      9  C   UNL     1      14.568  11.471   6.428  1.00  0.00     0.094 A 
ATOM     10  C   UNL     1      13.433  12.235   6.148  1.00  0.00     0.146 A 
ATOM     11  O   UNL     1      12.927  12.193   4.921  1.00  0.00    -0.452 OA
ENDROOT
BRANCH   1  12
ATOM     12  C   UNL     1      11.407  12.762   3.139  1.00  0.00     0.025 A 
ATOM     13  C   UNL     1      11.285  11.501   2.531  1.00  0.00     0.016 A 
ATOM     14  C   UNL     1      10.821  11.392   1.218  1.00  0.00     0.051 A 
ATOM     15  C   UNL     1      10.459  12.540   0.498  1.00  0.00     0.157 A 
ATOM     16  C   UNL     1      11.023  13.906   2.421  1.00  0.00     0.062 A 
ATOM     17  C   UNL     1      10.558  13.802   1.106  1.00  0.00     0.158 A 
BRANCH  15  18
ATOM     18  O   UNL     1       9.998  12.428  -0.813  1.00  0.00    -0.504 OA
ATOM     19  H   UNL     1      10.200  11.612  -1.378  1.00  0.00     0.293 HD
ENDBRANCH  15  18
BRANCH  17  20
ATOM     20  O   UNL     1      10.199  14.961   0.421  1.00  0.00    -0.504 OA
ATOM     21  H   UNL     1       9.308  15.052  -0.052  1.00  0.00     0.293 HD
ENDBRANCH  17  20
ENDBRANCH   1  12
BRANCH   2  22
ATOM     22  O   UNL     1      10.094  14.467   5.080  1.00  0.00    -0.502 OA
ATOM     23  H   UNL     1      10.109  15.160   4.341  1.00  0.00     0.293 HD
ENDBRANCH   2  22
BRANCH   6  24
ATOM     24  O   UNL     1      12.866  13.696   9.562  1.00  0.00    -0.507 OA
ATOM     25  H   UNL     1      11.897  13.964   9.654  1.00  0.00     0.293 HD
ENDBRANCH   6  24
BRANCH   8  26
ATOM     26  O   UNL     1      16.291  10.748   7.945  1.00  0.00    -0.508 OA
ATOM     27  H   UNL     1      16.235   9.811   8.326  1.00  0.00     0.293 HD
ENDBRANCH   8  26
TORSDOF 6
ENDMDL
MODEL 3
REMARK VINA RESULT:    40.684      2.867      4.305
REMARK INTER + INTRA:          49.253
REMARK INTER:                  49.573
REMARK INTRA:                  -0.319
REMARK UNBOUND:                 0.245
REMARK SMILES O=c1c(O)c(-c2ccc(O)c(O)c2)oc2cc(O)cc(O)c12
REMARK SMILES IDX 5 1 3 2 2 3 1 4 22 5 20 6 19 7 17 8 16 9 15 10 14 11 6 12
REMARK SMILES IDX 7 13 8 14 9 15 13 16 11 17 10 18 12 20 4 22 21 24 18 26
REMARK H PARENT 10 19 12 21 4 23 21 25 18 27
REMARK Flexibility Score: inf
ROOT
ATOM      1  C   UNL     1      10.426  12.932   4.307  1.00  0.00     0.180 A 
ATOM      2  C   UNL     1      10.195  13.950   3.365  1.00  0.00     0.208 A 
ATOM      3  C   UNL     1      10.679  13.790   2.057  1.00  0.00     0.238 A 
ATOM      4  O   UNL     1      10.405  14.671   1.201  1.00  0.00    -0.285 OA
ATOM      5  C   UNL     1      11.437  12.642   1.721  1.00  0.00     0.111 A 
ATOM      6  C   UNL     1      12.016  12.397   0.439  1.00  0.00     0.134 A 
ATOM      7  C   UNL     1      12.655  11.176   0.191  1.00  0.00     0.093 A 
ATOM      8  C   UNL     1      12.793  10.217   1.197  1.00  0.00     0.123 A 
ATOM      9  C   UNL     1      12.281  10.470   2.467  1.00  0.00     0.094 A 
ATOM     10  C   UNL     1      11.604  11.662   2.735  1.00  0.00     0.146 A 
ATOM     11  O   UNL     1      11.112  11.852   3.953  1.00  0.00    -0.452 OA
ENDROOT
BRANCH   1  12
ATOM     12  C   UNL     1       9.934  13.021   5.700  1.00  0.00     0.025 A 
ATOM     13  C   UNL     1      10.669  13.686   6.696  1.00  0.00     0.016 A 
ATOM     14  C   UNL     1      10.172  13.778   7.999  1.00  0.00     0.051 A 
ATOM     15  C   UNL     1       8.928  13.219   8.322  1.00  0.00     0.157 A 
ATOM     16  C   UNL     1       8.678  12.482   6.025  1.00  0.00     0.062 A 
ATOM     17  C   UNL     1       8.177  12.570   7.328  1.00  0.00     0.158 A 
BRANCH  15  18
ATOM     18  O   UNL     1       8.436  13.311   9.623  1.00  0.00    -0.504 OA
ATOM     19  H   UNL     1       8.807  12.737  10.372  1.00  0.00     0.293 HD
ENDBRANCH  15  18
BRANCH  17  20
ATOM     20  O   UNL     1       6.933  12.011   7.615  1.00  0.00    -0.504 OA
ATOM     21  H   UNL     1       6.108  12.581   7.763  1.00  0.00     0.293 HD
ENDBRANCH  17  20
ENDBRANCH   1  12
BRANCH   2  22
ATOM     22  O   UNL     1       9.511  15.110   3.737  1.00  0.00    -0.502 OA
ATOM     23  H   UNL     1       9.669  15.574   4.623  1.00  0.00     0.293 HD
ENDBRANCH   2  22
BRANCH   6  24
ATOM     24  O   UNL     1      12.015  13.321  -0.611  1.00  0.00    -0.507 OA
ATOM     25  H   UNL     1      12.081  13.084  -1.590  1.00  0.00     0.293 HD
ENDBRANCH   6  24
BRANCH   8  26
ATOM     26  O   UNL     1      13.446   9.013   0.947  1.00  0.00    -0.508 OA
ATOM     27  H   UNL     1      13.034   8.299   0.359  1.00  0.00     0.293 HD
ENDBRANCH   8  26
TORSDOF 6
ENDMDL
MODEL 4
REMARK VINA RESULT:    41.057      1.669      2.327
REMARK INTER + INTRA:          49.703
REMARK INTER:                  49.553
REMARK INTRA:                   0.150
REMARK UNBOUND:                 0.245
REMARK SMILES O=c1c(O)c(-c2ccc(O)c(O)c2)oc2cc(O)cc(O)c12
REMARK SMILES IDX 5 1 3 2 2 3 1 4 22 5 20 6 19 7 17 8 16 9 15 10 14 11 6 12
REMARK SMILES IDX 7 13 8 14 9 15 13 16 11 17 10 18 12 20 4 22 21 24 18 26
REMARK H PARENT 10 19 12 21 4 23 21 25 18 27
REMARK Flexibility Score: inf
ROOT
ATOM      1  C   UNL     1      12.133  13.233   4.630  1.00  0.00     0.180 A 
ATOM      2  C   UNL     1      10.795  13.630   4.457  1.00  0.00     0.208 A 
ATOM      3  C   UNL     1      10.276  13.725   3.156  1.00  0.00     0.238 A 
ATOM      4  O   UNL     1       9.058  14.009   3.012  1.00  0.00    -0.285 OA
ATOM      5  C   UNL     1      11.114  13.478   2.042  1.00  0.00     0.111 A 
ATOM      6  C   UNL     1      10.707  13.589   0.678  1.00  0.00     0.134 A 
ATOM      7  C   UNL     1      11.593  13.217  -0.341  1.00  0.00     0.093 A 
ATOM      8  C   UNL     1      12.893  12.798  -0.048  1.00  0.00     0.123 A 
ATOM      9  C   UNL     1      13.318  12.740   1.277  1.00  0.00     0.094 A 
ATOM     10  C   UNL     1      12.445  13.067   2.317  1.00  0.00     0.146 A 
ATOM     11  O   UNL     1      12.885  12.976   3.566  1.00  0.00    -0.452 OA
ENDROOT
BRANCH   1  12
ATOM     12  C   UNL     1      12.747  13.095   5.969  1.00  0.00     0.025 A 
ATOM     13  C   UNL     1      12.471  14.010   7.000  1.00  0.00     0.016 A 
ATOM     14  C   UNL     1      13.044  13.845   8.264  1.00  0.00     0.051 A 
ATOM     15  C   UNL     1      13.889  12.757   8.520  1.00  0.00     0.157 A 
ATOM     16  C   UNL     1      13.578  11.995   6.238  1.00  0.00     0.062 A 
ATOM     17  C   UNL     1      14.154  11.826   7.502  1.00  0.00     0.158 A 
BRANCH  15  18
ATOM     18  O   UNL     1      14.461  12.596   9.781  1.00  0.00    -0.504 OA
ATOM     19  H   UNL     1      15.465  12.548   9.906  1.00  0.00     0.293 HD
ENDBRANCH  15  18
BRANCH  17  20
ATOM     20  O   UNL     1      14.984  10.729   7.727  1.00  0.00    -0.504 OA
ATOM     21  H   UNL     1      14.730   9.793   7.435  1.00  0.00     0.293 HD
ENDBRANCH  17  20
ENDBRANCH   1  12
BRANCH   2  22
ATOM     22  O   UNL     1      10.006  13.944   5.566  1.00  0.00    -0.502 OA
ATOM     23  H   UNL     1       9.582  13.234   6.150  1.00  0.00     0.293 HD
ENDBRANCH   2  22
BRANCH   6  24
ATOM     24  O   UNL     1       9.463  14.080   0.269  1.00  0.00    -0.507 OA
ATOM     25  H   UNL     1       9.246  15.054   0.121  1.00  0.00     0.293 HD
ENDBRANCH   6  24
BRANCH   8  26
ATOM     26  O   UNL     1      13.774  12.446  -1.068  1.00  0.00    -0.508 OA
ATOM     27  H   UNL     1      13.456  11.962  -1.899  1.00  0.00     0.293 HD
ENDBRANCH   8  26
TORSDOF 6
ENDMDL
MODEL 5
REMARK VINA RESULT:    41.231      1.863      3.422
REMARK INTER + INTRA:          49.912
REMARK INTER:                  49.952
REMARK INTRA:                  -0.041
REMARK UNBOUND:                 0.245
REMARK SMILES O=c1c(O)c(-c2ccc(O)c(O)c2)oc2cc(O)cc(O)c12
REMARK SMILES IDX 5 1 3 2 2 3 1 4 22 5 20 6 19 7 17 8 16 9 15 10 14 11 6 12
REMARK SMILES IDX 7 13 8 14 9 15 13 16 11 17 10 18 12 20 4 22 21 24 18 26
REMARK H PARENT 10 19 12 21 4 23 21 25 18 27
REMARK Flexibility Score: inf
ROOT
ATOM      1  C   UNL     1      12.886  12.827   5.898  1.00  0.00     0.180 A 
ATOM      2  C   UNL     1      11.973  13.814   6.310  1.00  0.00     0.208 A 
ATOM      3  C   UNL     1      10.996  14.259   5.405  1.00  0.00     0.238 A 
ATOM      4  O   UNL     1      10.138  15.088   5.805  1.00  0.00    -0.285 OA
ATOM      5  C   UNL     1      10.978  13.755   4.082  1.00  0.00     0.111 A 
ATOM      6  C   UNL     1      10.062  14.167   3.068  1.00  0.00     0.134 A 
ATOM      7  C   UNL     1      10.070  13.521   1.825  1.00  0.00     0.093 A 
ATOM      8  C   UNL     1      11.003  12.521   1.538  1.00  0.00     0.123 A 
ATOM      9  C   UNL     1      11.937  12.150   2.502  1.00  0.00     0.094 A 
ATOM     10  C   UNL     1      11.929  12.749   3.764  1.00  0.00     0.146 A 
ATOM     11  O   UNL     1      12.823  12.349   4.661  1.00  0.00    -0.452 OA
ENDROOT
BRANCH   1  12
ATOM     12  C   UNL     1      13.934  12.297   6.799  1.00  0.00     0.025 A 
ATOM     13  C   UNL     1      13.621  11.806   8.079  1.00  0.00     0.016 A 
ATOM     14  C   UNL     1      14.624  11.288   8.901  1.00  0.00     0.051 A 
ATOM     15  C   UNL     1      15.951  11.239   8.453  1.00  0.00     0.157 A 
ATOM     16  C   UNL     1      15.262  12.225   6.347  1.00  0.00     0.062 A 
ATOM     17  C   UNL     1      16.269  11.708   7.168  1.00  0.00     0.158 A 
BRANCH  15  18
ATOM     18  O   UNL     1      16.950  10.724   9.278  1.00  0.00    -0.504 OA
ATOM     19  H   UNL     1      17.305  11.245  10.071  1.00  0.00     0.293 HD
ENDBRANCH  15  18
BRANCH  17  20
ATOM     20  O   UNL     1      17.578  11.666   6.690  1.00  0.00    -0.504 OA
ATOM     21  H   UNL     1      18.379  11.737   7.306  1.00  0.00     0.293 HD
ENDBRANCH  17  20
ENDBRANCH   1  12
BRANCH   2  22
ATOM     22  O   UNL     1      12.056  14.355   7.596  1.00  0.00    -0.502 OA
ATOM     23  H   UNL     1      11.329  14.224   8.289  1.00  0.00     0.293 HD
ENDBRANCH   2  22
BRANCH   6  24
ATOM     24  O   UNL     1       9.148  15.214   3.217  1.00  0.00    -0.507 OA
ATOM     25  H   UNL     1       8.633  15.417   4.061  1.00  0.00     0.293 HD
ENDBRANCH   6  24
BRANCH   8  26
ATOM     26  O   UNL     1      11.015  11.896   0.294  1.00  0.00    -0.508 OA
ATOM     27  H   UNL     1      11.308  10.932   0.188  1.00  0.00     0.293 HD
ENDBRANCH   8  26
TORSDOF 6
ENDMDL
