MODEL 1
REMARK VINA RESULT:    -4.951      0.000      0.000
REMARK INTER + INTRA:          -6.951
REMARK INTER:                  -6.688
REMARK INTRA:                  -0.263
REMARK UNBOUND:                -0.263
REMARK SMILES CCCCCCC=CC(=O)[O-]
REMARK SMILES IDX 5 1 6 2 7 3 8 4 9 5 10 6 11 7 4 8 3 9 2 10 1 11
REMARK H PARENT
REMARK Flexibility Score: inf
ROOT
ATOM      1  C   UNL     1      -3.519  -8.904  -8.333  1.00  0.00     0.004 C 
ENDROOT
BRANCH   1   2
ATOM      2  C   UNL     1      -5.048  -8.995  -8.408  1.00  0.00     0.027 C 
BRANCH   2   3
ATOM      3  C   UNL     1      -5.693  -7.720  -7.943  1.00  0.00    -0.025 C 
ATOM      4  C   UNL     1      -5.002  -6.793  -7.271  1.00  0.00     0.020 C 
BRANCH   4   5
ATOM      5  C   UNL     1      -5.609  -5.532  -6.818  1.00  0.00     0.064 C 
ATOM      6  O   UNL     1      -4.988  -4.439  -6.909  1.00  0.00    -0.545 OA
ATOM      7  O   UNL     1      -6.890  -5.546  -6.280  1.00  0.00    -0.545 OA
ENDBRANCH   4   5
ENDBRANCH   2   3
ENDBRANCH   1   2
BRANCH   1   8
ATOM      8  C   UNL     1      -2.860 -10.014  -9.159  1.00  0.00     0.000 C 
BRANCH   8   9
ATOM      9  C   UNL     1      -2.397 -11.169  -8.259  1.00  0.00    -0.000 C 
BRANCH   9  10
ATOM     10  C   UNL     1      -3.092 -12.497  -8.595  1.00  0.00    -0.003 C 
ATOM     11  C   UNL     1      -4.421 -12.300  -9.324  1.00  0.00     0.004 C 
ENDBRANCH   9  10
ENDBRANCH   8   9
ENDBRANCH   1   8
TORSDOF 6
ENDMDL
MODEL 2
REMARK VINA RESULT:    -4.792     14.216     15.055
REMARK INTER + INTRA:          -6.736
REMARK INTER:                  -6.513
REMARK INTRA:                  -0.223
REMARK UNBOUND:                -0.263
REMARK SMILES CCCCCCC=CC(=O)[O-]
REMARK SMILES IDX 5 1 6 2 7 3 8 4 9 5 10 6 11 7 4 8 3 9 2 10 1 11
REMARK H PARENT
REMARK Flexibility Score: inf
ROOT
ATOM      1  C   UNL     1      -2.517   0.046   4.407  1.00  0.00     0.004 C 
ENDROOT
BRANCH   1   2
ATOM      2  C   UNL     1      -3.955  -0.324   4.025  1.00  0.00     0.027 C 
BRANCH   2   3
ATOM      3  C   UNL     1      -4.579  -1.222   5.055  1.00  0.00    -0.025 C 
ATOM      4  C   UNL     1      -5.894  -1.195   5.301  1.00  0.00     0.020 C 
BRANCH   4   5
ATOM      5  C   UNL     1      -6.528  -2.074   6.295  1.00  0.00     0.064 C 
ATOM      6  O   UNL     1      -5.937  -2.382   7.365  1.00  0.00    -0.545 OA
ATOM      7  O   UNL     1      -7.800  -2.575   6.050  1.00  0.00    -0.545 OA
ENDBRANCH   4   5
ENDBRANCH   2   3
ENDBRANCH   1   2
BRANCH   1   8
ATOM      8  C   UNL     1      -1.635  -1.204   4.503  1.00  0.00     0.000 C 
BRANCH   8   9
ATOM      9  C   UNL     1      -0.269  -0.966   3.842  1.00  0.00    -0.000 C 
BRANCH   9  10
ATOM     10  C   UNL     1       0.326  -2.246   3.236  1.00  0.00    -0.003 C 
ATOM     11  C   UNL     1       0.271  -3.435   4.194  1.00  0.00     0.004 C 
ENDBRANCH   9  10
ENDBRANCH   8   9
ENDBRANCH   1   8
TORSDOF 6
ENDMDL
MODEL 3
REMARK VINA RESULT:    -4.785     13.805     15.584
REMARK INTER + INTRA:          -6.727
REMARK INTER:                  -6.064
REMARK INTRA:                  -0.663
REMARK UNBOUND:                -0.263
REMARK SMILES CCCCCCC=CC(=O)[O-]
REMARK SMILES IDX 5 1 6 2 7 3 8 4 9 5 10 6 11 7 4 8 3 9 2 10 1 11
REMARK H PARENT
REMARK Flexibility Score: inf
ROOT
ATOM      1  C   UNL     1      -0.729   0.338   4.156  1.00  0.00     0.004 C 
ENDROOT
BRANCH   1   2
ATOM      2  C   UNL     1       0.658   0.438   4.803  1.00  0.00     0.027 C 
BRANCH   2   3
ATOM      3  C   UNL     1       1.644   1.095   3.879  1.00  0.00    -0.025 C 
ATOM      4  C   UNL     1       2.385   0.380   3.025  1.00  0.00     0.020 C 
BRANCH   4   5
ATOM      5  C   UNL     1       3.346   1.003   2.102  1.00  0.00     0.064 C 
ATOM      6  O   UNL     1       4.586   0.957   2.322  1.00  0.00    -0.545 OA
ATOM      7  O   UNL     1       2.878   1.655   0.968  1.00  0.00    -0.545 OA
ENDBRANCH   4   5
ENDBRANCH   2   3
ENDBRANCH   1   2
BRANCH   1   8
ATOM      8  C   UNL     1      -1.116  -1.124   3.907  1.00  0.00     0.000 C 
BRANCH   8   9
ATOM      9  C   UNL     1      -0.414  -2.057   4.905  1.00  0.00    -0.000 C 
BRANCH   9  10
ATOM     10  C   UNL     1       0.293  -3.235   4.218  1.00  0.00    -0.003 C 
ATOM     11  C   UNL     1       0.682  -2.928   2.772  1.00  0.00     0.004 C 
ENDBRANCH   9  10
ENDBRANCH   8   9
ENDBRANCH   1   8
TORSDOF 6
ENDMDL
MODEL 4
REMARK VINA RESULT:    -4.730     13.652     14.741
REMARK INTER + INTRA:          -6.652
REMARK INTER:                  -6.303
REMARK INTRA:                  -0.349
REMARK UNBOUND:                -0.263
REMARK SMILES CCCCCCC=CC(=O)[O-]
REMARK SMILES IDX 5 1 6 2 7 3 8 4 9 5 10 6 11 7 4 8 3 9 2 10 1 11
REMARK H PARENT
REMARK Flexibility Score: inf
ROOT
ATOM      1  C   UNL     1      -2.164  -0.156   3.631  1.00  0.00     0.004 C 
ENDROOT
BRANCH   1   2
ATOM      2  C   UNL     1      -3.114  -0.189   4.835  1.00  0.00     0.027 C 
BRANCH   2   3
ATOM      3  C   UNL     1      -4.508  -0.562   4.418  1.00  0.00    -0.025 C 
ATOM      4  C   UNL     1      -5.383  -1.077   5.289  1.00  0.00     0.020 C 
BRANCH   4   5
ATOM      5  C   UNL     1      -6.757  -1.437   4.907  1.00  0.00     0.064 C 
ATOM      6  O   UNL     1      -7.225  -1.117   3.781  1.00  0.00    -0.545 OA
ATOM      7  O   UNL     1      -7.552  -2.140   5.802  1.00  0.00    -0.545 OA
ENDBRANCH   4   5
ENDBRANCH   2   3
ENDBRANCH   1   2
BRANCH   1   8
ATOM      8  C   UNL     1      -0.732  -0.507   4.051  1.00  0.00     0.000 C 
BRANCH   8   9
ATOM      9  C   UNL     1      -0.715  -1.731   4.980  1.00  0.00    -0.000 C 
BRANCH   9  10
ATOM     10  C   UNL     1      -0.102  -2.971   4.314  1.00  0.00    -0.003 C 
ATOM     11  C   UNL     1       0.568  -2.654   2.977  1.00  0.00     0.004 C 
ENDBRANCH   9  10
ENDBRANCH   8   9
ENDBRANCH   1   8
TORSDOF 6
ENDMDL
MODEL 5
REMARK VINA RESULT:    -4.589      3.126      5.548
REMARK INTER + INTRA:          -6.462
REMARK INTER:                  -5.949
REMARK INTRA:                  -0.512
REMARK UNBOUND:                -0.263
REMARK SMILES CCCCCCC=CC(=O)[O-]
REMARK SMILES IDX 5 1 6 2 7 3 8 4 9 5 10 6 11 7 4 8 3 9 2 10 1 11
REMARK H PARENT
REMARK Flexibility Score: inf
ROOT
ATOM      1  C   UNL     1      -6.461  -8.333  -7.220  1.00  0.00     0.004 C 
ENDROOT
BRANCH   1   2
ATOM      2  C   UNL     1      -6.449  -8.238  -8.751  1.00  0.00     0.027 C 
BRANCH   2   3
ATOM      3  C   UNL     1      -5.144  -8.722  -9.316  1.00  0.00    -0.025 C 
ATOM      4  C   UNL     1      -4.125  -9.068  -8.522  1.00  0.00     0.020 C 
BRANCH   4   5
ATOM      5  C   UNL     1      -2.843  -9.556  -9.053  1.00  0.00     0.064 C 
ATOM      6  O   UNL     1      -2.017  -8.769  -9.590  1.00  0.00    -0.545 OA
ATOM      7  O   UNL     1      -2.536 -10.908  -8.961  1.00  0.00    -0.545 OA
ENDBRANCH   4   5
ENDBRANCH   2   3
ENDBRANCH   1   2
BRANCH   1   8
ATOM      8  C   UNL     1      -7.323  -7.223  -6.607  1.00  0.00     0.000 C 
BRANCH   8   9
ATOM      9  C   UNL     1      -6.473  -6.283  -5.739  1.00  0.00    -0.000 C 
BRANCH   9  10
ATOM     10  C   UNL     1      -5.090  -6.005  -6.347  1.00  0.00    -0.003 C 
ATOM     11  C   UNL     1      -5.007  -4.639  -7.028  1.00  0.00     0.004 C 
ENDBRANCH   9  10
ENDBRANCH   8   9
ENDBRANCH   1   8
TORSDOF 6
ENDMDL
MODEL 6
REMARK VINA RESULT:    -4.511      1.063      2.091
REMARK INTER + INTRA:          -6.357
REMARK INTER:                  -5.851
REMARK INTRA:                  -0.506
REMARK UNBOUND:                -0.263
REMARK SMILES CCCCCCC=CC(=O)[O-]
REMARK SMILES IDX 5 1 6 2 7 3 8 4 9 5 10 6 11 7 4 8 3 9 2 10 1 11
REMARK H PARENT
REMARK Flexibility Score: inf
ROOT
ATOM      1  C   UNL     1      -5.950  -9.703  -8.971  1.00  0.00     0.004 C 
ENDROOT
BRANCH   1   2
ATOM      2  C   UNL     1      -5.981  -8.429  -9.824  1.00  0.00     0.027 C 
BRANCH   2   3
ATOM      3  C   UNL     1      -6.066  -7.200  -8.964  1.00  0.00    -0.025 C 
ATOM      4  C   UNL     1      -5.752  -7.235  -7.664  1.00  0.00     0.020 C 
BRANCH   4   5
ATOM      5  C   UNL     1      -5.815  -6.042  -6.806  1.00  0.00     0.064 C 
ATOM      6  O   UNL     1      -6.900  -5.670  -6.283  1.00  0.00    -0.545 OA
ATOM      7  O   UNL     1      -4.658  -5.311  -6.568  1.00  0.00    -0.545 OA
ENDBRANCH   4   5
ENDBRANCH   2   3
ENDBRANCH   1   2
BRANCH   1   8
ATOM      8  C   UNL     1      -5.030 -10.759  -9.594  1.00  0.00     0.000 C 
BRANCH   8   9
ATOM      9  C   UNL     1      -3.713 -10.128 -10.072  1.00  0.00    -0.000 C 
BRANCH   9  10
ATOM     10  C   UNL     1      -2.678  -9.993  -8.946  1.00  0.00    -0.003 C 
ATOM     11  C   UNL     1      -2.284 -11.340  -8.340  1.00  0.00     0.004 C 
ENDBRANCH   9  10
ENDBRANCH   8   9
ENDBRANCH   1   8
TORSDOF 6
ENDMDL
MODEL 7
REMARK VINA RESULT:    -4.509      1.477      2.270
REMARK INTER + INTRA:          -6.354
REMARK INTER:                  -5.850
REMARK INTRA:                  -0.504
REMARK UNBOUND:                -0.263
REMARK SMILES CCCCCCC=CC(=O)[O-]
REMARK SMILES IDX 5 1 6 2 7 3 8 4 9 5 10 6 11 7 4 8 3 9 2 10 1 11
REMARK H PARENT
REMARK Flexibility Score: inf
ROOT
ATOM      1  C   UNL     1      -3.200 -10.165  -9.471  1.00  0.00     0.004 C 
ENDROOT
BRANCH   1   2
ATOM      2  C   UNL     1      -3.175  -8.978  -8.500  1.00  0.00     0.027 C 
BRANCH   2   3
ATOM      3  C   UNL     1      -4.563  -8.476  -8.218  1.00  0.00    -0.025 C 
ATOM      4  C   UNL     1      -4.772  -7.362  -7.508  1.00  0.00     0.020 C 
BRANCH   4   5
ATOM      5  C   UNL     1      -6.121  -6.845  -7.232  1.00  0.00     0.064 C 
ATOM      6  O   UNL     1      -7.140  -7.572  -7.375  1.00  0.00    -0.545 OA
ATOM      7  O   UNL     1      -6.274  -5.531  -6.806  1.00  0.00    -0.545 OA
ENDBRANCH   4   5
ENDBRANCH   2   3
ENDBRANCH   1   2
BRANCH   1   8
ATOM      8  C   UNL     1      -4.635 -10.636  -9.727  1.00  0.00     0.000 C 
BRANCH   8   9
ATOM      9  C   UNL     1      -4.804 -12.116  -9.352  1.00  0.00    -0.000 C 
BRANCH   9  10
ATOM     10  C   UNL     1      -6.226 -12.447  -8.875  1.00  0.00    -0.003 C 
ATOM     11  C   UNL     1      -7.061 -11.198  -8.595  1.00  0.00     0.004 C 
ENDBRANCH   9  10
ENDBRANCH   8   9
ENDBRANCH   1   8
TORSDOF 6
ENDMDL
MODEL 8
REMARK VINA RESULT:    -4.467      3.399      5.760
REMARK INTER + INTRA:          -6.297
REMARK INTER:                  -5.912
REMARK INTRA:                  -0.385
REMARK UNBOUND:                -0.263
REMARK SMILES CCCCCCC=CC(=O)[O-]
REMARK SMILES IDX 5 1 6 2 7 3 8 4 9 5 10 6 11 7 4 8 3 9 2 10 1 11
REMARK H PARENT
REMARK Flexibility Score: inf
ROOT
ATOM      1  C   UNL     1      -5.085  -6.592  -7.259  1.00  0.00     0.004 C 
ENDROOT
BRANCH   1   2
ATOM      2  C   UNL     1      -5.940  -7.163  -8.397  1.00  0.00     0.027 C 
BRANCH   2   3
ATOM      3  C   UNL     1      -5.327  -8.412  -8.963  1.00  0.00    -0.025 C 
ATOM      4  C   UNL     1      -4.236  -8.963  -8.421  1.00  0.00     0.020 C 
BRANCH   4   5
ATOM      5  C   UNL     1      -3.627 -10.192  -8.951  1.00  0.00     0.064 C 
ATOM      6  O   UNL     1      -2.375 -10.333  -8.996  1.00  0.00    -0.545 OA
ATOM      7  O   UNL     1      -4.445 -11.217  -9.410  1.00  0.00    -0.545 OA
ENDBRANCH   4   5
ENDBRANCH   2   3
ENDBRANCH   1   2
BRANCH   1   8
ATOM      8  C   UNL     1      -5.901  -5.629  -6.388  1.00  0.00     0.000 C 
BRANCH   8   9
ATOM      9  C   UNL     1      -6.578  -6.375  -5.229  1.00  0.00    -0.000 C 
BRANCH   9  10
ATOM     10  C   UNL     1      -8.108  -6.238  -5.250  1.00  0.00    -0.003 C 
ATOM     11  C   UNL     1      -8.822  -7.589  -5.250  1.00  0.00     0.004 C 
ENDBRANCH   9  10
ENDBRANCH   8   9
ENDBRANCH   1   8
TORSDOF 6
ENDMDL
MODEL 9
REMARK VINA RESULT:    -4.453     14.455     15.533
REMARK INTER + INTRA:          -6.279
REMARK INTER:                  -6.032
REMARK INTRA:                  -0.246
REMARK UNBOUND:                -0.263
REMARK SMILES CCCCCCC=CC(=O)[O-]
REMARK SMILES IDX 5 1 6 2 7 3 8 4 9 5 10 6 11 7 4 8 3 9 2 10 1 11
REMARK H PARENT
REMARK Flexibility Score: inf
ROOT
ATOM      1  C   UNL     1      -3.653   0.053   3.803  1.00  0.00     0.004 C 
ENDROOT
BRANCH   1   2
ATOM      2  C   UNL     1      -2.361   0.107   4.629  1.00  0.00     0.027 C 
BRANCH   2   3
ATOM      3  C   UNL     1      -1.533  -1.129   4.426  1.00  0.00    -0.025 C 
ATOM      4  C   UNL     1      -0.228  -1.057   4.140  1.00  0.00     0.020 C 
BRANCH   4   5
ATOM      5  C   UNL     1       0.605  -2.254   3.951  1.00  0.00     0.064 C 
ATOM      6  O   UNL     1       0.440  -3.014   2.958  1.00  0.00    -0.545 OA
ATOM      7  O   UNL     1       1.591  -2.554   4.882  1.00  0.00    -0.545 OA
ENDBRANCH   4   5
ENDBRANCH   2   3
ENDBRANCH   1   2
BRANCH   1   8
ATOM      8  C   UNL     1      -4.885  -0.003   4.713  1.00  0.00     0.000 C 
BRANCH   8   9
ATOM      9  C   UNL     1      -5.340  -1.454   4.934  1.00  0.00    -0.000 C 
BRANCH   9  10
ATOM     10  C   UNL     1      -5.965  -1.673   6.320  1.00  0.00    -0.003 C 
ATOM     11  C   UNL     1      -7.189  -2.587   6.278  1.00  0.00     0.004 C 
ENDBRANCH   9  10
ENDBRANCH   8   9
ENDBRANCH   1   8
TORSDOF 6
ENDMDL
