MODEL 1
REMARK VINA RESULT:    -3.876      0.000      0.000
REMARK INTER + INTRA:          -5.142
REMARK INTER:                  -4.669
REMARK INTRA:                  -0.473
REMARK UNBOUND:                -0.473
REMARK SMILES NC(=O)C[C@@H]([NH3+])C(=O)[O-]
REMARK SMILES IDX 4 1 5 2 6 3 7 7 8 8 9 9 2 10 3 11 1 12
REMARK H PARENT 6 4 6 5 6 6 1 13 1 14
REMARK Flexibility Score: inf
ROOT
ATOM      1  C   UNL     1      34.986  -1.055  25.160  1.00  0.00     0.171 C 
ENDROOT
BRANCH   1   2
ATOM      2  C   UNL     1      34.120  -2.169  24.536  1.00  0.00     0.237 C 
BRANCH   2   3
ATOM      3  N   UNL     1      33.400  -1.687  23.349  1.00  0.00    -0.350 N 
ATOM      4  H   UNL     1      33.121  -2.487  22.734  1.00  0.00     0.345 HD
ATOM      5  H   UNL     1      32.541  -1.166  23.642  1.00  0.00     0.345 HD
ATOM      6  H   UNL     1      34.003  -1.030  22.805  1.00  0.00     0.345 HD
ENDBRANCH   2   3
BRANCH   2   7
ATOM      7  C   UNL     1      34.990  -3.342  24.171  1.00  0.00     0.100 C 
ATOM      8  O   UNL     1      36.115  -3.153  23.638  1.00  0.00    -0.544 OA
ATOM      9  O   UNL     1      34.551  -4.640  24.404  1.00  0.00    -0.544 OA
ENDBRANCH   2   7
ENDBRANCH   1   2
BRANCH   1  10
ATOM     10  C   UNL     1      35.308   0.020  24.164  1.00  0.00     0.223 C 
ATOM     11  O   UNL     1      34.516   0.989  24.011  1.00  0.00    -0.275 OA
ATOM     12  N   UNL     1      36.489  -0.061  23.365  1.00  0.00    -0.369 N 
ATOM     13  H   UNL     1      37.144  -0.868  23.462  1.00  0.00     0.159 HD
ATOM     14  H   UNL     1      36.704   0.684  22.666  1.00  0.00     0.159 HD
ENDBRANCH   1  10
TORSDOF 4
ENDMDL
MODEL 2
REMARK VINA RESULT:    -3.676      1.071      3.813
REMARK INTER + INTRA:          -4.901
REMARK INTER:                  -4.448
REMARK INTRA:                  -0.453
REMARK UNBOUND:                -0.473
REMARK SMILES NC(=O)C[C@@H]([NH3+])C(=O)[O-]
REMARK SMILES IDX 4 1 5 2 6 3 7 7 8 8 9 9 2 10 3 11 1 12
REMARK H PARENT 6 4 6 5 6 6 1 13 1 14
REMARK Flexibility Score: inf
ROOT
ATOM      1  C   UNL     1      35.291  -1.234  25.115  1.00  0.00     0.171 C 
ENDROOT
BRANCH   1   2
ATOM      2  C   UNL     1      35.691   0.108  24.468  1.00  0.00     0.237 C 
BRANCH   2   3
ATOM      3  N   UNL     1      36.581  -0.095  23.317  1.00  0.00    -0.350 N 
ATOM      4  H   UNL     1      36.046  -0.044  22.419  1.00  0.00     0.345 HD
ATOM      5  H   UNL     1      37.328   0.637  23.312  1.00  0.00     0.345 HD
ATOM      6  H   UNL     1      37.049  -1.028  23.384  1.00  0.00     0.345 HD
ENDBRANCH   2   3
BRANCH   2   7
ATOM      7  C   UNL     1      34.454   0.851  24.039  1.00  0.00     0.100 C 
ATOM      8  O   UNL     1      34.552   1.882  23.324  1.00  0.00    -0.544 OA
ATOM      9  O   UNL     1      33.198   0.414  24.444  1.00  0.00    -0.544 OA
ENDBRANCH   2   7
ENDBRANCH   1   2
BRANCH   1  10
ATOM     10  C   UNL     1      35.090  -2.308  24.085  1.00  0.00     0.223 C 
ATOM     11  O   UNL     1      36.072  -3.000  23.703  1.00  0.00    -0.275 OA
ATOM     12  N   UNL     1      33.801  -2.530  23.511  1.00  0.00    -0.369 N 
ATOM     13  H   UNL     1      32.982  -1.952  23.800  1.00  0.00     0.159 HD
ATOM     14  H   UNL     1      33.668  -3.272  22.789  1.00  0.00     0.159 HD
ENDBRANCH   1  10
TORSDOF 4
ENDMDL
MODEL 3
REMARK VINA RESULT:    -3.670      2.150      2.510
REMARK INTER + INTRA:          -4.894
REMARK INTER:                  -4.641
REMARK INTRA:                  -0.252
REMARK UNBOUND:                -0.473
REMARK SMILES NC(=O)C[C@@H]([NH3+])C(=O)[O-]
REMARK SMILES IDX 4 1 5 2 6 3 7 7 8 8 9 9 2 10 3 11 1 12
REMARK H PARENT 6 4 6 5 6 6 1 13 1 14
REMARK Flexibility Score: inf
ROOT
ATOM      1  C   UNL     1      35.995  -0.818  25.908  1.00  0.00     0.171 C 
ENDROOT
BRANCH   1   2
ATOM      2  C   UNL     1      35.396  -0.819  24.486  1.00  0.00     0.237 C 
BRANCH   2   3
ATOM      3  N   UNL     1      36.269  -0.117  23.535  1.00  0.00    -0.350 N 
ATOM      4  H   UNL     1      37.055   0.359  24.034  1.00  0.00     0.345 HD
ATOM      5  H   UNL     1      36.663  -0.798  22.846  1.00  0.00     0.345 HD
ATOM      6  H   UNL     1      35.719   0.595  23.002  1.00  0.00     0.345 HD
ENDBRANCH   2   3
BRANCH   2   7
ATOM      7  C   UNL     1      35.173  -2.237  24.033  1.00  0.00     0.100 C 
ATOM      8  O   UNL     1      36.136  -2.921  23.597  1.00  0.00    -0.544 OA
ATOM      9  O   UNL     1      33.901  -2.796  24.078  1.00  0.00    -0.544 OA
ENDBRANCH   2   7
ENDBRANCH   1   2
BRANCH   1  10
ATOM     10  C   UNL     1      35.621   0.423  26.666  1.00  0.00     0.223 C 
ATOM     11  O   UNL     1      35.538   1.525  26.060  1.00  0.00    -0.275 OA
ATOM     12  N   UNL     1      35.390   0.370  28.074  1.00  0.00    -0.369 N 
ATOM     13  H   UNL     1      35.477  -0.530  28.596  1.00  0.00     0.159 HD
ATOM     14  H   UNL     1      35.140   1.237  28.599  1.00  0.00     0.159 HD
ENDBRANCH   1  10
TORSDOF 4
ENDMDL
MODEL 4
REMARK VINA RESULT:    -3.606      1.723      4.089
REMARK INTER + INTRA:          -4.817
REMARK INTER:                  -4.556
REMARK INTRA:                  -0.261
REMARK UNBOUND:                -0.473
REMARK SMILES NC(=O)C[C@@H]([NH3+])C(=O)[O-]
REMARK SMILES IDX 4 1 5 2 6 3 7 7 8 8 9 9 2 10 3 11 1 12
REMARK H PARENT 6 4 6 5 6 6 1 13 1 14
REMARK Flexibility Score: inf
ROOT
ATOM      1  C   UNL     1      34.575  -1.326  24.757  1.00  0.00     0.171 C 
ENDROOT
BRANCH   1   2
ATOM      2  C   UNL     1      35.940  -0.608  24.761  1.00  0.00     0.237 C 
BRANCH   2   3
ATOM      3  N   UNL     1      36.254  -0.044  23.441  1.00  0.00    -0.350 N 
ATOM      4  H   UNL     1      35.481  -0.235  22.762  1.00  0.00     0.345 HD
ATOM      5  H   UNL     1      36.391   0.990  23.520  1.00  0.00     0.345 HD
ATOM      6  H   UNL     1      37.142  -0.457  23.076  1.00  0.00     0.345 HD
ENDBRANCH   2   3
BRANCH   2   7
ATOM      7  C   UNL     1      35.936   0.481  25.800  1.00  0.00     0.100 C 
ATOM      8  O   UNL     1      36.015   0.189  27.022  1.00  0.00    -0.544 OA
ATOM      9  O   UNL     1      35.827   1.813  25.419  1.00  0.00    -0.544 OA
ENDBRANCH   2   7
ENDBRANCH   1   2
BRANCH   1  10
ATOM     10  C   UNL     1      34.686  -2.725  24.225  1.00  0.00     0.223 C 
ATOM     11  O   UNL     1      35.738  -3.089  23.634  1.00  0.00    -0.275 OA
ATOM     12  N   UNL     1      33.596  -3.639  24.355  1.00  0.00    -0.369 N 
ATOM     13  H   UNL     1      32.709  -3.348  24.822  1.00  0.00     0.159 HD
ATOM     14  H   UNL     1      33.674  -4.608  23.975  1.00  0.00     0.159 HD
ENDBRANCH   1  10
TORSDOF 4
ENDMDL
MODEL 5
REMARK VINA RESULT:    -3.601      5.995      7.207
REMARK INTER + INTRA:          -4.811
REMARK INTER:                  -4.512
REMARK INTRA:                  -0.298
REMARK UNBOUND:                -0.473
REMARK SMILES NC(=O)C[C@@H]([NH3+])C(=O)[O-]
REMARK SMILES IDX 4 1 5 2 6 3 7 7 8 8 9 9 2 10 3 11 1 12
REMARK H PARENT 6 4 6 5 6 6 1 13 1 14
REMARK Flexibility Score: inf
ROOT
ATOM      1  C   UNL     1      36.214   5.453  21.897  1.00  0.00     0.171 C 
ENDROOT
BRANCH   1   2
ATOM      2  C   UNL     1      35.326   4.568  20.999  1.00  0.00     0.237 C 
BRANCH   2   3
ATOM      3  N   UNL     1      36.135   3.720  20.112  1.00  0.00    -0.350 N 
ATOM      4  H   UNL     1      35.760   2.744  20.088  1.00  0.00     0.345 HD
ATOM      5  H   UNL     1      36.128   4.113  19.142  1.00  0.00     0.345 HD
ATOM      6  H   UNL     1      37.127   3.699  20.441  1.00  0.00     0.345 HD
ENDBRANCH   2   3
BRANCH   2   7
ATOM      7  C   UNL     1      34.432   3.713  21.857  1.00  0.00     0.100 C 
ATOM      8  O   UNL     1      34.888   2.679  22.412  1.00  0.00    -0.544 OA
ATOM      9  O   UNL     1      33.094   4.049  22.027  1.00  0.00    -0.544 OA
ENDBRANCH   2   7
ENDBRANCH   1   2
BRANCH   1  10
ATOM     10  C   UNL     1      37.632   5.494  21.407  1.00  0.00     0.223 C 
ATOM     11  O   UNL     1      38.434   4.576  21.730  1.00  0.00    -0.275 OA
ATOM     12  N   UNL     1      38.090   6.582  20.604  1.00  0.00    -0.369 N 
ATOM     13  H   UNL     1      37.447   7.362  20.345  1.00  0.00     0.159 HD
ATOM     14  H   UNL     1      39.080   6.612  20.272  1.00  0.00     0.159 HD
ENDBRANCH   1  10
TORSDOF 4
ENDMDL
MODEL 6
REMARK VINA RESULT:    -3.594      5.756      6.691
REMARK INTER + INTRA:          -4.802
REMARK INTER:                  -4.320
REMARK INTRA:                  -0.482
REMARK UNBOUND:                -0.473
REMARK SMILES NC(=O)C[C@@H]([NH3+])C(=O)[O-]
REMARK SMILES IDX 4 1 5 2 6 3 7 7 8 8 9 9 2 10 3 11 1 12
REMARK H PARENT 6 4 6 5 6 6 1 13 1 14
REMARK Flexibility Score: inf
ROOT
ATOM      1  C   UNL     1      36.907   4.800  22.446  1.00  0.00     0.171 C 
ENDROOT
BRANCH   1   2
ATOM      2  C   UNL     1      35.877   4.537  21.329  1.00  0.00     0.237 C 
BRANCH   2   3
ATOM      3  N   UNL     1      36.497   3.878  20.171  1.00  0.00    -0.350 N 
ATOM      4  H   UNL     1      35.798   3.291  19.660  1.00  0.00     0.345 HD
ATOM      5  H   UNL     1      36.882   4.598  19.517  1.00  0.00     0.345 HD
ATOM      6  H   UNL     1      37.290   3.274  20.484  1.00  0.00     0.345 HD
ENDBRANCH   2   3
BRANCH   2   7
ATOM      7  C   UNL     1      34.755   3.689  21.865  1.00  0.00     0.100 C 
ATOM      8  O   UNL     1      33.558   4.011  21.644  1.00  0.00    -0.544 OA
ATOM      9  O   UNL     1      35.031   2.557  22.622  1.00  0.00    -0.544 OA
ENDBRANCH   2   7
ENDBRANCH   1   2
BRANCH   1  10
ATOM     10  C   UNL     1      38.145   3.970  22.266  1.00  0.00     0.223 C 
ATOM     11  O   UNL     1      39.063   4.374  21.502  1.00  0.00    -0.275 OA
ATOM     12  N   UNL     1      38.277   2.711  22.927  1.00  0.00    -0.369 N 
ATOM     13  H   UNL     1      37.517   2.351  23.545  1.00  0.00     0.159 HD
ATOM     14  H   UNL     1      39.136   2.133  22.791  1.00  0.00     0.159 HD
ENDBRANCH   1  10
TORSDOF 4
ENDMDL
MODEL 7
REMARK VINA RESULT:    -3.561      7.625      8.935
REMARK INTER + INTRA:          -4.763
REMARK INTER:                  -4.473
REMARK INTRA:                  -0.290
REMARK UNBOUND:                -0.473
REMARK SMILES NC(=O)C[C@@H]([NH3+])C(=O)[O-]
REMARK SMILES IDX 4 1 5 2 6 3 7 7 8 8 9 9 2 10 3 11 1 12
REMARK H PARENT 6 4 6 5 6 6 1 13 1 14
REMARK Flexibility Score: inf
ROOT
ATOM      1  C   UNL     1      26.464   1.543  24.991  1.00  0.00     0.171 C 
ENDROOT
BRANCH   1   2
ATOM      2  C   UNL     1      27.880   0.959  24.809  1.00  0.00     0.237 C 
BRANCH   2   3
ATOM      3  N   UNL     1      27.831  -0.460  24.431  1.00  0.00    -0.350 N 
ATOM      4  H   UNL     1      27.722  -0.565  23.396  1.00  0.00     0.345 HD
ATOM      5  H   UNL     1      28.711  -0.938  24.732  1.00  0.00     0.345 HD
ATOM      6  H   UNL     1      27.031  -0.932  24.910  1.00  0.00     0.345 HD
ENDBRANCH   2   3
BRANCH   2   7
ATOM      7  C   UNL     1      28.622   1.747  23.762  1.00  0.00     0.100 C 
ATOM      8  O   UNL     1      28.270   2.925  23.490  1.00  0.00    -0.544 OA
ATOM      9  O   UNL     1      29.688   1.175  23.078  1.00  0.00    -0.544 OA
ENDBRANCH   2   7
ENDBRANCH   1   2
BRANCH   1  10
ATOM     10  C   UNL     1      25.578   0.616  25.770  1.00  0.00     0.223 C 
ATOM     11  O   UNL     1      26.013   0.067  26.818  1.00  0.00    -0.275 OA
ATOM     12  N   UNL     1      24.255   0.325  25.316  1.00  0.00    -0.369 N 
ATOM     13  H   UNL     1      23.886   0.753  24.439  1.00  0.00     0.159 HD
ATOM     14  H   UNL     1      23.645  -0.328  25.856  1.00  0.00     0.159 HD
ENDBRANCH   1  10
TORSDOF 4
ENDMDL
MODEL 8
REMARK VINA RESULT:    -3.486      2.072      4.144
REMARK INTER + INTRA:          -4.673
REMARK INTER:                  -4.181
REMARK INTRA:                  -0.492
REMARK UNBOUND:                -0.473
REMARK SMILES NC(=O)C[C@@H]([NH3+])C(=O)[O-]
REMARK SMILES IDX 4 1 5 2 6 3 7 7 8 8 9 9 2 10 3 11 1 12
REMARK H PARENT 6 4 6 5 6 6 1 13 1 14
REMARK Flexibility Score: inf
ROOT
ATOM      1  C   UNL     1      34.729  -0.935  24.991  1.00  0.00     0.171 C 
ENDROOT
BRANCH   1   2
ATOM      2  C   UNL     1      35.159  -0.443  26.388  1.00  0.00     0.237 C 
BRANCH   2   3
ATOM      3  N   UNL     1      36.536  -0.848  26.700  1.00  0.00    -0.350 N 
ATOM      4  H   UNL     1      36.552  -1.787  27.162  1.00  0.00     0.345 HD
ATOM      5  H   UNL     1      37.101  -0.890  25.821  1.00  0.00     0.345 HD
ATOM      6  H   UNL     1      36.982  -0.146  27.333  1.00  0.00     0.345 HD
ENDBRANCH   2   3
BRANCH   2   7
ATOM      7  C   UNL     1      35.032   1.055  26.458  1.00  0.00     0.100 C 
ATOM      8  O   UNL     1      34.274   1.587  27.310  1.00  0.00    -0.544 OA
ATOM      9  O   UNL     1      35.738   1.860  25.571  1.00  0.00    -0.544 OA
ENDBRANCH   2   7
ENDBRANCH   1   2
BRANCH   1  10
ATOM     10  C   UNL     1      35.911  -1.153  24.092  1.00  0.00     0.223 C 
ATOM     11  O   UNL     1      36.451  -2.290  24.032  1.00  0.00    -0.275 OA
ATOM     12  N   UNL     1      36.450  -0.073  23.328  1.00  0.00    -0.369 N 
ATOM     13  H   UNL     1      36.030   0.881  23.383  1.00  0.00     0.159 HD
ATOM     14  H   UNL     1      37.278  -0.226  22.712  1.00  0.00     0.159 HD
ENDBRANCH   1  10
TORSDOF 4
ENDMDL
MODEL 9
REMARK VINA RESULT:    -3.433      6.871      7.684
REMARK INTER + INTRA:          -4.608
REMARK INTER:                  -4.263
REMARK INTRA:                  -0.346
REMARK UNBOUND:                -0.473
REMARK SMILES NC(=O)C[C@@H]([NH3+])C(=O)[O-]
REMARK SMILES IDX 4 1 5 2 6 3 7 7 8 8 9 9 2 10 3 11 1 12
REMARK H PARENT 6 4 6 5 6 6 1 13 1 14
REMARK Flexibility Score: inf
ROOT
ATOM      1  C   UNL     1      36.551   3.879  22.837  1.00  0.00     0.171 C 
ENDROOT
BRANCH   1   2
ATOM      2  C   UNL     1      38.080   3.926  22.634  1.00  0.00     0.237 C 
BRANCH   2   3
ATOM      3  N   UNL     1      38.435   3.823  21.212  1.00  0.00    -0.350 N 
ATOM      4  H   UNL     1      39.122   4.567  20.946  1.00  0.00     0.345 HD
ATOM      5  H   UNL     1      38.856   2.885  21.019  1.00  0.00     0.345 HD
ATOM      6  H   UNL     1      37.579   3.917  20.620  1.00  0.00     0.345 HD
ENDBRANCH   2   3
BRANCH   2   7
ATOM      7  C   UNL     1      38.627   5.204  23.212  1.00  0.00     0.100 C 
ATOM      8  O   UNL     1      38.633   5.383  24.458  1.00  0.00    -0.544 OA
ATOM      9  O   UNL     1      39.113   6.200  22.374  1.00  0.00    -0.544 OA
ENDBRANCH   2   7
ENDBRANCH   1   2
BRANCH   1  10
ATOM     10  C   UNL     1      35.813   4.202  21.571  1.00  0.00     0.223 C 
ATOM     11  O   UNL     1      35.891   5.360  21.079  1.00  0.00    -0.275 OA
ATOM     12  N   UNL     1      34.996   3.218  20.937  1.00  0.00    -0.369 N 
ATOM     13  H   UNL     1      34.901   2.261  21.343  1.00  0.00     0.159 HD
ATOM     14  H   UNL     1      34.476   3.450  20.061  1.00  0.00     0.159 HD
ENDBRANCH   1  10
TORSDOF 4
ENDMDL
