MODEL 1
REMARK VINA RESULT:    -1.831      0.000      0.000
REMARK INTER + INTRA:          -1.831
REMARK INTER:                  -1.831
REMARK INTRA:                   0.000
REMARK UNBOUND:                 0.000
REMARK SMILES CC(=O)[O-]
REMARK SMILES IDX 1 1 2 2 3 3 4 4
REMARK H PARENT
REMARK Flexibility Score: inf
ROOT
ATOM      1  C   UNL     1      58.067  17.978  49.985  1.00  0.00     0.063 C 
ATOM      2  C   UNL     1      59.120  17.267  49.205  1.00  0.00     0.038 C 
ATOM      3  O   UNL     1      58.882  16.875  48.033  1.00  0.00    -0.550 OA
ATOM      4  O   UNL     1      60.385  17.083  49.750  1.00  0.00    -0.550 OA
ENDROOT
TORSDOF 0
ENDMDL
MODEL 2
REMARK VINA RESULT:    -1.771     17.307     17.763
REMARK INTER + INTRA:          -1.771
REMARK INTER:                  -1.771
REMARK INTRA:                   0.000
REMARK UNBOUND:                 0.000
REMARK SMILES CC(=O)[O-]
REMARK SMILES IDX 1 1 2 2 3 3 4 4
REMARK H PARENT
REMARK Flexibility Score: inf
ROOT
ATOM      1  C   UNL     1      61.310  30.721  61.349  1.00  0.00     0.063 C 
ATOM      2  C   UNL     1      62.480  29.797  61.343  1.00  0.00     0.038 C 
ATOM      3  O   UNL     1      62.301  28.551  61.334  1.00  0.00    -0.550 OA
ATOM      4  O   UNL     1      63.771  30.308  61.293  1.00  0.00    -0.550 OA
ENDROOT
TORSDOF 0
ENDMDL
MODEL 3
REMARK VINA RESULT:    -1.745     10.573     10.822
REMARK INTER + INTRA:          -1.745
REMARK INTER:                  -1.745
REMARK INTRA:                   0.000
REMARK UNBOUND:                 0.000
REMARK SMILES CC(=O)[O-]
REMARK SMILES IDX 1 1 2 2 3 3 4 4
REMARK H PARENT
REMARK Flexibility Score: inf
ROOT
ATOM      1  C   UNL     1      59.594  29.147  49.086  1.00  0.00     0.063 C 
ATOM      2  C   UNL     1      60.436  27.917  49.078  1.00  0.00     0.038 C 
ATOM      3  O   UNL     1      61.691  28.011  49.066  1.00  0.00    -0.550 OA
ATOM      4  O   UNL     1      59.839  26.664  49.137  1.00  0.00    -0.550 OA
ENDROOT
TORSDOF 0
ENDMDL
MODEL 4
REMARK VINA RESULT:    -1.745      9.553      9.947
REMARK INTER + INTRA:          -1.745
REMARK INTER:                  -1.745
REMARK INTRA:                   0.000
REMARK UNBOUND:                 0.000
REMARK SMILES CC(=O)[O-]
REMARK SMILES IDX 1 1 2 2 3 3 4 4
REMARK H PARENT
REMARK Flexibility Score: inf
ROOT
ATOM      1  C   UNL     1      54.821  27.665  49.741  1.00  0.00     0.063 C 
ATOM      2  C   UNL     1      55.388  26.327  49.412  1.00  0.00     0.038 C 
ATOM      3  O   UNL     1      56.577  26.051  49.720  1.00  0.00    -0.550 OA
ATOM      4  O   UNL     1      54.589  25.360  48.814  1.00  0.00    -0.550 OA
ENDROOT
TORSDOF 0
ENDMDL
MODEL 5
REMARK VINA RESULT:    -1.733      1.864      2.266
REMARK INTER + INTRA:          -1.733
REMARK INTER:                  -1.733
REMARK INTRA:                   0.000
REMARK UNBOUND:                 0.000
REMARK SMILES CC(=O)[O-]
REMARK SMILES IDX 1 1 2 2 3 3 4 4
REMARK H PARENT
REMARK Flexibility Score: inf
ROOT
ATOM      1  C   UNL     1      59.191  16.926  48.455  1.00  0.00     0.063 C 
ATOM      2  C   UNL     1      58.944  18.118  49.315  1.00  0.00     0.038 C 
ATOM      3  O   UNL     1      59.720  19.108  49.261  1.00  0.00    -0.550 OA
ATOM      4  O   UNL     1      57.826  18.164  50.138  1.00  0.00    -0.550 OA
ENDROOT
TORSDOF 0
ENDMDL
MODEL 6
REMARK VINA RESULT:    -1.729      2.705      2.923
REMARK INTER + INTRA:          -1.729
REMARK INTER:                  -1.729
REMARK INTRA:                   0.000
REMARK UNBOUND:                 0.000
REMARK SMILES CC(=O)[O-]
REMARK SMILES IDX 1 1 2 2 3 3 4 4
REMARK H PARENT
REMARK Flexibility Score: inf
ROOT
ATOM      1  C   UNL     1      58.420  17.637  49.749  1.00  0.00     0.063 C 
ATOM      2  C   UNL     1      57.569  18.652  50.432  1.00  0.00     0.038 C 
ATOM      3  O   UNL     1      56.343  18.736  50.157  1.00  0.00    -0.550 OA
ATOM      4  O   UNL     1      58.113  19.470  51.414  1.00  0.00    -0.550 OA
ENDROOT
TORSDOF 0
ENDMDL
MODEL 7
REMARK VINA RESULT:    -1.716     21.117     21.690
REMARK INTER + INTRA:          -1.716
REMARK INTER:                  -1.716
REMARK INTRA:                   0.000
REMARK UNBOUND:                 0.000
REMARK SMILES CC(=O)[O-]
REMARK SMILES IDX 1 1 2 2 3 3 4 4
REMARK H PARENT
REMARK Flexibility Score: inf
ROOT
ATOM      1  C   UNL     1      63.083  35.425  60.661  1.00  0.00     0.063 C 
ATOM      2  C   UNL     1      64.362  34.729  60.978  1.00  0.00     0.038 C 
ATOM      3  O   UNL     1      65.262  35.325  61.627  1.00  0.00    -0.550 OA
ATOM      4  O   UNL     1      64.544  33.403  60.606  1.00  0.00    -0.550 OA
ENDROOT
TORSDOF 0
ENDMDL
MODEL 8
REMARK VINA RESULT:    -1.707      2.761      3.107
REMARK INTER + INTRA:          -1.707
REMARK INTER:                  -1.707
REMARK INTRA:                   0.000
REMARK UNBOUND:                 0.000
REMARK SMILES CC(=O)[O-]
REMARK SMILES IDX 1 1 2 2 3 3 4 4
REMARK H PARENT
REMARK Flexibility Score: inf
ROOT
ATOM      1  C   UNL     1      57.527  19.256  51.873  1.00  0.00     0.063 C 
ATOM      2  C   UNL     1      57.064  18.758  50.547  1.00  0.00     0.038 C 
ATOM      3  O   UNL     1      55.938  19.101  50.102  1.00  0.00    -0.550 OA
ATOM      4  O   UNL     1      57.896  17.957  49.775  1.00  0.00    -0.550 OA
ENDROOT
TORSDOF 0
ENDMDL
