MODEL 1
REMARK VINA RESULT:    -6.166      0.000      0.000
REMARK INTER + INTRA:          -6.166
REMARK INTER:                  -6.166
REMARK INTRA:                   0.000
REMARK UNBOUND:                 0.000
REMARK SMILES CC(C)=C1CC[C@@H](C)CC1=O
REMARK SMILES IDX 8 1 7 2 6 3 5 4 4 5 2 6 1 7 3 8 10 9 11 10 9 11
REMARK H PARENT
REMARK Flexibility Score: inf
ROOT
ATOM      1  C   UNL     1      -5.510  14.360 -29.022  1.00  0.00     0.008 C 
ATOM      2  C   UNL     1      -4.888  13.029 -28.570  1.00  0.00    -0.006 C 
ATOM      3  C   UNL     1      -3.866  13.219 -27.436  1.00  0.00     0.008 C 
ATOM      4  C   UNL     1      -2.609  13.984 -27.880  1.00  0.00     0.039 C 
ATOM      5  C   UNL     1      -2.001  13.434 -29.165  1.00  0.00    -0.006 C 
ATOM      6  C   UNL     1      -0.660  13.520 -29.404  1.00  0.00    -0.070 C 
ATOM      7  C   UNL     1      -0.033  12.930 -30.646  1.00  0.00     0.039 C 
ATOM      8  C   UNL     1       0.273  14.180 -28.413  1.00  0.00     0.039 C 
ATOM      9  C   UNL     1      -2.962  12.914 -30.182  1.00  0.00     0.159 C 
ATOM     10  O   UNL     1      -2.726  13.011 -31.415  1.00  0.00    -0.295 OA
ATOM     11  C   UNL     1      -4.247  12.273 -29.744  1.00  0.00     0.084 C 
ENDROOT
TORSDOF 0
ENDMDL
MODEL 2
REMARK VINA RESULT:    -6.126      1.042      3.796
REMARK INTER + INTRA:          -6.126
REMARK INTER:                  -6.126
REMARK INTRA:                   0.000
REMARK UNBOUND:                 0.000
REMARK SMILES CC(C)=C1CC[C@@H](C)CC1=O
REMARK SMILES IDX 8 1 7 2 6 3 5 4 4 5 2 6 1 7 3 8 10 9 11 10 9 11
REMARK H PARENT
REMARK Flexibility Score: inf
ROOT
ATOM      1  C   UNL     1      -0.214  11.714 -30.719  1.00  0.00     0.008 C 
ATOM      2  C   UNL     1      -0.477  13.227 -30.779  1.00  0.00    -0.006 C 
ATOM      3  C   UNL     1      -0.382  13.890 -29.394  1.00  0.00     0.008 C 
ATOM      4  C   UNL     1      -1.498  13.444 -28.435  1.00  0.00     0.039 C 
ATOM      5  C   UNL     1      -2.886  13.528 -29.059  1.00  0.00    -0.006 C 
ATOM      6  C   UNL     1      -3.990  13.771 -28.293  1.00  0.00    -0.070 C 
ATOM      7  C   UNL     1      -5.366  13.913 -28.902  1.00  0.00     0.039 C 
ATOM      8  C   UNL     1      -3.882  13.947 -26.795  1.00  0.00     0.039 C 
ATOM      9  C   UNL     1      -2.977  13.214 -30.515  1.00  0.00     0.159 C 
ATOM     10  O   UNL     1      -3.999  12.660 -31.002  1.00  0.00    -0.295 OA
ATOM     11  C   UNL     1      -1.833  13.543 -31.429  1.00  0.00     0.084 C 
ENDROOT
TORSDOF 0
ENDMDL
MODEL 3
REMARK VINA RESULT:    -6.034      1.804      4.194
REMARK INTER + INTRA:          -6.034
REMARK INTER:                  -6.034
REMARK INTRA:                   0.000
REMARK UNBOUND:                 0.000
REMARK SMILES CC(C)=C1CC[C@@H](C)CC1=O
REMARK SMILES IDX 8 1 7 2 6 3 5 4 4 5 2 6 1 7 3 8 10 9 11 10 9 11
REMARK H PARENT
REMARK Flexibility Score: inf
ROOT
ATOM      1  C   UNL     1      -1.176  13.266 -31.395  1.00  0.00     0.008 C 
ATOM      2  C   UNL     1      -1.794  12.133 -30.561  1.00  0.00    -0.006 C 
ATOM      3  C   UNL     1      -3.292  11.942 -30.857  1.00  0.00     0.008 C 
ATOM      4  C   UNL     1      -4.152  13.132 -30.401  1.00  0.00     0.039 C 
ATOM      5  C   UNL     1      -3.861  13.561 -28.968  1.00  0.00    -0.006 C 
ATOM      6  C   UNL     1      -4.832  14.122 -28.189  1.00  0.00    -0.070 C 
ATOM      7  C   UNL     1      -4.576  14.501 -26.748  1.00  0.00     0.039 C 
ATOM      8  C   UNL     1      -6.226  14.359 -28.722  1.00  0.00     0.039 C 
ATOM      9  C   UNL     1      -2.444  13.441 -28.516  1.00  0.00     0.159 C 
ATOM     10  O   UNL     1      -1.950  14.255 -27.690  1.00  0.00    -0.295 OA
ATOM     11  C   UNL     1      -1.571  12.346 -29.057  1.00  0.00     0.084 C 
ENDROOT
TORSDOF 0
ENDMDL
MODEL 4
REMARK VINA RESULT:    -5.845      1.839      4.262
REMARK INTER + INTRA:          -5.845
REMARK INTER:                  -5.845
REMARK INTRA:                   0.000
REMARK UNBOUND:                 0.000
REMARK SMILES CC(C)=C1CC[C@@H](C)CC1=O
REMARK SMILES IDX 8 1 7 2 6 3 5 4 4 5 2 6 1 7 3 8 10 9 11 10 9 11
REMARK H PARENT
REMARK Flexibility Score: inf
ROOT
ATOM      1  C   UNL     1       0.124  13.238 -29.355  1.00  0.00     0.008 C 
ATOM      2  C   UNL     1      -0.902  12.103 -29.499  1.00  0.00    -0.006 C 
ATOM      3  C   UNL     1      -1.512  12.045 -30.910  1.00  0.00     0.008 C 
ATOM      4  C   UNL     1      -2.389  13.265 -31.237  1.00  0.00     0.039 C 
ATOM      5  C   UNL     1      -3.404  13.577 -30.145  1.00  0.00    -0.006 C 
ATOM      6  C   UNL     1      -4.603  14.159 -30.441  1.00  0.00    -0.070 C 
ATOM      7  C   UNL     1      -5.644  14.423 -29.378  1.00  0.00     0.039 C 
ATOM      8  C   UNL     1      -4.964  14.533 -31.861  1.00  0.00     0.039 C 
ATOM      9  C   UNL     1      -2.965  13.323 -28.741  1.00  0.00     0.159 C 
ATOM     10  O   UNL     1      -3.369  14.042 -27.789  1.00  0.00    -0.295 OA
ATOM     11  C   UNL     1      -2.012  12.202 -28.442  1.00  0.00     0.084 C 
ENDROOT
TORSDOF 0
ENDMDL
MODEL 5
REMARK VINA RESULT:    -5.630      1.490      3.630
REMARK INTER + INTRA:          -5.630
REMARK INTER:                  -5.630
REMARK INTRA:                   0.000
REMARK UNBOUND:                 0.000
REMARK SMILES CC(C)=C1CC[C@@H](C)CC1=O
REMARK SMILES IDX 8 1 7 2 6 3 5 4 4 5 2 6 1 7 3 8 10 9 11 10 9 11
REMARK H PARENT
REMARK Flexibility Score: inf
ROOT
ATOM      1  C   UNL     1      -2.748  10.705 -27.979  1.00  0.00     0.008 C 
ATOM      2  C   UNL     1      -2.209  12.145 -27.977  1.00  0.00    -0.006 C 
ATOM      3  C   UNL     1      -3.152  13.119 -27.250  1.00  0.00     0.008 C 
ATOM      4  C   UNL     1      -4.491  13.318 -27.979  1.00  0.00     0.039 C 
ATOM      5  C   UNL     1      -4.321  13.624 -29.462  1.00  0.00    -0.006 C 
ATOM      6  C   UNL     1      -5.230  14.390 -30.132  1.00  0.00    -0.070 C 
ATOM      7  C   UNL     1      -5.047  14.751 -31.589  1.00  0.00     0.039 C 
ATOM      8  C   UNL     1      -6.450  14.950 -29.436  1.00  0.00     0.039 C 
ATOM      9  C   UNL     1      -3.184  12.946 -30.151  1.00  0.00     0.159 C 
ATOM     10  O   UNL     1      -3.264  12.603 -31.361  1.00  0.00    -0.295 OA
ATOM     11  C   UNL     1      -1.919  12.646 -29.400  1.00  0.00     0.084 C 
ENDROOT
TORSDOF 0
ENDMDL
MODEL 6
REMARK VINA RESULT:    -5.582      2.304      3.333
REMARK INTER + INTRA:          -5.582
REMARK INTER:                  -5.582
REMARK INTRA:                   0.000
REMARK UNBOUND:                 0.000
REMARK SMILES CC(C)=C1CC[C@@H](C)CC1=O
REMARK SMILES IDX 8 1 7 2 6 3 5 4 4 5 2 6 1 7 3 8 10 9 11 10 9 11
REMARK H PARENT
REMARK Flexibility Score: inf
ROOT
ATOM      1  C   UNL     1      -2.571  13.625 -31.662  1.00  0.00     0.008 C 
ATOM      2  C   UNL     1      -3.848  12.905 -31.201  1.00  0.00    -0.006 C 
ATOM      3  C   UNL     1      -4.690  13.766 -30.244  1.00  0.00     0.008 C 
ATOM      4  C   UNL     1      -4.000  14.015 -28.893  1.00  0.00     0.039 C 
ATOM      5  C   UNL     1      -3.464  12.739 -28.255  1.00  0.00    -0.006 C 
ATOM      6  C   UNL     1      -3.381  12.610 -26.899  1.00  0.00    -0.070 C 
ATOM      7  C   UNL     1      -2.905  11.330 -26.249  1.00  0.00     0.039 C 
ATOM      8  C   UNL     1      -3.798  13.732 -25.976  1.00  0.00     0.039 C 
ATOM      9  C   UNL     1      -2.933  11.705 -29.191  1.00  0.00     0.159 C 
ATOM     10  O   UNL     1      -1.972  10.959 -28.864  1.00  0.00    -0.295 OA
ATOM     11  C   UNL     1      -3.534  11.546 -30.557  1.00  0.00     0.084 C 
ENDROOT
TORSDOF 0
ENDMDL
MODEL 7
REMARK VINA RESULT:    -5.305      1.784      3.248
REMARK INTER + INTRA:          -5.305
REMARK INTER:                  -5.305
REMARK INTRA:                   0.000
REMARK UNBOUND:                 0.000
REMARK SMILES CC(C)=C1CC[C@@H](C)CC1=O
REMARK SMILES IDX 8 1 7 2 6 3 5 4 4 5 2 6 1 7 3 8 10 9 11 10 9 11
REMARK H PARENT
REMARK Flexibility Score: inf
ROOT
ATOM      1  C   UNL     1      -3.669  13.344 -26.139  1.00  0.00     0.008 C 
ATOM      2  C   UNL     1      -3.795  14.062 -27.492  1.00  0.00    -0.006 C 
ATOM      3  C   UNL     1      -4.925  13.478 -28.358  1.00  0.00     0.008 C 
ATOM      4  C   UNL     1      -4.646  12.041 -28.823  1.00  0.00     0.039 C 
ATOM      5  C   UNL     1      -3.260  11.872 -29.433  1.00  0.00    -0.006 C 
ATOM      6  C   UNL     1      -3.024  10.940 -30.402  1.00  0.00    -0.070 C 
ATOM      7  C   UNL     1      -1.670  10.798 -31.058  1.00  0.00     0.039 C 
ATOM      8  C   UNL     1      -4.123  10.025 -30.895  1.00  0.00     0.039 C 
ATOM      9  C   UNL     1      -2.168  12.692 -28.831  1.00  0.00     0.159 C 
ATOM     10  O   UNL     1      -0.985  12.263 -28.771  1.00  0.00    -0.295 OA
ATOM     11  C   UNL     1      -2.470  14.051 -28.268  1.00  0.00     0.084 C 
ENDROOT
TORSDOF 0
ENDMDL
MODEL 8
REMARK VINA RESULT:    -5.259      1.622      2.491
REMARK INTER + INTRA:          -5.259
REMARK INTER:                  -5.259
REMARK INTRA:                   0.000
REMARK UNBOUND:                 0.000
REMARK SMILES CC(C)=C1CC[C@@H](C)CC1=O
REMARK SMILES IDX 8 1 7 2 6 3 5 4 4 5 2 6 1 7 3 8 10 9 11 10 9 11
REMARK H PARENT
REMARK Flexibility Score: inf
ROOT
ATOM      1  C   UNL     1      -3.606  13.639 -26.269  1.00  0.00     0.008 C 
ATOM      2  C   UNL     1      -3.849  12.391 -27.132  1.00  0.00    -0.006 C 
ATOM      3  C   UNL     1      -2.540  11.809 -27.695  1.00  0.00     0.008 C 
ATOM      4  C   UNL     1      -1.861  12.735 -28.717  1.00  0.00     0.039 C 
ATOM      5  C   UNL     1      -2.817  13.239 -29.791  1.00  0.00    -0.006 C 
ATOM      6  C   UNL     1      -2.374  13.533 -31.048  1.00  0.00    -0.070 C 
ATOM      7  C   UNL     1      -3.319  13.979 -32.141  1.00  0.00     0.039 C 
ATOM      8  C   UNL     1      -0.916  13.388 -31.421  1.00  0.00     0.039 C 
ATOM      9  C   UNL     1      -4.220  13.502 -29.356  1.00  0.00     0.159 C 
ATOM     10  O   UNL     1      -4.903  14.425 -29.875  1.00  0.00    -0.295 OA
ATOM     11  C   UNL     1      -4.841  12.670 -28.271  1.00  0.00     0.084 C 
ENDROOT
TORSDOF 0
ENDMDL
MODEL 9
REMARK VINA RESULT:    -5.098      2.407      3.763
REMARK INTER + INTRA:          -5.098
REMARK INTER:                  -5.098
REMARK INTRA:                   0.000
REMARK UNBOUND:                 0.000
REMARK SMILES CC(C)=C1CC[C@@H](C)CC1=O
REMARK SMILES IDX 8 1 7 2 6 3 5 4 4 5 2 6 1 7 3 8 10 9 11 10 9 11
REMARK H PARENT
REMARK Flexibility Score: inf
ROOT
ATOM      1  C   UNL     1      -4.235  10.603 -31.259  1.00  0.00     0.008 C 
ATOM      2  C   UNL     1      -2.952  11.370 -30.901  1.00  0.00    -0.006 C 
ATOM      3  C   UNL     1      -2.161  10.686 -29.771  1.00  0.00     0.008 C 
ATOM      4  C   UNL     1      -2.895  10.714 -28.421  1.00  0.00     0.039 C 
ATOM      5  C   UNL     1      -3.412  12.100 -28.054  1.00  0.00    -0.006 C 
ATOM      6  C   UNL     1      -3.529  12.485 -26.750  1.00  0.00    -0.070 C 
ATOM      7  C   UNL     1      -3.986  13.875 -26.369  1.00  0.00     0.039 C 
ATOM      8  C   UNL     1      -3.169  11.549 -25.619  1.00  0.00     0.039 C 
ATOM      9  C   UNL     1      -3.888  12.949 -29.184  1.00  0.00     0.159 C 
ATOM     10  O   UNL     1      -4.836  13.765 -29.035  1.00  0.00    -0.295 OA
ATOM     11  C   UNL     1      -3.245  12.833 -30.536  1.00  0.00     0.084 C 
ENDROOT
TORSDOF 0
ENDMDL
