MODEL 1
REMARK VINA RESULT:    -3.927      0.000      0.000
REMARK INTER + INTRA:          -5.011
REMARK INTER:                  -4.845
REMARK INTRA:                  -0.166
REMARK UNBOUND:                -0.166
REMARK SMILES C=CC[C@H](C)C(=O)CC
REMARK SMILES IDX 4 1 5 2 6 3 7 4 8 5 9 6 3 7 2 8 1 9
REMARK H PARENT
REMARK Flexibility Score: inf
ROOT
ATOM      1  C   UNL     1       7.337 -15.058  23.526  1.00  0.00     0.057 C 
ATOM      2  C   UNL     1       6.220 -15.821  24.248  1.00  0.00     0.016 C 
ENDROOT
BRANCH   1   3
ATOM      3  C   UNL     1       8.449 -14.728  24.502  1.00  0.00     0.135 C 
ATOM      4  O   UNL     1       8.211 -14.685  25.701  1.00  0.00    -0.299 OA
BRANCH   3   5
ATOM      5  C   UNL     1       9.853 -14.463  24.022  1.00  0.00     0.072 C 
ATOM      6  C   UNL     1      10.786 -15.607  24.406  1.00  0.00     0.012 C 
ENDBRANCH   3   5
ENDBRANCH   1   3
BRANCH   1   7
ATOM      7  C   UNL     1       6.779 -13.784  22.861  1.00  0.00     0.038 C 
BRANCH   7   8
ATOM      8  C   UNL     1       5.746 -14.096  21.810  1.00  0.00    -0.034 C 
ATOM      9  C   UNL     1       6.051 -14.124  20.509  1.00  0.00     0.004 C 
ENDBRANCH   7   8
ENDBRANCH   1   7
TORSDOF 4
ENDMDL
MODEL 2
REMARK VINA RESULT:    -3.866      1.632      2.256
REMARK INTER + INTRA:          -4.937
REMARK INTER:                  -4.692
REMARK INTRA:                  -0.245
REMARK UNBOUND:                -0.166
REMARK SMILES C=CC[C@H](C)C(=O)CC
REMARK SMILES IDX 4 1 5 2 6 3 7 4 8 5 9 6 3 7 2 8 1 9
REMARK H PARENT
REMARK Flexibility Score: inf
ROOT
ATOM      1  C   UNL     1       7.055 -14.852  22.595  1.00  0.00     0.057 C 
ATOM      2  C   UNL     1       7.514 -16.039  21.739  1.00  0.00     0.016 C 
ENDROOT
BRANCH   1   3
ATOM      3  C   UNL     1       6.494 -15.352  23.911  1.00  0.00     0.135 C 
ATOM      4  O   UNL     1       5.286 -15.499  24.038  1.00  0.00    -0.299 OA
BRANCH   3   5
ATOM      5  C   UNL     1       7.400 -15.689  25.067  1.00  0.00     0.072 C 
ATOM      6  C   UNL     1       8.604 -14.752  25.109  1.00  0.00     0.012 C 
ENDBRANCH   3   5
ENDBRANCH   1   3
BRANCH   1   7
ATOM      7  C   UNL     1       6.018 -14.004  21.830  1.00  0.00     0.038 C 
BRANCH   7   8
ATOM      8  C   UNL     1       6.003 -14.316  20.357  1.00  0.00    -0.034 C 
ATOM      9  C   UNL     1       6.000 -13.352  19.432  1.00  0.00     0.004 C 
ENDBRANCH   7   8
ENDBRANCH   1   7
TORSDOF 4
ENDMDL
MODEL 3
REMARK VINA RESULT:    -3.746      1.539      3.991
REMARK INTER + INTRA:          -4.788
REMARK INTER:                  -4.531
REMARK INTRA:                  -0.257
REMARK UNBOUND:                -0.166
REMARK SMILES C=CC[C@H](C)C(=O)CC
REMARK SMILES IDX 4 1 5 2 6 3 7 4 8 5 9 6 3 7 2 8 1 9
REMARK H PARENT
REMARK Flexibility Score: inf
ROOT
ATOM      1  C   UNL     1       7.000 -15.221  24.204  1.00  0.00     0.057 C 
ATOM      2  C   UNL     1       7.188 -16.695  24.579  1.00  0.00     0.016 C 
ENDROOT
BRANCH   1   3
ATOM      3  C   UNL     1       6.837 -15.088  22.703  1.00  0.00     0.135 C 
ATOM      4  O   UNL     1       7.373 -15.899  21.961  1.00  0.00    -0.299 OA
BRANCH   3   5
ATOM      5  C   UNL     1       6.011 -13.979  22.104  1.00  0.00     0.072 C 
ATOM      6  C   UNL     1       6.001 -14.065  20.581  1.00  0.00     0.012 C 
ENDBRANCH   3   5
ENDBRANCH   1   3
BRANCH   1   7
ATOM      7  C   UNL     1       8.187 -14.378  24.715  1.00  0.00     0.038 C 
BRANCH   7   8
ATOM      8  C   UNL     1       9.495 -15.119  24.619  1.00  0.00    -0.034 C 
ATOM      9  C   UNL     1      10.506 -14.669  23.871  1.00  0.00     0.004 C 
ENDBRANCH   7   8
ENDBRANCH   1   7
TORSDOF 4
ENDMDL
MODEL 4
REMARK VINA RESULT:    -3.734      1.244      2.799
REMARK INTER + INTRA:          -4.773
REMARK INTER:                  -4.302
REMARK INTRA:                  -0.472
REMARK UNBOUND:                -0.166
REMARK SMILES C=CC[C@H](C)C(=O)CC
REMARK SMILES IDX 4 1 5 2 6 3 7 4 8 5 9 6 3 7 2 8 1 9
REMARK H PARENT
REMARK Flexibility Score: inf
ROOT
ATOM      1  C   UNL     1       6.951 -14.989  24.033  1.00  0.00     0.057 C 
ATOM      2  C   UNL     1       7.264 -15.084  22.535  1.00  0.00     0.016 C 
ENDROOT
BRANCH   1   3
ATOM      3  C   UNL     1       8.229 -14.757  24.813  1.00  0.00     0.135 C 
ATOM      4  O   UNL     1       8.219 -14.842  26.033  1.00  0.00    -0.299 OA
BRANCH   3   5
ATOM      5  C   UNL     1       9.524 -14.437  24.111  1.00  0.00     0.072 C 
ATOM      6  C   UNL     1      10.576 -15.506  24.389  1.00  0.00     0.012 C 
ENDBRANCH   3   5
ENDBRANCH   1   3
BRANCH   1   7
ATOM      7  C   UNL     1       6.225 -16.262  24.514  1.00  0.00     0.038 C 
BRANCH   7   8
ATOM      8  C   UNL     1       6.855 -17.517  23.970  1.00  0.00    -0.034 C 
ATOM      9  C   UNL     1       7.503 -18.379  24.758  1.00  0.00     0.004 C 
ENDBRANCH   7   8
ENDBRANCH   1   7
TORSDOF 4
ENDMDL
MODEL 5
REMARK VINA RESULT:    -3.714      1.313      2.506
REMARK INTER + INTRA:          -4.749
REMARK INTER:                  -4.502
REMARK INTRA:                  -0.247
REMARK UNBOUND:                -0.166
REMARK SMILES C=CC[C@H](C)C(=O)CC
REMARK SMILES IDX 4 1 5 2 6 3 7 4 8 5 9 6 3 7 2 8 1 9
REMARK H PARENT
REMARK Flexibility Score: inf
ROOT
ATOM      1  C   UNL     1       8.163 -14.648  24.307  1.00  0.00     0.057 C 
ATOM      2  C   UNL     1       9.682 -14.723  24.119  1.00  0.00     0.016 C 
ENDROOT
BRANCH   1   3
ATOM      3  C   UNL     1       7.754 -15.449  25.527  1.00  0.00     0.135 C 
ATOM      4  O   UNL     1       8.181 -15.134  26.629  1.00  0.00    -0.299 OA
BRANCH   3   5
ATOM      5  C   UNL     1       6.815 -16.621  25.411  1.00  0.00     0.072 C 
ATOM      6  C   UNL     1       7.434 -17.880  26.010  1.00  0.00     0.012 C 
ENDBRANCH   3   5
ENDBRANCH   1   3
BRANCH   1   7
ATOM      7  C   UNL     1       7.436 -15.147  23.041  1.00  0.00     0.038 C 
BRANCH   7   8
ATOM      8  C   UNL     1       6.383 -14.180  22.570  1.00  0.00    -0.034 C 
ATOM      9  C   UNL     1       6.025 -14.097  21.285  1.00  0.00     0.004 C 
ENDBRANCH   7   8
ENDBRANCH   1   7
TORSDOF 4
ENDMDL
MODEL 6
REMARK VINA RESULT:    -3.654      1.615      3.722
REMARK INTER + INTRA:          -4.675
REMARK INTER:                  -4.275
REMARK INTRA:                  -0.400
REMARK UNBOUND:                -0.166
REMARK SMILES C=CC[C@H](C)C(=O)CC
REMARK SMILES IDX 4 1 5 2 6 3 7 4 8 5 9 6 3 7 2 8 1 9
REMARK H PARENT
REMARK Flexibility Score: inf
ROOT
ATOM      1  C   UNL     1       7.311 -15.154  23.393  1.00  0.00     0.057 C 
ATOM      2  C   UNL     1       6.415 -14.186  22.612  1.00  0.00     0.016 C 
ENDROOT
BRANCH   1   3
ATOM      3  C   UNL     1       6.456 -16.126  24.180  1.00  0.00     0.135 C 
ATOM      4  O   UNL     1       5.275 -15.875  24.375  1.00  0.00    -0.299 OA
BRANCH   3   5
ATOM      5  C   UNL     1       7.031 -17.411  24.718  1.00  0.00     0.072 C 
ATOM      6  C   UNL     1       7.126 -17.373  26.240  1.00  0.00     0.012 C 
ENDBRANCH   3   5
ENDBRANCH   1   3
BRANCH   1   7
ATOM      7  C   UNL     1       8.269 -14.376  24.318  1.00  0.00     0.038 C 
BRANCH   7   8
ATOM      8  C   UNL     1       9.715 -14.690  24.034  1.00  0.00    -0.034 C 
ATOM      9  C   UNL     1      10.379 -15.628  24.715  1.00  0.00     0.004 C 
ENDBRANCH   7   8
ENDBRANCH   1   7
TORSDOF 4
ENDMDL
MODEL 7
REMARK VINA RESULT:    -3.649      1.986      3.926
REMARK INTER + INTRA:          -4.669
REMARK INTER:                  -4.189
REMARK INTRA:                  -0.479
REMARK UNBOUND:                -0.166
REMARK SMILES C=CC[C@H](C)C(=O)CC
REMARK SMILES IDX 4 1 5 2 6 3 7 4 8 5 9 6 3 7 2 8 1 9
REMARK H PARENT
REMARK Flexibility Score: inf
ROOT
ATOM      1  C   UNL     1       8.281 -14.449  24.932  1.00  0.00     0.057 C 
ATOM      2  C   UNL     1       8.346 -15.245  26.241  1.00  0.00     0.016 C 
ENDROOT
BRANCH   1   3
ATOM      3  C   UNL     1       7.133 -14.950  24.080  1.00  0.00     0.135 C 
ATOM      4  O   UNL     1       6.758 -14.292  23.120  1.00  0.00    -0.299 OA
BRANCH   3   5
ATOM      5  C   UNL     1       6.450 -16.259  24.384  1.00  0.00     0.072 C 
ATOM      6  C   UNL     1       7.045 -17.392  23.554  1.00  0.00     0.012 C 
ENDBRANCH   3   5
ENDBRANCH   1   3
BRANCH   1   7
ATOM      7  C   UNL     1       9.622 -14.543  24.176  1.00  0.00     0.038 C 
BRANCH   7   8
ATOM      8  C   UNL     1      10.450 -15.718  24.628  1.00  0.00    -0.034 C 
ATOM      9  C   UNL     1      10.770 -16.715  23.798  1.00  0.00     0.004 C 
ENDBRANCH   7   8
ENDBRANCH   1   7
TORSDOF 4
ENDMDL
MODEL 8
REMARK VINA RESULT:    -3.588      2.153      3.981
REMARK INTER + INTRA:          -4.594
REMARK INTER:                  -4.103
REMARK INTRA:                  -0.491
REMARK UNBOUND:                -0.166
REMARK SMILES C=CC[C@H](C)C(=O)CC
REMARK SMILES IDX 4 1 5 2 6 3 7 4 8 5 9 6 3 7 2 8 1 9
REMARK H PARENT
REMARK Flexibility Score: inf
ROOT
ATOM      1  C   UNL     1       6.565 -16.404  24.838  1.00  0.00     0.057 C 
ATOM      2  C   UNL     1       6.813 -17.567  23.870  1.00  0.00     0.016 C 
ENDROOT
BRANCH   1   3
ATOM      3  C   UNL     1       7.086 -15.114  24.239  1.00  0.00     0.135 C 
ATOM      4  O   UNL     1       6.568 -14.663  23.226  1.00  0.00    -0.299 OA
BRANCH   3   5
ATOM      5  C   UNL     1       8.226 -14.363  24.877  1.00  0.00     0.072 C 
ATOM      6  C   UNL     1       9.535 -14.623  24.137  1.00  0.00     0.012 C 
ENDBRANCH   3   5
ENDBRANCH   1   3
BRANCH   1   7
ATOM      7  C   UNL     1       7.220 -16.691  26.205  1.00  0.00     0.038 C 
BRANCH   7   8
ATOM      8  C   UNL     1       8.235 -17.800  26.129  1.00  0.00    -0.034 C 
ATOM      9  C   UNL     1       9.514 -17.610  26.469  1.00  0.00     0.004 C 
ENDBRANCH   7   8
ENDBRANCH   1   7
TORSDOF 4
ENDMDL
MODEL 9
REMARK VINA RESULT:    -3.562      2.598      3.948
REMARK INTER + INTRA:          -4.561
REMARK INTER:                  -4.050
REMARK INTRA:                  -0.511
REMARK UNBOUND:                -0.166
REMARK SMILES C=CC[C@H](C)C(=O)CC
REMARK SMILES IDX 4 1 5 2 6 3 7 4 8 5 9 6 3 7 2 8 1 9
REMARK H PARENT
REMARK Flexibility Score: inf
ROOT
ATOM      1  C   UNL     1       7.346 -16.379  25.935  1.00  0.00     0.057 C 
ATOM      2  C   UNL     1       8.211 -17.606  26.245  1.00  0.00     0.016 C 
ENDROOT
BRANCH   1   3
ATOM      3  C   UNL     1       6.537 -16.623  24.677  1.00  0.00     0.135 C 
ATOM      4  O   UNL     1       5.614 -15.872  24.395  1.00  0.00    -0.299 OA
BRANCH   3   5
ATOM      5  C   UNL     1       6.859 -17.771  23.754  1.00  0.00     0.072 C 
ATOM      6  C   UNL     1       7.608 -17.284  22.518  1.00  0.00     0.012 C 
ENDBRANCH   3   5
ENDBRANCH   1   3
BRANCH   1   7
ATOM      7  C   UNL     1       8.225 -15.119  25.800  1.00  0.00     0.038 C 
BRANCH   7   8
ATOM      8  C   UNL     1       9.539 -15.411  25.125  1.00  0.00    -0.034 C 
ATOM      9  C   UNL     1       9.963 -14.705  24.073  1.00  0.00     0.004 C 
ENDBRANCH   7   8
ENDBRANCH   1   7
TORSDOF 4
ENDMDL
