MODEL 1
REMARK VINA RESULT:    -4.973      0.000      0.000
REMARK INTER + INTRA:          -5.600
REMARK INTER:                  -5.410
REMARK INTRA:                  -0.191
REMARK UNBOUND:                -0.191
REMARK SMILES O=C([O-])c1ccccc1O
REMARK SMILES IDX 4 1 9 2 5 3 8 4 6 5 7 6 2 7 1 8 3 9 10 10
REMARK H PARENT 10 11
REMARK Flexibility Score: inf
ROOT
ATOM      1  C   UNL     1      53.189   3.798 -10.313  1.00  0.00     0.039 A 
ATOM      2  C   UNL     1      53.450   3.202  -9.055  1.00  0.00     0.124 A 
ATOM      3  C   UNL     1      54.136   3.649 -11.345  1.00  0.00     0.014 A 
ATOM      4  C   UNL     1      54.636   2.476  -8.859  1.00  0.00     0.047 A 
ATOM      5  C   UNL     1      55.311   2.924 -11.135  1.00  0.00     0.001 A 
ATOM      6  C   UNL     1      55.561   2.340  -9.894  1.00  0.00     0.004 A 
ENDROOT
BRANCH   1   7
ATOM      7  C   UNL     1      51.950   4.575 -10.572  1.00  0.00     0.075 C 
ATOM      8  O   UNL     1      51.538   4.769 -11.746  1.00  0.00    -0.545 OA
ATOM      9  O   UNL     1      51.220   5.104  -9.514  1.00  0.00    -0.545 OA
ENDBRANCH   1   7
BRANCH   2  10
ATOM     10  O   UNL     1      52.541   3.324  -8.005  1.00  0.00    -0.507 OA
ATOM     11  H   UNL     1      52.572   4.108  -7.363  1.00  0.00     0.293 HD
ENDBRANCH   2  10
TORSDOF 2
ENDMDL
MODEL 2
REMARK VINA RESULT:    -4.936      2.769      3.928
REMARK INTER + INTRA:          -5.560
REMARK INTER:                  -5.347
REMARK INTRA:                  -0.213
REMARK UNBOUND:                -0.191
REMARK SMILES O=C([O-])c1ccccc1O
REMARK SMILES IDX 4 1 9 2 5 3 8 4 6 5 7 6 2 7 1 8 3 9 10 10
REMARK H PARENT 10 11
REMARK Flexibility Score: inf
ROOT
ATOM      1  C   UNL     1      54.328   2.020  -9.981  1.00  0.00     0.039 A 
ATOM      2  C   UNL     1      54.654   3.268 -10.565  1.00  0.00     0.124 A 
ATOM      3  C   UNL     1      54.074   1.963  -8.596  1.00  0.00     0.014 A 
ATOM      4  C   UNL     1      54.717   4.419  -9.764  1.00  0.00     0.047 A 
ATOM      5  C   UNL     1      54.140   3.117  -7.812  1.00  0.00     0.001 A 
ATOM      6  C   UNL     1      54.462   4.343  -8.394  1.00  0.00     0.004 A 
ENDROOT
BRANCH   1   7
ATOM      7  C   UNL     1      54.248   0.773 -10.785  1.00  0.00     0.075 C 
ATOM      8  O   UNL     1      53.556  -0.205 -10.399  1.00  0.00    -0.545 OA
ATOM      9  O   UNL     1      54.943   0.667 -11.984  1.00  0.00    -0.545 OA
ENDBRANCH   1   7
BRANCH   2  10
ATOM     10  O   UNL     1      54.913   3.371 -11.931  1.00  0.00    -0.507 OA
ATOM     11  H   UNL     1      55.842   3.225 -12.309  1.00  0.00     0.293 HD
ENDBRANCH   2  10
TORSDOF 2
ENDMDL
MODEL 3
REMARK VINA RESULT:    -4.894      1.953      3.489
REMARK INTER + INTRA:          -5.514
REMARK INTER:                  -5.260
REMARK INTRA:                  -0.255
REMARK UNBOUND:                -0.191
REMARK SMILES O=C([O-])c1ccccc1O
REMARK SMILES IDX 4 1 9 2 5 3 8 4 6 5 7 6 2 7 1 8 3 9 10 10
REMARK H PARENT 10 11
REMARK Flexibility Score: inf
ROOT
ATOM      1  C   UNL     1      54.074   3.044  -8.344  1.00  0.00     0.039 A 
ATOM      2  C   UNL     1      53.891   4.140  -9.222  1.00  0.00     0.124 A 
ATOM      3  C   UNL     1      54.217   1.753  -8.890  1.00  0.00     0.014 A 
ATOM      4  C   UNL     1      53.857   3.926 -10.609  1.00  0.00     0.047 A 
ATOM      5  C   UNL     1      54.181   1.556 -10.272  1.00  0.00     0.001 A 
ATOM      6  C   UNL     1      54.000   2.640 -11.130  1.00  0.00     0.004 A 
ENDROOT
BRANCH   1   7
ATOM      7  C   UNL     1      54.118   3.217  -6.870  1.00  0.00     0.075 C 
ATOM      8  O   UNL     1      53.468   2.455  -6.107  1.00  0.00    -0.545 OA
ATOM      9  O   UNL     1      54.883   4.231  -6.305  1.00  0.00    -0.545 OA
ENDBRANCH   1   7
BRANCH   2  10
ATOM     10  O   UNL     1      53.746   5.435  -8.726  1.00  0.00    -0.507 OA
ATOM     11  H   UNL     1      53.822   6.247  -9.327  1.00  0.00     0.293 HD
ENDBRANCH   2  10
TORSDOF 2
ENDMDL
MODEL 4
REMARK VINA RESULT:    -4.889      2.305      3.178
REMARK INTER + INTRA:          -5.509
REMARK INTER:                  -5.256
REMARK INTRA:                  -0.253
REMARK UNBOUND:                -0.191
REMARK SMILES O=C([O-])c1ccccc1O
REMARK SMILES IDX 4 1 9 2 5 3 8 4 6 5 7 6 2 7 1 8 3 9 10 10
REMARK H PARENT 10 11
REMARK Flexibility Score: inf
ROOT
ATOM      1  C   UNL     1      54.074   3.134  -8.869  1.00  0.00     0.039 A 
ATOM      2  C   UNL     1      54.488   4.312  -8.201  1.00  0.00     0.124 A 
ATOM      3  C   UNL     1      53.917   1.950  -8.122  1.00  0.00     0.014 A 
ATOM      4  C   UNL     1      54.732   4.283  -6.819  1.00  0.00     0.047 A 
ATOM      5  C   UNL     1      54.164   1.937  -6.747  1.00  0.00     0.001 A 
ATOM      6  C   UNL     1      54.572   3.101  -6.097  1.00  0.00     0.004 A 
ENDROOT
BRANCH   1   7
ATOM      7  C   UNL     1      53.803   3.112 -10.329  1.00  0.00     0.075 C 
ATOM      8  O   UNL     1      54.316   2.234 -11.072  1.00  0.00    -0.545 OA
ATOM      9  O   UNL     1      52.972   4.067 -10.902  1.00  0.00    -0.545 OA
ENDBRANCH   1   7
BRANCH   2  10
ATOM     10  O   UNL     1      54.656   5.507  -8.901  1.00  0.00    -0.507 OA
ATOM     11  H   UNL     1      55.285   6.231  -8.574  1.00  0.00     0.293 HD
ENDBRANCH   2  10
TORSDOF 2
ENDMDL
MODEL 5
REMARK VINA RESULT:    -4.872      2.422      3.168
REMARK INTER + INTRA:          -5.491
REMARK INTER:                  -5.304
REMARK INTRA:                  -0.187
REMARK UNBOUND:                -0.191
REMARK SMILES O=C([O-])c1ccccc1O
REMARK SMILES IDX 4 1 9 2 5 3 8 4 6 5 7 6 2 7 1 8 3 9 10 10
REMARK H PARENT 10 11
REMARK Flexibility Score: inf
ROOT
ATOM      1  C   UNL     1      54.485   3.604  -9.075  1.00  0.00     0.039 A 
ATOM      2  C   UNL     1      54.185   2.443  -8.320  1.00  0.00     0.124 A 
ATOM      3  C   UNL     1      54.815   4.791  -8.392  1.00  0.00     0.014 A 
ATOM      4  C   UNL     1      54.223   2.493  -6.918  1.00  0.00     0.047 A 
ATOM      5  C   UNL     1      54.849   4.825  -6.996  1.00  0.00     0.001 A 
ATOM      6  C   UNL     1      54.552   3.678  -6.260  1.00  0.00     0.004 A 
ENDROOT
BRANCH   1   7
ATOM      7  C   UNL     1      54.459   3.604 -10.560  1.00  0.00     0.075 C 
ATOM      8  O   UNL     1      53.373   3.521 -11.191  1.00  0.00    -0.545 OA
ATOM      9  O   UNL     1      55.643   3.697 -11.282  1.00  0.00    -0.545 OA
ENDBRANCH   1   7
BRANCH   2  10
ATOM     10  O   UNL     1      53.852   1.246  -8.954  1.00  0.00    -0.507 OA
ATOM     11  H   UNL     1      54.048   1.092  -9.937  1.00  0.00     0.293 HD
ENDBRANCH   2  10
TORSDOF 2
ENDMDL
MODEL 6
REMARK VINA RESULT:    -4.710     10.582     11.998
REMARK INTER + INTRA:          -5.314
REMARK INTER:                  -5.198
REMARK INTRA:                  -0.116
REMARK UNBOUND:                -0.191
REMARK SMILES O=C([O-])c1ccccc1O
REMARK SMILES IDX 4 1 9 2 5 3 8 4 6 5 7 6 2 7 1 8 3 9 10 10
REMARK H PARENT 10 11
REMARK Flexibility Score: inf
ROOT
ATOM      1  C   UNL     1      42.999   8.388  -9.831  1.00  0.00     0.039 A 
ATOM      2  C   UNL     1      43.650   8.517 -11.082  1.00  0.00     0.124 A 
ATOM      3  C   UNL     1      41.933   9.257  -9.526  1.00  0.00     0.014 A 
ATOM      4  C   UNL     1      43.226   9.499 -11.991  1.00  0.00     0.047 A 
ATOM      5  C   UNL     1      41.522  10.229 -10.442  1.00  0.00     0.001 A 
ATOM      6  C   UNL     1      42.168  10.350 -11.671  1.00  0.00     0.004 A 
ENDROOT
BRANCH   1   7
ATOM      7  C   UNL     1      43.409   7.366  -8.834  1.00  0.00     0.075 C 
ATOM      8  O   UNL     1      42.944   7.376  -7.664  1.00  0.00    -0.545 OA
ATOM      9  O   UNL     1      44.319   6.374  -9.180  1.00  0.00    -0.545 OA
ENDBRANCH   1   7
BRANCH   2  10
ATOM     10  O   UNL     1      44.710   7.679 -11.425  1.00  0.00    -0.507 OA
ATOM     11  H   UNL     1      45.645   8.038 -11.577  1.00  0.00     0.293 HD
ENDBRANCH   2  10
TORSDOF 2
ENDMDL
MODEL 7
REMARK VINA RESULT:    -4.674     10.483     11.829
REMARK INTER + INTRA:          -5.275
REMARK INTER:                  -5.024
REMARK INTRA:                  -0.251
REMARK UNBOUND:                -0.191
REMARK SMILES O=C([O-])c1ccccc1O
REMARK SMILES IDX 4 1 9 2 5 3 8 4 6 5 7 6 2 7 1 8 3 9 10 10
REMARK H PARENT 10 11
REMARK Flexibility Score: inf
ROOT
ATOM      1  C   UNL     1      42.590   8.558 -10.180  1.00  0.00     0.039 A 
ATOM      2  C   UNL     1      43.049   7.570 -11.085  1.00  0.00     0.124 A 
ATOM      3  C   UNL     1      42.849   8.392  -8.805  1.00  0.00     0.014 A 
ATOM      4  C   UNL     1      43.750   6.453 -10.603  1.00  0.00     0.047 A 
ATOM      5  C   UNL     1      43.548   7.275  -8.341  1.00  0.00     0.001 A 
ATOM      6  C   UNL     1      43.996   6.307  -9.238  1.00  0.00     0.004 A 
ENDROOT
BRANCH   1   7
ATOM      7  C   UNL     1      41.845   9.758 -10.638  1.00  0.00     0.075 C 
ATOM      8  O   UNL     1      42.075  10.894 -10.145  1.00  0.00    -0.545 OA
ATOM      9  O   UNL     1      40.874   9.646 -11.626  1.00  0.00    -0.545 OA
ENDBRANCH   1   7
BRANCH   2  10
ATOM     10  O   UNL     1      42.815   7.693 -12.454  1.00  0.00    -0.507 OA
ATOM     11  H   UNL     1      42.339   8.499 -12.842  1.00  0.00     0.293 HD
ENDBRANCH   2  10
TORSDOF 2
ENDMDL
MODEL 8
REMARK VINA RESULT:    -4.664      2.670      3.725
REMARK INTER + INTRA:          -5.264
REMARK INTER:                  -5.179
REMARK INTRA:                  -0.085
REMARK UNBOUND:                -0.191
REMARK SMILES O=C([O-])c1ccccc1O
REMARK SMILES IDX 4 1 9 2 5 3 8 4 6 5 7 6 2 7 1 8 3 9 10 10
REMARK H PARENT 10 11
REMARK Flexibility Score: inf
ROOT
ATOM      1  C   UNL     1      54.121   2.883  -7.929  1.00  0.00     0.039 A 
ATOM      2  C   UNL     1      54.117   2.036  -9.064  1.00  0.00     0.124 A 
ATOM      3  C   UNL     1      54.530   4.222  -8.082  1.00  0.00     0.014 A 
ATOM      4  C   UNL     1      54.515   2.540 -10.312  1.00  0.00     0.047 A 
ATOM      5  C   UNL     1      54.923   4.709  -9.331  1.00  0.00     0.001 A 
ATOM      6  C   UNL     1      54.916   3.870 -10.443  1.00  0.00     0.004 A 
ENDROOT
BRANCH   1   7
ATOM      7  C   UNL     1      53.710   2.399  -6.586  1.00  0.00     0.075 C 
ATOM      8  O   UNL     1      52.524   2.526  -6.185  1.00  0.00    -0.545 OA
ATOM      9  O   UNL     1      54.637   1.793  -5.745  1.00  0.00    -0.545 OA
ENDBRANCH   1   7
BRANCH   2  10
ATOM     10  O   UNL     1      53.721   0.703  -8.959  1.00  0.00    -0.507 OA
ATOM     11  H   UNL     1      53.945   0.144  -8.144  1.00  0.00     0.293 HD
ENDBRANCH   2  10
TORSDOF 2
ENDMDL
MODEL 9
REMARK VINA RESULT:    -4.615      8.524     10.460
REMARK INTER + INTRA:          -5.210
REMARK INTER:                  -4.989
REMARK INTRA:                  -0.221
REMARK UNBOUND:                -0.191
REMARK SMILES O=C([O-])c1ccccc1O
REMARK SMILES IDX 4 1 9 2 5 3 8 4 6 5 7 6 2 7 1 8 3 9 10 10
REMARK H PARENT 10 11
REMARK Flexibility Score: inf
ROOT
ATOM      1  C   UNL     1      56.646  -1.573  -1.822  1.00  0.00     0.039 A 
ATOM      2  C   UNL     1      56.218  -0.244  -2.055  1.00  0.00     0.124 A 
ATOM      3  C   UNL     1      56.903  -2.408  -2.928  1.00  0.00     0.014 A 
ATOM      4  C   UNL     1      56.059   0.219  -3.371  1.00  0.00     0.047 A 
ATOM      5  C   UNL     1      56.741  -1.933  -4.232  1.00  0.00     0.001 A 
ATOM      6  C   UNL     1      56.318  -0.623  -4.453  1.00  0.00     0.004 A 
ENDROOT
BRANCH   1   7
ATOM      7  C   UNL     1      56.829  -2.111  -0.450  1.00  0.00     0.075 C 
ATOM      8  O   UNL     1      57.124  -1.353   0.511  1.00  0.00    -0.545 OA
ATOM      9  O   UNL     1      56.678  -3.471  -0.204  1.00  0.00    -0.545 OA
ENDBRANCH   1   7
BRANCH   2  10
ATOM     10  O   UNL     1      55.952   0.617  -0.991  1.00  0.00    -0.507 OA
ATOM     11  H   UNL     1      55.684   0.267  -0.078  1.00  0.00     0.293 HD
ENDBRANCH   2  10
TORSDOF 2
ENDMDL
