MODEL 1
REMARK VINA RESULT:    -4.587      0.000      0.000
REMARK INTER + INTRA:          -5.180
REMARK INTER:                  -4.990
REMARK INTRA:                  -0.191
REMARK UNBOUND:                -0.191
REMARK SMILES Cc1ccc(C(C)C)c(O)c1
REMARK SMILES IDX 1 1 2 2 11 3 9 4 5 5 4 6 3 7 10 8 6 10 7 11 8 12
REMARK H PARENT 10 9
REMARK Flexibility Score: inf
ROOT
ATOM      1  C   UNL     1      -4.789   1.255  24.815  1.00  0.00     0.044 C 
ATOM      2  C   UNL     1      -3.770   1.024  25.893  1.00  0.00    -0.047 A 
ATOM      3  C   UNL     1      -2.812   0.012  25.754  1.00  0.00     0.049 A 
ATOM      4  C   UNL     1      -1.881  -0.236  26.773  1.00  0.00     0.119 A 
ATOM      5  C   UNL     1      -1.910   0.533  27.961  1.00  0.00    -0.004 A 
ATOM      6  C   UNL     1      -2.890   1.534  28.095  1.00  0.00     0.008 A 
ATOM      7  C   UNL     1      -3.815   1.772  27.075  1.00  0.00     0.004 A 
ENDROOT
BRANCH   4   8
ATOM      8  O   UNL     1      -0.933  -1.243  26.600  1.00  0.00    -0.508 OA
ATOM      9  H   UNL     1      -0.795  -1.699  25.705  1.00  0.00     0.293 HD
ENDBRANCH   4   8
BRANCH   5  10
ATOM     10  C   UNL     1      -0.924   0.312  29.101  1.00  0.00     0.017 C 
ATOM     11  C   UNL     1      -1.632  -0.117  30.392  1.00  0.00     0.012 C 
ATOM     12  C   UNL     1      -0.031   1.539  29.328  1.00  0.00     0.012 C 
ENDBRANCH   5  10
TORSDOF 2
ENDMDL
MODEL 2
REMARK VINA RESULT:    -4.502      2.424      4.178
REMARK INTER + INTRA:          -5.087
REMARK INTER:                  -4.895
REMARK INTRA:                  -0.193
REMARK UNBOUND:                -0.191
REMARK SMILES Cc1ccc(C(C)C)c(O)c1
REMARK SMILES IDX 1 1 2 2 11 3 9 4 5 5 4 6 3 7 10 8 6 10 7 11 8 12
REMARK H PARENT 10 9
REMARK Flexibility Score: inf
ROOT
ATOM      1  C   UNL     1      -5.123  -0.200  31.953  1.00  0.00     0.044 C 
ATOM      2  C   UNL     1      -4.145  -0.035  30.826  1.00  0.00    -0.047 A 
ATOM      3  C   UNL     1      -3.012   0.773  30.986  1.00  0.00     0.049 A 
ATOM      4  C   UNL     1      -2.114   0.963  29.926  1.00  0.00     0.119 A 
ATOM      5  C   UNL     1      -2.353   0.345  28.675  1.00  0.00    -0.004 A 
ATOM      6  C   UNL     1      -3.506  -0.448  28.523  1.00  0.00     0.008 A 
ATOM      7  C   UNL     1      -4.395  -0.630  29.584  1.00  0.00     0.004 A 
ENDROOT
BRANCH   4   8
ATOM      8  O   UNL     1      -0.989   1.765  30.121  1.00  0.00    -0.508 OA
ATOM      9  H   UNL     1      -0.782   2.549  29.514  1.00  0.00     0.293 HD
ENDBRANCH   4   8
BRANCH   5  10
ATOM     10  C   UNL     1      -1.413   0.513  27.488  1.00  0.00     0.017 C 
ATOM     11  C   UNL     1      -1.755   1.758  26.662  1.00  0.00     0.012 C 
ATOM     12  C   UNL     1      -1.367  -0.748  26.615  1.00  0.00     0.012 C 
ENDBRANCH   5  10
TORSDOF 2
ENDMDL
MODEL 3
REMARK VINA RESULT:    -4.484     15.636     16.645
REMARK INTER + INTRA:          -5.068
REMARK INTER:                  -4.876
REMARK INTRA:                  -0.192
REMARK UNBOUND:                -0.191
REMARK SMILES Cc1ccc(C(C)C)c(O)c1
REMARK SMILES IDX 1 1 2 2 11 3 9 4 5 5 4 6 3 7 10 8 6 10 7 11 8 12
REMARK H PARENT 10 9
REMARK Flexibility Score: inf
ROOT
ATOM      1  C   UNL     1     -14.142  12.356  29.995  1.00  0.00     0.044 C 
ATOM      2  C   UNL     1     -14.667  11.083  30.592  1.00  0.00    -0.047 A 
ATOM      3  C   UNL     1     -15.999  11.000  31.019  1.00  0.00     0.049 A 
ATOM      4  C   UNL     1     -16.488   9.828  31.612  1.00  0.00     0.119 A 
ATOM      5  C   UNL     1     -15.631   8.716  31.793  1.00  0.00    -0.004 A 
ATOM      6  C   UNL     1     -14.291   8.819  31.377  1.00  0.00     0.008 A 
ATOM      7  C   UNL     1     -13.813   9.992  30.789  1.00  0.00     0.004 A 
ENDROOT
BRANCH   4   8
ATOM      8  O   UNL     1     -17.821   9.774  32.018  1.00  0.00    -0.508 OA
ATOM      9  H   UNL     1     -18.091   9.915  32.984  1.00  0.00     0.293 HD
ENDBRANCH   4   8
BRANCH   5  10
ATOM     10  C   UNL     1     -16.105   7.415  32.429  1.00  0.00     0.017 C 
ATOM     11  C   UNL     1     -15.533   7.227  33.839  1.00  0.00     0.012 C 
ATOM     12  C   UNL     1     -15.811   6.203  31.535  1.00  0.00     0.012 C 
ENDBRANCH   5  10
TORSDOF 2
ENDMDL
MODEL 4
REMARK VINA RESULT:    -4.472     15.118     16.709
REMARK INTER + INTRA:          -5.055
REMARK INTER:                  -4.865
REMARK INTRA:                  -0.191
REMARK UNBOUND:                -0.191
REMARK SMILES Cc1ccc(C(C)C)c(O)c1
REMARK SMILES IDX 1 1 2 2 11 3 9 4 5 5 4 6 3 7 10 8 6 10 7 11 8 12
REMARK H PARENT 10 9
REMARK Flexibility Score: inf
ROOT
ATOM      1  C   UNL     1     -14.452   6.225  32.979  1.00  0.00     0.044 C 
ATOM      2  C   UNL     1     -14.757   7.557  32.359  1.00  0.00    -0.047 A 
ATOM      3  C   UNL     1     -16.058   8.075  32.401  1.00  0.00     0.049 A 
ATOM      4  C   UNL     1     -16.360   9.300  31.790  1.00  0.00     0.119 A 
ATOM      5  C   UNL     1     -15.348  10.023  31.114  1.00  0.00    -0.004 A 
ATOM      6  C   UNL     1     -14.050   9.482  31.063  1.00  0.00     0.008 A 
ATOM      7  C   UNL     1     -13.759   8.259  31.672  1.00  0.00     0.004 A 
ENDROOT
BRANCH   4   8
ATOM      8  O   UNL     1     -17.662   9.794  31.859  1.00  0.00    -0.508 OA
ATOM      9  H   UNL     1     -18.052  10.376  31.127  1.00  0.00     0.293 HD
ENDBRANCH   4   8
BRANCH   5  10
ATOM     10  C   UNL     1     -15.615  11.360  30.434  1.00  0.00     0.017 C 
ATOM     11  C   UNL     1     -15.413  11.278  28.916  1.00  0.00     0.012 C 
ATOM     12  C   UNL     1     -14.783  12.490  31.053  1.00  0.00     0.012 C 
ENDBRANCH   5  10
TORSDOF 2
ENDMDL
MODEL 5
REMARK VINA RESULT:    -4.452     12.546     13.779
REMARK INTER + INTRA:          -5.033
REMARK INTER:                  -4.842
REMARK INTRA:                  -0.191
REMARK UNBOUND:                -0.191
REMARK SMILES Cc1ccc(C(C)C)c(O)c1
REMARK SMILES IDX 1 1 2 2 11 3 9 4 5 5 4 6 3 7 10 8 6 10 7 11 8 12
REMARK H PARENT 10 9
REMARK Flexibility Score: inf
ROOT
ATOM      1  C   UNL     1     -12.311   0.316  31.491  1.00  0.00     0.044 C 
ATOM      2  C   UNL     1     -13.046   1.495  32.060  1.00  0.00    -0.047 A 
ATOM      3  C   UNL     1     -13.450   1.494  33.401  1.00  0.00     0.049 A 
ATOM      4  C   UNL     1     -14.171   2.574  33.931  1.00  0.00     0.119 A 
ATOM      5  C   UNL     1     -14.505   3.675  33.106  1.00  0.00    -0.004 A 
ATOM      6  C   UNL     1     -14.110   3.653  31.756  1.00  0.00     0.008 A 
ATOM      7  C   UNL     1     -13.394   2.572  31.237  1.00  0.00     0.004 A 
ENDROOT
BRANCH   4   8
ATOM      8  O   UNL     1     -14.549   2.549  35.272  1.00  0.00    -0.508 OA
ATOM      9  H   UNL     1     -14.426   3.352  35.878  1.00  0.00     0.293 HD
ENDBRANCH   4   8
BRANCH   5  10
ATOM     10  C   UNL     1     -15.284   4.877  33.625  1.00  0.00     0.017 C 
ATOM     11  C   UNL     1     -16.680   4.967  32.997  1.00  0.00     0.012 C 
ATOM     12  C   UNL     1     -14.501   6.184  33.446  1.00  0.00     0.012 C 
ENDBRANCH   5  10
TORSDOF 2
ENDMDL
MODEL 6
REMARK VINA RESULT:    -4.452     12.274     13.377
REMARK INTER + INTRA:          -5.033
REMARK INTER:                  -4.843
REMARK INTRA:                  -0.190
REMARK UNBOUND:                -0.191
REMARK SMILES Cc1ccc(C(C)C)c(O)c1
REMARK SMILES IDX 1 1 2 2 11 3 9 4 5 5 4 6 3 7 10 8 6 10 7 11 8 12
REMARK H PARENT 10 9
REMARK Flexibility Score: inf
ROOT
ATOM      1  C   UNL     1     -15.551   6.115  32.149  1.00  0.00     0.044 C 
ATOM      2  C   UNL     1     -14.921   4.773  32.379  1.00  0.00    -0.047 A 
ATOM      3  C   UNL     1     -14.913   4.207  33.660  1.00  0.00     0.049 A 
ATOM      4  C   UNL     1     -14.293   2.970  33.892  1.00  0.00     0.119 A 
ATOM      5  C   UNL     1     -13.657   2.287  32.828  1.00  0.00    -0.004 A 
ATOM      6  C   UNL     1     -13.656   2.876  31.550  1.00  0.00     0.008 A 
ATOM      7  C   UNL     1     -14.275   4.109  31.330  1.00  0.00     0.004 A 
ENDROOT
BRANCH   4   8
ATOM      8  O   UNL     1     -14.311   2.429  35.177  1.00  0.00    -0.508 OA
ATOM      9  H   UNL     1     -15.089   1.873  35.511  1.00  0.00     0.293 HD
ENDBRANCH   4   8
BRANCH   5  10
ATOM     10  C   UNL     1     -12.969   0.941  33.018  1.00  0.00     0.017 C 
ATOM     11  C   UNL     1     -11.458   1.034  32.775  1.00  0.00     0.012 C 
ATOM     12  C   UNL     1     -13.611  -0.154  32.157  1.00  0.00     0.012 C 
ENDBRANCH   5  10
TORSDOF 2
ENDMDL
MODEL 7
REMARK VINA RESULT:    -4.394     11.065     11.913
REMARK INTER + INTRA:          -4.970
REMARK INTER:                  -4.787
REMARK INTRA:                  -0.183
REMARK UNBOUND:                -0.191
REMARK SMILES Cc1ccc(C(C)C)c(O)c1
REMARK SMILES IDX 1 1 2 2 11 3 9 4 5 5 4 6 3 7 10 8 6 10 7 11 8 12
REMARK H PARENT 10 9
REMARK Flexibility Score: inf
ROOT
ATOM      1  C   UNL     1     -13.216   0.003  28.360  1.00  0.00     0.044 C 
ATOM      2  C   UNL     1     -13.175   0.695  29.691  1.00  0.00    -0.047 A 
ATOM      3  C   UNL     1     -12.663   0.034  30.815  1.00  0.00     0.049 A 
ATOM      4  C   UNL     1     -12.656   0.659  32.071  1.00  0.00     0.119 A 
ATOM      5  C   UNL     1     -13.178   1.968  32.213  1.00  0.00    -0.004 A 
ATOM      6  C   UNL     1     -13.706   2.612  31.079  1.00  0.00     0.008 A 
ATOM      7  C   UNL     1     -13.711   1.980  29.833  1.00  0.00     0.004 A 
ENDROOT
BRANCH   4   8
ATOM      8  O   UNL     1     -12.130  -0.021  33.168  1.00  0.00    -0.508 OA
ATOM      9  H   UNL     1     -12.111   0.392  34.093  1.00  0.00     0.293 HD
ENDBRANCH   4   8
BRANCH   5  10
ATOM     10  C   UNL     1     -13.195   2.699  33.549  1.00  0.00     0.017 C 
ATOM     11  C   UNL     1     -14.414   2.311  34.396  1.00  0.00     0.012 C 
ATOM     12  C   UNL     1     -13.095   4.219  33.368  1.00  0.00     0.012 C 
ENDBRANCH   5  10
TORSDOF 2
ENDMDL
MODEL 8
REMARK VINA RESULT:    -4.385      2.720      3.842
REMARK INTER + INTRA:          -4.960
REMARK INTER:                  -4.763
REMARK INTRA:                  -0.196
REMARK UNBOUND:                -0.191
REMARK SMILES Cc1ccc(C(C)C)c(O)c1
REMARK SMILES IDX 1 1 2 2 11 3 9 4 5 5 4 6 3 7 10 8 6 10 7 11 8 12
REMARK H PARENT 10 9
REMARK Flexibility Score: inf
ROOT
ATOM      1  C   UNL     1      -1.076  -0.327  26.632  1.00  0.00     0.044 C 
ATOM      2  C   UNL     1      -1.887  -0.073  27.869  1.00  0.00    -0.047 A 
ATOM      3  C   UNL     1      -1.303   0.543  28.983  1.00  0.00     0.049 A 
ATOM      4  C   UNL     1      -2.043   0.750  30.156  1.00  0.00     0.119 A 
ATOM      5  C   UNL     1      -3.392   0.324  30.226  1.00  0.00    -0.004 A 
ATOM      6  C   UNL     1      -3.960  -0.312  29.107  1.00  0.00     0.008 A 
ATOM      7  C   UNL     1      -3.214  -0.514  27.943  1.00  0.00     0.004 A 
ENDROOT
BRANCH   4   8
ATOM      8  O   UNL     1      -1.436   1.376  31.244  1.00  0.00    -0.508 OA
ATOM      9  H   UNL     1      -1.324   2.382  31.286  1.00  0.00     0.293 HD
ENDBRANCH   4   8
BRANCH   5  10
ATOM     10  C   UNL     1      -4.246   0.522  31.472  1.00  0.00     0.017 C 
ATOM     11  C   UNL     1      -5.172  -0.674  31.724  1.00  0.00     0.012 C 
ATOM     12  C   UNL     1      -5.029   1.840  31.423  1.00  0.00     0.012 C 
ENDBRANCH   5  10
TORSDOF 2
ENDMDL
MODEL 9
REMARK VINA RESULT:    -4.348     14.886     16.363
REMARK INTER + INTRA:          -4.919
REMARK INTER:                  -4.732
REMARK INTRA:                  -0.187
REMARK UNBOUND:                -0.191
REMARK SMILES Cc1ccc(C(C)C)c(O)c1
REMARK SMILES IDX 1 1 2 2 11 3 9 4 5 5 4 6 3 7 10 8 6 10 7 11 8 12
REMARK H PARENT 10 9
REMARK Flexibility Score: inf
ROOT
ATOM      1  C   UNL     1     -10.791  12.087  30.480  1.00  0.00     0.044 C 
ATOM      2  C   UNL     1     -12.151  11.451  30.470  1.00  0.00    -0.047 A 
ATOM      3  C   UNL     1     -13.268  12.179  30.040  1.00  0.00     0.049 A 
ATOM      4  C   UNL     1     -14.547  11.605  30.063  1.00  0.00     0.119 A 
ATOM      5  C   UNL     1     -14.721  10.282  30.534  1.00  0.00    -0.004 A 
ATOM      6  C   UNL     1     -13.593   9.569  30.980  1.00  0.00     0.008 A 
ATOM      7  C   UNL     1     -12.323  10.150  30.955  1.00  0.00     0.004 A 
ENDROOT
BRANCH   4   8
ATOM      8  O   UNL     1     -15.637  12.352  29.619  1.00  0.00    -0.508 OA
ATOM      9  H   UNL     1     -15.531  13.109  28.953  1.00  0.00     0.293 HD
ENDBRANCH   4   8
BRANCH   5  10
ATOM     10  C   UNL     1     -16.085   9.604  30.581  1.00  0.00     0.017 C 
ATOM     11  C   UNL     1     -16.847   9.945  31.867  1.00  0.00     0.012 C 
ATOM     12  C   UNL     1     -15.975   8.088  30.376  1.00  0.00     0.012 C 
ENDBRANCH   5  10
TORSDOF 2
ENDMDL
