MODEL 1
REMARK VINA RESULT:    -3.564      0.000      0.000
REMARK INTER + INTRA:          -3.783
REMARK INTER:                  -3.773
REMARK INTRA:                  -0.011
REMARK UNBOUND:                -0.011
REMARK SMILES O=Cc1ccco1
REMARK SMILES IDX 5 1 6 2 7 3 3 4 4 5 2 6 1 7
REMARK H PARENT
REMARK Flexibility Score: inf
ROOT
ATOM      1  C   UNL     1      -5.857 -19.755 -13.735  1.00  0.00     0.043 A 
ATOM      2  C   UNL     1      -6.355 -18.750 -12.930  1.00  0.00     0.196 A 
ATOM      3  O   UNL     1      -7.083 -17.927 -13.648  1.00  0.00    -0.462 OA
ATOM      4  C   UNL     1      -7.086 -18.349 -14.891  1.00  0.00     0.166 A 
ATOM      5  C   UNL     1      -6.329 -19.498 -15.005  1.00  0.00     0.054 A 
ENDROOT
BRANCH   4   6
ATOM      6  C   UNL     1      -7.801 -17.672 -15.977  1.00  0.00     0.298 C 
ATOM      7  O   UNL     1      -9.003 -17.953 -16.228  1.00  0.00    -0.294 OA
ENDBRANCH   4   6
TORSDOF 1
ENDMDL
MODEL 2
REMARK VINA RESULT:    -3.564      1.506      1.820
REMARK INTER + INTRA:          -3.783
REMARK INTER:                  -3.771
REMARK INTRA:                  -0.011
REMARK UNBOUND:                -0.011
REMARK SMILES O=Cc1ccco1
REMARK SMILES IDX 5 1 6 2 7 3 3 4 4 5 2 6 1 7
REMARK H PARENT
REMARK Flexibility Score: inf
ROOT
ATOM      1  C   UNL     1      -6.143 -19.688 -15.055  1.00  0.00     0.043 A 
ATOM      2  C   UNL     1      -5.858 -19.688 -13.705  1.00  0.00     0.196 A 
ATOM      3  O   UNL     1      -6.432 -18.656 -13.130  1.00  0.00    -0.462 OA
ATOM      4  C   UNL     1      -7.083 -17.978 -14.046  1.00  0.00     0.166 A 
ATOM      5  C   UNL     1      -6.936 -18.582 -15.279  1.00  0.00     0.054 A 
ENDROOT
BRANCH   4   6
ATOM      6  C   UNL     1      -7.846 -16.759 -13.765  1.00  0.00     0.298 C 
ATOM      7  O   UNL     1      -8.962 -16.818 -13.184  1.00  0.00    -0.294 OA
ENDBRANCH   4   6
TORSDOF 1
ENDMDL
MODEL 3
REMARK VINA RESULT:    -3.529      1.460      3.169
REMARK INTER + INTRA:          -3.746
REMARK INTER:                  -3.730
REMARK INTRA:                  -0.016
REMARK UNBOUND:                -0.011
REMARK SMILES O=Cc1ccco1
REMARK SMILES IDX 5 1 6 2 7 3 3 4 4 5 2 6 1 7
REMARK H PARENT
REMARK Flexibility Score: inf
ROOT
ATOM      1  C   UNL     1      -7.121 -18.081 -15.741  1.00  0.00     0.043 A 
ATOM      2  C   UNL     1      -7.437 -17.292 -14.653  1.00  0.00     0.196 A 
ATOM      3  O   UNL     1      -6.911 -17.806 -13.565  1.00  0.00    -0.462 OA
ATOM      4  C   UNL     1      -6.262 -18.899 -13.892  1.00  0.00     0.166 A 
ATOM      5  C   UNL     1      -6.360 -19.122 -15.251  1.00  0.00     0.054 A 
ENDROOT
BRANCH   4   6
ATOM      6  C   UNL     1      -5.547 -19.739 -12.927  1.00  0.00     0.298 C 
ATOM      7  O   UNL     1      -5.541 -19.447 -11.702  1.00  0.00    -0.294 OA
ENDBRANCH   4   6
TORSDOF 1
ENDMDL
MODEL 4
REMARK VINA RESULT:    -3.497      1.019      1.431
REMARK INTER + INTRA:          -3.712
REMARK INTER:                  -3.701
REMARK INTRA:                  -0.011
REMARK UNBOUND:                -0.011
REMARK SMILES O=Cc1ccco1
REMARK SMILES IDX 5 1 6 2 7 3 3 4 4 5 2 6 1 7
REMARK H PARENT
REMARK Flexibility Score: inf
ROOT
ATOM      1  C   UNL     1      -6.370 -18.823 -13.213  1.00  0.00     0.043 A 
ATOM      2  C   UNL     1      -6.009 -19.742 -14.177  1.00  0.00     0.196 A 
ATOM      3  O   UNL     1      -6.500 -19.381 -15.340  1.00  0.00    -0.462 OA
ATOM      4  C   UNL     1      -7.168 -18.262 -15.181  1.00  0.00     0.166 A 
ATOM      5  C   UNL     1      -7.120 -17.864 -13.860  1.00  0.00     0.054 A 
ENDROOT
BRANCH   4   6
ATOM      6  C   UNL     1      -7.854 -17.563 -16.271  1.00  0.00     0.298 C 
ATOM      7  O   UNL     1      -9.020 -17.895 -16.614  1.00  0.00    -0.294 OA
ENDBRANCH   4   6
TORSDOF 1
ENDMDL
MODEL 5
REMARK VINA RESULT:    -3.371      4.273      6.321
REMARK INTER + INTRA:          -3.579
REMARK INTER:                  -3.567
REMARK INTRA:                  -0.012
REMARK UNBOUND:                -0.011
REMARK SMILES O=Cc1ccco1
REMARK SMILES IDX 5 1 6 2 7 3 3 4 4 5 2 6 1 7
REMARK H PARENT
REMARK Flexibility Score: inf
ROOT
ATOM      1  C   UNL     1      -9.525 -16.635 -21.243  1.00  0.00     0.043 A 
ATOM      2  C   UNL     1      -8.986 -17.905 -21.246  1.00  0.00     0.196 A 
ATOM      3  O   UNL     1      -8.966 -18.382 -20.024  1.00  0.00    -0.462 OA
ATOM      4  C   UNL     1      -9.472 -17.479 -19.215  1.00  0.00     0.166 A 
ATOM      5  C   UNL     1      -9.841 -16.356 -19.929  1.00  0.00     0.054 A 
ENDROOT
BRANCH   4   6
ATOM      6  C   UNL     1      -9.609 -17.669 -17.769  1.00  0.00     0.298 C 
ATOM      7  O   UNL     1      -8.595 -17.672 -17.022  1.00  0.00    -0.294 OA
ENDBRANCH   4   6
TORSDOF 1
ENDMDL
MODEL 6
REMARK VINA RESULT:    -3.139      5.423      6.669
REMARK INTER + INTRA:          -3.334
REMARK INTER:                  -3.321
REMARK INTRA:                  -0.012
REMARK UNBOUND:                -0.011
REMARK SMILES O=Cc1ccco1
REMARK SMILES IDX 5 1 6 2 7 3 3 4 4 5 2 6 1 7
REMARK H PARENT
REMARK Flexibility Score: inf
ROOT
ATOM      1  C   UNL     1      -1.213 -22.795 -11.956  1.00  0.00     0.043 A 
ATOM      2  C   UNL     1      -1.921 -23.977 -11.890  1.00  0.00     0.196 A 
ATOM      3  O   UNL     1      -3.168 -23.730 -11.561  1.00  0.00    -0.462 OA
ATOM      4  C   UNL     1      -3.310 -22.434 -11.409  1.00  0.00     0.166 A 
ATOM      5  C   UNL     1      -2.110 -21.794 -11.645  1.00  0.00     0.054 A 
ENDROOT
BRANCH   4   6
ATOM      6  C   UNL     1      -4.575 -21.793 -11.040  1.00  0.00     0.298 C 
ATOM      7  O   UNL     1      -5.581 -21.875 -11.794  1.00  0.00    -0.294 OA
ENDBRANCH   4   6
TORSDOF 1
ENDMDL
MODEL 7
REMARK VINA RESULT:    -3.094      2.212      3.027
REMARK INTER + INTRA:          -3.286
REMARK INTER:                  -3.276
REMARK INTRA:                  -0.010
REMARK UNBOUND:                -0.011
REMARK SMILES O=Cc1ccco1
REMARK SMILES IDX 5 1 6 2 7 3 3 4 4 5 2 6 1 7
REMARK H PARENT
REMARK Flexibility Score: inf
ROOT
ATOM      1  C   UNL     1      -5.563 -20.473 -11.045  1.00  0.00     0.043 A 
ATOM      2  C   UNL     1      -5.813 -21.672 -11.679  1.00  0.00     0.196 A 
ATOM      3  O   UNL     1      -6.033 -21.461 -12.956  1.00  0.00    -0.462 OA
ATOM      4  C   UNL     1      -5.938 -20.173 -13.189  1.00  0.00     0.166 A 
ATOM      5  C   UNL     1      -5.644 -19.500 -12.019  1.00  0.00     0.054 A 
ENDROOT
BRANCH   4   6
ATOM      6  C   UNL     1      -6.124 -19.569 -14.511  1.00  0.00     0.298 C 
ATOM      7  O   UNL     1      -7.200 -18.986 -14.806  1.00  0.00    -0.294 OA
ENDBRANCH   4   6
TORSDOF 1
ENDMDL
MODEL 8
REMARK VINA RESULT:    -2.944      2.466      4.243
REMARK INTER + INTRA:          -3.127
REMARK INTER:                  -3.117
REMARK INTRA:                  -0.010
REMARK UNBOUND:                -0.011
REMARK SMILES O=Cc1ccco1
REMARK SMILES IDX 5 1 6 2 7 3 3 4 4 5 2 6 1 7
REMARK H PARENT
REMARK Flexibility Score: inf
ROOT
ATOM      1  C   UNL     1      -6.397 -18.494 -13.729  1.00  0.00     0.043 A 
ATOM      2  C   UNL     1      -6.359 -19.502 -14.671  1.00  0.00     0.196 A 
ATOM      3  O   UNL     1      -5.996 -20.628 -14.100  1.00  0.00    -0.462 OA
ATOM      4  C   UNL     1      -5.795 -20.402 -12.822  1.00  0.00     0.166 A 
ATOM      5  C   UNL     1      -6.033 -19.073 -12.532  1.00  0.00     0.054 A 
ENDROOT
BRANCH   4   6
ATOM      6  C   UNL     1      -5.378 -21.435 -11.871  1.00  0.00     0.298 C 
ATOM      7  O   UNL     1      -4.339 -21.287 -11.175  1.00  0.00    -0.294 OA
ENDBRANCH   4   6
TORSDOF 1
ENDMDL
MODEL 9
REMARK VINA RESULT:    -2.931     13.186     14.457
REMARK INTER + INTRA:          -3.113
REMARK INTER:                  -3.102
REMARK INTRA:                  -0.010
REMARK UNBOUND:                -0.011
REMARK SMILES O=Cc1ccco1
REMARK SMILES IDX 5 1 6 2 7 3 3 4 4 5 2 6 1 7
REMARK H PARENT
REMARK Flexibility Score: inf
ROOT
ATOM      1  C   UNL     1       2.924 -30.847 -12.754  1.00  0.00     0.043 A 
ATOM      2  C   UNL     1       2.965 -29.990 -13.835  1.00  0.00     0.196 A 
ATOM      3  O   UNL     1       2.653 -28.775 -13.449  1.00  0.00    -0.462 OA
ATOM      4  C   UNL     1       2.408 -28.796 -12.159  1.00  0.00     0.166 A 
ATOM      5  C   UNL     1       2.564 -30.077 -11.668  1.00  0.00     0.054 A 
ENDROOT
BRANCH   4   6
ATOM      6  C   UNL     1       2.028 -27.612 -11.385  1.00  0.00     0.298 C 
ATOM      7  O   UNL     1       0.815 -27.342 -11.177  1.00  0.00    -0.294 OA
ENDBRANCH   4   6
TORSDOF 1
ENDMDL
