MODEL 1
REMARK VINA RESULT:    10.162      0.000      0.000
REMARK INTER + INTRA:          12.590
REMARK INTER:                  12.835
REMARK INTRA:                  -0.246
REMARK UNBOUND:                -0.246
REMARK SMILES Oc1cc(O)cc(CCc2ccccc2O)c1
REMARK SMILES IDX 9 1 10 2 12 3 13 4 11 5 14 6 15 7 16 8 8 10 7 11 6 12 17 13
REMARK SMILES IDX 4 14 2 15 3 16 5 17 1 19
REMARK H PARENT 16 9 5 18 1 20
REMARK Flexibility Score: inf
ROOT
ATOM      1  C   UNL     1     -11.013  -0.249  -8.204  1.00  0.00     0.044 C 
ENDROOT
BRANCH   1   2
ATOM      2  C   UNL     1     -10.114   0.711  -7.466  1.00  0.00    -0.006 A 
ATOM      3  C   UNL     1      -7.899   1.648  -7.106  1.00  0.00     0.001 A 
ATOM      4  C   UNL     1      -8.422   2.535  -6.163  1.00  0.00     0.004 A 
ATOM      5  C   UNL     1      -8.740   0.743  -7.759  1.00  0.00     0.007 A 
ATOM      6  C   UNL     1      -9.788   2.524  -5.875  1.00  0.00     0.046 A 
ATOM      7  C   UNL     1     -10.642   1.620  -6.526  1.00  0.00     0.118 A 
BRANCH   7   8
ATOM      8  O   UNL     1     -12.007   1.624  -6.243  1.00  0.00    -0.508 OA
ATOM      9  H   UNL     1     -12.438   2.375  -5.715  1.00  0.00     0.293 HD
ENDBRANCH   7   8
ENDBRANCH   1   2
BRANCH   1  10
ATOM     10  C   UNL     1     -11.939   0.506  -9.162  1.00  0.00     0.040 C 
BRANCH  10  11
ATOM     11  C   UNL     1     -12.081  -0.242 -10.460  1.00  0.00    -0.040 A 
ATOM     12  C   UNL     1     -11.990  -1.643 -10.484  1.00  0.00     0.050 A 
ATOM     13  C   UNL     1     -12.365   0.451 -11.648  1.00  0.00     0.050 A 
ATOM     14  C   UNL     1     -12.155  -2.343 -11.684  1.00  0.00     0.119 A 
ATOM     15  C   UNL     1     -12.531  -0.248 -12.852  1.00  0.00     0.119 A 
ATOM     16  C   UNL     1     -12.422  -1.642 -12.868  1.00  0.00     0.092 A 
BRANCH  14  17
ATOM     17  O   UNL     1     -12.053  -3.732 -11.688  1.00  0.00    -0.508 OA
ATOM     18  H   UNL     1     -11.275  -4.204 -12.136  1.00  0.00     0.293 HD
ENDBRANCH  14  17
BRANCH  15  19
ATOM     19  O   UNL     1     -12.806   0.433 -14.036  1.00  0.00    -0.508 OA
ATOM     20  H   UNL     1     -12.182   1.148 -14.393  1.00  0.00     0.293 HD
ENDBRANCH  15  19
ENDBRANCH  10  11
ENDBRANCH   1  10
TORSDOF 6
ENDMDL
MODEL 2
REMARK VINA RESULT:    10.171      0.048      2.035
REMARK INTER + INTRA:          12.601
REMARK INTER:                  12.810
REMARK INTRA:                  -0.209
REMARK UNBOUND:                -0.246
REMARK SMILES Oc1cc(O)cc(CCc2ccccc2O)c1
REMARK SMILES IDX 9 1 10 2 12 3 13 4 11 5 14 6 15 7 16 8 8 10 7 11 6 12 17 13
REMARK SMILES IDX 4 14 2 15 3 16 5 17 1 19
REMARK H PARENT 16 9 5 18 1 20
REMARK Flexibility Score: inf
ROOT
ATOM      1  C   UNL     1     -11.009  -0.242  -8.242  1.00  0.00     0.044 C 
ENDROOT
BRANCH   1   2
ATOM      2  C   UNL     1     -10.131   0.715  -7.475  1.00  0.00    -0.006 A 
ATOM      3  C   UNL     1      -7.924   1.643  -7.045  1.00  0.00     0.001 A 
ATOM      4  C   UNL     1      -8.474   2.532  -6.120  1.00  0.00     0.004 A 
ATOM      5  C   UNL     1      -8.748   0.741  -7.725  1.00  0.00     0.007 A 
ATOM      6  C   UNL     1      -9.848   2.527  -5.875  1.00  0.00     0.046 A 
ATOM      7  C   UNL     1     -10.684   1.626  -6.553  1.00  0.00     0.118 A 
BRANCH   7   8
ATOM      8  O   UNL     1     -12.058   1.636  -6.313  1.00  0.00    -0.508 OA
ATOM      9  H   UNL     1     -12.715   1.995  -6.997  1.00  0.00     0.293 HD
ENDBRANCH   7   8
ENDBRANCH   1   2
BRANCH   1  10
ATOM     10  C   UNL     1     -11.941   0.521  -9.188  1.00  0.00     0.040 C 
BRANCH  10  11
ATOM     11  C   UNL     1     -12.129  -0.240 -10.472  1.00  0.00    -0.040 A 
ATOM     12  C   UNL     1     -12.398   0.444 -11.669  1.00  0.00     0.050 A 
ATOM     13  C   UNL     1     -11.980  -1.637 -10.495  1.00  0.00     0.050 A 
ATOM     14  C   UNL     1     -12.540  -0.260 -12.870  1.00  0.00     0.119 A 
ATOM     15  C   UNL     1     -12.123  -2.344 -11.697  1.00  0.00     0.119 A 
ATOM     16  C   UNL     1     -12.406  -1.655 -12.880  1.00  0.00     0.092 A 
BRANCH  14  17
ATOM     17  O   UNL     1     -12.814   0.437 -14.045  1.00  0.00    -0.508 OA
ATOM     18  H   UNL     1     -13.493   0.095 -14.716  1.00  0.00     0.293 HD
ENDBRANCH  14  17
BRANCH  15  19
ATOM     19  O   UNL     1     -11.984  -3.730 -11.726  1.00  0.00    -0.508 OA
ATOM     20  H   UNL     1     -12.782  -4.345 -11.615  1.00  0.00     0.293 HD
ENDBRANCH  15  19
ENDBRANCH  10  11
ENDBRANCH   1  10
TORSDOF 6
ENDMDL
MODEL 3
REMARK VINA RESULT:    10.490      1.196      1.666
REMARK INTER + INTRA:          13.004
REMARK INTER:                  13.419
REMARK INTRA:                  -0.415
REMARK UNBOUND:                -0.246
REMARK SMILES Oc1cc(O)cc(CCc2ccccc2O)c1
REMARK SMILES IDX 9 1 10 2 12 3 13 4 11 5 14 6 15 7 16 8 8 10 7 11 6 12 17 13
REMARK SMILES IDX 4 14 2 15 3 16 5 17 1 19
REMARK H PARENT 16 9 5 18 1 20
REMARK Flexibility Score: inf
ROOT
ATOM      1  C   UNL     1     -10.781  -0.238  -8.190  1.00  0.00     0.044 C 
ENDROOT
BRANCH   1   2
ATOM      2  C   UNL     1     -10.072   0.836  -7.406  1.00  0.00    -0.006 A 
ATOM      3  C   UNL     1     -10.178   2.731  -5.884  1.00  0.00     0.001 A 
ATOM      4  C   UNL     1      -8.784   2.807  -5.875  1.00  0.00     0.004 A 
ATOM      5  C   UNL     1     -10.821   1.748  -6.641  1.00  0.00     0.007 A 
ATOM      6  C   UNL     1      -8.028   1.897  -6.618  1.00  0.00     0.046 A 
ATOM      7  C   UNL     1      -8.665   0.905  -7.380  1.00  0.00     0.118 A 
BRANCH   7   8
ATOM      8  O   UNL     1      -7.903  -0.008  -8.109  1.00  0.00    -0.508 OA
ATOM      9  H   UNL     1      -7.814   0.058  -9.116  1.00  0.00     0.293 HD
ENDBRANCH   7   8
ENDBRANCH   1   2
BRANCH   1  10
ATOM     10  C   UNL     1     -11.949   0.355  -8.985  1.00  0.00     0.040 C 
BRANCH  10  11
ATOM     11  C   UNL     1     -12.077  -0.323 -10.322  1.00  0.00    -0.040 A 
ATOM     12  C   UNL     1     -11.976  -1.720 -10.421  1.00  0.00     0.050 A 
ATOM     13  C   UNL     1     -12.358   0.431 -11.473  1.00  0.00     0.050 A 
ATOM     14  C   UNL     1     -12.127  -2.355 -11.659  1.00  0.00     0.119 A 
ATOM     15  C   UNL     1     -12.511  -0.202 -12.715  1.00  0.00     0.119 A 
ATOM     16  C   UNL     1     -12.391  -1.593 -12.805  1.00  0.00     0.092 A 
BRANCH  14  17
ATOM     17  O   UNL     1     -12.015  -3.741 -11.738  1.00  0.00    -0.508 OA
ATOM     18  H   UNL     1     -12.817  -4.326 -11.944  1.00  0.00     0.293 HD
ENDBRANCH  14  17
BRANCH  15  19
ATOM     19  O   UNL     1     -12.782   0.540 -13.862  1.00  0.00    -0.508 OA
ATOM     20  H   UNL     1     -12.285   1.400 -14.066  1.00  0.00     0.293 HD
ENDBRANCH  15  19
ENDBRANCH  10  11
ENDBRANCH   1  10
TORSDOF 6
ENDMDL
MODEL 4
REMARK VINA RESULT:    10.573      1.192      2.629
REMARK INTER + INTRA:          13.108
REMARK INTER:                  13.525
REMARK INTRA:                  -0.417
REMARK UNBOUND:                -0.246
REMARK SMILES Oc1cc(O)cc(CCc2ccccc2O)c1
REMARK SMILES IDX 9 1 10 2 12 3 13 4 11 5 14 6 15 7 16 8 8 10 7 11 6 12 17 13
REMARK SMILES IDX 4 14 2 15 3 16 5 17 1 19
REMARK H PARENT 16 9 5 18 1 20
REMARK Flexibility Score: inf
ROOT
ATOM      1  C   UNL     1     -10.803  -0.212  -8.234  1.00  0.00     0.044 C 
ENDROOT
BRANCH   1   2
ATOM      2  C   UNL     1     -10.067   0.834  -7.435  1.00  0.00    -0.006 A 
ATOM      3  C   UNL     1     -10.126   2.714  -5.893  1.00  0.00     0.001 A 
ATOM      4  C   UNL     1      -8.730   2.751  -5.879  1.00  0.00     0.004 A 
ATOM      5  C   UNL     1     -10.793   1.758  -6.663  1.00  0.00     0.007 A 
ATOM      6  C   UNL     1      -7.998   1.829  -6.629  1.00  0.00     0.046 A 
ATOM      7  C   UNL     1      -8.658   0.864  -7.405  1.00  0.00     0.118 A 
BRANCH   7   8
ATOM      8  O   UNL     1      -7.920  -0.063  -8.140  1.00  0.00    -0.508 OA
ATOM      9  H   UNL     1      -6.910  -0.002  -8.211  1.00  0.00     0.293 HD
ENDBRANCH   7   8
ENDBRANCH   1   2
BRANCH   1  10
ATOM     10  C   UNL     1     -11.933   0.425  -9.047  1.00  0.00     0.040 C 
BRANCH  10  11
ATOM     11  C   UNL     1     -12.120  -0.301 -10.352  1.00  0.00    -0.040 A 
ATOM     12  C   UNL     1     -12.361   0.417 -11.535  1.00  0.00     0.050 A 
ATOM     13  C   UNL     1     -11.997  -1.699 -10.407  1.00  0.00     0.050 A 
ATOM     14  C   UNL     1     -12.502  -0.254 -12.754  1.00  0.00     0.119 A 
ATOM     15  C   UNL     1     -12.138  -2.374 -11.628  1.00  0.00     0.119 A 
ATOM     16  C   UNL     1     -12.394  -1.651 -12.797  1.00  0.00     0.092 A 
BRANCH  14  17
ATOM     17  O   UNL     1     -12.748   0.476 -13.915  1.00  0.00    -0.508 OA
ATOM     18  H   UNL     1     -13.321   1.313 -13.902  1.00  0.00     0.293 HD
ENDBRANCH  14  17
BRANCH  15  19
ATOM     19  O   UNL     1     -12.024  -3.761 -11.690  1.00  0.00    -0.508 OA
ATOM     20  H   UNL     1     -12.484  -4.298 -12.417  1.00  0.00     0.293 HD
ENDBRANCH  15  19
ENDBRANCH  10  11
ENDBRANCH   1  10
TORSDOF 6
ENDMDL
MODEL 5
REMARK VINA RESULT:    10.707      1.912      6.437
REMARK INTER + INTRA:          13.278
REMARK INTER:                  13.760
REMARK INTRA:                  -0.482
REMARK UNBOUND:                -0.246
REMARK SMILES Oc1cc(O)cc(CCc2ccccc2O)c1
REMARK SMILES IDX 9 1 10 2 12 3 13 4 11 5 14 6 15 7 16 8 8 10 7 11 6 12 17 13
REMARK SMILES IDX 4 14 2 15 3 16 5 17 1 19
REMARK H PARENT 16 9 5 18 1 20
REMARK Flexibility Score: inf
ROOT
ATOM      1  C   UNL     1     -11.821  -0.630  -9.117  1.00  0.00     0.044 C 
ENDROOT
BRANCH   1   2
ATOM      2  C   UNL     1     -12.106  -0.612 -10.597  1.00  0.00    -0.006 A 
ATOM      3  C   UNL     1     -12.328   0.640 -12.671  1.00  0.00     0.001 A 
ATOM      4  C   UNL     1     -12.560  -0.548 -13.368  1.00  0.00     0.004 A 
ATOM      5  C   UNL     1     -12.096   0.609 -11.293  1.00  0.00     0.007 A 
ATOM      6  C   UNL     1     -12.555  -1.769 -12.691  1.00  0.00     0.046 A 
ATOM      7  C   UNL     1     -12.323  -1.810 -11.307  1.00  0.00     0.118 A 
BRANCH   7   8
ATOM      8  O   UNL     1     -12.307  -3.035 -10.640  1.00  0.00    -0.508 OA
ATOM      9  H   UNL     1     -12.023  -3.890 -11.106  1.00  0.00     0.293 HD
ENDBRANCH   7   8
ENDBRANCH   1   2
BRANCH   1  10
ATOM     10  C   UNL     1     -11.412   0.763  -8.629  1.00  0.00     0.040 C 
BRANCH  10  11
ATOM     11  C   UNL     1     -10.258   0.669  -7.667  1.00  0.00    -0.040 A 
ATOM     12  C   UNL     1      -9.771  -0.584  -7.265  1.00  0.00     0.050 A 
ATOM     13  C   UNL     1      -9.622   1.835  -7.210  1.00  0.00     0.050 A 
ATOM     14  C   UNL     1      -8.678  -0.674  -6.396  1.00  0.00     0.119 A 
ATOM     15  C   UNL     1      -8.526   1.749  -6.339  1.00  0.00     0.119 A 
ATOM     16  C   UNL     1      -8.059   0.495  -5.932  1.00  0.00     0.092 A 
BRANCH  14  17
ATOM     17  O   UNL     1      -8.215  -1.927  -6.002  1.00  0.00    -0.508 OA
ATOM     18  H   UNL     1      -7.261  -2.064  -5.688  1.00  0.00     0.293 HD
ENDBRANCH  14  17
BRANCH  15  19
ATOM     19  O   UNL     1      -7.895   2.901  -5.876  1.00  0.00    -0.508 OA
ATOM     20  H   UNL     1      -7.861   3.747  -6.434  1.00  0.00     0.293 HD
ENDBRANCH  15  19
ENDBRANCH  10  11
ENDBRANCH   1  10
TORSDOF 6
ENDMDL
MODEL 6
REMARK VINA RESULT:    10.973      1.967      6.718
REMARK INTER + INTRA:          13.614
REMARK INTER:                  14.085
REMARK INTRA:                  -0.471
REMARK UNBOUND:                -0.246
REMARK SMILES Oc1cc(O)cc(CCc2ccccc2O)c1
REMARK SMILES IDX 9 1 10 2 12 3 13 4 11 5 14 6 15 7 16 8 8 10 7 11 6 12 17 13
REMARK SMILES IDX 4 14 2 15 3 16 5 17 1 19
REMARK H PARENT 16 9 5 18 1 20
REMARK Flexibility Score: inf
ROOT
ATOM      1  C   UNL     1     -11.668  -0.835  -9.194  1.00  0.00     0.044 C 
ENDROOT
BRANCH   1   2
ATOM      2  C   UNL     1     -12.034  -0.615 -10.640  1.00  0.00    -0.006 A 
ATOM      3  C   UNL     1     -12.511   0.918 -12.468  1.00  0.00     0.001 A 
ATOM      4  C   UNL     1     -12.645  -0.162 -13.344  1.00  0.00     0.004 A 
ATOM      5  C   UNL     1     -12.202   0.695 -11.123  1.00  0.00     0.007 A 
ATOM      6  C   UNL     1     -12.464  -1.466 -12.879  1.00  0.00     0.046 A 
ATOM      7  C   UNL     1     -12.153  -1.701 -11.531  1.00  0.00     0.118 A 
BRANCH   7   8
ATOM      8  O   UNL     1     -11.961  -3.005 -11.077  1.00  0.00    -0.508 OA
ATOM      9  H   UNL     1     -11.146  -3.265 -10.533  1.00  0.00     0.293 HD
ENDBRANCH   7   8
ENDBRANCH   1   2
BRANCH   1  10
ATOM     10  C   UNL     1     -11.441   0.504  -8.485  1.00  0.00     0.040 C 
BRANCH  10  11
ATOM     11  C   UNL     1     -10.224   0.435  -7.602  1.00  0.00    -0.040 A 
ATOM     12  C   UNL     1      -9.599   1.613  -7.163  1.00  0.00     0.050 A 
ATOM     13  C   UNL     1      -9.739  -0.808  -7.163  1.00  0.00     0.050 A 
ATOM     14  C   UNL     1      -8.488   1.551  -6.315  1.00  0.00     0.119 A 
ATOM     15  C   UNL     1      -8.626  -0.873  -6.313  1.00  0.00     0.119 A 
ATOM     16  C   UNL     1      -8.001   0.305  -5.894  1.00  0.00     0.092 A 
BRANCH  14  17
ATOM     17  O   UNL     1      -7.877   2.731  -5.896  1.00  0.00    -0.508 OA
ATOM     18  H   UNL     1      -7.765   2.948  -4.913  1.00  0.00     0.293 HD
ENDBRANCH  14  17
BRANCH  15  19
ATOM     19  O   UNL     1      -8.135  -2.102  -5.879  1.00  0.00    -0.508 OA
ATOM     20  H   UNL     1      -7.838  -2.245  -4.920  1.00  0.00     0.293 HD
ENDBRANCH  15  19
ENDBRANCH  10  11
ENDBRANCH   1  10
TORSDOF 6
ENDMDL
MODEL 7
REMARK VINA RESULT:    11.911      1.893      6.498
REMARK INTER + INTRA:          14.799
REMARK INTER:                  15.235
REMARK INTRA:                  -0.436
REMARK UNBOUND:                -0.246
REMARK SMILES Oc1cc(O)cc(CCc2ccccc2O)c1
REMARK SMILES IDX 9 1 10 2 12 3 13 4 11 5 14 6 15 7 16 8 8 10 7 11 6 12 17 13
REMARK SMILES IDX 4 14 2 15 3 16 5 17 1 19
REMARK H PARENT 16 9 5 18 1 20
REMARK Flexibility Score: inf
ROOT
ATOM      1  C   UNL     1     -12.326  -0.480 -10.420  1.00  0.00     0.044 C 
ENDROOT
BRANCH   1   2
ATOM      2  C   UNL     1     -12.119  -1.635 -11.367  1.00  0.00    -0.006 A 
ATOM      3  C   UNL     1     -11.461  -2.448 -13.563  1.00  0.00     0.001 A 
ATOM      4  C   UNL     1     -11.652  -3.765 -13.137  1.00  0.00     0.004 A 
ATOM      5  C   UNL     1     -11.688  -1.387 -12.682  1.00  0.00     0.007 A 
ATOM      6  C   UNL     1     -12.064  -4.024 -11.829  1.00  0.00     0.046 A 
ATOM      7  C   UNL     1     -12.293  -2.966 -10.936  1.00  0.00     0.118 A 
BRANCH   7   8
ATOM      8  O   UNL     1     -12.692  -3.233  -9.626  1.00  0.00    -0.508 OA
ATOM      9  H   UNL     1     -13.094  -4.127  -9.365  1.00  0.00     0.293 HD
ENDBRANCH   7   8
ENDBRANCH   1   2
BRANCH   1  10
ATOM     10  C   UNL     1     -10.990   0.190 -10.086  1.00  0.00     0.040 C 
BRANCH  10  11
ATOM     11  C   UNL     1     -10.919   0.525  -8.620  1.00  0.00    -0.040 A 
ATOM     12  C   UNL     1      -9.687   0.499  -7.946  1.00  0.00     0.050 A 
ATOM     13  C   UNL     1     -12.075   0.923  -7.929  1.00  0.00     0.050 A 
ATOM     14  C   UNL     1      -9.614   0.842  -6.591  1.00  0.00     0.119 A 
ATOM     15  C   UNL     1     -12.005   1.267  -6.571  1.00  0.00     0.119 A 
ATOM     16  C   UNL     1     -10.776   1.223  -5.905  1.00  0.00     0.092 A 
BRANCH  14  17
ATOM     17  O   UNL     1      -8.385   0.803  -5.939  1.00  0.00    -0.508 OA
ATOM     18  H   UNL     1      -8.285   1.110  -4.978  1.00  0.00     0.293 HD
ENDBRANCH  14  17
BRANCH  15  19
ATOM     19  O   UNL     1     -13.148   1.656  -5.877  1.00  0.00    -0.508 OA
ATOM     20  H   UNL     1     -13.555   2.577  -6.000  1.00  0.00     0.293 HD
ENDBRANCH  15  19
ENDBRANCH  10  11
ENDBRANCH   1  10
TORSDOF 6
ENDMDL
MODEL 8
REMARK VINA RESULT:    12.072      1.918      6.598
REMARK INTER + INTRA:          15.002
REMARK INTER:                  15.436
REMARK INTRA:                  -0.433
REMARK UNBOUND:                -0.246
REMARK SMILES Oc1cc(O)cc(CCc2ccccc2O)c1
REMARK SMILES IDX 9 1 10 2 12 3 13 4 11 5 14 6 15 7 16 8 8 10 7 11 6 12 17 13
REMARK SMILES IDX 4 14 2 15 3 16 5 17 1 19
REMARK H PARENT 16 9 5 18 1 20
REMARK Flexibility Score: inf
ROOT
ATOM      1  C   UNL     1     -12.332  -0.538 -10.373  1.00  0.00     0.044 C 
ENDROOT
BRANCH   1   2
ATOM      2  C   UNL     1     -12.118  -1.676 -11.337  1.00  0.00    -0.006 A 
ATOM      3  C   UNL     1     -11.429  -2.454 -13.537  1.00  0.00     0.001 A 
ATOM      4  C   UNL     1     -11.638  -3.776 -13.139  1.00  0.00     0.004 A 
ATOM      5  C   UNL     1     -11.663  -1.408 -12.640  1.00  0.00     0.007 A 
ATOM      6  C   UNL     1     -12.074  -4.057 -11.842  1.00  0.00     0.046 A 
ATOM      7  C   UNL     1     -12.310  -3.013 -10.934  1.00  0.00     0.118 A 
BRANCH   7   8
ATOM      8  O   UNL     1     -12.732  -3.302  -9.637  1.00  0.00    -0.508 OA
ATOM      9  H   UNL     1     -12.177  -3.048  -8.828  1.00  0.00     0.293 HD
ENDBRANCH   7   8
ENDBRANCH   1   2
BRANCH   1  10
ATOM     10  C   UNL     1     -11.009   0.173 -10.074  1.00  0.00     0.040 C 
BRANCH  10  11
ATOM     11  C   UNL     1     -10.924   0.541  -8.617  1.00  0.00    -0.040 A 
ATOM     12  C   UNL     1     -12.077   0.927  -7.914  1.00  0.00     0.050 A 
ATOM     13  C   UNL     1      -9.700   0.443  -7.933  1.00  0.00     0.050 A 
ATOM     14  C   UNL     1     -12.005   1.237  -6.552  1.00  0.00     0.119 A 
ATOM     15  C   UNL     1      -9.625   0.754  -6.568  1.00  0.00     0.119 A 
ATOM     16  C   UNL     1     -10.777   1.153  -5.882  1.00  0.00     0.092 A 
BRANCH  14  17
ATOM     17  O   UNL     1     -13.158   1.626  -5.875  1.00  0.00    -0.508 OA
ATOM     18  H   UNL     1     -13.876   0.955  -5.624  1.00  0.00     0.293 HD
ENDBRANCH  14  17
BRANCH  15  19
ATOM     19  O   UNL     1      -8.415   0.667  -5.885  1.00  0.00    -0.508 OA
ATOM     20  H   UNL     1      -7.886  -0.198  -5.854  1.00  0.00     0.293 HD
ENDBRANCH  15  19
ENDBRANCH  10  11
ENDBRANCH   1  10
TORSDOF 6
ENDMDL
