MODEL 1
REMARK VINA RESULT:    -5.174      0.000      0.000
REMARK INTER + INTRA:         -16.649
REMARK INTER:                 -13.643
REMARK INTRA:                  -3.007
REMARK UNBOUND:                -3.007
REMARK SMILES CCCCCCCCCCCCCCCCCCCCCCCCCCCCCC(=O)[O-]
REMARK SMILES IDX 16 1 17 2 18 3 19 4 20 5 21 6 22 7 23 8 24 9 25 10 26 11
REMARK SMILES IDX 27 12 28 13 29 14 30 15 31 16 32 17 15 18 14 19 13 20 12 21
REMARK SMILES IDX 11 22 10 23 9 24 8 25 7 26 6 27 5 28 4 29 3 30 2 31 1 32
REMARK H PARENT
REMARK Flexibility Score: inf
ROOT
ATOM      1  C   UNL     1      63.605  33.489  21.937  1.00  0.00     0.000 C 
ENDROOT
BRANCH   1   2
ATOM      2  C   UNL     1      64.189  34.281  20.756  1.00  0.00     0.000 C 
BRANCH   2   3
ATOM      3  C   UNL     1      63.538  33.846  19.437  1.00  0.00     0.000 C 
BRANCH   3   4
ATOM      4  C   UNL     1      62.006  33.847  19.542  1.00  0.00     0.000 C 
BRANCH   4   5
ATOM      5  C   UNL     1      61.327  34.340  18.253  1.00  0.00     0.000 C 
BRANCH   5   6
ATOM      6  C   UNL     1      62.028  33.827  16.982  1.00  0.00     0.000 C 
BRANCH   6   7
ATOM      7  C   UNL     1      61.047  33.574  15.827  1.00  0.00     0.000 C 
BRANCH   7   8
ATOM      8  C   UNL     1      61.754  33.097  14.544  1.00  0.00     0.000 C 
BRANCH   8   9
ATOM      9  C   UNL     1      60.758  32.719  13.428  1.00  0.00     0.000 C 
BRANCH   9  10
ATOM     10  C   UNL     1      60.024  31.391  13.676  1.00  0.00     0.000 C 
BRANCH  10  11
ATOM     11  C   UNL     1      59.941  30.506  12.422  1.00  0.00     0.000 C 
BRANCH  11  12
ATOM     12  C   UNL     1      60.085  29.008  12.761  1.00  0.00     0.000 C 
BRANCH  12  13
ATOM     13  C   UNL     1      61.461  28.629  13.342  1.00  0.00     0.006 C 
BRANCH  13  14
ATOM     14  C   UNL     1      62.648  28.947  12.413  1.00  0.00     0.053 C 
BRANCH  14  15
ATOM     15  C   UNL     1      63.542  30.023  12.955  1.00  0.00     0.041 C 
ATOM     16  O   UNL     1      64.163  29.844  14.037  1.00  0.00    -0.550 OA
ATOM     17  O   UNL     1      63.757  31.190  12.231  1.00  0.00    -0.550 OA
ENDBRANCH  14  15
ENDBRANCH  13  14
ENDBRANCH  12  13
ENDBRANCH  11  12
ENDBRANCH  10  11
ENDBRANCH   9  10
ENDBRANCH   8   9
ENDBRANCH   7   8
ENDBRANCH   6   7
ENDBRANCH   5   6
ENDBRANCH   4   5
ENDBRANCH   3   4
ENDBRANCH   2   3
ENDBRANCH   1   2
BRANCH   1  18
ATOM     18  C   UNL     1      64.676  32.720  22.726  1.00  0.00     0.000 C 
BRANCH  18  19
ATOM     19  C   UNL     1      64.082  31.875  23.868  1.00  0.00     0.000 C 
BRANCH  19  20
ATOM     20  C   UNL     1      64.610  30.430  23.869  1.00  0.00     0.000 C 
BRANCH  20  21
ATOM     21  C   UNL     1      65.645  30.174  24.978  1.00  0.00     0.000 C 
BRANCH  21  22
ATOM     22  C   UNL     1      65.018  29.498  26.215  1.00  0.00     0.000 C 
BRANCH  22  23
ATOM     23  C   UNL     1      64.563  30.488  27.301  1.00  0.00     0.000 C 
BRANCH  23  24
ATOM     24  C   UNL     1      63.050  30.429  27.568  1.00  0.00    -0.000 C 
BRANCH  24  25
ATOM     25  C   UNL     1      62.605  29.068  28.127  1.00  0.00    -0.000 C 
BRANCH  25  26
ATOM     26  C   UNL     1      61.233  28.630  27.598  1.00  0.00    -0.000 C 
BRANCH  26  27
ATOM     27  C   UNL     1      61.382  27.510  26.558  1.00  0.00    -0.000 C 
BRANCH  27  28
ATOM     28  C   UNL     1      61.557  28.088  25.146  1.00  0.00    -0.000 C 
BRANCH  28  29
ATOM     29  C   UNL     1      62.689  27.406  24.358  1.00  0.00    -0.000 C 
BRANCH  29  30
ATOM     30  C   UNL     1      63.530  26.396  25.165  1.00  0.00    -0.000 C 
BRANCH  30  31
ATOM     31  C   UNL     1      64.924  26.103  24.587  1.00  0.00    -0.003 C 
ATOM     32  C   UNL     1      65.187  26.824  23.266  1.00  0.00     0.004 C 
ENDBRANCH  30  31
ENDBRANCH  29  30
ENDBRANCH  28  29
ENDBRANCH  27  28
ENDBRANCH  26  27
ENDBRANCH  25  26
ENDBRANCH  24  25
ENDBRANCH  23  24
ENDBRANCH  22  23
ENDBRANCH  21  22
ENDBRANCH  20  21
ENDBRANCH  19  20
ENDBRANCH  18  19
ENDBRANCH   1  18
TORSDOF 28
ENDMDL
MODEL 2
REMARK VINA RESULT:    -5.145      0.940      2.782
REMARK INTER + INTRA:         -16.572
REMARK INTER:                 -13.364
REMARK INTRA:                  -3.208
REMARK UNBOUND:                -3.007
REMARK SMILES CCCCCCCCCCCCCCCCCCCCCCCCCCCCCC(=O)[O-]
REMARK SMILES IDX 16 1 17 2 18 3 19 4 20 5 21 6 22 7 23 8 24 9 25 10 26 11
REMARK SMILES IDX 27 12 28 13 29 14 30 15 31 16 32 17 15 18 14 19 13 20 12 21
REMARK SMILES IDX 11 22 10 23 9 24 8 25 7 26 6 27 5 28 4 29 3 30 2 31 1 32
REMARK H PARENT
REMARK Flexibility Score: inf
ROOT
ATOM      1  C   UNL     1      64.539  30.540  23.896  1.00  0.00     0.000 C 
ENDROOT
BRANCH   1   2
ATOM      2  C   UNL     1      64.114  32.014  23.795  1.00  0.00     0.000 C 
BRANCH   2   3
ATOM      3  C   UNL     1      64.798  32.695  22.603  1.00  0.00     0.000 C 
BRANCH   3   4
ATOM      4  C   UNL     1      63.829  33.628  21.861  1.00  0.00     0.000 C 
BRANCH   4   5
ATOM      5  C   UNL     1      64.440  34.209  20.575  1.00  0.00     0.000 C 
BRANCH   5   6
ATOM      6  C   UNL     1      63.630  33.842  19.318  1.00  0.00     0.000 C 
BRANCH   6   7
ATOM      7  C   UNL     1      62.115  33.852  19.567  1.00  0.00     0.000 C 
BRANCH   7   8
ATOM      8  C   UNL     1      61.308  34.173  18.295  1.00  0.00     0.000 C 
BRANCH   8   9
ATOM      9  C   UNL     1      62.052  33.766  17.006  1.00  0.00     0.000 C 
BRANCH   9  10
ATOM     10  C   UNL     1      61.140  33.659  15.772  1.00  0.00     0.000 C 
BRANCH  10  11
ATOM     11  C   UNL     1      61.823  32.970  14.579  1.00  0.00     0.000 C 
BRANCH  11  12
ATOM     12  C   UNL     1      60.823  32.648  13.448  1.00  0.00     0.000 C 
BRANCH  12  13
ATOM     13  C   UNL     1      60.020  31.353  13.677  1.00  0.00     0.006 C 
BRANCH  13  14
ATOM     14  C   UNL     1      60.864  30.166  14.177  1.00  0.00     0.053 C 
BRANCH  14  15
ATOM     15  C   UNL     1      61.857  29.684  13.160  1.00  0.00     0.041 C 
ATOM     16  O   UNL     1      63.062  29.509  13.487  1.00  0.00    -0.550 OA
ATOM     17  O   UNL     1      61.443  29.351  11.876  1.00  0.00    -0.550 OA
ENDBRANCH  14  15
ENDBRANCH  13  14
ENDBRANCH  12  13
ENDBRANCH  11  12
ENDBRANCH  10  11
ENDBRANCH   9  10
ENDBRANCH   8   9
ENDBRANCH   7   8
ENDBRANCH   6   7
ENDBRANCH   5   6
ENDBRANCH   4   5
ENDBRANCH   3   4
ENDBRANCH   2   3
ENDBRANCH   1   2
BRANCH   1  18
ATOM     18  C   UNL     1      66.060  30.364  24.026  1.00  0.00     0.000 C 
BRANCH  18  19
ATOM     19  C   UNL     1      66.463  29.567  25.280  1.00  0.00     0.000 C 
BRANCH  19  20
ATOM     20  C   UNL     1      65.280  29.329  26.233  1.00  0.00     0.000 C 
BRANCH  20  21
ATOM     21  C   UNL     1      65.425  30.090  27.563  1.00  0.00     0.000 C 
BRANCH  21  22
ATOM     22  C   UNL     1      64.123  30.816  27.964  1.00  0.00     0.000 C 
BRANCH  22  23
ATOM     23  C   UNL     1      62.868  30.274  27.259  1.00  0.00     0.000 C 
BRANCH  23  24
ATOM     24  C   UNL     1      61.916  29.537  28.216  1.00  0.00    -0.000 C 
BRANCH  24  25
ATOM     25  C   UNL     1      61.710  28.066  27.822  1.00  0.00    -0.000 C 
BRANCH  25  26
ATOM     26  C   UNL     1      60.961  27.908  26.492  1.00  0.00    -0.000 C 
BRANCH  26  27
ATOM     27  C   UNL     1      61.800  27.112  25.483  1.00  0.00    -0.000 C 
BRANCH  27  28
ATOM     28  C   UNL     1      62.260  28.005  24.322  1.00  0.00    -0.000 C 
BRANCH  28  29
ATOM     29  C   UNL     1      63.252  27.297  23.381  1.00  0.00    -0.000 C 
BRANCH  29  30
ATOM     30  C   UNL     1      63.899  26.021  23.955  1.00  0.00    -0.000 C 
BRANCH  30  31
ATOM     31  C   UNL     1      65.387  25.838  23.615  1.00  0.00    -0.003 C 
ATOM     32  C   UNL     1      65.909  26.888  22.635  1.00  0.00     0.004 C 
ENDBRANCH  30  31
ENDBRANCH  29  30
ENDBRANCH  28  29
ENDBRANCH  27  28
ENDBRANCH  26  27
ENDBRANCH  25  26
ENDBRANCH  24  25
ENDBRANCH  23  24
ENDBRANCH  22  23
ENDBRANCH  21  22
ENDBRANCH  20  21
ENDBRANCH  19  20
ENDBRANCH  18  19
ENDBRANCH   1  18
TORSDOF 28
ENDMDL
MODEL 3
REMARK VINA RESULT:    -5.060      3.357     11.798
REMARK INTER + INTRA:         -16.349
REMARK INTER:                 -13.126
REMARK INTRA:                  -3.223
REMARK UNBOUND:                -3.007
REMARK SMILES CCCCCCCCCCCCCCCCCCCCCCCCCCCCCC(=O)[O-]
REMARK SMILES IDX 16 1 17 2 18 3 19 4 20 5 21 6 22 7 23 8 24 9 25 10 26 11
REMARK SMILES IDX 27 12 28 13 29 14 30 15 31 16 32 17 15 18 14 19 13 20 12 21
REMARK SMILES IDX 11 22 10 23 9 24 8 25 7 26 6 27 5 28 4 29 3 30 2 31 1 32
REMARK H PARENT
REMARK Flexibility Score: inf
ROOT
ATOM      1  C   UNL     1      61.531  33.583  18.103  1.00  0.00     0.000 C 
ENDROOT
BRANCH   1   2
ATOM      2  C   UNL     1      62.020  33.841  19.537  1.00  0.00     0.000 C 
BRANCH   2   3
ATOM      3  C   UNL     1      63.551  33.820  19.601  1.00  0.00     0.000 C 
BRANCH   3   4
ATOM      4  C   UNL     1      64.058  34.182  21.005  1.00  0.00     0.000 C 
BRANCH   4   5
ATOM      5  C   UNL     1      65.481  33.664  21.270  1.00  0.00     0.000 C 
BRANCH   5   6
ATOM      6  C   UNL     1      65.524  32.591  22.373  1.00  0.00     0.000 C 
BRANCH   6   7
ATOM      7  C   UNL     1      64.238  32.554  23.212  1.00  0.00     0.000 C 
BRANCH   7   8
ATOM      8  C   UNL     1      64.005  31.185  23.879  1.00  0.00     0.000 C 
BRANCH   8   9
ATOM      9  C   UNL     1      65.298  30.346  23.970  1.00  0.00     0.000 C 
BRANCH   9  10
ATOM     10  C   UNL     1      65.070  28.836  23.792  1.00  0.00     0.000 C 
BRANCH  10  11
ATOM     11  C   UNL     1      65.515  28.012  25.011  1.00  0.00     0.000 C 
BRANCH  11  12
ATOM     12  C   UNL     1      64.839  26.626  25.049  1.00  0.00     0.000 C 
BRANCH  12  13
ATOM     13  C   UNL     1      63.317  26.680  25.280  1.00  0.00     0.006 C 
BRANCH  13  14
ATOM     14  C   UNL     1      62.899  27.419  26.564  1.00  0.00     0.053 C 
BRANCH  14  15
ATOM     15  C   UNL     1      62.106  28.664  26.291  1.00  0.00     0.041 C 
ATOM     16  O   UNL     1      61.920  29.509  27.208  1.00  0.00    -0.550 OA
ATOM     17  O   UNL     1      61.641  28.934  25.010  1.00  0.00    -0.550 OA
ENDBRANCH  14  15
ENDBRANCH  13  14
ENDBRANCH  12  13
ENDBRANCH  11  12
ENDBRANCH  10  11
ENDBRANCH   9  10
ENDBRANCH   8   9
ENDBRANCH   7   8
ENDBRANCH   6   7
ENDBRANCH   5   6
ENDBRANCH   4   5
ENDBRANCH   3   4
ENDBRANCH   2   3
ENDBRANCH   1   2
BRANCH   1  18
ATOM     18  C   UNL     1      62.409  34.263  17.041  1.00  0.00     0.000 C 
BRANCH  18  19
ATOM     19  C   UNL     1      62.424  33.502  15.703  1.00  0.00     0.000 C 
BRANCH  19  20
ATOM     20  C   UNL     1      61.132  32.702  15.465  1.00  0.00     0.000 C 
BRANCH  20  21
ATOM     21  C   UNL     1      60.387  33.139  14.192  1.00  0.00     0.000 C 
BRANCH  21  22
ATOM     22  C   UNL     1      60.352  32.024  13.126  1.00  0.00     0.000 C 
BRANCH  22  23
ATOM     23  C   UNL     1      60.212  30.608  13.711  1.00  0.00     0.000 C 
BRANCH  23  24
ATOM     24  C   UNL     1      60.055  29.526  12.629  1.00  0.00    -0.000 C 
BRANCH  24  25
ATOM     25  C   UNL     1      60.034  30.115  11.209  1.00  0.00    -0.000 C 
BRANCH  25  26
ATOM     26  C   UNL     1      61.193  29.606  10.340  1.00  0.00    -0.000 C 
BRANCH  26  27
ATOM     27  C   UNL     1      62.193  28.802  11.181  1.00  0.00    -0.000 C 
BRANCH  27  28
ATOM     28  C   UNL     1      63.467  29.617  11.450  1.00  0.00    -0.000 C 
BRANCH  28  29
ATOM     29  C   UNL     1      63.801  29.725  12.949  1.00  0.00    -0.000 C 
BRANCH  29  30
ATOM     30  C   UNL     1      63.955  31.165  13.481  1.00  0.00    -0.000 C 
BRANCH  30  31
ATOM     31  C   UNL     1      63.758  32.270  12.431  1.00  0.00    -0.003 C 
ATOM     32  C   UNL     1      64.996  33.147  12.247  1.00  0.00     0.004 C 
ENDBRANCH  30  31
ENDBRANCH  29  30
ENDBRANCH  28  29
ENDBRANCH  27  28
ENDBRANCH  26  27
ENDBRANCH  25  26
ENDBRANCH  24  25
ENDBRANCH  23  24
ENDBRANCH  22  23
ENDBRANCH  21  22
ENDBRANCH  20  21
ENDBRANCH  19  20
ENDBRANCH  18  19
ENDBRANCH   1  18
TORSDOF 28
ENDMDL
MODEL 4
REMARK VINA RESULT:    -5.012      1.433      1.974
REMARK INTER + INTRA:         -16.223
REMARK INTER:                 -13.021
REMARK INTRA:                  -3.202
REMARK UNBOUND:                -3.007
REMARK SMILES CCCCCCCCCCCCCCCCCCCCCCCCCCCCCC(=O)[O-]
REMARK SMILES IDX 16 1 17 2 18 3 19 4 20 5 21 6 22 7 23 8 24 9 25 10 26 11
REMARK SMILES IDX 27 12 28 13 29 14 30 15 31 16 32 17 15 18 14 19 13 20 12 21
REMARK SMILES IDX 11 22 10 23 9 24 8 25 7 26 6 27 5 28 4 29 3 30 2 31 1 32
REMARK H PARENT
REMARK Flexibility Score: inf
ROOT
ATOM      1  C   UNL     1      65.116  32.722  22.429  1.00  0.00     0.000 C 
ENDROOT
BRANCH   1   2
ATOM      2  C   UNL     1      64.084  33.598  21.701  1.00  0.00     0.000 C 
BRANCH   2   3
ATOM      3  C   UNL     1      64.734  34.343  20.530  1.00  0.00     0.000 C 
BRANCH   3   4
ATOM      4  C   UNL     1      64.164  33.874  19.183  1.00  0.00     0.000 C 
BRANCH   4   5
ATOM      5  C   UNL     1      62.640  33.669  19.227  1.00  0.00     0.000 C 
BRANCH   5   6
ATOM      6  C   UNL     1      61.926  34.273  18.004  1.00  0.00     0.000 C 
BRANCH   6   7
ATOM      7  C   UNL     1      61.516  33.210  16.974  1.00  0.00     0.000 C 
BRANCH   7   8
ATOM      8  C   UNL     1      61.177  33.817  15.600  1.00  0.00     0.000 C 
BRANCH   8   9
ATOM      9  C   UNL     1      60.041  33.057  14.883  1.00  0.00     0.000 C 
BRANCH   9  10
ATOM     10  C   UNL     1      60.527  31.866  14.040  1.00  0.00     0.000 C 
BRANCH  10  11
ATOM     11  C   UNL     1      61.913  32.098  13.417  1.00  0.00     0.000 C 
BRANCH  11  12
ATOM     12  C   UNL     1      62.856  30.897  13.642  1.00  0.00     0.000 C 
BRANCH  12  13
ATOM     13  C   UNL     1      62.128  29.601  14.046  1.00  0.00     0.006 C 
BRANCH  13  14
ATOM     14  C   UNL     1      61.920  28.606  12.889  1.00  0.00     0.053 C 
BRANCH  14  15
ATOM     15  C   UNL     1      60.488  28.511  12.449  1.00  0.00     0.041 C 
ATOM     16  O   UNL     1      59.650  27.890  13.157  1.00  0.00    -0.550 OA
ATOM     17  O   UNL     1      60.059  29.172  11.306  1.00  0.00    -0.550 OA
ENDBRANCH  14  15
ENDBRANCH  13  14
ENDBRANCH  12  13
ENDBRANCH  11  12
ENDBRANCH  10  11
ENDBRANCH   9  10
ENDBRANCH   8   9
ENDBRANCH   7   8
ENDBRANCH   6   7
ENDBRANCH   5   6
ENDBRANCH   4   5
ENDBRANCH   3   4
ENDBRANCH   2   3
ENDBRANCH   1   2
BRANCH   1  18
ATOM     18  C   UNL     1      64.491  31.853  23.531  1.00  0.00     0.000 C 
BRANCH  18  19
ATOM     19  C   UNL     1      65.122  30.451  23.615  1.00  0.00     0.000 C 
BRANCH  19  20
ATOM     20  C   UNL     1      66.009  30.278  24.859  1.00  0.00     0.000 C 
BRANCH  20  21
ATOM     21  C   UNL     1      65.482  29.200  25.821  1.00  0.00     0.000 C 
BRANCH  21  22
ATOM     22  C   UNL     1      65.490  29.675  27.290  1.00  0.00     0.000 C 
BRANCH  22  23
ATOM     23  C   UNL     1      64.455  30.772  27.592  1.00  0.00     0.000 C 
BRANCH  23  24
ATOM     24  C   UNL     1      63.101  30.523  26.907  1.00  0.00    -0.000 C 
BRANCH  24  25
ATOM     25  C   UNL     1      62.312  29.380  27.564  1.00  0.00    -0.000 C 
BRANCH  25  26
ATOM     26  C   UNL     1      61.895  28.295  26.562  1.00  0.00    -0.000 C 
BRANCH  26  27
ATOM     27  C   UNL     1      61.817  28.867  25.140  1.00  0.00    -0.000 C 
BRANCH  27  28
ATOM     28  C   UNL     1      62.467  27.914  24.125  1.00  0.00    -0.000 C 
BRANCH  28  29
ATOM     29  C   UNL     1      62.811  26.541  24.731  1.00  0.00    -0.000 C 
BRANCH  29  30
ATOM     30  C   UNL     1      63.790  25.688  23.899  1.00  0.00    -0.000 C 
BRANCH  30  31
ATOM     31  C   UNL     1      65.264  26.114  23.993  1.00  0.00    -0.003 C 
ATOM     32  C   UNL     1      65.775  26.782  22.717  1.00  0.00     0.004 C 
ENDBRANCH  30  31
ENDBRANCH  29  30
ENDBRANCH  28  29
ENDBRANCH  27  28
ENDBRANCH  26  27
ENDBRANCH  25  26
ENDBRANCH  24  25
ENDBRANCH  23  24
ENDBRANCH  22  23
ENDBRANCH  21  22
ENDBRANCH  20  21
ENDBRANCH  19  20
ENDBRANCH  18  19
ENDBRANCH   1  18
TORSDOF 28
ENDMDL
MODEL 5
REMARK VINA RESULT:    -4.995      1.529      3.002
REMARK INTER + INTRA:         -16.178
REMARK INTER:                 -13.278
REMARK INTRA:                  -2.900
REMARK UNBOUND:                -3.007
REMARK SMILES CCCCCCCCCCCCCCCCCCCCCCCCCCCCCC(=O)[O-]
REMARK SMILES IDX 16 1 17 2 18 3 19 4 20 5 21 6 22 7 23 8 24 9 25 10 26 11
REMARK SMILES IDX 27 12 28 13 29 14 30 15 31 16 32 17 15 18 14 19 13 20 12 21
REMARK SMILES IDX 11 22 10 23 9 24 8 25 7 26 6 27 5 28 4 29 3 30 2 31 1 32
REMARK H PARENT
REMARK Flexibility Score: inf
ROOT
ATOM      1  C   UNL     1      64.809  32.951  22.372  1.00  0.00     0.000 C 
ENDROOT
BRANCH   1   2
ATOM      2  C   UNL     1      64.054  33.887  21.415  1.00  0.00     0.000 C 
BRANCH   2   3
ATOM      3  C   UNL     1      64.798  34.015  20.081  1.00  0.00     0.000 C 
BRANCH   3   4
ATOM      4  C   UNL     1      63.822  34.031  18.895  1.00  0.00     0.000 C 
BRANCH   4   5
ATOM      5  C   UNL     1      62.399  33.611  19.298  1.00  0.00     0.000 C 
BRANCH   5   6
ATOM      6  C   UNL     1      61.526  33.241  18.085  1.00  0.00     0.000 C 
BRANCH   6   7
ATOM      7  C   UNL     1      61.701  34.218  16.911  1.00  0.00     0.000 C 
BRANCH   7   8
ATOM      8  C   UNL     1      61.852  33.496  15.559  1.00  0.00     0.000 C 
BRANCH   8   9
ATOM      9  C   UNL     1      60.506  33.341  14.820  1.00  0.00     0.000 C 
BRANCH   9  10
ATOM     10  C   UNL     1      60.203  31.898  14.381  1.00  0.00     0.000 C 
BRANCH  10  11
ATOM     11  C   UNL     1      61.455  31.008  14.335  1.00  0.00     0.000 C 
BRANCH  11  12
ATOM     12  C   UNL     1      61.097  29.514  14.191  1.00  0.00     0.000 C 
BRANCH  12  13
ATOM     13  C   UNL     1      61.971  28.759  13.172  1.00  0.00     0.006 C 
BRANCH  13  14
ATOM     14  C   UNL     1      61.187  28.163  11.987  1.00  0.00     0.053 C 
BRANCH  14  15
ATOM     15  C   UNL     1      61.679  28.652  10.656  1.00  0.00     0.041 C 
ATOM     16  O   UNL     1      61.177  28.198   9.592  1.00  0.00    -0.550 OA
ATOM     17  O   UNL     1      62.629  29.663  10.585  1.00  0.00    -0.550 OA
ENDBRANCH  14  15
ENDBRANCH  13  14
ENDBRANCH  12  13
ENDBRANCH  11  12
ENDBRANCH  10  11
ENDBRANCH   9  10
ENDBRANCH   8   9
ENDBRANCH   7   8
ENDBRANCH   6   7
ENDBRANCH   5   6
ENDBRANCH   4   5
ENDBRANCH   3   4
ENDBRANCH   2   3
ENDBRANCH   1   2
BRANCH   1  18
ATOM     18  C   UNL     1      66.293  32.794  22.006  1.00  0.00     0.000 C 
BRANCH  18  19
ATOM     19  C   UNL     1      66.981  31.654  22.779  1.00  0.00     0.000 C 
BRANCH  19  20
ATOM     20  C   UNL     1      65.994  30.846  23.639  1.00  0.00     0.000 C 
BRANCH  20  21
ATOM     21  C   UNL     1      65.680  29.462  23.044  1.00  0.00     0.000 C 
BRANCH  21  22
ATOM     22  C   UNL     1      66.006  28.318  24.028  1.00  0.00     0.000 C 
BRANCH  22  23
ATOM     23  C   UNL     1      65.167  27.048  23.803  1.00  0.00     0.000 C 
BRANCH  23  24
ATOM     24  C   UNL     1      64.833  26.312  25.112  1.00  0.00    -0.000 C 
BRANCH  24  25
ATOM     25  C   UNL     1      63.488  26.758  25.708  1.00  0.00    -0.000 C 
BRANCH  25  26
ATOM     26  C   UNL     1      62.467  27.158  24.634  1.00  0.00    -0.000 C 
BRANCH  26  27
ATOM     27  C   UNL     1      61.688  28.409  25.061  1.00  0.00    -0.000 C 
BRANCH  27  28
ATOM     28  C   UNL     1      62.465  29.688  24.717  1.00  0.00    -0.000 C 
BRANCH  28  29
ATOM     29  C   UNL     1      63.130  30.332  25.947  1.00  0.00    -0.000 C 
BRANCH  29  30
ATOM     30  C   UNL     1      62.407  30.081  27.286  1.00  0.00    -0.000 C 
BRANCH  30  31
ATOM     31  C   UNL     1      63.253  29.377  28.359  1.00  0.00    -0.003 C 
ATOM     32  C   UNL     1      62.545  28.175  28.984  1.00  0.00     0.004 C 
ENDBRANCH  30  31
ENDBRANCH  29  30
ENDBRANCH  28  29
ENDBRANCH  27  28
ENDBRANCH  26  27
ENDBRANCH  25  26
ENDBRANCH  24  25
ENDBRANCH  23  24
ENDBRANCH  22  23
ENDBRANCH  21  22
ENDBRANCH  20  21
ENDBRANCH  19  20
ENDBRANCH  18  19
ENDBRANCH   1  18
TORSDOF 28
ENDMDL
MODEL 6
REMARK VINA RESULT:    -4.931      3.104     11.428
REMARK INTER + INTRA:         -16.009
REMARK INTER:                 -13.314
REMARK INTRA:                  -2.694
REMARK UNBOUND:                -3.007
REMARK SMILES CCCCCCCCCCCCCCCCCCCCCCCCCCCCCC(=O)[O-]
REMARK SMILES IDX 16 1 17 2 18 3 19 4 20 5 21 6 22 7 23 8 24 9 25 10 26 11
REMARK SMILES IDX 27 12 28 13 29 14 30 15 31 16 32 17 15 18 14 19 13 20 12 21
REMARK SMILES IDX 11 22 10 23 9 24 8 25 7 26 6 27 5 28 4 29 3 30 2 31 1 32
REMARK H PARENT
REMARK Flexibility Score: inf
ROOT
ATOM      1  C   UNL     1      64.171  31.478  23.887  1.00  0.00     0.000 C 
ENDROOT
BRANCH   1   2
ATOM      2  C   UNL     1      64.831  30.089  23.891  1.00  0.00     0.000 C 
BRANCH   2   3
ATOM      3  C   UNL     1      66.059  30.075  24.808  1.00  0.00     0.000 C 
BRANCH   3   4
ATOM      4  C   UNL     1      65.748  29.398  26.151  1.00  0.00     0.000 C 
BRANCH   4   5
ATOM      5  C   UNL     1      66.362  30.147  27.345  1.00  0.00     0.000 C 
BRANCH   5   6
ATOM      6  C   UNL     1      65.436  30.159  28.575  1.00  0.00     0.000 C 
BRANCH   6   7
ATOM      7  C   UNL     1      64.392  31.285  28.517  1.00  0.00     0.000 C 
BRANCH   7   8
ATOM      8  C   UNL     1      62.993  30.818  28.961  1.00  0.00     0.000 C 
BRANCH   8   9
ATOM      9  C   UNL     1      62.831  29.285  28.884  1.00  0.00     0.000 C 
BRANCH   9  10
ATOM     10  C   UNL     1      61.827  28.821  27.816  1.00  0.00     0.000 C 
BRANCH  10  11
ATOM     11  C   UNL     1      62.083  29.449  26.436  1.00  0.00     0.000 C 
BRANCH  11  12
ATOM     12  C   UNL     1      62.014  28.404  25.303  1.00  0.00     0.000 C 
BRANCH  12  13
ATOM     13  C   UNL     1      62.338  26.969  25.759  1.00  0.00     0.006 C 
BRANCH  13  14
ATOM     14  C   UNL     1      63.836  26.611  25.706  1.00  0.00     0.053 C 
BRANCH  14  15
ATOM     15  C   UNL     1      64.262  26.074  24.370  1.00  0.00     0.041 C 
ATOM     16  O   UNL     1      65.442  26.252  23.965  1.00  0.00    -0.550 OA
ATOM     17  O   UNL     1      63.387  25.310  23.609  1.00  0.00    -0.550 OA
ENDBRANCH  14  15
ENDBRANCH  13  14
ENDBRANCH  12  13
ENDBRANCH  11  12
ENDBRANCH  10  11
ENDBRANCH   9  10
ENDBRANCH   8   9
ENDBRANCH   7   8
ENDBRANCH   6   7
ENDBRANCH   5   6
ENDBRANCH   4   5
ENDBRANCH   3   4
ENDBRANCH   2   3
ENDBRANCH   1   2
BRANCH   1  18
ATOM     18  C   UNL     1      64.786  32.427  22.846  1.00  0.00     0.000 C 
BRANCH  18  19
ATOM     19  C   UNL     1      63.754  33.394  22.238  1.00  0.00     0.000 C 
BRANCH  19  20
ATOM     20  C   UNL     1      64.305  34.157  21.022  1.00  0.00     0.000 C 
BRANCH  20  21
ATOM     21  C   UNL     1      63.336  34.153  19.827  1.00  0.00     0.000 C 
BRANCH  21  22
ATOM     22  C   UNL     1      64.024  33.705  18.520  1.00  0.00     0.000 C 
BRANCH  22  23
ATOM     23  C   UNL     1      63.160  33.906  17.263  1.00  0.00     0.000 C 
BRANCH  23  24
ATOM     24  C   UNL     1      61.682  34.179  17.590  1.00  0.00    -0.000 C 
BRANCH  24  25
ATOM     25  C   UNL     1      60.808  34.261  16.328  1.00  0.00    -0.000 C 
BRANCH  25  26
ATOM     26  C   UNL     1      61.372  33.436  15.163  1.00  0.00    -0.000 C 
BRANCH  26  27
ATOM     27  C   UNL     1      60.248  32.701  14.420  1.00  0.00    -0.000 C 
BRANCH  27  28
ATOM     28  C   UNL     1      60.629  32.449  12.954  1.00  0.00    -0.000 C 
BRANCH  28  29
ATOM     29  C   UNL     1      60.689  30.951  12.602  1.00  0.00    -0.000 C 
BRANCH  29  30
ATOM     30  C   UNL     1      62.092  30.318  12.681  1.00  0.00    -0.000 C 
BRANCH  30  31
ATOM     31  C   UNL     1      62.235  28.963  11.967  1.00  0.00    -0.003 C 
ATOM     32  C   UNL     1      61.041  28.631  11.074  1.00  0.00     0.004 C 
ENDBRANCH  30  31
ENDBRANCH  29  30
ENDBRANCH  28  29
ENDBRANCH  27  28
ENDBRANCH  26  27
ENDBRANCH  25  26
ENDBRANCH  24  25
ENDBRANCH  23  24
ENDBRANCH  22  23
ENDBRANCH  21  22
ENDBRANCH  20  21
ENDBRANCH  19  20
ENDBRANCH  18  19
ENDBRANCH   1  18
TORSDOF 28
ENDMDL
MODEL 7
REMARK VINA RESULT:    -4.850      3.988     11.851
REMARK INTER + INTRA:         -15.796
REMARK INTER:                 -12.861
REMARK INTRA:                  -2.934
REMARK UNBOUND:                -3.007
REMARK SMILES CCCCCCCCCCCCCCCCCCCCCCCCCCCCCC(=O)[O-]
REMARK SMILES IDX 16 1 17 2 18 3 19 4 20 5 21 6 22 7 23 8 24 9 25 10 26 11
REMARK SMILES IDX 27 12 28 13 29 14 30 15 31 16 32 17 15 18 14 19 13 20 12 21
REMARK SMILES IDX 11 22 10 23 9 24 8 25 7 26 6 27 5 28 4 29 3 30 2 31 1 32
REMARK H PARENT
REMARK Flexibility Score: inf
ROOT
ATOM      1  C   UNL     1      62.432  33.755  17.358  1.00  0.00     0.000 C 
ENDROOT
BRANCH   1   2
ATOM      2  C   UNL     1      63.471  33.771  18.490  1.00  0.00     0.000 C 
BRANCH   2   3
ATOM      3  C   UNL     1      62.783  33.847  19.858  1.00  0.00     0.000 C 
BRANCH   3   4
ATOM      4  C   UNL     1      63.801  34.078  20.985  1.00  0.00     0.000 C 
BRANCH   4   5
ATOM      5  C   UNL     1      65.218  34.351  20.453  1.00  0.00     0.000 C 
BRANCH   5   6
ATOM      6  C   UNL     1      66.282  33.460  21.119  1.00  0.00     0.000 C 
BRANCH   6   7
ATOM      7  C   UNL     1      65.755  32.750  22.375  1.00  0.00     0.000 C 
BRANCH   7   8
ATOM      8  C   UNL     1      66.619  31.538  22.776  1.00  0.00     0.000 C 
BRANCH   8   9
ATOM      9  C   UNL     1      65.991  30.720  23.924  1.00  0.00     0.000 C 
BRANCH   9  10
ATOM     10  C   UNL     1      64.458  30.625  23.850  1.00  0.00     0.000 C 
BRANCH  10  11
ATOM     11  C   UNL     1      63.845  29.859  25.034  1.00  0.00     0.000 C 
BRANCH  11  12
ATOM     12  C   UNL     1      62.310  29.752  24.920  1.00  0.00     0.000 C 
BRANCH  12  13
ATOM     13  C   UNL     1      61.799  28.315  24.705  1.00  0.00     0.006 C 
BRANCH  13  14
ATOM     14  C   UNL     1      60.721  27.870  25.711  1.00  0.00     0.053 C 
BRANCH  14  15
ATOM     15  C   UNL     1      61.299  27.330  26.987  1.00  0.00     0.041 C 
ATOM     16  O   UNL     1      60.537  26.986  27.930  1.00  0.00    -0.550 OA
ATOM     17  O   UNL     1      62.668  27.128  27.108  1.00  0.00    -0.550 OA
ENDBRANCH  14  15
ENDBRANCH  13  14
ENDBRANCH  12  13
ENDBRANCH  11  12
ENDBRANCH  10  11
ENDBRANCH   9  10
ENDBRANCH   8   9
ENDBRANCH   7   8
ENDBRANCH   6   7
ENDBRANCH   5   6
ENDBRANCH   4   5
ENDBRANCH   3   4
ENDBRANCH   2   3
ENDBRANCH   1   2
BRANCH   1  18
ATOM     18  C   UNL     1      63.059  33.520  15.975  1.00  0.00     0.000 C 
BRANCH  18  19
ATOM     19  C   UNL     1      64.113  32.398  15.982  1.00  0.00     0.000 C 
BRANCH  19  20
ATOM     20  C   UNL     1      64.509  31.953  14.564  1.00  0.00     0.000 C 
BRANCH  20  21
ATOM     21  C   UNL     1      64.362  33.077  13.524  1.00  0.00     0.000 C 
BRANCH  21  22
ATOM     22  C   UNL     1      64.500  32.555  12.078  1.00  0.00     0.000 C 
BRANCH  22  23
ATOM     23  C   UNL     1      63.895  31.158  11.862  1.00  0.00     0.000 C 
BRANCH  23  24
ATOM     24  C   UNL     1      64.077  30.642  10.424  1.00  0.00    -0.000 C 
BRANCH  24  25
ATOM     25  C   UNL     1      63.239  29.385  10.142  1.00  0.00    -0.000 C 
BRANCH  25  26
ATOM     26  C   UNL     1      61.730  29.636  10.277  1.00  0.00    -0.000 C 
BRANCH  26  27
ATOM     27  C   UNL     1      61.094  28.625  11.241  1.00  0.00    -0.000 C 
BRANCH  27  28
ATOM     28  C   UNL     1      61.815  28.626  12.597  1.00  0.00    -0.000 C 
BRANCH  28  29
ATOM     29  C   UNL     1      60.893  29.027  13.763  1.00  0.00    -0.000 C 
BRANCH  29  30
ATOM     30  C   UNL     1      61.187  30.409  14.381  1.00  0.00    -0.000 C 
BRANCH  30  31
ATOM     31  C   UNL     1      60.161  31.503  14.042  1.00  0.00    -0.003 C 
ATOM     32  C   UNL     1      60.749  32.631  13.196  1.00  0.00     0.004 C 
ENDBRANCH  30  31
ENDBRANCH  29  30
ENDBRANCH  28  29
ENDBRANCH  27  28
ENDBRANCH  26  27
ENDBRANCH  25  26
ENDBRANCH  24  25
ENDBRANCH  23  24
ENDBRANCH  22  23
ENDBRANCH  21  22
ENDBRANCH  20  21
ENDBRANCH  19  20
ENDBRANCH  18  19
ENDBRANCH   1  18
TORSDOF 28
ENDMDL
MODEL 8
REMARK VINA RESULT:    -4.786      1.471      2.138
REMARK INTER + INTRA:         -15.627
REMARK INTER:                 -13.299
REMARK INTRA:                  -2.328
REMARK UNBOUND:                -3.007
REMARK SMILES CCCCCCCCCCCCCCCCCCCCCCCCCCCCCC(=O)[O-]
REMARK SMILES IDX 16 1 17 2 18 3 19 4 20 5 21 6 22 7 23 8 24 9 25 10 26 11
REMARK SMILES IDX 27 12 28 13 29 14 30 15 31 16 32 17 15 18 14 19 13 20 12 21
REMARK SMILES IDX 11 22 10 23 9 24 8 25 7 26 6 27 5 28 4 29 3 30 2 31 1 32
REMARK H PARENT
REMARK Flexibility Score: inf
ROOT
ATOM      1  C   UNL     1      64.881  34.535  20.800  1.00  0.00     0.000 C 
ENDROOT
BRANCH   1   2
ATOM      2  C   UNL     1      64.702  34.296  19.293  1.00  0.00     0.000 C 
BRANCH   2   3
ATOM      3  C   UNL     1      63.295  33.767  18.990  1.00  0.00     0.000 C 
BRANCH   3   4
ATOM      4  C   UNL     1      62.744  34.357  17.683  1.00  0.00     0.000 C 
BRANCH   4   5
ATOM      5  C   UNL     1      61.606  33.511  17.088  1.00  0.00     0.000 C 
BRANCH   5   6
ATOM      6  C   UNL     1      62.000  32.840  15.760  1.00  0.00     0.000 C 
BRANCH   6   7
ATOM      7  C   UNL     1      60.995  33.123  14.634  1.00  0.00     0.000 C 
BRANCH   7   8
ATOM      8  C   UNL     1      61.335  32.370  13.334  1.00  0.00     0.000 C 
BRANCH   8   9
ATOM      9  C   UNL     1      60.114  31.632  12.744  1.00  0.00     0.000 C 
BRANCH   9  10
ATOM     10  C   UNL     1      60.174  30.104  12.908  1.00  0.00     0.000 C 
BRANCH  10  11
ATOM     11  C   UNL     1      60.174  29.354  11.566  1.00  0.00     0.000 C 
BRANCH  11  12
ATOM     12  C   UNL     1      61.570  28.799  11.215  1.00  0.00     0.000 C 
BRANCH  12  13
ATOM     13  C   UNL     1      62.076  29.222   9.823  1.00  0.00     0.006 C 
BRANCH  13  14
ATOM     14  C   UNL     1      63.594  29.054   9.625  1.00  0.00     0.053 C 
BRANCH  14  15
ATOM     15  C   UNL     1      64.367  30.304   9.934  1.00  0.00     0.041 C 
ATOM     16  O   UNL     1      65.384  30.602   9.252  1.00  0.00    -0.550 OA
ATOM     17  O   UNL     1      63.922  31.180  10.916  1.00  0.00    -0.550 OA
ENDBRANCH  14  15
ENDBRANCH  13  14
ENDBRANCH  12  13
ENDBRANCH  11  12
ENDBRANCH  10  11
ENDBRANCH   9  10
ENDBRANCH   8   9
ENDBRANCH   7   8
ENDBRANCH   6   7
ENDBRANCH   5   6
ENDBRANCH   4   5
ENDBRANCH   3   4
ENDBRANCH   2   3
ENDBRANCH   1   2
BRANCH   1  18
ATOM     18  C   UNL     1      63.819  33.819  21.649  1.00  0.00     0.000 C 
BRANCH  18  19
ATOM     19  C   UNL     1      64.425  32.792  22.621  1.00  0.00     0.000 C 
BRANCH  19  20
ATOM     20  C   UNL     1      65.935  32.595  22.405  1.00  0.00     0.000 C 
BRANCH  20  21
ATOM     21  C   UNL     1      66.485  31.355  23.131  1.00  0.00     0.000 C 
BRANCH  21  22
ATOM     22  C   UNL     1      65.395  30.624  23.943  1.00  0.00     0.000 C 
BRANCH  22  23
ATOM     23  C   UNL     1      65.899  30.037  25.272  1.00  0.00     0.000 C 
BRANCH  23  24
ATOM     24  C   UNL     1      64.851  30.114  26.396  1.00  0.00    -0.000 C 
BRANCH  24  25
ATOM     25  C   UNL     1      63.430  30.344  25.858  1.00  0.00    -0.000 C 
BRANCH  25  26
ATOM     26  C   UNL     1      62.364  29.581  26.657  1.00  0.00    -0.000 C 
BRANCH  26  27
ATOM     27  C   UNL     1      62.911  28.234  27.148  1.00  0.00    -0.000 C 
BRANCH  27  28
ATOM     28  C   UNL     1      62.097  27.065  26.572  1.00  0.00    -0.000 C 
BRANCH  28  29
ATOM     29  C   UNL     1      62.730  26.464  25.305  1.00  0.00    -0.000 C 
BRANCH  29  30
ATOM     30  C   UNL     1      64.272  26.424  25.302  1.00  0.00    -0.000 C 
BRANCH  30  31
ATOM     31  C   UNL     1      64.907  25.954  23.982  1.00  0.00    -0.003 C 
ATOM     32  C   UNL     1      65.892  26.967  23.400  1.00  0.00     0.004 C 
ENDBRANCH  30  31
ENDBRANCH  29  30
ENDBRANCH  28  29
ENDBRANCH  27  28
ENDBRANCH  26  27
ENDBRANCH  25  26
ENDBRANCH  24  25
ENDBRANCH  23  24
ENDBRANCH  22  23
ENDBRANCH  21  22
ENDBRANCH  20  21
ENDBRANCH  19  20
ENDBRANCH  18  19
ENDBRANCH   1  18
TORSDOF 28
ENDMDL
MODEL 9
REMARK VINA RESULT:    -4.748      1.874      2.840
REMARK INTER + INTRA:         -15.526
REMARK INTER:                 -12.213
REMARK INTRA:                  -3.313
REMARK UNBOUND:                -3.007
REMARK SMILES CCCCCCCCCCCCCCCCCCCCCCCCCCCCCC(=O)[O-]
REMARK SMILES IDX 16 1 17 2 18 3 19 4 20 5 21 6 22 7 23 8 24 9 25 10 26 11
REMARK SMILES IDX 27 12 28 13 29 14 30 15 31 16 32 17 15 18 14 19 13 20 12 21
REMARK SMILES IDX 11 22 10 23 9 24 8 25 7 26 6 27 5 28 4 29 3 30 2 31 1 32
REMARK H PARENT
REMARK Flexibility Score: inf
ROOT
ATOM      1  C   UNL     1      64.380  33.839  19.464  1.00  0.00     0.000 C 
ENDROOT
BRANCH   1   2
ATOM      2  C   UNL     1      63.087  33.553  18.684  1.00  0.00     0.000 C 
BRANCH   2   3
ATOM      3  C   UNL     1      63.055  34.350  17.375  1.00  0.00     0.000 C 
BRANCH   3   4
ATOM      4  C   UNL     1      64.390  35.067  17.123  1.00  0.00     0.000 C 
BRANCH   4   5
ATOM      5  C   UNL     1      65.023  34.678  15.777  1.00  0.00     0.000 C 
BRANCH   5   6
ATOM      6  C   UNL     1      65.575  33.242  15.776  1.00  0.00     0.000 C 
BRANCH   6   7
ATOM      7  C   UNL     1      64.880  32.341  14.743  1.00  0.00     0.000 C 
BRANCH   7   8
ATOM      8  C   UNL     1      64.034  33.142  13.735  1.00  0.00     0.000 C 
BRANCH   8   9
ATOM      9  C   UNL     1      62.703  32.439  13.393  1.00  0.00     0.000 C 
BRANCH   9  10
ATOM     10  C   UNL     1      61.505  32.949  14.212  1.00  0.00     0.000 C 
BRANCH  10  11
ATOM     11  C   UNL     1      60.816  31.840  15.024  1.00  0.00     0.000 C 
BRANCH  11  12
ATOM     12  C   UNL     1      61.644  30.538  15.042  1.00  0.00     0.000 C 
BRANCH  12  13
ATOM     13  C   UNL     1      61.111  29.447  14.095  1.00  0.00     0.006 C 
BRANCH  13  14
ATOM     14  C   UNL     1      62.209  28.639  13.380  1.00  0.00     0.053 C 
BRANCH  14  15
ATOM     15  C   UNL     1      62.328  28.976  11.922  1.00  0.00     0.041 C 
ATOM     16  O   UNL     1      63.343  29.590  11.496  1.00  0.00    -0.550 OA
ATOM     17  O   UNL     1      61.364  28.545  11.020  1.00  0.00    -0.550 OA
ENDBRANCH  14  15
ENDBRANCH  13  14
ENDBRANCH  12  13
ENDBRANCH  11  12
ENDBRANCH  10  11
ENDBRANCH   9  10
ENDBRANCH   8   9
ENDBRANCH   7   8
ENDBRANCH   6   7
ENDBRANCH   5   6
ENDBRANCH   4   5
ENDBRANCH   3   4
ENDBRANCH   2   3
ENDBRANCH   1   2
BRANCH   1  18
ATOM     18  C   UNL     1      64.118  34.252  20.921  1.00  0.00     0.000 C 
BRANCH  18  19
ATOM     19  C   UNL     1      64.963  33.451  21.928  1.00  0.00     0.000 C 
BRANCH  19  20
ATOM     20  C   UNL     1      66.330  33.040  21.356  1.00  0.00     0.000 C 
BRANCH  20  21
ATOM     21  C   UNL     1      66.961  31.857  22.112  1.00  0.00     0.000 C 
BRANCH  21  22
ATOM     22  C   UNL     1      66.273  31.599  23.469  1.00  0.00     0.000 C 
BRANCH  22  23
ATOM     23  C   UNL     1      65.572  30.233  23.559  1.00  0.00     0.000 C 
BRANCH  23  24
ATOM     24  C   UNL     1      64.076  30.350  23.900  1.00  0.00    -0.000 C 
BRANCH  24  25
ATOM     25  C   UNL     1      63.834  30.591  25.399  1.00  0.00    -0.000 C 
BRANCH  25  26
ATOM     26  C   UNL     1      62.582  29.871  25.920  1.00  0.00    -0.000 C 
BRANCH  26  27
ATOM     27  C   UNL     1      61.906  29.072  24.797  1.00  0.00    -0.000 C 
BRANCH  27  28
ATOM     28  C   UNL     1      61.877  27.572  25.128  1.00  0.00    -0.000 C 
BRANCH  28  29
ATOM     29  C   UNL     1      63.013  27.147  26.076  1.00  0.00    -0.000 C 
BRANCH  29  30
ATOM     30  C   UNL     1      64.198  26.433  25.395  1.00  0.00    -0.000 C 
BRANCH  30  31
ATOM     31  C   UNL     1      64.195  26.491  23.858  1.00  0.00    -0.003 C 
ATOM     32  C   UNL     1      65.499  25.989  23.240  1.00  0.00     0.004 C 
ENDBRANCH  30  31
ENDBRANCH  29  30
ENDBRANCH  28  29
ENDBRANCH  27  28
ENDBRANCH  26  27
ENDBRANCH  25  26
ENDBRANCH  24  25
ENDBRANCH  23  24
ENDBRANCH  22  23
ENDBRANCH  21  22
ENDBRANCH  20  21
ENDBRANCH  19  20
ENDBRANCH  18  19
ENDBRANCH   1  18
TORSDOF 28
ENDMDL
