MODEL 1
REMARK VINA RESULT:    -3.676      0.000      0.000
REMARK INTER + INTRA:          -6.028
REMARK INTER:                  -5.395
REMARK INTRA:                  -0.633
REMARK UNBOUND:                -0.633
REMARK SMILES O=C([O-])CCCCCCCC(=O)[O-]
REMARK SMILES IDX 7 1 6 2 5 3 4 4 2 5 1 6 3 7 8 8 9 9 10 10 11 11 12 12 13 13
REMARK H PARENT
REMARK Flexibility Score: inf
ROOT
ATOM      1  C   UNL     1    -116.416  11.660  21.493  1.00  0.00     0.000 C 
ENDROOT
BRANCH   1   2
ATOM      2  C   UNL     1    -117.698  12.310  22.033  1.00  0.00     0.000 C 
BRANCH   2   3
ATOM      3  C   UNL     1    -117.860  13.768  21.573  1.00  0.00     0.006 C 
BRANCH   3   4
ATOM      4  C   UNL     1    -118.834  14.562  22.455  1.00  0.00     0.053 C 
BRANCH   4   5
ATOM      5  C   UNL     1    -118.393  14.525  23.883  1.00  0.00     0.041 C 
ATOM      6  O   UNL     1    -119.064  13.887  24.737  1.00  0.00    -0.550 OA
ATOM      7  O   UNL     1    -117.269  15.236  24.283  1.00  0.00    -0.550 OA
ENDBRANCH   4   5
ENDBRANCH   3   4
ENDBRANCH   2   3
ENDBRANCH   1   2
BRANCH   1   8
ATOM      8  C   UNL     1    -115.612  11.008  22.625  1.00  0.00     0.000 C 
BRANCH   8   9
ATOM      9  C   UNL     1    -115.992  11.606  23.984  1.00  0.00     0.006 C 
BRANCH   9  10
ATOM     10  C   UNL     1    -114.923  12.589  24.470  1.00  0.00     0.053 C 
BRANCH  10  11
ATOM     11  C   UNL     1    -113.765  11.853  25.066  1.00  0.00     0.041 C 
ATOM     12  O   UNL     1    -112.600  12.319  24.968  1.00  0.00    -0.550 OA
ATOM     13  O   UNL     1    -113.979  10.676  25.772  1.00  0.00    -0.550 OA
ENDBRANCH  10  11
ENDBRANCH   9  10
ENDBRANCH   8   9
ENDBRANCH   1   8
TORSDOF 8
ENDMDL
MODEL 2
REMARK VINA RESULT:    -3.670      2.109      6.046
REMARK INTER + INTRA:          -6.020
REMARK INTER:                  -5.628
REMARK INTRA:                  -0.392
REMARK UNBOUND:                -0.633
REMARK SMILES O=C([O-])CCCCCCCC(=O)[O-]
REMARK SMILES IDX 7 1 6 2 5 3 4 4 2 5 1 6 3 7 8 8 9 9 10 10 11 11 12 12 13 13
REMARK H PARENT
REMARK Flexibility Score: inf
ROOT
ATOM      1  C   UNL     1    -116.173  11.879  22.965  1.00  0.00     0.000 C 
ENDROOT
BRANCH   1   2
ATOM      2  C   UNL     1    -115.004  11.158  23.654  1.00  0.00     0.000 C 
BRANCH   2   3
ATOM      3  C   UNL     1    -114.528  11.883  24.923  1.00  0.00     0.006 C 
BRANCH   3   4
ATOM      4  C   UNL     1    -113.014  12.132  24.928  1.00  0.00     0.053 C 
BRANCH   4   5
ATOM      5  C   UNL     1    -112.273  10.855  24.689  1.00  0.00     0.041 C 
ATOM      6  O   UNL     1    -112.309   9.932  25.545  1.00  0.00    -0.550 OA
ATOM      7  O   UNL     1    -111.503  10.702  23.544  1.00  0.00    -0.550 OA
ENDBRANCH   4   5
ENDBRANCH   3   4
ENDBRANCH   2   3
ENDBRANCH   1   2
BRANCH   1   8
ATOM      8  C   UNL     1    -116.605  13.113  23.767  1.00  0.00     0.000 C 
BRANCH   8   9
ATOM      9  C   UNL     1    -117.805  13.804  23.110  1.00  0.00     0.006 C 
BRANCH   9  10
ATOM     10  C   UNL     1    -117.867  13.493  21.612  1.00  0.00     0.053 C 
BRANCH  10  11
ATOM     11  C   UNL     1    -118.509  14.621  20.868  1.00  0.00     0.041 C 
ATOM     12  O   UNL     1    -119.379  15.336  21.430  1.00  0.00    -0.550 OA
ATOM     13  O   UNL     1    -118.111  14.912  19.569  1.00  0.00    -0.550 OA
ENDBRANCH  10  11
ENDBRANCH   9  10
ENDBRANCH   8   9
ENDBRANCH   1   8
TORSDOF 8
ENDMDL
MODEL 3
REMARK VINA RESULT:    -3.598      0.927      5.269
REMARK INTER + INTRA:          -5.914
REMARK INTER:                  -5.435
REMARK INTRA:                  -0.479
REMARK UNBOUND:                -0.633
REMARK SMILES O=C([O-])CCCCCCCC(=O)[O-]
REMARK SMILES IDX 7 1 6 2 5 3 4 4 2 5 1 6 3 7 8 8 9 9 10 10 11 11 12 12 13 13
REMARK H PARENT
REMARK Flexibility Score: inf
ROOT
ATOM      1  C   UNL     1    -116.212  11.147  22.843  1.00  0.00     0.000 C 
ENDROOT
BRANCH   1   2
ATOM      2  C   UNL     1    -116.029  11.612  24.296  1.00  0.00     0.000 C 
BRANCH   2   3
ATOM      3  C   UNL     1    -114.651  12.245  24.544  1.00  0.00     0.006 C 
BRANCH   3   4
ATOM      4  C   UNL     1    -113.855  11.519  25.637  1.00  0.00     0.053 C 
BRANCH   4   5
ATOM      5  C   UNL     1    -112.639  10.873  25.055  1.00  0.00     0.041 C 
ATOM      6  O   UNL     1    -112.217   9.781  25.519  1.00  0.00    -0.550 OA
ATOM      7  O   UNL     1    -111.940  11.500  24.031  1.00  0.00    -0.550 OA
ENDBRANCH   4   5
ENDBRANCH   3   4
ENDBRANCH   2   3
ENDBRANCH   1   2
BRANCH   1   8
ATOM      8  C   UNL     1    -116.742  12.287  21.965  1.00  0.00     0.000 C 
BRANCH   8   9
ATOM      9  C   UNL     1    -118.170  12.674  22.366  1.00  0.00     0.006 C 
BRANCH   9  10
ATOM     10  C   UNL     1    -118.304  14.191  22.522  1.00  0.00     0.053 C 
BRANCH  10  11
ATOM     11  C   UNL     1    -118.229  14.578  23.966  1.00  0.00     0.041 C 
ATOM     12  O   UNL     1    -117.259  15.259  24.390  1.00  0.00    -0.550 OA
ATOM     13  O   UNL     1    -119.257  14.227  24.833  1.00  0.00    -0.550 OA
ENDBRANCH  10  11
ENDBRANCH   9  10
ENDBRANCH   8   9
ENDBRANCH   1   8
TORSDOF 8
ENDMDL
MODEL 4
REMARK VINA RESULT:    -3.589      2.005      2.487
REMARK INTER + INTRA:          -5.901
REMARK INTER:                  -5.539
REMARK INTRA:                  -0.362
REMARK UNBOUND:                -0.633
REMARK SMILES O=C([O-])CCCCCCCC(=O)[O-]
REMARK SMILES IDX 7 1 6 2 5 3 4 4 2 5 1 6 3 7 8 8 9 9 10 10 11 11 12 12 13 13
REMARK H PARENT
REMARK Flexibility Score: inf
ROOT
ATOM      1  C   UNL     1    -116.174  11.851  23.255  1.00  0.00     0.000 C 
ENDROOT
BRANCH   1   2
ATOM      2  C   UNL     1    -116.377  13.222  23.917  1.00  0.00     0.000 C 
BRANCH   2   3
ATOM      3  C   UNL     1    -117.629  13.949  23.398  1.00  0.00     0.006 C 
BRANCH   3   4
ATOM      4  C   UNL     1    -117.940  13.618  21.932  1.00  0.00     0.053 C 
BRANCH   4   5
ATOM      5  C   UNL     1    -118.740  14.716  21.307  1.00  0.00     0.041 C 
ATOM      6  O   UNL     1    -118.565  15.019  20.098  1.00  0.00    -0.550 OA
ATOM      7  O   UNL     1    -119.645  15.439  22.074  1.00  0.00    -0.550 OA
ENDBRANCH   4   5
ENDBRANCH   3   4
ENDBRANCH   2   3
ENDBRANCH   1   2
BRANCH   1   8
ATOM      8  C   UNL     1    -114.861  11.207  23.719  1.00  0.00     0.000 C 
BRANCH   8   9
ATOM      9  C   UNL     1    -114.277  11.954  24.923  1.00  0.00     0.006 C 
BRANCH   9  10
ATOM     10  C   UNL     1    -112.748  11.982  24.863  1.00  0.00     0.053 C 
BRANCH  10  11
ATOM     11  C   UNL     1    -112.202  10.594  24.752  1.00  0.00     0.041 C 
ATOM     12  O   UNL     1    -111.453  10.282  23.789  1.00  0.00    -0.550 OA
ATOM     13  O   UNL     1    -112.480   9.657  25.740  1.00  0.00    -0.550 OA
ENDBRANCH  10  11
ENDBRANCH   9  10
ENDBRANCH   8   9
ENDBRANCH   1   8
TORSDOF 8
ENDMDL
MODEL 5
REMARK VINA RESULT:    -3.549      0.869      5.042
REMARK INTER + INTRA:          -5.842
REMARK INTER:                  -5.275
REMARK INTRA:                  -0.568
REMARK UNBOUND:                -0.633
REMARK SMILES O=C([O-])CCCCCCCC(=O)[O-]
REMARK SMILES IDX 7 1 6 2 5 3 4 4 2 5 1 6 3 7 8 8 9 9 10 10 11 11 12 12 13 13
REMARK H PARENT
REMARK Flexibility Score: inf
ROOT
ATOM      1  C   UNL     1    -116.734  12.203  21.624  1.00  0.00     0.000 C 
ENDROOT
BRANCH   1   2
ATOM      2  C   UNL     1    -116.454  11.512  22.967  1.00  0.00     0.000 C 
BRANCH   2   3
ATOM      3  C   UNL     1    -115.611  12.381  23.914  1.00  0.00     0.006 C 
BRANCH   3   4
ATOM      4  C   UNL     1    -114.872  11.555  24.975  1.00  0.00     0.053 C 
BRANCH   4   5
ATOM      5  C   UNL     1    -113.408  11.506  24.672  1.00  0.00     0.041 C 
ATOM      6  O   UNL     1    -112.609  12.264  25.283  1.00  0.00    -0.550 OA
ATOM      7  O   UNL     1    -112.931  10.659  23.681  1.00  0.00    -0.550 OA
ENDBRANCH   4   5
ENDBRANCH   3   4
ENDBRANCH   2   3
ENDBRANCH   1   2
BRANCH   1   8
ATOM      8  C   UNL     1    -118.179  12.714  21.560  1.00  0.00     0.000 C 
BRANCH   8   9
ATOM      9  C   UNL     1    -118.221  14.246  21.537  1.00  0.00     0.006 C 
BRANCH   9  10
ATOM     10  C   UNL     1    -119.144  14.786  22.633  1.00  0.00     0.053 C 
BRANCH  10  11
ATOM     11  C   UNL     1    -118.525  14.594  23.982  1.00  0.00     0.041 C 
ATOM     12  O   UNL     1    -119.008  13.756  24.787  1.00  0.00    -0.550 OA
ATOM     13  O   UNL     1    -117.385  15.307  24.331  1.00  0.00    -0.550 OA
ENDBRANCH  10  11
ENDBRANCH   9  10
ENDBRANCH   8   9
ENDBRANCH   1   8
TORSDOF 8
ENDMDL
MODEL 6
REMARK VINA RESULT:    -3.433      2.906      5.693
REMARK INTER + INTRA:          -5.672
REMARK INTER:                  -5.262
REMARK INTRA:                  -0.411
REMARK UNBOUND:                -0.633
REMARK SMILES O=C([O-])CCCCCCCC(=O)[O-]
REMARK SMILES IDX 7 1 6 2 5 3 4 4 2 5 1 6 3 7 8 8 9 9 10 10 11 11 12 12 13 13
REMARK H PARENT
REMARK Flexibility Score: inf
ROOT
ATOM      1  C   UNL     1    -116.043  13.169  24.131  1.00  0.00     0.000 C 
ENDROOT
BRANCH   1   2
ATOM      2  C   UNL     1    -115.276  11.839  24.081  1.00  0.00     0.000 C 
BRANCH   2   3
ATOM      3  C   UNL     1    -114.303  11.674  25.260  1.00  0.00     0.006 C 
BRANCH   3   4
ATOM      4  C   UNL     1    -112.862  12.053  24.895  1.00  0.00     0.053 C 
BRANCH   4   5
ATOM      5  C   UNL     1    -112.085  10.836  24.506  1.00  0.00     0.041 C 
ATOM      6  O   UNL     1    -111.438  10.815  23.426  1.00  0.00    -0.550 OA
ATOM      7  O   UNL     1    -112.114   9.705  25.312  1.00  0.00    -0.550 OA
ENDBRANCH   4   5
ENDBRANCH   3   4
ENDBRANCH   2   3
ENDBRANCH   1   2
BRANCH   1   8
ATOM      8  C   UNL     1    -117.172  13.190  23.093  1.00  0.00     0.000 C 
BRANCH   8   9
ATOM      9  C   UNL     1    -117.187  11.897  22.269  1.00  0.00     0.006 C 
BRANCH   9  10
ATOM     10  C   UNL     1    -117.068  12.199  20.772  1.00  0.00     0.053 C 
BRANCH  10  11
ATOM     11  C   UNL     1    -116.258  11.142  20.088  1.00  0.00     0.041 C 
ATOM     12  O   UNL     1    -116.373  10.961  18.848  1.00  0.00    -0.550 OA
ATOM     13  O   UNL     1    -115.341  10.391  20.812  1.00  0.00    -0.550 OA
ENDBRANCH  10  11
ENDBRANCH   9  10
ENDBRANCH   8   9
ENDBRANCH   1   8
TORSDOF 8
ENDMDL
MODEL 7
REMARK VINA RESULT:    -3.359     19.214     19.851
REMARK INTER + INTRA:          -5.564
REMARK INTER:                  -4.956
REMARK INTRA:                  -0.608
REMARK UNBOUND:                -0.633
REMARK SMILES O=C([O-])CCCCCCCC(=O)[O-]
REMARK SMILES IDX 7 1 6 2 5 3 4 4 2 5 1 6 3 7 8 8 9 9 10 10 11 11 12 12 13 13
REMARK H PARENT
REMARK Flexibility Score: inf
ROOT
ATOM      1  C   UNL     1    -100.554  21.320  31.611  1.00  0.00     0.000 C 
ENDROOT
BRANCH   1   2
ATOM      2  C   UNL     1     -99.949  22.638  32.119  1.00  0.00     0.000 C 
BRANCH   2   3
ATOM      3  C   UNL     1    -100.844  23.852  31.823  1.00  0.00     0.006 C 
BRANCH   3   4
ATOM      4  C   UNL     1    -102.309  23.463  31.581  1.00  0.00     0.053 C 
BRANCH   4   5
ATOM      5  C   UNL     1    -103.222  24.361  32.354  1.00  0.00     0.041 C 
ATOM      6  O   UNL     1    -104.421  24.030  32.549  1.00  0.00    -0.550 OA
ATOM      7  O   UNL     1    -102.763  25.587  32.816  1.00  0.00    -0.550 OA
ENDBRANCH   4   5
ENDBRANCH   3   4
ENDBRANCH   2   3
ENDBRANCH   1   2
BRANCH   1   8
ATOM      8  C   UNL     1    -100.067  20.133  32.450  1.00  0.00     0.000 C 
BRANCH   8   9
ATOM      9  C   UNL     1    -100.116  20.459  33.947  1.00  0.00     0.006 C 
BRANCH   9  10
ATOM     10  C   UNL     1    -101.093  19.535  34.678  1.00  0.00     0.053 C 
BRANCH  10  11
ATOM     11  C   UNL     1    -102.391  20.237  34.927  1.00  0.00     0.041 C 
ATOM     12  O   UNL     1    -102.565  21.413  34.513  1.00  0.00    -0.550 OA
ATOM     13  O   UNL     1    -103.427  19.574  35.574  1.00  0.00    -0.550 OA
ENDBRANCH  10  11
ENDBRANCH   9  10
ENDBRANCH   8   9
ENDBRANCH   1   8
TORSDOF 8
ENDMDL
MODEL 8
REMARK VINA RESULT:    -3.292      1.977      2.650
REMARK INTER + INTRA:          -5.465
REMARK INTER:                  -5.020
REMARK INTRA:                  -0.445
REMARK UNBOUND:                -0.633
REMARK SMILES O=C([O-])CCCCCCCC(=O)[O-]
REMARK SMILES IDX 7 1 6 2 5 3 4 4 2 5 1 6 3 7 8 8 9 9 10 10 11 11 12 12 13 13
REMARK H PARENT
REMARK Flexibility Score: inf
ROOT
ATOM      1  C   UNL     1    -115.547  11.293  24.886  1.00  0.00     0.000 C 
ENDROOT
BRANCH   1   2
ATOM      2  C   UNL     1    -116.854  11.749  24.219  1.00  0.00     0.000 C 
BRANCH   2   3
ATOM      3  C   UNL     1    -116.688  13.053  23.422  1.00  0.00     0.006 C 
BRANCH   3   4
ATOM      4  C   UNL     1    -117.402  14.242  24.078  1.00  0.00     0.053 C 
BRANCH   4   5
ATOM      5  C   UNL     1    -118.883  14.117  23.914  1.00  0.00     0.041 C 
ATOM      6  O   UNL     1    -119.636  14.129  24.923  1.00  0.00    -0.550 OA
ATOM      7  O   UNL     1    -119.429  13.937  22.650  1.00  0.00    -0.550 OA
ENDBRANCH   4   5
ENDBRANCH   3   4
ENDBRANCH   2   3
ENDBRANCH   1   2
BRANCH   1   8
ATOM      8  C   UNL     1    -114.405  12.269  24.577  1.00  0.00     0.000 C 
BRANCH   8   9
ATOM      9  C   UNL     1    -113.118  11.858  25.301  1.00  0.00     0.006 C 
BRANCH   9  10
ATOM     10  C   UNL     1    -112.753  10.405  24.989  1.00  0.00     0.053 C 
BRANCH  10  11
ATOM     11  C   UNL     1    -112.263  10.278  23.581  1.00  0.00     0.041 C 
ATOM     12  O   UNL     1    -111.114  10.689  23.271  1.00  0.00    -0.550 OA
ATOM     13  O   UNL     1    -113.057   9.662  22.622  1.00  0.00    -0.550 OA
ENDBRANCH  10  11
ENDBRANCH   9  10
ENDBRANCH   8   9
ENDBRANCH   1   8
TORSDOF 8
ENDMDL
MODEL 9
REMARK VINA RESULT:    -3.257     19.162     20.194
REMARK INTER + INTRA:          -5.414
REMARK INTER:                  -4.852
REMARK INTRA:                  -0.563
REMARK UNBOUND:                -0.633
REMARK SMILES O=C([O-])CCCCCCCC(=O)[O-]
REMARK SMILES IDX 7 1 6 2 5 3 4 4 2 5 1 6 3 7 8 8 9 9 10 10 11 11 12 12 13 13
REMARK H PARENT
REMARK Flexibility Score: inf
ROOT
ATOM      1  C   UNL     1    -100.236  22.507  32.145  1.00  0.00     0.000 C 
ENDROOT
BRANCH   1   2
ATOM      2  C   UNL     1    -100.358  21.048  31.681  1.00  0.00     0.000 C 
BRANCH   2   3
ATOM      3  C   UNL     1    -100.139  20.044  32.824  1.00  0.00     0.006 C 
BRANCH   3   4
ATOM      4  C   UNL     1    -100.419  20.650  34.206  1.00  0.00     0.053 C 
BRANCH   4   5
ATOM      5  C   UNL     1    -101.782  20.256  34.681  1.00  0.00     0.041 C 
ATOM      6  O   UNL     1    -102.004  19.076  35.062  1.00  0.00    -0.550 OA
ATOM      7  O   UNL     1    -102.820  21.178  34.658  1.00  0.00    -0.550 OA
ENDBRANCH   4   5
ENDBRANCH   3   4
ENDBRANCH   2   3
ENDBRANCH   1   2
BRANCH   1   8
ATOM      8  C   UNL     1    -101.047  23.441  31.238  1.00  0.00     0.000 C 
BRANCH   8   9
ATOM      9  C   UNL     1    -102.513  23.500  31.678  1.00  0.00     0.006 C 
BRANCH   9  10
ATOM     10  C   UNL     1    -102.658  24.241  33.010  1.00  0.00     0.053 C 
BRANCH  10  11
ATOM     11  C   UNL     1    -104.056  24.745  33.181  1.00  0.00     0.041 C 
ATOM     12  O   UNL     1    -104.265  25.859  33.728  1.00  0.00    -0.550 OA
ATOM     13  O   UNL     1    -105.126  24.005  32.693  1.00  0.00    -0.550 OA
ENDBRANCH  10  11
ENDBRANCH   9  10
ENDBRANCH   8   9
ENDBRANCH   1   8
TORSDOF 8
ENDMDL
