MODEL 1
REMARK VINA RESULT:    -6.333      0.000      0.000
REMARK INTER + INTRA:         -13.394
REMARK INTER:                 -10.590
REMARK INTRA:                  -2.804
REMARK UNBOUND:                -2.804
REMARK SMILES COc1cc(-c2oc3cc(O)cc(O)c3c(=O)c2O[C@@H]2O[C@H](CO[C@@H]3O[C@H](C)[C@H](O)[C@H](O)[C@H]3O)[C@H](O)[C@H](O)[C@H]2O)ccc1O
REMARK SMILES IDX 22 1 35 2 37 3 39 4 20 5 21 6 23 7 24 8 25 9 28 10 27 11
REMARK SMILES IDX 29 12 26 13 31 14 33 15 30 16 32 18 34 20 36 22 38 24 19 26
REMARK SMILES IDX 18 27 6 28 16 29 7 30 15 31 17 32 8 33 13 34 9 35 12 36
REMARK SMILES IDX 10 37 5 38 4 39 41 40 3 41 42 42 43 43 2 44 1 45 44 46 14 48
REMARK SMILES IDX 11 50 40 52
REMARK H PARENT 30 17 32 19 34 21 36 23 38 25 44 47 14 49 11 51 40 53
REMARK Flexibility Score: inf
ROOT
ATOM      1  C   UNL     1      19.395  46.972  75.526  1.00  0.00     0.180 C 
ATOM      2  C   UNL     1      19.925  47.141  74.059  1.00  0.00     0.177 C 
ATOM      3  C   UNL     1      19.535  45.875  73.215  1.00  0.00     0.180 C 
ATOM      4  C   UNL     1      18.947  44.671  74.019  1.00  0.00     0.214 C 
ATOM      5  C   UNL     1      19.493  44.544  75.494  1.00  0.00     0.339 C 
ATOM      6  O   UNL     1      19.887  45.754  76.144  1.00  0.00    -0.332 OA
ENDROOT
BRANCH   1   7
ATOM      7  C   UNL     1      17.837  47.017  75.690  1.00  0.00     0.198 C 
BRANCH   7   8
ATOM      8  O   UNL     1      17.373  48.368  75.788  1.00  0.00    -0.347 OA
BRANCH   8   9
ATOM      9  C   UNL     1      16.282  48.626  74.899  1.00  0.00     0.281 C 
ATOM     10  C   UNL     1      13.040  49.738  76.221  1.00  0.00     0.041 C 
ATOM     11  C   UNL     1      14.105  49.457  75.089  1.00  0.00     0.150 C 
ATOM     12  C   UNL     1      13.567  48.497  73.906  1.00  0.00     0.174 C 
ATOM     13  O   UNL     1      15.153  48.790  75.722  1.00  0.00    -0.344 OA
ATOM     14  C   UNL     1      14.393  47.207  73.774  1.00  0.00     0.179 C 
ATOM     15  C   UNL     1      15.961  47.488  73.866  1.00  0.00     0.202 C 
BRANCH  12  16
ATOM     16  O   UNL     1      12.191  48.253  74.124  1.00  0.00    -0.388 OA
ATOM     17  H   UNL     1      11.650  49.115  74.177  1.00  0.00     0.211 HD
ENDBRANCH  12  16
BRANCH  14  18
ATOM     18  O   UNL     1      14.018  46.321  74.802  1.00  0.00    -0.387 OA
ATOM     19  H   UNL     1      13.062  46.333  74.815  1.00  0.00     0.211 HD
ENDBRANCH  14  18
BRANCH  15  20
ATOM     20  O   UNL     1      16.376  47.788  72.549  1.00  0.00    -0.385 OA
ATOM     21  H   UNL     1      15.576  47.779  71.921  1.00  0.00     0.211 HD
ENDBRANCH  15  20
ENDBRANCH   8   9
ENDBRANCH   7   8
ENDBRANCH   1   7
BRANCH   2  22
ATOM     22  O   UNL     1      19.501  48.381  73.411  1.00  0.00    -0.387 OA
ATOM     23  H   UNL     1      19.332  48.306  72.359  1.00  0.00     0.211 HD
ENDBRANCH   2  22
BRANCH   3  24
ATOM     24  O   UNL     1      18.596  46.257  72.246  1.00  0.00    -0.387 OA
ATOM     25  H   UNL     1      18.164  47.149  72.467  1.00  0.00     0.211 HD
ENDBRANCH   3  24
BRANCH   5  26
ATOM     26  O   UNL     1      18.550  43.874  76.340  1.00  0.00    -0.454 OA
BRANCH  26  27
ATOM     27  C   UNL     1      18.732  42.571  76.924  1.00  0.00     0.214 A 
ATOM     28  C   UNL     1      19.372  42.358  78.194  1.00  0.00     0.180 A 
ATOM     29  C   UNL     1      18.335  41.427  76.180  1.00  0.00     0.239 A 
ATOM     30  O   UNL     1      19.808  41.105  78.490  1.00  0.00    -0.452 OA
ATOM     31  C   UNL     1      18.522  40.134  76.765  1.00  0.00     0.111 A 
ATOM     32  O   UNL     1      17.698  41.587  75.122  1.00  0.00    -0.285 OA
ATOM     33  C   UNL     1      19.443  40.025  77.834  1.00  0.00     0.146 A 
ATOM     34  C   UNL     1      17.993  38.886  76.261  1.00  0.00     0.134 A 
ATOM     35  C   UNL     1      19.957  38.789  78.259  1.00  0.00     0.094 A 
ATOM     36  C   UNL     1      18.612  37.681  76.593  1.00  0.00     0.093 A 
ATOM     37  C   UNL     1      19.567  37.613  77.655  1.00  0.00     0.123 A 
BRANCH  28  38
ATOM     38  C   UNL     1      19.282  43.289  79.347  1.00  0.00     0.025 A 
ATOM     39  C   UNL     1      18.044  43.392  80.045  1.00  0.00     0.062 A 
ATOM     40  C   UNL     1      20.123  44.409  79.336  1.00  0.00     0.016 A 
ATOM     41  C   UNL     1      17.749  44.499  80.827  1.00  0.00     0.161 A 
ATOM     42  C   UNL     1      19.858  45.529  80.099  1.00  0.00     0.051 A 
ATOM     43  C   UNL     1      18.696  45.546  80.954  1.00  0.00     0.157 A 
BRANCH  41  44
ATOM     44  O   UNL     1      16.532  44.596  81.491  1.00  0.00    -0.493 OA
ATOM     45  C   UNL     1      16.480  44.317  82.872  1.00  0.00     0.278 C 
ENDBRANCH  41  44
BRANCH  43  46
ATOM     46  O   UNL     1      18.466  46.595  81.818  1.00  0.00    -0.504 OA
ATOM     47  H   UNL     1      18.743  46.431  82.812  1.00  0.00     0.293 HD
ENDBRANCH  43  46
ENDBRANCH  28  38
BRANCH  34  48
ATOM     48  O   UNL     1      16.833  38.882  75.490  1.00  0.00    -0.507 OA
ATOM     49  H   UNL     1      16.175  39.672  75.501  1.00  0.00     0.293 HD
ENDBRANCH  34  48
BRANCH  37  50
ATOM     50  O   UNL     1      20.122  36.414  78.017  1.00  0.00    -0.508 OA
ATOM     51  H   UNL     1      19.518  35.624  78.031  1.00  0.00     0.293 HD
ENDBRANCH  37  50
ENDBRANCH  26  27
ENDBRANCH   5  26
BRANCH   4  52
ATOM     52  O   UNL     1      19.043  43.482  73.252  1.00  0.00    -0.384 OA
ATOM     53  H   UNL     1      18.998  42.723  73.901  1.00  0.00     0.211 HD
ENDBRANCH   4  52
TORSDOF 16
ENDMDL
MODEL 2
REMARK VINA RESULT:    -6.164      1.443      1.650
REMARK INTER + INTRA:         -13.112
REMARK INTER:                 -11.032
REMARK INTRA:                  -2.080
REMARK UNBOUND:                -2.804
REMARK SMILES COc1cc(-c2oc3cc(O)cc(O)c3c(=O)c2O[C@@H]2O[C@H](CO[C@@H]3O[C@H](C)[C@H](O)[C@H](O)[C@H]3O)[C@H](O)[C@H](O)[C@H]2O)ccc1O
REMARK SMILES IDX 22 1 35 2 37 3 39 4 20 5 21 6 23 7 24 8 25 9 28 10 27 11
REMARK SMILES IDX 29 12 26 13 31 14 33 15 30 16 32 18 34 20 36 22 38 24 19 26
REMARK SMILES IDX 18 27 6 28 16 29 7 30 15 31 17 32 8 33 13 34 9 35 12 36
REMARK SMILES IDX 10 37 5 38 4 39 41 40 3 41 42 42 43 43 2 44 1 45 44 46 14 48
REMARK SMILES IDX 11 50 40 52
REMARK H PARENT 30 17 32 19 34 21 36 23 38 25 44 47 14 49 11 51 40 53
REMARK Flexibility Score: inf
ROOT
ATOM      1  C   UNL     1      19.001  48.074  74.944  1.00  0.00     0.180 C 
ATOM      2  C   UNL     1      19.528  48.360  73.493  1.00  0.00     0.177 C 
ATOM      3  C   UNL     1      19.159  47.154  72.557  1.00  0.00     0.180 C 
ATOM      4  C   UNL     1      18.593  45.883  73.269  1.00  0.00     0.214 C 
ATOM      5  C   UNL     1      19.142  45.657  74.731  1.00  0.00     0.339 C 
ATOM      6  O   UNL     1      19.515  46.822  75.469  1.00  0.00    -0.332 OA
ENDROOT
BRANCH   1   7
ATOM      7  C   UNL     1      17.443  48.079  75.109  1.00  0.00     0.198 C 
BRANCH   7   8
ATOM      8  O   UNL     1      16.866  49.226  74.475  1.00  0.00    -0.347 OA
BRANCH   8   9
ATOM      9  C   UNL     1      15.526  48.980  74.037  1.00  0.00     0.281 C 
ATOM     10  C   UNL     1      12.719  49.346  76.377  1.00  0.00     0.041 C 
ATOM     11  C   UNL     1      13.386  49.169  74.956  1.00  0.00     0.150 C 
ATOM     12  C   UNL     1      12.851  47.882  74.137  1.00  0.00     0.174 C 
ATOM     13  O   UNL     1      14.743  48.969  75.206  1.00  0.00    -0.344 OA
ATOM     14  C   UNL     1      13.974  46.885  73.809  1.00  0.00     0.179 C 
ATOM     15  C   UNL     1      15.292  47.620  73.290  1.00  0.00     0.202 C 
BRANCH  12  16
ATOM     16  O   UNL     1      11.790  47.300  74.869  1.00  0.00    -0.388 OA
ATOM     17  H   UNL     1      10.978  47.104  74.284  1.00  0.00     0.211 HD
ENDBRANCH  12  16
BRANCH  14  18
ATOM     18  O   UNL     1      14.279  46.148  74.969  1.00  0.00    -0.387 OA
ATOM     19  H   UNL     1      13.925  46.657  75.697  1.00  0.00     0.211 HD
ENDBRANCH  14  18
BRANCH  15  20
ATOM     20  O   UNL     1      15.129  47.763  71.894  1.00  0.00    -0.385 OA
ATOM     21  H   UNL     1      14.660  46.945  71.512  1.00  0.00     0.211 HD
ENDBRANCH  15  20
ENDBRANCH   8   9
ENDBRANCH   7   8
ENDBRANCH   1   7
BRANCH   2  22
ATOM     22  O   UNL     1      19.081  49.638  72.939  1.00  0.00    -0.387 OA
ATOM     23  H   UNL     1      19.262  49.764  71.894  1.00  0.00     0.211 HD
ENDBRANCH   2  22
BRANCH   3  24
ATOM     24  O   UNL     1      18.212  47.591  71.619  1.00  0.00    -0.387 OA
ATOM     25  H   UNL     1      17.266  47.544  71.984  1.00  0.00     0.211 HD
ENDBRANCH   3  24
BRANCH   5  26
ATOM     26  O   UNL     1      18.211  44.910  75.525  1.00  0.00    -0.454 OA
BRANCH  26  27
ATOM     27  C   UNL     1      18.252  43.486  75.738  1.00  0.00     0.214 A 
ATOM     28  C   UNL     1      19.033  42.867  76.774  1.00  0.00     0.180 A 
ATOM     29  C   UNL     1      17.552  42.639  74.836  1.00  0.00     0.239 A 
ATOM     30  O   UNL     1      19.284  41.534  76.677  1.00  0.00    -0.452 OA
ATOM     31  C   UNL     1      17.600  41.225  75.052  1.00  0.00     0.111 A 
ATOM     32  O   UNL     1      16.798  43.153  73.989  1.00  0.00    -0.285 OA
ATOM     33  C   UNL     1      18.640  40.721  75.867  1.00  0.00     0.146 A 
ATOM     34  C   UNL     1      16.792  40.233  74.379  1.00  0.00     0.134 A 
ATOM     35  C   UNL     1      18.992  39.361  75.882  1.00  0.00     0.094 A 
ATOM     36  C   UNL     1      17.235  38.914  74.292  1.00  0.00     0.093 A 
ATOM     37  C   UNL     1      18.315  38.446  75.104  1.00  0.00     0.123 A 
BRANCH  28  38
ATOM     38  C   UNL     1      19.283  43.465  78.110  1.00  0.00     0.025 A 
ATOM     39  C   UNL     1      18.317  43.268  79.138  1.00  0.00     0.062 A 
ATOM     40  C   UNL     1      20.061  44.629  78.156  1.00  0.00     0.016 A 
ATOM     41  C   UNL     1      18.255  44.109  80.240  1.00  0.00     0.161 A 
ATOM     42  C   UNL     1      20.022  45.490  79.235  1.00  0.00     0.051 A 
ATOM     43  C   UNL     1      19.178  45.178  80.363  1.00  0.00     0.157 A 
BRANCH  41  44
ATOM     44  O   UNL     1      17.299  43.916  81.228  1.00  0.00    -0.493 OA
ATOM     45  C   UNL     1      16.735  45.039  81.867  1.00  0.00     0.278 C 
ENDBRANCH  41  44
BRANCH  43  46
ATOM     46  O   UNL     1      19.204  45.949  81.505  1.00  0.00    -0.504 OA
ATOM     47  H   UNL     1      20.095  45.918  82.050  1.00  0.00     0.293 HD
ENDBRANCH  43  46
ENDBRANCH  28  38
BRANCH  34  48
ATOM     48  O   UNL     1      15.544  40.582  73.867  1.00  0.00    -0.507 OA
ATOM     49  H   UNL     1      14.680  40.137  74.202  1.00  0.00     0.293 HD
ENDBRANCH  34  48
BRANCH  37  50
ATOM     50  O   UNL     1      18.703  37.133  75.059  1.00  0.00    -0.508 OA
ATOM     51  H   UNL     1      19.318  36.821  75.776  1.00  0.00     0.293 HD
ENDBRANCH  37  50
ENDBRANCH  26  27
ENDBRANCH   5  26
BRANCH   4  52
ATOM     52  O   UNL     1      18.709  44.756  72.416  1.00  0.00    -0.384 OA
ATOM     53  H   UNL     1      19.192  44.055  72.939  1.00  0.00     0.211 HD
ENDBRANCH   4  52
TORSDOF 16
ENDMDL
MODEL 3
REMARK VINA RESULT:    -5.560      2.163      3.109
REMARK INTER + INTRA:         -12.101
REMARK INTER:                 -10.230
REMARK INTRA:                  -1.871
REMARK UNBOUND:                -2.804
REMARK SMILES COc1cc(-c2oc3cc(O)cc(O)c3c(=O)c2O[C@@H]2O[C@H](CO[C@@H]3O[C@H](C)[C@H](O)[C@H](O)[C@H]3O)[C@H](O)[C@H](O)[C@H]2O)ccc1O
REMARK SMILES IDX 22 1 35 2 37 3 39 4 20 5 21 6 23 7 24 8 25 9 28 10 27 11
REMARK SMILES IDX 29 12 26 13 31 14 33 15 30 16 32 18 34 20 36 22 38 24 19 26
REMARK SMILES IDX 18 27 6 28 16 29 7 30 15 31 17 32 8 33 13 34 9 35 12 36
REMARK SMILES IDX 10 37 5 38 4 39 41 40 3 41 42 42 43 43 2 44 1 45 44 46 14 48
REMARK SMILES IDX 11 50 40 52
REMARK H PARENT 30 17 32 19 34 21 36 23 38 25 44 47 14 49 11 51 40 53
REMARK Flexibility Score: inf
ROOT
ATOM      1  C   UNL     1      17.281  49.111  73.420  1.00  0.00     0.180 C 
ATOM      2  C   UNL     1      18.452  49.263  72.386  1.00  0.00     0.177 C 
ATOM      3  C   UNL     1      19.068  47.849  72.084  1.00  0.00     0.180 C 
ATOM      4  C   UNL     1      18.580  46.681  73.001  1.00  0.00     0.214 C 
ATOM      5  C   UNL     1      18.200  47.121  74.468  1.00  0.00     0.339 C 
ATOM      6  O   UNL     1      17.716  48.454  74.639  1.00  0.00    -0.332 OA
ENDROOT
BRANCH   1   7
ATOM      7  C   UNL     1      16.003  48.376  72.889  1.00  0.00     0.198 C 
BRANCH   7   8
ATOM      8  O   UNL     1      15.001  49.318  72.492  1.00  0.00    -0.347 OA
BRANCH   8   9
ATOM      9  C   UNL     1      13.776  49.131  73.207  1.00  0.00     0.281 C 
ATOM     10  C   UNL     1      13.640  49.724  76.830  1.00  0.00     0.041 C 
ATOM     11  C   UNL     1      13.029  49.465  75.397  1.00  0.00     0.150 C 
ATOM     12  C   UNL     1      12.046  48.184  75.325  1.00  0.00     0.174 C 
ATOM     13  O   UNL     1      14.120  49.200  74.570  1.00  0.00    -0.344 OA
ATOM     14  C   UNL     1      12.541  47.118  74.334  1.00  0.00     0.179 C 
ATOM     15  C   UNL     1      13.047  47.763  72.965  1.00  0.00     0.202 C 
BRANCH  12  16
ATOM     16  O   UNL     1      11.872  47.684  76.636  1.00  0.00    -0.388 OA
ATOM     17  H   UNL     1      11.282  48.290  77.206  1.00  0.00     0.211 HD
ENDBRANCH  12  16
BRANCH  14  18
ATOM     18  O   UNL     1      13.597  46.402  74.929  1.00  0.00    -0.387 OA
ATOM     19  H   UNL     1      13.591  45.542  74.512  1.00  0.00     0.211 HD
ENDBRANCH  14  18
BRANCH  15  20
ATOM     20  O   UNL     1      11.902  47.870  72.144  1.00  0.00    -0.385 OA
ATOM     21  H   UNL     1      11.430  48.754  72.318  1.00  0.00     0.211 HD
ENDBRANCH  15  20
ENDBRANCH   8   9
ENDBRANCH   7   8
ENDBRANCH   1   7
BRANCH   2  22
ATOM     22  O   UNL     1      18.078  49.968  71.161  1.00  0.00    -0.387 OA
ATOM     23  H   UNL     1      17.076  49.798  70.831  1.00  0.00     0.211 HD
ENDBRANCH   2  22
BRANCH   3  24
ATOM     24  O   UNL     1      18.779  47.513  70.753  1.00  0.00    -0.387 OA
ATOM     25  H   UNL     1      19.374  46.763  70.414  1.00  0.00     0.211 HD
ENDBRANCH   3  24
BRANCH   5  26
ATOM     26  O   UNL     1      17.241  46.225  75.045  1.00  0.00    -0.454 OA
BRANCH  26  27
ATOM     27  C   UNL     1      17.384  44.795  75.137  1.00  0.00     0.214 A 
ATOM     28  C   UNL     1      18.447  44.155  75.864  1.00  0.00     0.180 A 
ATOM     29  C   UNL     1      16.484  43.969  74.411  1.00  0.00     0.239 A 
ATOM     30  O   UNL     1      18.702  42.844  75.605  1.00  0.00    -0.452 OA
ATOM     31  C   UNL     1      16.635  42.549  74.503  1.00  0.00     0.111 A 
ATOM     32  O   UNL     1      15.504  44.493  73.849  1.00  0.00    -0.285 OA
ATOM     33  C   UNL     1      17.880  42.050  74.954  1.00  0.00     0.146 A 
ATOM     34  C   UNL     1      15.700  41.559  74.017  1.00  0.00     0.134 A 
ATOM     35  C   UNL     1      18.263  40.710  74.772  1.00  0.00     0.094 A 
ATOM     36  C   UNL     1      16.141  40.271  73.714  1.00  0.00     0.093 A 
ATOM     37  C   UNL     1      17.421  39.810  74.154  1.00  0.00     0.123 A 
BRANCH  28  38
ATOM     38  C   UNL     1      19.048  44.684  77.113  1.00  0.00     0.025 A 
ATOM     39  C   UNL     1      18.670  44.097  78.355  1.00  0.00     0.062 A 
ATOM     40  C   UNL     1      19.440  46.029  77.118  1.00  0.00     0.016 A 
ATOM     41  C   UNL     1      18.840  44.774  79.554  1.00  0.00     0.161 A 
ATOM     42  C   UNL     1      19.615  46.735  78.292  1.00  0.00     0.051 A 
ATOM     43  C   UNL     1      19.414  46.070  79.556  1.00  0.00     0.157 A 
BRANCH  41  44
ATOM     44  O   UNL     1      18.453  44.197  80.757  1.00  0.00    -0.493 OA
ATOM     45  C   UNL     1      17.176  44.487  81.279  1.00  0.00     0.278 C 
ENDBRANCH  41  44
BRANCH  43  46
ATOM     46  O   UNL     1      19.696  46.707  80.746  1.00  0.00    -0.504 OA
ATOM     47  H   UNL     1      18.982  46.591  81.500  1.00  0.00     0.293 HD
ENDBRANCH  43  46
ENDBRANCH  28  38
BRANCH  34  48
ATOM     48  O   UNL     1      14.348  41.875  73.903  1.00  0.00    -0.507 OA
ATOM     49  H   UNL     1      13.657  41.542  74.587  1.00  0.00     0.293 HD
ENDBRANCH  34  48
BRANCH  37  50
ATOM     50  O   UNL     1      17.821  38.523  73.908  1.00  0.00    -0.508 OA
ATOM     51  H   UNL     1      17.456  38.087  73.092  1.00  0.00     0.293 HD
ENDBRANCH  37  50
ENDBRANCH  26  27
ENDBRANCH   5  26
BRANCH   4  52
ATOM     52  O   UNL     1      19.491  45.596  72.930  1.00  0.00    -0.384 OA
ATOM     53  H   UNL     1      20.380  45.955  73.212  1.00  0.00     0.211 HD
ENDBRANCH   4  52
TORSDOF 16
ENDMDL
MODEL 4
REMARK VINA RESULT:    -4.918      1.914      8.099
REMARK INTER + INTRA:         -11.027
REMARK INTER:                  -8.666
REMARK INTRA:                  -2.361
REMARK UNBOUND:                -2.804
REMARK SMILES COc1cc(-c2oc3cc(O)cc(O)c3c(=O)c2O[C@@H]2O[C@H](CO[C@@H]3O[C@H](C)[C@H](O)[C@H](O)[C@H]3O)[C@H](O)[C@H](O)[C@H]2O)ccc1O
REMARK SMILES IDX 22 1 35 2 37 3 39 4 20 5 21 6 23 7 24 8 25 9 28 10 27 11
REMARK SMILES IDX 29 12 26 13 31 14 33 15 30 16 32 18 34 20 36 22 38 24 19 26
REMARK SMILES IDX 18 27 6 28 16 29 7 30 15 31 17 32 8 33 13 34 9 35 12 36
REMARK SMILES IDX 10 37 5 38 4 39 41 40 3 41 42 42 43 43 2 44 1 45 44 46 14 48
REMARK SMILES IDX 11 50 40 52
REMARK H PARENT 30 17 32 19 34 21 36 23 38 25 44 47 14 49 11 51 40 53
REMARK Flexibility Score: inf
ROOT
ATOM      1  C   UNL     1      16.868  44.145  75.490  1.00  0.00     0.180 C 
ATOM      2  C   UNL     1      16.721  43.704  73.990  1.00  0.00     0.177 C 
ATOM      3  C   UNL     1      18.064  43.994  73.228  1.00  0.00     0.180 C 
ATOM      4  C   UNL     1      19.125  44.835  74.008  1.00  0.00     0.214 C 
ATOM      5  C   UNL     1      18.513  45.872  75.027  1.00  0.00     0.339 C 
ATOM      6  O   UNL     1      17.251  45.540  75.608  1.00  0.00    -0.332 OA
ENDROOT
BRANCH   1   7
ATOM      7  C   UNL     1      17.852  43.284  76.353  1.00  0.00     0.198 C 
BRANCH   7   8
ATOM      8  O   UNL     1      18.180  42.061  75.685  1.00  0.00    -0.347 OA
BRANCH   8   9
ATOM      9  C   UNL     1      19.001  41.212  76.492  1.00  0.00     0.281 C 
ATOM     10  C   UNL     1      19.040  37.584  75.918  1.00  0.00     0.041 C 
ATOM     11  C   UNL     1      19.557  38.942  76.538  1.00  0.00     0.150 C 
ATOM     12  C   UNL     1      19.654  38.932  78.151  1.00  0.00     0.174 C 
ATOM     13  O   UNL     1      18.606  39.898  76.183  1.00  0.00    -0.344 OA
ATOM     14  C   UNL     1      18.760  40.001  78.800  1.00  0.00     0.179 C 
ATOM     15  C   UNL     1      18.859  41.403  78.044  1.00  0.00     0.202 C 
BRANCH  12  16
ATOM     16  O   UNL     1      19.369  37.623  78.604  1.00  0.00    -0.388 OA
ATOM     17  H   UNL     1      19.361  37.559  79.621  1.00  0.00     0.211 HD
ENDBRANCH  12  16
BRANCH  14  18
ATOM     18  O   UNL     1      17.426  39.553  78.775  1.00  0.00    -0.387 OA
ATOM     19  H   UNL     1      16.894  40.320  78.981  1.00  0.00     0.211 HD
ENDBRANCH  14  18
BRANCH  15  20
ATOM     20  O   UNL     1      19.950  42.081  78.632  1.00  0.00    -0.385 OA
ATOM     21  H   UNL     1      20.766  42.017  78.028  1.00  0.00     0.211 HD
ENDBRANCH  15  20
ENDBRANCH   8   9
ENDBRANCH   7   8
ENDBRANCH   1   7
BRANCH   2  22
ATOM     22  O   UNL     1      16.283  42.320  73.817  1.00  0.00    -0.387 OA
ATOM     23  H   UNL     1      16.578  41.865  72.897  1.00  0.00     0.211 HD
ENDBRANCH   2  22
BRANCH   3  24
ATOM     24  O   UNL     1      18.648  42.769  72.872  1.00  0.00    -0.387 OA
ATOM     25  H   UNL     1      18.264  42.402  72.007  1.00  0.00     0.211 HD
ENDBRANCH   3  24
BRANCH   5  26
ATOM     26  O   UNL     1      19.430  46.156  76.091  1.00  0.00    -0.454 OA
BRANCH  26  27
ATOM     27  C   UNL     1      19.104  46.846  77.312  1.00  0.00     0.214 A 
ATOM     28  C   UNL     1      18.812  48.253  77.368  1.00  0.00     0.180 A 
ATOM     29  C   UNL     1      19.148  46.128  78.538  1.00  0.00     0.239 A 
ATOM     30  O   UNL     1      18.865  48.871  78.578  1.00  0.00    -0.452 OA
ATOM     31  C   UNL     1      18.826  46.821  79.747  1.00  0.00     0.111 A 
ATOM     32  O   UNL     1      19.309  44.893  78.507  1.00  0.00    -0.285 OA
ATOM     33  C   UNL     1      18.886  48.235  79.728  1.00  0.00     0.146 A 
ATOM     34  C   UNL     1      18.611  46.218  81.044  1.00  0.00     0.134 A 
ATOM     35  C   UNL     1      18.924  49.001  80.906  1.00  0.00     0.094 A 
ATOM     36  C   UNL     1      18.791  46.973  82.203  1.00  0.00     0.093 A 
ATOM     37  C   UNL     1      18.885  48.398  82.145  1.00  0.00     0.123 A 
BRANCH  28  38
ATOM     38  C   UNL     1      18.115  49.010  76.298  1.00  0.00     0.025 A 
ATOM     39  C   UNL     1      16.717  48.805  76.115  1.00  0.00     0.062 A 
ATOM     40  C   UNL     1      18.872  49.388  75.181  1.00  0.00     0.016 A 
ATOM     41  C   UNL     1      16.092  49.125  74.919  1.00  0.00     0.161 A 
ATOM     42  C   UNL     1      18.283  49.710  73.974  1.00  0.00     0.051 A 
ATOM     43  C   UNL     1      16.845  49.684  73.857  1.00  0.00     0.157 A 
BRANCH  41  44
ATOM     44  O   UNL     1      14.731  48.906  74.748  1.00  0.00    -0.493 OA
ATOM     45  C   UNL     1      13.812  49.761  75.390  1.00  0.00     0.278 C 
ENDBRANCH  41  44
BRANCH  43  46
ATOM     46  O   UNL     1      16.219  50.115  72.708  1.00  0.00    -0.504 OA
ATOM     47  H   UNL     1      16.482  49.609  71.832  1.00  0.00     0.293 HD
ENDBRANCH  43  46
ENDBRANCH  28  38
BRANCH  34  48
ATOM     48  O   UNL     1      18.171  44.900  81.134  1.00  0.00    -0.507 OA
ATOM     49  H   UNL     1      17.560  44.587  81.899  1.00  0.00     0.293 HD
ENDBRANCH  34  48
BRANCH  37  50
ATOM     50  O   UNL     1      18.997  49.137  83.293  1.00  0.00    -0.508 OA
ATOM     51  H   UNL     1      18.205  49.157  83.894  1.00  0.00     0.293 HD
ENDBRANCH  37  50
ENDBRANCH  26  27
ENDBRANCH   5  26
BRANCH   4  52
ATOM     52  O   UNL     1      20.068  45.386  73.102  1.00  0.00    -0.384 OA
ATOM     53  H   UNL     1      19.659  45.318  72.193  1.00  0.00     0.211 HD
ENDBRANCH   4  52
TORSDOF 16
ENDMDL
MODEL 5
REMARK VINA RESULT:    -4.395      2.008      3.367
REMARK INTER + INTRA:         -10.154
REMARK INTER:                  -8.526
REMARK INTRA:                  -1.628
REMARK UNBOUND:                -2.804
REMARK SMILES COc1cc(-c2oc3cc(O)cc(O)c3c(=O)c2O[C@@H]2O[C@H](CO[C@@H]3O[C@H](C)[C@H](O)[C@H](O)[C@H]3O)[C@H](O)[C@H](O)[C@H]2O)ccc1O
REMARK SMILES IDX 22 1 35 2 37 3 39 4 20 5 21 6 23 7 24 8 25 9 28 10 27 11
REMARK SMILES IDX 29 12 26 13 31 14 33 15 30 16 32 18 34 20 36 22 38 24 19 26
REMARK SMILES IDX 18 27 6 28 16 29 7 30 15 31 17 32 8 33 13 34 9 35 12 36
REMARK SMILES IDX 10 37 5 38 4 39 41 40 3 41 42 42 43 43 2 44 1 45 44 46 14 48
REMARK SMILES IDX 11 50 40 52
REMARK H PARENT 30 17 32 19 34 21 36 23 38 25 44 47 14 49 11 51 40 53
REMARK Flexibility Score: inf
ROOT
ATOM      1  C   UNL     1      16.934  49.152  73.324  1.00  0.00     0.180 C 
ATOM      2  C   UNL     1      18.072  49.289  72.252  1.00  0.00     0.177 C 
ATOM      3  C   UNL     1      19.091  48.106  72.420  1.00  0.00     0.180 C 
ATOM      4  C   UNL     1      18.911  47.223  73.697  1.00  0.00     0.214 C 
ATOM      5  C   UNL     1      18.327  47.993  74.943  1.00  0.00     0.339 C 
ATOM      6  O   UNL     1      17.465  49.100  74.674  1.00  0.00    -0.332 OA
ENDROOT
BRANCH   1   7
ATOM      7  C   UNL     1      15.963  47.938  73.126  1.00  0.00     0.198 C 
BRANCH   7   8
ATOM      8  O   UNL     1      14.598  48.352  73.244  1.00  0.00    -0.347 OA
BRANCH   8   9
ATOM      9  C   UNL     1      13.973  47.814  74.413  1.00  0.00     0.281 C 
ATOM     10  C   UNL     1      13.093  44.252  74.569  1.00  0.00     0.041 C 
ATOM     11  C   UNL     1      13.322  45.698  75.162  1.00  0.00     0.150 C 
ATOM     12  C   UNL     1      12.040  46.297  75.942  1.00  0.00     0.174 C 
ATOM     13  O   UNL     1      13.559  46.517  74.059  1.00  0.00    -0.344 OA
ATOM     14  C   UNL     1      11.524  47.600  75.310  1.00  0.00     0.179 C 
ATOM     15  C   UNL     1      12.713  48.594  74.933  1.00  0.00     0.202 C 
BRANCH  12  16
ATOM     16  O   UNL     1      11.052  45.287  76.014  1.00  0.00    -0.388 OA
ATOM     17  H   UNL     1      10.732  45.128  76.968  1.00  0.00     0.211 HD
ENDBRANCH  12  16
BRANCH  14  18
ATOM     18  O   UNL     1      10.796  47.283  74.148  1.00  0.00    -0.387 OA
ATOM     19  H   UNL     1       9.891  47.525  74.338  1.00  0.00     0.211 HD
ENDBRANCH  14  18
BRANCH  15  20
ATOM     20  O   UNL     1      12.961  49.357  76.096  1.00  0.00    -0.385 OA
ATOM     21  H   UNL     1      13.347  48.764  76.826  1.00  0.00     0.211 HD
ENDBRANCH  15  20
ENDBRANCH   8   9
ENDBRANCH   7   8
ENDBRANCH   1   7
BRANCH   2  22
ATOM     22  O   UNL     1      17.585  49.400  70.877  1.00  0.00    -0.387 OA
ATOM     23  H   UNL     1      16.997  48.575  70.540  1.00  0.00     0.211 HD
ENDBRANCH   2  22
BRANCH   3  24
ATOM     24  O   UNL     1      18.998  47.274  71.294  1.00  0.00    -0.387 OA
ATOM     25  H   UNL     1      18.791  46.313  71.547  1.00  0.00     0.211 HD
ENDBRANCH   3  24
BRANCH   5  26
ATOM     26  O   UNL     1      17.637  47.101  75.828  1.00  0.00    -0.454 OA
BRANCH  26  27
ATOM     27  C   UNL     1      18.047  45.757  76.143  1.00  0.00     0.214 A 
ATOM     28  C   UNL     1      19.004  45.445  77.170  1.00  0.00     0.180 A 
ATOM     29  C   UNL     1      17.548  44.686  75.353  1.00  0.00     0.239 A 
ATOM     30  O   UNL     1      19.582  44.214  77.156  1.00  0.00    -0.452 OA
ATOM     31  C   UNL     1      17.963  43.353  75.669  1.00  0.00     0.111 A 
ATOM     32  O   UNL     1      16.652  44.918  74.520  1.00  0.00    -0.285 OA
ATOM     33  C   UNL     1      19.131  43.199  76.451  1.00  0.00     0.146 A 
ATOM     34  C   UNL     1      17.405  42.136  75.125  1.00  0.00     0.134 A 
ATOM     35  C   UNL     1      19.817  41.976  76.544  1.00  0.00     0.094 A 
ATOM     36  C   UNL     1      18.165  40.966  75.107  1.00  0.00     0.093 A 
ATOM     37  C   UNL     1      19.362  40.856  75.881  1.00  0.00     0.123 A 
BRANCH  28  38
ATOM     38  C   UNL     1      19.152  46.201  78.439  1.00  0.00     0.025 A 
ATOM     39  C   UNL     1      18.788  45.564  79.660  1.00  0.00     0.062 A 
ATOM     40  C   UNL     1      19.044  47.596  78.371  1.00  0.00     0.016 A 
ATOM     41  C   UNL     1      18.496  46.301  80.798  1.00  0.00     0.161 A 
ATOM     42  C   UNL     1      18.751  48.361  79.484  1.00  0.00     0.051 A 
ATOM     43  C   UNL     1      18.573  47.716  80.762  1.00  0.00     0.157 A 
BRANCH  41  44
ATOM     44  O   UNL     1      18.128  45.668  81.979  1.00  0.00    -0.493 OA
ATOM     45  C   UNL     1      16.868  45.041  82.058  1.00  0.00     0.278 C 
ENDBRANCH  41  44
BRANCH  43  46
ATOM     46  O   UNL     1      18.400  48.455  81.912  1.00  0.00    -0.504 OA
ATOM     47  H   UNL     1      19.252  48.942  82.269  1.00  0.00     0.293 HD
ENDBRANCH  43  46
ENDBRANCH  28  38
BRANCH  34  48
ATOM     48  O   UNL     1      16.088  42.116  74.669  1.00  0.00    -0.507 OA
ATOM     49  H   UNL     1      15.322  42.529  75.216  1.00  0.00     0.293 HD
ENDBRANCH  34  48
BRANCH  37  50
ATOM     50  O   UNL     1      20.069  39.683  75.908  1.00  0.00    -0.508 OA
ATOM     51  H   UNL     1      19.575  38.855  75.665  1.00  0.00     0.293 HD
ENDBRANCH  37  50
ENDBRANCH  26  27
ENDBRANCH   5  26
BRANCH   4  52
ATOM     52  O   UNL     1      20.102  46.498  73.958  1.00  0.00    -0.384 OA
ATOM     53  H   UNL     1      19.923  45.553  73.684  1.00  0.00     0.211 HD
ENDBRANCH   4  52
TORSDOF 16
ENDMDL
MODEL 6
REMARK VINA RESULT:    -3.978      2.230      5.923
REMARK INTER + INTRA:          -9.456
REMARK INTER:                  -7.623
REMARK INTRA:                  -1.833
REMARK UNBOUND:                -2.804
REMARK SMILES COc1cc(-c2oc3cc(O)cc(O)c3c(=O)c2O[C@@H]2O[C@H](CO[C@@H]3O[C@H](C)[C@H](O)[C@H](O)[C@H]3O)[C@H](O)[C@H](O)[C@H]2O)ccc1O
REMARK SMILES IDX 22 1 35 2 37 3 39 4 20 5 21 6 23 7 24 8 25 9 28 10 27 11
REMARK SMILES IDX 29 12 26 13 31 14 33 15 30 16 32 18 34 20 36 22 38 24 19 26
REMARK SMILES IDX 18 27 6 28 16 29 7 30 15 31 17 32 8 33 13 34 9 35 12 36
REMARK SMILES IDX 10 37 5 38 4 39 41 40 3 41 42 42 43 43 2 44 1 45 44 46 14 48
REMARK SMILES IDX 11 50 40 52
REMARK H PARENT 30 17 32 19 34 21 36 23 38 25 44 47 14 49 11 51 40 53
REMARK Flexibility Score: inf
ROOT
ATOM      1  C   UNL     1      19.509  47.553  75.212  1.00  0.00     0.180 C 
ATOM      2  C   UNL     1      20.051  48.856  74.524  1.00  0.00     0.177 C 
ATOM      3  C   UNL     1      19.434  48.980  73.085  1.00  0.00     0.180 C 
ATOM      4  C   UNL     1      18.646  47.734  72.568  1.00  0.00     0.214 C 
ATOM      5  C   UNL     1      19.173  46.354  73.125  1.00  0.00     0.339 C 
ATOM      6  O   UNL     1      19.781  46.369  74.417  1.00  0.00    -0.332 OA
ENDROOT
BRANCH   1   7
ATOM      7  C   UNL     1      17.986  47.566  75.578  1.00  0.00     0.198 C 
BRANCH   7   8
ATOM      8  O   UNL     1      17.756  48.315  76.776  1.00  0.00    -0.347 OA
BRANCH   8   9
ATOM      9  C   UNL     1      18.800  48.127  77.736  1.00  0.00     0.281 C 
ATOM     10  C   UNL     1      19.353  44.824  79.245  1.00  0.00     0.041 C 
ATOM     11  C   UNL     1      19.718  46.322  78.904  1.00  0.00     0.150 C 
ATOM     12  C   UNL     1      20.022  47.235  80.203  1.00  0.00     0.174 C 
ATOM     13  O   UNL     1      18.587  46.847  78.281  1.00  0.00    -0.344 OA
ATOM     14  C   UNL     1      19.058  48.426  80.323  1.00  0.00     0.179 C 
ATOM     15  C   UNL     1      18.830  49.155  78.922  1.00  0.00     0.202 C 
BRANCH  12  16
ATOM     16  O   UNL     1      20.015  46.399  81.344  1.00  0.00    -0.388 OA
ATOM     17  H   UNL     1      19.552  46.837  82.140  1.00  0.00     0.211 HD
ENDBRANCH  12  16
BRANCH  14  18
ATOM     18  O   UNL     1      17.822  47.962  80.811  1.00  0.00    -0.387 OA
ATOM     19  H   UNL     1      17.793  48.228  81.729  1.00  0.00     0.211 HD
ENDBRANCH  14  18
BRANCH  15  20
ATOM     20  O   UNL     1      19.863  50.112  78.813  1.00  0.00    -0.385 OA
ATOM     21  H   UNL     1      20.222  50.132  77.861  1.00  0.00     0.211 HD
ENDBRANCH  15  20
ENDBRANCH   8   9
ENDBRANCH   7   8
ENDBRANCH   1   7
BRANCH   2  22
ATOM     22  O   UNL     1      19.850  50.072  75.312  1.00  0.00    -0.387 OA
ATOM     23  H   UNL     1      20.587  50.830  75.166  1.00  0.00     0.211 HD
ENDBRANCH   2  22
BRANCH   3  24
ATOM     24  O   UNL     1      18.571  50.086  73.064  1.00  0.00    -0.387 OA
ATOM     25  H   UNL     1      18.464  50.467  72.129  1.00  0.00     0.211 HD
ENDBRANCH   3  24
BRANCH   5  26
ATOM     26  O   UNL     1      18.131  45.369  73.137  1.00  0.00    -0.454 OA
BRANCH  26  27
ATOM     27  C   UNL     1      17.876  44.438  74.205  1.00  0.00     0.214 A 
ATOM     28  C   UNL     1      16.701  44.489  75.032  1.00  0.00     0.180 A 
ATOM     29  C   UNL     1      18.866  43.466  74.516  1.00  0.00     0.239 A 
ATOM     30  O   UNL     1      16.717  43.810  76.210  1.00  0.00    -0.452 OA
ATOM     31  C   UNL     1      18.609  42.546  75.581  1.00  0.00     0.111 A 
ATOM     32  O   UNL     1      19.849  43.343  73.760  1.00  0.00    -0.285 OA
ATOM     33  C   UNL     1      17.607  42.892  76.518  1.00  0.00     0.146 A 
ATOM     34  C   UNL     1      19.389  41.371  75.900  1.00  0.00     0.134 A 
ATOM     35  C   UNL     1      17.494  42.256  77.766  1.00  0.00     0.094 A 
ATOM     36  C   UNL     1      19.361  40.843  77.190  1.00  0.00     0.093 A 
ATOM     37  C   UNL     1      18.356  41.243  78.126  1.00  0.00     0.123 A 
BRANCH  28  38
ATOM     38  C   UNL     1      15.359  44.911  74.560  1.00  0.00     0.025 A 
ATOM     39  C   UNL     1      15.185  46.249  74.104  1.00  0.00     0.062 A 
ATOM     40  C   UNL     1      14.249  44.258  75.112  1.00  0.00     0.016 A 
ATOM     41  C   UNL     1      13.929  46.836  74.052  1.00  0.00     0.161 A 
ATOM     42  C   UNL     1      12.985  44.814  75.081  1.00  0.00     0.051 A 
ATOM     43  C   UNL     1      12.787  46.092  74.442  1.00  0.00     0.157 A 
BRANCH  41  44
ATOM     44  O   UNL     1      13.774  48.147  73.620  1.00  0.00    -0.493 OA
ATOM     45  C   UNL     1      13.725  48.413  72.237  1.00  0.00     0.278 C 
ENDBRANCH  41  44
BRANCH  43  46
ATOM     46  O   UNL     1      11.523  46.619  74.286  1.00  0.00    -0.504 OA
ATOM     47  H   UNL     1      11.150  47.149  75.106  1.00  0.00     0.293 HD
ENDBRANCH  43  46
ENDBRANCH  28  38
BRANCH  34  48
ATOM     48  O   UNL     1      20.125  40.733  74.904  1.00  0.00    -0.507 OA
ATOM     49  H   UNL     1      21.120  40.507  75.029  1.00  0.00     0.293 HD
ENDBRANCH  34  48
BRANCH  37  50
ATOM     50  O   UNL     1      18.296  40.673  79.371  1.00  0.00    -0.508 OA
ATOM     51  H   UNL     1      17.486  40.136  79.581  1.00  0.00     0.293 HD
ENDBRANCH  37  50
ENDBRANCH  26  27
ENDBRANCH   5  26
BRANCH   4  52
ATOM     52  O   UNL     1      18.523  47.789  71.156  1.00  0.00    -0.384 OA
ATOM     53  H   UNL     1      17.732  48.370  70.965  1.00  0.00     0.211 HD
ENDBRANCH   4  52
TORSDOF 16
ENDMDL
MODEL 7
REMARK VINA RESULT:    -3.954      1.789      2.936
REMARK INTER + INTRA:          -9.415
REMARK INTER:                  -9.021
REMARK INTRA:                  -0.395
REMARK UNBOUND:                -2.804
REMARK SMILES COc1cc(-c2oc3cc(O)cc(O)c3c(=O)c2O[C@@H]2O[C@H](CO[C@@H]3O[C@H](C)[C@H](O)[C@H](O)[C@H]3O)[C@H](O)[C@H](O)[C@H]2O)ccc1O
REMARK SMILES IDX 22 1 35 2 37 3 39 4 20 5 21 6 23 7 24 8 25 9 28 10 27 11
REMARK SMILES IDX 29 12 26 13 31 14 33 15 30 16 32 18 34 20 36 22 38 24 19 26
REMARK SMILES IDX 18 27 6 28 16 29 7 30 15 31 17 32 8 33 13 34 9 35 12 36
REMARK SMILES IDX 10 37 5 38 4 39 41 40 3 41 42 42 43 43 2 44 1 45 44 46 14 48
REMARK SMILES IDX 11 50 40 52
REMARK H PARENT 30 17 32 19 34 21 36 23 38 25 44 47 14 49 11 51 40 53
REMARK Flexibility Score: inf
ROOT
ATOM      1  C   UNL     1      16.258  47.415  75.100  1.00  0.00     0.180 C 
ATOM      2  C   UNL     1      16.427  48.853  75.706  1.00  0.00     0.177 C 
ATOM      3  C   UNL     1      17.948  49.123  75.992  1.00  0.00     0.180 C 
ATOM      4  C   UNL     1      18.899  47.891  75.851  1.00  0.00     0.214 C 
ATOM      5  C   UNL     1      18.226  46.506  76.197  1.00  0.00     0.339 C 
ATOM      6  O   UNL     1      16.821  46.394  75.964  1.00  0.00    -0.332 OA
ENDROOT
BRANCH   1   7
ATOM      7  C   UNL     1      16.836  47.219  73.657  1.00  0.00     0.198 C 
BRANCH   7   8
ATOM      8  O   UNL     1      15.786  47.206  72.684  1.00  0.00    -0.347 OA
BRANCH   8   9
ATOM      9  C   UNL     1      14.582  47.793  73.187  1.00  0.00     0.281 C 
ATOM     10  C   UNL     1      12.061  45.706  74.854  1.00  0.00     0.041 C 
ATOM     11  C   UNL     1      12.732  47.067  74.418  1.00  0.00     0.150 C 
ATOM     12  C   UNL     1      11.735  48.067  73.631  1.00  0.00     0.174 C 
ATOM     13  O   UNL     1      13.750  46.713  73.533  1.00  0.00    -0.344 OA
ATOM     14  C   UNL     1      12.228  48.392  72.211  1.00  0.00     0.179 C 
ATOM     15  C   UNL     1      13.793  48.701  72.178  1.00  0.00     0.202 C 
BRANCH  12  16
ATOM     16  O   UNL     1      10.437  47.507  73.652  1.00  0.00    -0.388 OA
ATOM     17  H   UNL     1       9.709  48.219  73.696  1.00  0.00     0.211 HD
ENDBRANCH  12  16
BRANCH  14  18
ATOM     18  O   UNL     1      11.953  47.295  71.374  1.00  0.00    -0.387 OA
ATOM     19  H   UNL     1      12.680  47.256  70.754  1.00  0.00     0.211 HD
ENDBRANCH  14  18
BRANCH  15  20
ATOM     20  O   UNL     1      13.918  50.083  72.445  1.00  0.00    -0.385 OA
ATOM     21  H   UNL     1      14.322  50.558  71.641  1.00  0.00     0.211 HD
ENDBRANCH  15  20
ENDBRANCH   8   9
ENDBRANCH   7   8
ENDBRANCH   1   7
BRANCH   2  22
ATOM     22  O   UNL     1      15.827  49.914  74.897  1.00  0.00    -0.387 OA
ATOM     23  H   UNL     1      16.092  50.907  75.188  1.00  0.00     0.211 HD
ENDBRANCH   2  22
BRANCH   3  24
ATOM     24  O   UNL     1      18.395  50.125  75.118  1.00  0.00    -0.387 OA
ATOM     25  H   UNL     1      18.003  51.033  75.348  1.00  0.00     0.211 HD
ENDBRANCH   3  24
BRANCH   5  26
ATOM     26  O   UNL     1      18.876  45.428  75.511  1.00  0.00    -0.454 OA
BRANCH  26  27
ATOM     27  C   UNL     1      18.664  44.028  75.767  1.00  0.00     0.214 A 
ATOM     28  C   UNL     1      19.233  43.338  76.893  1.00  0.00     0.180 A 
ATOM     29  C   UNL     1      17.924  43.264  74.825  1.00  0.00     0.239 A 
ATOM     30  O   UNL     1      19.272  41.979  76.859  1.00  0.00    -0.452 OA
ATOM     31  C   UNL     1      17.720  41.871  75.083  1.00  0.00     0.111 A 
ATOM     32  O   UNL     1      17.346  43.853  73.892  1.00  0.00    -0.285 OA
ATOM     33  C   UNL     1      18.583  41.244  76.012  1.00  0.00     0.146 A 
ATOM     34  C   UNL     1      16.827  40.992  74.362  1.00  0.00     0.134 A 
ATOM     35  C   UNL     1      18.705  39.847  76.101  1.00  0.00     0.094 A 
ATOM     36  C   UNL     1      17.056  39.616  74.357  1.00  0.00     0.093 A 
ATOM     37  C   UNL     1      17.964  39.018  75.285  1.00  0.00     0.123 A 
BRANCH  28  38
ATOM     38  C   UNL     1      19.451  43.946  78.229  1.00  0.00     0.025 A 
ATOM     39  C   UNL     1      18.522  43.658  79.271  1.00  0.00     0.062 A 
ATOM     40  C   UNL     1      20.124  45.174  78.274  1.00  0.00     0.016 A 
ATOM     41  C   UNL     1      18.405  44.483  80.380  1.00  0.00     0.161 A 
ATOM     42  C   UNL     1      20.028  46.021  79.360  1.00  0.00     0.051 A 
ATOM     43  C   UNL     1      19.232  45.629  80.498  1.00  0.00     0.157 A 
BRANCH  41  44
ATOM     44  O   UNL     1      17.485  44.201  81.381  1.00  0.00    -0.493 OA
ATOM     45  C   UNL     1      16.704  45.247  81.912  1.00  0.00     0.278 C 
ENDBRANCH  41  44
BRANCH  43  46
ATOM     46  O   UNL     1      19.209  46.391  81.645  1.00  0.00    -0.504 OA
ATOM     47  H   UNL     1      18.973  45.878  82.524  1.00  0.00     0.293 HD
ENDBRANCH  43  46
ENDBRANCH  28  38
BRANCH  34  48
ATOM     48  O   UNL     1      15.707  41.513  73.719  1.00  0.00    -0.507 OA
ATOM     49  H   UNL     1      15.679  41.636  72.699  1.00  0.00     0.293 HD
ENDBRANCH  34  48
BRANCH  37  50
ATOM     50  O   UNL     1      18.136  37.660  75.316  1.00  0.00    -0.508 OA
ATOM     51  H   UNL     1      18.206  37.195  74.440  1.00  0.00     0.293 HD
ENDBRANCH  37  50
ENDBRANCH  26  27
ENDBRANCH   5  26
BRANCH   4  52
ATOM     52  O   UNL     1      20.118  48.139  76.533  1.00  0.00    -0.384 OA
ATOM     53  H   UNL     1      20.057  47.656  77.406  1.00  0.00     0.211 HD
ENDBRANCH   4  52
TORSDOF 16
ENDMDL
MODEL 8
REMARK VINA RESULT:    -3.872      1.589      5.436
REMARK INTER + INTRA:          -9.279
REMARK INTER:                  -7.667
REMARK INTRA:                  -1.612
REMARK UNBOUND:                -2.804
REMARK SMILES COc1cc(-c2oc3cc(O)cc(O)c3c(=O)c2O[C@@H]2O[C@H](CO[C@@H]3O[C@H](C)[C@H](O)[C@H](O)[C@H]3O)[C@H](O)[C@H](O)[C@H]2O)ccc1O
REMARK SMILES IDX 22 1 35 2 37 3 39 4 20 5 21 6 23 7 24 8 25 9 28 10 27 11
REMARK SMILES IDX 29 12 26 13 31 14 33 15 30 16 32 18 34 20 36 22 38 24 19 26
REMARK SMILES IDX 18 27 6 28 16 29 7 30 15 31 17 32 8 33 13 34 9 35 12 36
REMARK SMILES IDX 10 37 5 38 4 39 41 40 3 41 42 42 43 43 2 44 1 45 44 46 14 48
REMARK SMILES IDX 11 50 40 52
REMARK H PARENT 30 17 32 19 34 21 36 23 38 25 44 47 14 49 11 51 40 53
REMARK Flexibility Score: inf
ROOT
ATOM      1  C   UNL     1      18.473  45.574  73.446  1.00  0.00     0.180 C 
ATOM      2  C   UNL     1      17.002  45.329  72.956  1.00  0.00     0.177 C 
ATOM      3  C   UNL     1      16.300  44.298  73.910  1.00  0.00     0.180 C 
ATOM      4  C   UNL     1      17.226  43.583  74.946  1.00  0.00     0.214 C 
ATOM      5  C   UNL     1      18.712  43.377  74.457  1.00  0.00     0.339 C 
ATOM      6  O   UNL     1      19.228  44.337  73.533  1.00  0.00    -0.332 OA
ENDROOT
BRANCH   1   7
ATOM      7  C   UNL     1      18.612  46.337  74.808  1.00  0.00     0.198 C 
BRANCH   7   8
ATOM      8  O   UNL     1      19.230  47.615  74.615  1.00  0.00    -0.347 OA
BRANCH   8   9
ATOM      9  C   UNL     1      18.387  48.688  75.045  1.00  0.00     0.281 C 
ATOM     10  C   UNL     1      17.207  48.837  78.520  1.00  0.00     0.041 C 
ATOM     11  C   UNL     1      17.457  49.403  77.067  1.00  0.00     0.150 C 
ATOM     12  C   UNL     1      16.120  49.943  76.335  1.00  0.00     0.174 C 
ATOM     13  O   UNL     1      17.931  48.322  76.324  1.00  0.00    -0.344 OA
ATOM     14  C   UNL     1      15.818  49.186  75.031  1.00  0.00     0.179 C 
ATOM     15  C   UNL     1      17.129  48.968  74.149  1.00  0.00     0.202 C 
BRANCH  12  16
ATOM     16  O   UNL     1      15.055  49.894  77.264  1.00  0.00    -0.388 OA
ATOM     17  H   UNL     1      15.384  49.809  78.225  1.00  0.00     0.211 HD
ENDBRANCH  12  16
BRANCH  14  18
ATOM     18  O   UNL     1      15.259  47.935  75.353  1.00  0.00    -0.387 OA
ATOM     19  H   UNL     1      15.579  47.332  74.683  1.00  0.00     0.211 HD
ENDBRANCH  14  18
BRANCH  15  20
ATOM     20  O   UNL     1      17.252  50.125  73.348  1.00  0.00    -0.385 OA
ATOM     21  H   UNL     1      17.082  50.956  73.909  1.00  0.00     0.211 HD
ENDBRANCH  15  20
ENDBRANCH   8   9
ENDBRANCH   7   8
ENDBRANCH   1   7
BRANCH   2  22
ATOM     22  O   UNL     1      16.215  46.552  72.800  1.00  0.00    -0.387 OA
ATOM     23  H   UNL     1      16.762  47.460  72.933  1.00  0.00     0.211 HD
ENDBRANCH   2  22
BRANCH   3  24
ATOM     24  O   UNL     1      15.284  44.961  74.614  1.00  0.00    -0.387 OA
ATOM     25  H   UNL     1      14.361  44.716  74.269  1.00  0.00     0.211 HD
ENDBRANCH   3  24
BRANCH   5  26
ATOM     26  O   UNL     1      19.617  43.301  75.567  1.00  0.00    -0.454 OA
BRANCH  26  27
ATOM     27  C   UNL     1      19.235  43.290  76.955  1.00  0.00     0.214 A 
ATOM     28  C   UNL     1      18.726  42.122  77.623  1.00  0.00     0.180 A 
ATOM     29  C   UNL     1      19.285  44.506  77.689  1.00  0.00     0.239 A 
ATOM     30  O   UNL     1      18.074  42.293  78.804  1.00  0.00    -0.452 OA
ATOM     31  C   UNL     1      18.900  44.488  79.067  1.00  0.00     0.111 A 
ATOM     32  O   UNL     1      19.806  45.507  77.162  1.00  0.00    -0.285 OA
ATOM     33  C   UNL     1      18.117  43.398  79.515  1.00  0.00     0.146 A 
ATOM     34  C   UNL     1      19.085  45.562  80.017  1.00  0.00     0.134 A 
ATOM     35  C   UNL     1      17.408  43.431  80.728  1.00  0.00     0.094 A 
ATOM     36  C   UNL     1      18.270  45.644  81.146  1.00  0.00     0.093 A 
ATOM     37  C   UNL     1      17.462  44.536  81.550  1.00  0.00     0.123 A 
BRANCH  28  38
ATOM     38  C   UNL     1      19.154  40.732  77.328  1.00  0.00     0.025 A 
ATOM     39  C   UNL     1      18.718  40.125  76.116  1.00  0.00     0.062 A 
ATOM     40  C   UNL     1      19.416  39.896  78.421  1.00  0.00     0.016 A 
ATOM     41  C   UNL     1      18.708  38.746  75.962  1.00  0.00     0.161 A 
ATOM     42  C   UNL     1      19.412  38.519  78.306  1.00  0.00     0.051 A 
ATOM     43  C   UNL     1      19.156  37.916  77.021  1.00  0.00     0.157 A 
BRANCH  41  44
ATOM     44  O   UNL     1      18.266  38.166  74.780  1.00  0.00    -0.493 OA
ATOM     45  C   UNL     1      17.466  38.923  73.901  1.00  0.00     0.278 C 
ENDBRANCH  41  44
BRANCH  43  46
ATOM     46  O   UNL     1      19.263  36.554  76.842  1.00  0.00    -0.504 OA
ATOM     47  H   UNL     1      20.237  36.178  76.802  1.00  0.00     0.293 HD
ENDBRANCH  43  46
ENDBRANCH  28  38
BRANCH  34  48
ATOM     48  O   UNL     1      20.114  46.484  79.835  1.00  0.00    -0.507 OA
ATOM     49  H   UNL     1      21.095  46.241  80.020  1.00  0.00     0.293 HD
ENDBRANCH  34  48
BRANCH  37  50
ATOM     50  O   UNL     1      16.713  44.601  82.695  1.00  0.00    -0.508 OA
ATOM     51  H   UNL     1      15.944  45.232  82.695  1.00  0.00     0.293 HD
ENDBRANCH  37  50
ENDBRANCH  26  27
ENDBRANCH   5  26
BRANCH   4  52
ATOM     52  O   UNL     1      16.598  42.407  75.429  1.00  0.00    -0.384 OA
ATOM     53  H   UNL     1      16.533  42.509  76.421  1.00  0.00     0.211 HD
ENDBRANCH   4  52
TORSDOF 16
ENDMDL
MODEL 9
REMARK VINA RESULT:    -3.600      2.060      6.560
REMARK INTER + INTRA:          -8.825
REMARK INTER:                  -9.238
REMARK INTRA:                   0.413
REMARK UNBOUND:                -2.804
REMARK SMILES COc1cc(-c2oc3cc(O)cc(O)c3c(=O)c2O[C@@H]2O[C@H](CO[C@@H]3O[C@H](C)[C@H](O)[C@H](O)[C@H]3O)[C@H](O)[C@H](O)[C@H]2O)ccc1O
REMARK SMILES IDX 22 1 35 2 37 3 39 4 20 5 21 6 23 7 24 8 25 9 28 10 27 11
REMARK SMILES IDX 29 12 26 13 31 14 33 15 30 16 32 18 34 20 36 22 38 24 19 26
REMARK SMILES IDX 18 27 6 28 16 29 7 30 15 31 17 32 8 33 13 34 9 35 12 36
REMARK SMILES IDX 10 37 5 38 4 39 41 40 3 41 42 42 43 43 2 44 1 45 44 46 14 48
REMARK SMILES IDX 11 50 40 52
REMARK H PARENT 30 17 32 19 34 21 36 23 38 25 44 47 14 49 11 51 40 53
REMARK Flexibility Score: inf
ROOT
ATOM      1  C   UNL     1      19.600  46.867  75.422  1.00  0.00     0.180 C 
ATOM      2  C   UNL     1      20.123  48.222  74.829  1.00  0.00     0.177 C 
ATOM      3  C   UNL     1      19.511  48.437  73.398  1.00  0.00     0.180 C 
ATOM      4  C   UNL     1      18.744  47.217  72.792  1.00  0.00     0.214 C 
ATOM      5  C   UNL     1      19.290  45.810  73.255  1.00  0.00     0.339 C 
ATOM      6  O   UNL     1      19.893  45.745  74.549  1.00  0.00    -0.332 OA
ENDROOT
BRANCH   1   7
ATOM      7  C   UNL     1      18.075  46.831  75.781  1.00  0.00     0.198 C 
BRANCH   7   8
ATOM      8  O   UNL     1      17.753  47.843  76.741  1.00  0.00    -0.347 OA
BRANCH   8   9
ATOM      9  C   UNL     1      18.696  47.881  77.816  1.00  0.00     0.281 C 
ATOM     10  C   UNL     1      18.974  45.046  80.135  1.00  0.00     0.041 C 
ATOM     11  C   UNL     1      19.429  46.408  79.476  1.00  0.00     0.150 C 
ATOM     12  C   UNL     1      19.648  47.608  80.536  1.00  0.00     0.174 C 
ATOM     13  O   UNL     1      18.382  46.780  78.634  1.00  0.00    -0.344 OA
ATOM     14  C   UNL     1      18.725  48.808  80.264  1.00  0.00     0.179 C 
ATOM     15  C   UNL     1      18.657  49.170  78.711  1.00  0.00     0.202 C 
BRANCH  12  16
ATOM     16  O   UNL     1      19.501  47.081  81.840  1.00  0.00    -0.388 OA
ATOM     17  H   UNL     1      20.043  46.229  81.975  1.00  0.00     0.211 HD
ENDBRANCH  12  16
BRANCH  14  18
ATOM     18  O   UNL     1      17.432  48.498  80.726  1.00  0.00    -0.387 OA
ATOM     19  H   UNL     1      17.559  48.027  81.548  1.00  0.00     0.211 HD
ENDBRANCH  14  18
BRANCH  15  20
ATOM     20  O   UNL     1      19.733  50.054  78.475  1.00  0.00    -0.385 OA
ATOM     21  H   UNL     1      20.041  50.471  79.351  1.00  0.00     0.211 HD
ENDBRANCH  15  20
ENDBRANCH   8   9
ENDBRANCH   7   8
ENDBRANCH   1   7
BRANCH   2  22
ATOM     22  O   UNL     1      19.900  49.378  75.697  1.00  0.00    -0.387 OA
ATOM     23  H   UNL     1      19.923  50.324  75.203  1.00  0.00     0.211 HD
ENDBRANCH   2  22
BRANCH   3  24
ATOM     24  O   UNL     1      18.630  49.527  73.450  1.00  0.00    -0.387 OA
ATOM     25  H   UNL     1      17.768  49.343  72.946  1.00  0.00     0.211 HD
ENDBRANCH   3  24
BRANCH   5  26
ATOM     26  O   UNL     1      18.264  44.811  73.194  1.00  0.00    -0.454 OA
BRANCH  26  27
ATOM     27  C   UNL     1      17.026  44.841  73.928  1.00  0.00     0.214 A 
ATOM     28  C   UNL     1      16.652  43.834  74.885  1.00  0.00     0.180 A 
ATOM     29  C   UNL     1      16.085  45.867  73.643  1.00  0.00     0.239 A 
ATOM     30  O   UNL     1      15.346  43.754  75.254  1.00  0.00    -0.452 OA
ATOM     31  C   UNL     1      14.855  45.889  74.373  1.00  0.00     0.111 A 
ATOM     32  O   UNL     1      16.421  46.799  72.887  1.00  0.00    -0.285 OA
ATOM     33  C   UNL     1      14.457  44.696  75.022  1.00  0.00     0.146 A 
ATOM     34  C   UNL     1      13.883  46.959  74.374  1.00  0.00     0.134 A 
ATOM     35  C   UNL     1      13.144  44.489  75.476  1.00  0.00     0.094 A 
ATOM     36  C   UNL     1      12.553  46.694  74.698  1.00  0.00     0.093 A 
ATOM     37  C   UNL     1      12.179  45.462  75.320  1.00  0.00     0.123 A 
BRANCH  28  38
ATOM     38  C   UNL     1      17.607  43.117  75.767  1.00  0.00     0.025 A 
ATOM     39  C   UNL     1      18.068  41.829  75.370  1.00  0.00     0.062 A 
ATOM     40  C   UNL     1      17.549  43.398  77.138  1.00  0.00     0.016 A 
ATOM     41  C   UNL     1      18.599  40.938  76.292  1.00  0.00     0.161 A 
ATOM     42  C   UNL     1      18.065  42.533  78.083  1.00  0.00     0.051 A 
ATOM     43  C   UNL     1      18.706  41.314  77.655  1.00  0.00     0.157 A 
BRANCH  41  44
ATOM     44  O   UNL     1      19.031  39.679  75.895  1.00  0.00    -0.493 OA
ATOM     45  C   UNL     1      18.083  38.652  75.718  1.00  0.00     0.278 C 
ENDBRANCH  41  44
BRANCH  43  46
ATOM     46  O   UNL     1      19.336  40.487  78.559  1.00  0.00    -0.504 OA
ATOM     47  H   UNL     1      19.234  39.462  78.382  1.00  0.00     0.293 HD
ENDBRANCH  43  46
ENDBRANCH  28  38
BRANCH  34  48
ATOM     48  O   UNL     1      14.286  48.265  74.107  1.00  0.00    -0.507 OA
ATOM     49  H   UNL     1      13.931  48.784  73.294  1.00  0.00     0.293 HD
ENDBRANCH  34  48
BRANCH  37  50
ATOM     50  O   UNL     1      10.881  45.235  75.693  1.00  0.00    -0.508 OA
ATOM     51  H   UNL     1      10.475  45.884  76.329  1.00  0.00     0.293 HD
ENDBRANCH  37  50
ENDBRANCH  26  27
ENDBRANCH   5  26
BRANCH   4  52
ATOM     52  O   UNL     1      18.625  47.368  71.387  1.00  0.00    -0.384 OA
ATOM     53  H   UNL     1      19.502  47.088  70.998  1.00  0.00     0.211 HD
ENDBRANCH   4  52
TORSDOF 16
ENDMDL
