MODEL 1
REMARK VINA RESULT:    -7.757      0.000      0.000
REMARK INTER + INTRA:         -12.385
REMARK INTER:                 -11.159
REMARK INTRA:                  -1.226
REMARK UNBOUND:                -1.226
REMARK SMILES O=c1c(O[C@@H]2O[C@@H](CO)[C@H](O)[C@@H](O)[C@H]2O)c(-c2ccc(O)cc2)oc2cc(O)cc(O)c12
REMARK SMILES IDX 4 1 3 2 16 3 24 4 2 5 25 6 1 7 32 8 26 9 30 10 27 11 29 12
REMARK SMILES IDX 17 13 18 14 19 15 20 16 23 17 22 18 21 19 31 21 28 23 5 25
REMARK SMILES IDX 14 26 6 27 12 28 7 29 10 30 15 31 13 33 8 35 9 36 11 38
REMARK H PARENT 21 20 31 22 28 24 15 32 13 34 9 37 11 39
REMARK Flexibility Score: inf
ROOT
ATOM      1  O   UNL     1     -37.635   5.520  82.018  1.00  0.00    -0.454 OA
ENDROOT
BRANCH   1   2
ATOM      2  C   UNL     1     -38.453   5.071  80.961  1.00  0.00     0.214 A 
ATOM      3  C   UNL     1     -37.895   5.029  79.666  1.00  0.00     0.180 A 
ATOM      4  O   UNL     1     -38.604   4.560  78.645  1.00  0.00    -0.452 OA
ATOM      5  C   UNL     1     -39.787   4.630  81.126  1.00  0.00     0.239 A 
ATOM      6  C   UNL     1     -39.855   4.136  78.758  1.00  0.00     0.146 A 
ATOM      7  O   UNL     1     -40.328   4.649  82.263  1.00  0.00    -0.285 OA
ATOM      8  C   UNL     1     -40.511   4.158  80.010  1.00  0.00     0.111 A 
ATOM      9  C   UNL     1     -40.519   3.668  77.621  1.00  0.00     0.094 A 
ATOM     10  C   UNL     1     -41.850   3.703  80.092  1.00  0.00     0.134 A 
ATOM     11  C   UNL     1     -41.840   3.220  77.708  1.00  0.00     0.123 A 
ATOM     12  C   UNL     1     -42.500   3.239  78.938  1.00  0.00     0.093 A 
BRANCH   3  13
ATOM     13  C   UNL     1     -36.511   5.476  79.400  1.00  0.00     0.021 A 
ATOM     14  C   UNL     1     -36.238   6.847  79.265  1.00  0.00     0.016 A 
ATOM     15  C   UNL     1     -34.933   7.288  79.026  1.00  0.00     0.047 A 
ATOM     16  C   UNL     1     -33.885   6.366  78.933  1.00  0.00     0.115 A 
ATOM     17  C   UNL     1     -35.450   4.557  79.330  1.00  0.00     0.016 A 
ATOM     18  C   UNL     1     -34.145   4.999  79.090  1.00  0.00     0.047 A 
BRANCH  16  19
ATOM     19  O   UNL     1     -32.590   6.820  78.691  1.00  0.00    -0.508 OA
ATOM     20  H   UNL     1     -32.363   7.808  78.709  1.00  0.00     0.293 HD
ENDBRANCH  16  19
ENDBRANCH   3  13
BRANCH  10  21
ATOM     21  O   UNL     1     -42.540   3.708  81.305  1.00  0.00    -0.507 OA
ATOM     22  H   UNL     1     -42.835   2.850  81.754  1.00  0.00     0.293 HD
ENDBRANCH  10  21
BRANCH  11  23
ATOM     23  O   UNL     1     -42.507   2.753  76.578  1.00  0.00    -0.508 OA
ATOM     24  H   UNL     1     -42.646   3.340  75.764  1.00  0.00     0.293 HD
ENDBRANCH  11  23
ENDBRANCH   1   2
BRANCH   1  25
ATOM     25  C   UNL     1     -37.307   4.821  83.224  1.00  0.00     0.339 C 
ATOM     26  C   UNL     1     -36.148   3.843  82.971  1.00  0.00     0.214 C 
ATOM     27  O   UNL     1     -36.995   5.715  84.285  1.00  0.00    -0.332 OA
ATOM     28  C   UNL     1     -34.857   4.630  82.672  1.00  0.00     0.180 C 
ATOM     29  C   UNL     1     -35.891   6.550  83.969  1.00  0.00     0.179 C 
ATOM     30  C   UNL     1     -34.608   5.700  83.755  1.00  0.00     0.177 C 
BRANCH  26  31
ATOM     31  O   UNL     1     -35.982   3.030  84.107  1.00  0.00    -0.384 OA
ATOM     32  H   UNL     1     -35.957   2.090  83.791  1.00  0.00     0.211 HD
ENDBRANCH  26  31
BRANCH  28  33
ATOM     33  O   UNL     1     -33.754   3.768  82.531  1.00  0.00    -0.387 OA
ATOM     34  H   UNL     1     -33.911   3.192  81.738  1.00  0.00     0.211 HD
ENDBRANCH  28  33
BRANCH  29  35
ATOM     35  C   UNL     1     -35.713   7.548  85.125  1.00  0.00     0.191 C 
BRANCH  35  36
ATOM     36  O   UNL     1     -35.011   8.690  84.711  1.00  0.00    -0.394 OA
ATOM     37  H   UNL     1     -35.687   9.398  84.551  1.00  0.00     0.210 HD
ENDBRANCH  35  36
ENDBRANCH  29  35
BRANCH  30  38
ATOM     38  O   UNL     1     -33.509   6.504  83.401  1.00  0.00    -0.387 OA
ATOM     39  H   UNL     1     -33.511   7.296  84.000  1.00  0.00     0.211 HD
ENDBRANCH  30  38
ENDBRANCH   1  25
TORSDOF 11
ENDMDL
MODEL 2
REMARK VINA RESULT:    -7.208      2.145      6.622
REMARK INTER + INTRA:         -11.594
REMARK INTER:                 -10.188
REMARK INTRA:                  -1.406
REMARK UNBOUND:                -1.226
REMARK SMILES O=c1c(O[C@@H]2O[C@@H](CO)[C@H](O)[C@@H](O)[C@H]2O)c(-c2ccc(O)cc2)oc2cc(O)cc(O)c12
REMARK SMILES IDX 4 1 3 2 16 3 24 4 2 5 25 6 1 7 32 8 26 9 30 10 27 11 29 12
REMARK SMILES IDX 17 13 18 14 19 15 20 16 23 17 22 18 21 19 31 21 28 23 5 25
REMARK SMILES IDX 14 26 6 27 12 28 7 29 10 30 15 31 13 33 8 35 9 36 11 38
REMARK H PARENT 21 20 31 22 28 24 15 32 13 34 9 37 11 39
REMARK Flexibility Score: inf
ROOT
ATOM      1  O   UNL     1     -38.066   3.791  81.427  1.00  0.00    -0.454 OA
ENDROOT
BRANCH   1   2
ATOM      2  C   UNL     1     -37.310   4.562  80.520  1.00  0.00     0.214 A 
ATOM      3  C   UNL     1     -37.886   4.865  79.269  1.00  0.00     0.180 A 
ATOM      4  O   UNL     1     -37.239   5.636  78.402  1.00  0.00    -0.452 OA
ATOM      5  C   UNL     1     -36.023   5.076  80.803  1.00  0.00     0.239 A 
ATOM      6  C   UNL     1     -36.034   6.139  78.629  1.00  0.00     0.146 A 
ATOM      7  O   UNL     1     -35.468   4.832  81.907  1.00  0.00    -0.285 OA
ATOM      8  C   UNL     1     -35.362   5.875  79.845  1.00  0.00     0.111 A 
ATOM      9  C   UNL     1     -35.433   6.932  77.648  1.00  0.00     0.094 A 
ATOM     10  C   UNL     1     -34.072   6.424  80.050  1.00  0.00     0.134 A 
ATOM     11  C   UNL     1     -34.160   7.472  77.857  1.00  0.00     0.123 A 
ATOM     12  C   UNL     1     -33.486   7.217  79.052  1.00  0.00     0.093 A 
BRANCH   3  13
ATOM     13  C   UNL     1     -39.224   4.365  78.886  1.00  0.00     0.021 A 
ATOM     14  C   UNL     1     -40.351   5.180  79.080  1.00  0.00     0.016 A 
ATOM     15  C   UNL     1     -41.622   4.728  78.712  1.00  0.00     0.047 A 
ATOM     16  C   UNL     1     -41.779   3.464  78.134  1.00  0.00     0.115 A 
ATOM     17  C   UNL     1     -39.385   3.106  78.282  1.00  0.00     0.016 A 
ATOM     18  C   UNL     1     -40.657   2.655  77.916  1.00  0.00     0.047 A 
BRANCH  16  19
ATOM     19  O   UNL     1     -43.052   3.025  77.775  1.00  0.00    -0.508 OA
ATOM     20  H   UNL     1     -43.522   3.383  76.952  1.00  0.00     0.293 HD
ENDBRANCH  16  19
ENDBRANCH   3  13
BRANCH  10  21
ATOM     21  O   UNL     1     -33.370   6.189  81.233  1.00  0.00    -0.507 OA
ATOM     22  H   UNL     1     -32.606   5.525  81.277  1.00  0.00     0.293 HD
ENDBRANCH  10  21
BRANCH  11  23
ATOM     23  O   UNL     1     -33.556   8.263  76.883  1.00  0.00    -0.508 OA
ATOM     24  H   UNL     1     -33.883   8.264  75.924  1.00  0.00     0.293 HD
ENDBRANCH  11  23
ENDBRANCH   1   2
BRANCH   1  25
ATOM     25  C   UNL     1     -38.565   4.191  82.708  1.00  0.00     0.339 C 
ATOM     26  C   UNL     1     -40.035   4.626  82.593  1.00  0.00     0.214 C 
ATOM     27  O   UNL     1     -38.413   3.163  83.678  1.00  0.00    -0.332 OA
ATOM     28  C   UNL     1     -40.914   3.407  82.252  1.00  0.00     0.180 C 
ATOM     29  C   UNL     1     -39.104   1.978  83.310  1.00  0.00     0.179 C 
ATOM     30  C   UNL     1     -40.632   2.243  83.224  1.00  0.00     0.177 C 
BRANCH  26  31
ATOM     31  O   UNL     1     -40.436   5.201  83.812  1.00  0.00    -0.384 OA
ATOM     32  H   UNL     1     -40.250   6.175  83.750  1.00  0.00     0.211 HD
ENDBRANCH  26  31
BRANCH  28  33
ATOM     33  O   UNL     1     -42.279   3.750  82.235  1.00  0.00    -0.387 OA
ATOM     34  H   UNL     1     -42.793   2.955  81.936  1.00  0.00     0.211 HD
ENDBRANCH  28  33
BRANCH  29  35
ATOM     35  C   UNL     1     -38.781   0.903  84.360  1.00  0.00     0.191 C 
BRANCH  35  36
ATOM     36  O   UNL     1     -38.749  -0.377  83.787  1.00  0.00    -0.394 OA
ATOM     37  H   UNL     1     -39.220  -0.983  84.417  1.00  0.00     0.210 HD
ENDBRANCH  35  36
ENDBRANCH  29  35
BRANCH  30  38
ATOM     38  O   UNL     1     -41.334   1.092  82.822  1.00  0.00    -0.387 OA
ATOM     39  H   UNL     1     -40.673   0.452  82.448  1.00  0.00     0.211 HD
ENDBRANCH  30  38
ENDBRANCH   1  25
TORSDOF 11
ENDMDL
MODEL 3
REMARK VINA RESULT:    -6.964      1.413      1.944
REMARK INTER + INTRA:         -11.243
REMARK INTER:                  -9.915
REMARK INTRA:                  -1.328
REMARK UNBOUND:                -1.226
REMARK SMILES O=c1c(O[C@@H]2O[C@@H](CO)[C@H](O)[C@@H](O)[C@H]2O)c(-c2ccc(O)cc2)oc2cc(O)cc(O)c12
REMARK SMILES IDX 4 1 3 2 16 3 24 4 2 5 25 6 1 7 32 8 26 9 30 10 27 11 29 12
REMARK SMILES IDX 17 13 18 14 19 15 20 16 23 17 22 18 21 19 31 21 28 23 5 25
REMARK SMILES IDX 14 26 6 27 12 28 7 29 10 30 15 31 13 33 8 35 9 36 11 38
REMARK H PARENT 21 20 31 22 28 24 15 32 13 34 9 37 11 39
REMARK Flexibility Score: inf
ROOT
ATOM      1  O   UNL     1     -37.644   5.582  81.802  1.00  0.00    -0.454 OA
ENDROOT
BRANCH   1   2
ATOM      2  C   UNL     1     -38.485   5.094  80.781  1.00  0.00     0.214 A 
ATOM      3  C   UNL     1     -37.956   5.001  79.477  1.00  0.00     0.180 A 
ATOM      4  O   UNL     1     -38.687   4.494  78.491  1.00  0.00    -0.452 OA
ATOM      5  C   UNL     1     -39.815   4.663  80.993  1.00  0.00     0.239 A 
ATOM      6  C   UNL     1     -39.936   4.077  78.648  1.00  0.00     0.146 A 
ATOM      7  O   UNL     1     -40.331   4.727  82.140  1.00  0.00    -0.285 OA
ATOM      8  C   UNL     1     -40.564   4.149  79.912  1.00  0.00     0.111 A 
ATOM      9  C   UNL     1     -40.625   3.567  77.544  1.00  0.00     0.094 A 
ATOM     10  C   UNL     1     -41.902   3.700  80.040  1.00  0.00     0.134 A 
ATOM     11  C   UNL     1     -41.944   3.125  77.678  1.00  0.00     0.123 A 
ATOM     12  C   UNL     1     -42.577   3.193  78.920  1.00  0.00     0.093 A 
BRANCH   3  13
ATOM     13  C   UNL     1     -36.577   5.434  79.163  1.00  0.00     0.021 A 
ATOM     14  C   UNL     1     -36.371   6.532  78.311  1.00  0.00     0.016 A 
ATOM     15  C   UNL     1     -35.075   6.963  78.014  1.00  0.00     0.047 A 
ATOM     16  C   UNL     1     -33.971   6.312  78.576  1.00  0.00     0.115 A 
ATOM     17  C   UNL     1     -35.465   4.801  79.745  1.00  0.00     0.016 A 
ATOM     18  C   UNL     1     -34.169   5.232  79.446  1.00  0.00     0.047 A 
BRANCH  16  19
ATOM     19  O   UNL     1     -32.685   6.751  78.268  1.00  0.00    -0.508 OA
ATOM     20  H   UNL     1     -32.224   6.477  77.408  1.00  0.00     0.293 HD
ENDBRANCH  16  19
ENDBRANCH   3  13
BRANCH  10  21
ATOM     21  O   UNL     1     -42.565   3.754  81.268  1.00  0.00    -0.507 OA
ATOM     22  H   UNL     1     -43.447   3.279  81.419  1.00  0.00     0.293 HD
ENDBRANCH  10  21
BRANCH  11  23
ATOM     23  O   UNL     1     -42.637   2.617  76.581  1.00  0.00    -0.508 OA
ATOM     24  H   UNL     1     -43.371   3.145  76.126  1.00  0.00     0.293 HD
ENDBRANCH  11  23
ENDBRANCH   1   2
BRANCH   1  25
ATOM     25  C   UNL     1     -37.860   6.724  82.639  1.00  0.00     0.339 C 
ATOM     26  C   UNL     1     -37.212   6.504  84.016  1.00  0.00     0.214 C 
ATOM     27  O   UNL     1     -37.380   7.919  82.036  1.00  0.00    -0.332 OA
ATOM     28  C   UNL     1     -35.678   6.474  83.871  1.00  0.00     0.180 C 
ATOM     29  C   UNL     1     -35.987   7.855  81.765  1.00  0.00     0.179 C 
ATOM     30  C   UNL     1     -35.181   7.705  83.084  1.00  0.00     0.177 C 
BRANCH  26  31
ATOM     31  O   UNL     1     -37.609   7.542  84.877  1.00  0.00    -0.384 OA
ATOM     32  H   UNL     1     -38.556   7.752  84.662  1.00  0.00     0.211 HD
ENDBRANCH  26  31
BRANCH  28  33
ATOM     33  O   UNL     1     -35.048   6.372  85.125  1.00  0.00    -0.387 OA
ATOM     34  H   UNL     1     -34.716   7.272  85.378  1.00  0.00     0.211 HD
ENDBRANCH  28  33
BRANCH  29  35
ATOM     35  C   UNL     1     -35.598   9.139  81.014  1.00  0.00     0.191 C 
BRANCH  35  36
ATOM     36  O   UNL     1     -34.243   9.126  80.649  1.00  0.00    -0.394 OA
ATOM     37  H   UNL     1     -33.771   9.720  81.287  1.00  0.00     0.210 HD
ENDBRANCH  35  36
ENDBRANCH  29  35
BRANCH  30  38
ATOM     38  O   UNL     1     -33.800   7.599  82.836  1.00  0.00    -0.387 OA
ATOM     39  H   UNL     1     -33.641   6.729  82.384  1.00  0.00     0.211 HD
ENDBRANCH  30  38
ENDBRANCH   1  25
TORSDOF 11
ENDMDL
MODEL 4
REMARK VINA RESULT:    -6.881      2.783      7.497
REMARK INTER + INTRA:         -11.125
REMARK INTER:                 -10.061
REMARK INTRA:                  -1.063
REMARK UNBOUND:                -1.226
REMARK SMILES O=c1c(O[C@@H]2O[C@@H](CO)[C@H](O)[C@@H](O)[C@H]2O)c(-c2ccc(O)cc2)oc2cc(O)cc(O)c12
REMARK SMILES IDX 4 1 3 2 16 3 24 4 2 5 25 6 1 7 32 8 26 9 30 10 27 11 29 12
REMARK SMILES IDX 17 13 18 14 19 15 20 16 23 17 22 18 21 19 31 21 28 23 5 25
REMARK SMILES IDX 14 26 6 27 12 28 7 29 10 30 15 31 13 33 8 35 9 36 11 38
REMARK H PARENT 21 20 31 22 28 24 15 32 13 34 9 37 11 39
REMARK Flexibility Score: inf
ROOT
ATOM      1  O   UNL     1     -38.066   5.098  78.408  1.00  0.00    -0.454 OA
ENDROOT
BRANCH   1   2
ATOM      2  C   UNL     1     -37.040   6.023  78.690  1.00  0.00     0.214 A 
ATOM      3  C   UNL     1     -37.387   7.387  78.783  1.00  0.00     0.180 A 
ATOM      4  O   UNL     1     -36.470   8.292  79.104  1.00  0.00    -0.452 OA
ATOM      5  C   UNL     1     -35.692   5.662  78.917  1.00  0.00     0.239 A 
ATOM      6  C   UNL     1     -35.197   7.995  79.326  1.00  0.00     0.146 A 
ATOM      7  O   UNL     1     -35.333   4.456  78.845  1.00  0.00    -0.285 OA
ATOM      8  C   UNL     1     -34.744   6.659  79.235  1.00  0.00     0.111 A 
ATOM      9  C   UNL     1     -34.306   9.023  79.649  1.00  0.00     0.094 A 
ATOM     10  C   UNL     1     -33.376   6.380  79.473  1.00  0.00     0.134 A 
ATOM     11  C   UNL     1     -32.957   8.741  79.883  1.00  0.00     0.123 A 
ATOM     12  C   UNL     1     -32.497   7.426  79.794  1.00  0.00     0.093 A 
BRANCH   3  13
ATOM     13  C   UNL     1     -38.771   7.855  78.555  1.00  0.00     0.021 A 
ATOM     14  C   UNL     1     -39.688   7.853  79.619  1.00  0.00     0.016 A 
ATOM     15  C   UNL     1     -40.998   8.305  79.424  1.00  0.00     0.047 A 
ATOM     16  C   UNL     1     -41.400   8.775  78.170  1.00  0.00     0.115 A 
ATOM     17  C   UNL     1     -39.175   8.353  77.304  1.00  0.00     0.016 A 
ATOM     18  C   UNL     1     -40.485   8.803  77.111  1.00  0.00     0.047 A 
BRANCH  16  19
ATOM     19  O   UNL     1     -42.709   9.219  77.990  1.00  0.00    -0.508 OA
ATOM     20  H   UNL     1     -42.916  10.053  77.453  1.00  0.00     0.293 HD
ENDBRANCH  16  19
ENDBRANCH   3  13
BRANCH  10  21
ATOM     21  O   UNL     1     -32.882   5.077  79.393  1.00  0.00    -0.507 OA
ATOM     22  H   UNL     1     -33.242   4.334  79.979  1.00  0.00     0.293 HD
ENDBRANCH  10  21
BRANCH  11  23
ATOM     23  O   UNL     1     -32.065   9.761  80.204  1.00  0.00    -0.508 OA
ATOM     24  H   UNL     1     -32.067  10.199  81.118  1.00  0.00     0.293 HD
ENDBRANCH  11  23
ENDBRANCH   1   2
BRANCH   1  25
ATOM     25  C   UNL     1     -38.196   3.761  78.906  1.00  0.00     0.339 C 
ATOM     26  C   UNL     1     -38.487   3.785  80.416  1.00  0.00     0.214 C 
ATOM     27  O   UNL     1     -39.197   3.033  78.207  1.00  0.00    -0.332 OA
ATOM     28  C   UNL     1     -39.885   4.380  80.669  1.00  0.00     0.180 C 
ATOM     29  C   UNL     1     -40.473   3.646  78.312  1.00  0.00     0.179 C 
ATOM     30  C   UNL     1     -40.944   3.678  79.792  1.00  0.00     0.177 C 
BRANCH  26  31
ATOM     31  O   UNL     1     -38.409   2.472  80.915  1.00  0.00    -0.384 OA
ATOM     32  H   UNL     1     -38.288   2.541  81.898  1.00  0.00     0.211 HD
ENDBRANCH  26  31
BRANCH  28  33
ATOM     33  O   UNL     1     -40.225   4.327  82.034  1.00  0.00    -0.387 OA
ATOM     34  H   UNL     1     -41.114   3.894  82.114  1.00  0.00     0.211 HD
ENDBRANCH  28  33
BRANCH  29  35
ATOM     35  C   UNL     1     -41.450   2.849  77.432  1.00  0.00     0.191 C 
BRANCH  35  36
ATOM     36  O   UNL     1     -42.110   1.856  78.172  1.00  0.00    -0.394 OA
ATOM     37  H   UNL     1     -42.655   1.336  77.526  1.00  0.00     0.210 HD
ENDBRANCH  35  36
ENDBRANCH  29  35
BRANCH  30  38
ATOM     38  O   UNL     1     -42.189   4.319  79.925  1.00  0.00    -0.387 OA
ATOM     39  H   UNL     1     -42.018   5.246  80.236  1.00  0.00     0.211 HD
ENDBRANCH  30  38
ENDBRANCH   1  25
TORSDOF 11
ENDMDL
MODEL 5
REMARK VINA RESULT:    -6.529      1.871      2.987
REMARK INTER + INTRA:         -10.618
REMARK INTER:                  -9.797
REMARK INTRA:                  -0.821
REMARK UNBOUND:                -1.226
REMARK SMILES O=c1c(O[C@@H]2O[C@@H](CO)[C@H](O)[C@@H](O)[C@H]2O)c(-c2ccc(O)cc2)oc2cc(O)cc(O)c12
REMARK SMILES IDX 4 1 3 2 16 3 24 4 2 5 25 6 1 7 32 8 26 9 30 10 27 11 29 12
REMARK SMILES IDX 17 13 18 14 19 15 20 16 23 17 22 18 21 19 31 21 28 23 5 25
REMARK SMILES IDX 14 26 6 27 12 28 7 29 10 30 15 31 13 33 8 35 9 36 11 38
REMARK H PARENT 21 20 31 22 28 24 15 32 13 34 9 37 11 39
REMARK Flexibility Score: inf
ROOT
ATOM      1  O   UNL     1     -37.827   5.648  81.849  1.00  0.00    -0.454 OA
ENDROOT
BRANCH   1   2
ATOM      2  C   UNL     1     -38.625   5.140  80.804  1.00  0.00     0.214 A 
ATOM      3  C   UNL     1     -38.054   5.056  79.517  1.00  0.00     0.180 A 
ATOM      4  O   UNL     1     -38.744   4.532  78.510  1.00  0.00    -0.452 OA
ATOM      5  C   UNL     1     -39.951   4.680  80.975  1.00  0.00     0.239 A 
ATOM      6  C   UNL     1     -39.987   4.088  78.629  1.00  0.00     0.146 A 
ATOM      7  O   UNL     1     -40.504   4.734  82.106  1.00  0.00    -0.285 OA
ATOM      8  C   UNL     1     -40.655   4.148  79.873  1.00  0.00     0.111 A 
ATOM      9  C   UNL     1     -40.631   3.561  77.506  1.00  0.00     0.094 A 
ATOM     10  C   UNL     1     -41.986   3.670  79.962  1.00  0.00     0.134 A 
ATOM     11  C   UNL     1     -41.943   3.090  77.600  1.00  0.00     0.123 A 
ATOM     12  C   UNL     1     -42.616   3.146  78.822  1.00  0.00     0.093 A 
BRANCH   3  13
ATOM     13  C   UNL     1     -36.677   5.520  79.245  1.00  0.00     0.021 A 
ATOM     14  C   UNL     1     -35.588   4.702  79.590  1.00  0.00     0.016 A 
ATOM     15  C   UNL     1     -34.279   5.119  79.328  1.00  0.00     0.047 A 
ATOM     16  C   UNL     1     -34.044   6.349  78.707  1.00  0.00     0.115 A 
ATOM     17  C   UNL     1     -36.434   6.744  78.597  1.00  0.00     0.016 A 
ATOM     18  C   UNL     1     -35.125   7.160  78.338  1.00  0.00     0.047 A 
BRANCH  16  19
ATOM     19  O   UNL     1     -32.734   6.753  78.455  1.00  0.00    -0.508 OA
ATOM     20  H   UNL     1     -32.208   7.293  79.133  1.00  0.00     0.293 HD
ENDBRANCH  16  19
ENDBRANCH   3  13
BRANCH  10  21
ATOM     21  O   UNL     1     -42.687   3.711  81.168  1.00  0.00    -0.507 OA
ATOM     22  H   UNL     1     -42.503   3.052  81.915  1.00  0.00     0.293 HD
ENDBRANCH  10  21
BRANCH  11  23
ATOM     23  O   UNL     1     -42.590   2.564  76.484  1.00  0.00    -0.508 OA
ATOM     24  H   UNL     1     -42.097   2.396  75.616  1.00  0.00     0.293 HD
ENDBRANCH  11  23
ENDBRANCH   1   2
BRANCH   1  25
ATOM     25  C   UNL     1     -38.186   6.641  82.817  1.00  0.00     0.339 C 
ATOM     26  C   UNL     1     -36.923   7.316  83.379  1.00  0.00     0.214 C 
ATOM     27  O   UNL     1     -39.080   7.606  82.276  1.00  0.00    -0.332 OA
ATOM     28  C   UNL     1     -36.241   8.147  82.275  1.00  0.00     0.180 C 
ATOM     29  C   UNL     1     -38.518   8.287  81.164  1.00  0.00     0.179 C 
ATOM     30  C   UNL     1     -37.258   9.087  81.593  1.00  0.00     0.177 C 
BRANCH  26  31
ATOM     31  O   UNL     1     -37.289   8.134  84.462  1.00  0.00    -0.384 OA
ATOM     32  H   UNL     1     -37.208   7.582  85.283  1.00  0.00     0.211 HD
ENDBRANCH  26  31
BRANCH  28  33
ATOM     33  O   UNL     1     -35.136   8.857  82.779  1.00  0.00    -0.387 OA
ATOM     34  H   UNL     1     -34.822   8.396  83.600  1.00  0.00     0.211 HD
ENDBRANCH  28  33
BRANCH  29  35
ATOM     35  C   UNL     1     -39.600   9.215  80.589  1.00  0.00     0.191 C 
BRANCH  35  36
ATOM     36  O   UNL     1     -40.545   8.497  79.841  1.00  0.00    -0.394 OA
ATOM     37  H   UNL     1     -41.296   8.288  80.456  1.00  0.00     0.210 HD
ENDBRANCH  35  36
ENDBRANCH  29  35
BRANCH  30  38
ATOM     38  O   UNL     1     -36.661   9.738  80.498  1.00  0.00    -0.387 OA
ATOM     39  H   UNL     1     -36.576   9.075  79.764  1.00  0.00     0.211 HD
ENDBRANCH  30  38
ENDBRANCH   1  25
TORSDOF 11
ENDMDL
MODEL 6
REMARK VINA RESULT:    -6.468      1.936      6.114
REMARK INTER + INTRA:         -10.531
REMARK INTER:                  -9.262
REMARK INTRA:                  -1.269
REMARK UNBOUND:                -1.226
REMARK SMILES O=c1c(O[C@@H]2O[C@@H](CO)[C@H](O)[C@@H](O)[C@H]2O)c(-c2ccc(O)cc2)oc2cc(O)cc(O)c12
REMARK SMILES IDX 4 1 3 2 16 3 24 4 2 5 25 6 1 7 32 8 26 9 30 10 27 11 29 12
REMARK SMILES IDX 17 13 18 14 19 15 20 16 23 17 22 18 21 19 31 21 28 23 5 25
REMARK SMILES IDX 14 26 6 27 12 28 7 29 10 30 15 31 13 33 8 35 9 36 11 38
REMARK H PARENT 21 20 31 22 28 24 15 32 13 34 9 37 11 39
REMARK Flexibility Score: inf
ROOT
ATOM      1  O   UNL     1     -38.187   3.703  81.105  1.00  0.00    -0.454 OA
ENDROOT
BRANCH   1   2
ATOM      2  C   UNL     1     -37.453   4.528  80.228  1.00  0.00     0.214 A 
ATOM      3  C   UNL     1     -38.059   4.903  79.010  1.00  0.00     0.180 A 
ATOM      4  O   UNL     1     -37.434   5.726  78.176  1.00  0.00    -0.452 OA
ATOM      5  C   UNL     1     -36.161   5.029  80.511  1.00  0.00     0.239 A 
ATOM      6  C   UNL     1     -36.225   6.217  78.404  1.00  0.00     0.146 A 
ATOM      7  O   UNL     1     -35.580   4.722  81.585  1.00  0.00    -0.285 OA
ATOM      8  C   UNL     1     -35.525   5.884  79.586  1.00  0.00     0.111 A 
ATOM      9  C   UNL     1     -35.648   7.070  77.458  1.00  0.00     0.094 A 
ATOM     10  C   UNL     1     -34.231   6.425  79.793  1.00  0.00     0.134 A 
ATOM     11  C   UNL     1     -34.372   7.600  77.669  1.00  0.00     0.123 A 
ATOM     12  C   UNL     1     -33.669   7.277  78.831  1.00  0.00     0.093 A 
BRANCH   3  13
ATOM     13  C   UNL     1     -39.404   4.422  78.630  1.00  0.00     0.021 A 
ATOM     14  C   UNL     1     -39.550   3.147  78.059  1.00  0.00     0.016 A 
ATOM     15  C   UNL     1     -40.817   2.672  77.705  1.00  0.00     0.047 A 
ATOM     16  C   UNL     1     -41.952   3.457  77.931  1.00  0.00     0.115 A 
ATOM     17  C   UNL     1     -40.552   5.196  78.878  1.00  0.00     0.016 A 
ATOM     18  C   UNL     1     -41.817   4.720  78.522  1.00  0.00     0.047 A 
BRANCH  16  19
ATOM     19  O   UNL     1     -43.207   2.971  77.570  1.00  0.00    -0.508 OA
ATOM     20  H   UNL     1     -43.788   3.456  76.896  1.00  0.00     0.293 HD
ENDBRANCH  16  19
ENDBRANCH   3  13
BRANCH  10  21
ATOM     21  O   UNL     1     -33.501   6.122  80.944  1.00  0.00    -0.507 OA
ATOM     22  H   UNL     1     -32.714   5.484  80.924  1.00  0.00     0.293 HD
ENDBRANCH  10  21
BRANCH  11  23
ATOM     23  O   UNL     1     -33.793   8.449  76.729  1.00  0.00    -0.508 OA
ATOM     24  H   UNL     1     -32.808   8.684  76.763  1.00  0.00     0.293 HD
ENDBRANCH  11  23
ENDBRANCH   1   2
BRANCH   1  25
ATOM     25  C   UNL     1     -39.200   4.101  82.036  1.00  0.00     0.339 C 
ATOM     26  C   UNL     1     -40.165   2.934  82.301  1.00  0.00     0.214 C 
ATOM     27  O   UNL     1     -38.639   4.584  83.250  1.00  0.00    -0.332 OA
ATOM     28  C   UNL     1     -39.430   1.811  83.058  1.00  0.00     0.180 C 
ATOM     29  C   UNL     1     -37.840   3.603  83.894  1.00  0.00     0.179 C 
ATOM     30  C   UNL     1     -38.701   2.375  84.296  1.00  0.00     0.177 C 
BRANCH  26  31
ATOM     31  O   UNL     1     -41.255   3.408  83.052  1.00  0.00    -0.384 OA
ATOM     32  H   UNL     1     -41.063   4.355  83.278  1.00  0.00     0.211 HD
ENDBRANCH  26  31
BRANCH  28  33
ATOM     33  O   UNL     1     -40.309   0.768  83.404  1.00  0.00    -0.387 OA
ATOM     34  H   UNL     1     -39.769  -0.049  83.565  1.00  0.00     0.211 HD
ENDBRANCH  28  33
BRANCH  29  35
ATOM     35  C   UNL     1     -37.194   4.260  85.125  1.00  0.00     0.191 C 
BRANCH  35  36
ATOM     36  O   UNL     1     -36.089   5.045  84.764  1.00  0.00    -0.394 OA
ATOM     37  H   UNL     1     -36.406   5.984  84.728  1.00  0.00     0.210 HD
ENDBRANCH  35  36
ENDBRANCH  29  35
BRANCH  30  38
ATOM     38  O   UNL     1     -37.921   1.372  84.900  1.00  0.00    -0.387 OA
ATOM     39  H   UNL     1     -38.411   0.513  84.809  1.00  0.00     0.211 HD
ENDBRANCH  30  38
ENDBRANCH   1  25
TORSDOF 11
ENDMDL
MODEL 7
REMARK VINA RESULT:    -6.428      2.147      7.000
REMARK INTER + INTRA:         -10.473
REMARK INTER:                  -9.620
REMARK INTRA:                  -0.852
REMARK UNBOUND:                -1.226
REMARK SMILES O=c1c(O[C@@H]2O[C@@H](CO)[C@H](O)[C@@H](O)[C@H]2O)c(-c2ccc(O)cc2)oc2cc(O)cc(O)c12
REMARK SMILES IDX 4 1 3 2 16 3 24 4 2 5 25 6 1 7 32 8 26 9 30 10 27 11 29 12
REMARK SMILES IDX 17 13 18 14 19 15 20 16 23 17 22 18 21 19 31 21 28 23 5 25
REMARK SMILES IDX 14 26 6 27 12 28 7 29 10 30 15 31 13 33 8 35 9 36 11 38
REMARK H PARENT 21 20 31 22 28 24 15 32 13 34 9 37 11 39
REMARK Flexibility Score: inf
ROOT
ATOM      1  O   UNL     1     -38.564   5.218  81.285  1.00  0.00    -0.454 OA
ENDROOT
BRANCH   1   2
ATOM      2  C   UNL     1     -37.307   5.798  81.555  1.00  0.00     0.214 A 
ATOM      3  C   UNL     1     -36.765   6.678  80.595  1.00  0.00     0.180 A 
ATOM      4  O   UNL     1     -35.611   7.295  80.827  1.00  0.00    -0.452 OA
ATOM      5  C   UNL     1     -36.573   5.574  82.743  1.00  0.00     0.239 A 
ATOM      6  C   UNL     1     -34.895   7.114  81.927  1.00  0.00     0.146 A 
ATOM      7  O   UNL     1     -37.016   4.796  83.629  1.00  0.00    -0.285 OA
ATOM      8  C   UNL     1     -35.341   6.235  82.939  1.00  0.00     0.111 A 
ATOM      9  C   UNL     1     -33.688   7.804  82.072  1.00  0.00     0.094 A 
ATOM     10  C   UNL     1     -34.545   6.062  84.099  1.00  0.00     0.134 A 
ATOM     11  C   UNL     1     -32.908   7.630  83.219  1.00  0.00     0.123 A 
ATOM     12  C   UNL     1     -33.336   6.763  84.225  1.00  0.00     0.093 A 
BRANCH   3  13
ATOM     13  C   UNL     1     -37.460   6.966  79.322  1.00  0.00     0.021 A 
ATOM     14  C   UNL     1     -38.562   7.836  79.314  1.00  0.00     0.016 A 
ATOM     15  C   UNL     1     -39.223   8.129  78.117  1.00  0.00     0.047 A 
ATOM     16  C   UNL     1     -38.783   7.567  76.915  1.00  0.00     0.115 A 
ATOM     17  C   UNL     1     -37.006   6.425  78.107  1.00  0.00     0.016 A 
ATOM     18  C   UNL     1     -37.669   6.717  76.911  1.00  0.00     0.047 A 
BRANCH  16  19
ATOM     19  O   UNL     1     -39.453   7.865  75.730  1.00  0.00    -0.508 OA
ATOM     20  H   UNL     1     -38.952   8.020  74.863  1.00  0.00     0.293 HD
ENDBRANCH  16  19
ENDBRANCH   3  13
BRANCH  10  21
ATOM     21  O   UNL     1     -34.944   5.203  85.124  1.00  0.00    -0.507 OA
ATOM     22  H   UNL     1     -34.608   4.249  85.181  1.00  0.00     0.293 HD
ENDBRANCH  10  21
BRANCH  11  23
ATOM     23  O   UNL     1     -31.704   8.314  83.369  1.00  0.00    -0.508 OA
ATOM     24  H   UNL     1     -31.334   8.543  84.284  1.00  0.00     0.293 HD
ENDBRANCH  11  23
ENDBRANCH   1   2
BRANCH   1  25
ATOM     25  C   UNL     1     -38.954   3.854  81.477  1.00  0.00     0.339 C 
ATOM     26  C   UNL     1     -40.342   3.787  82.136  1.00  0.00     0.214 C 
ATOM     27  O   UNL     1     -38.934   3.123  80.258  1.00  0.00    -0.332 OA
ATOM     28  C   UNL     1     -41.410   4.312  81.157  1.00  0.00     0.180 C 
ATOM     29  C   UNL     1     -39.812   3.678  79.290  1.00  0.00     0.179 C 
ATOM     30  C   UNL     1     -41.283   3.614  79.786  1.00  0.00     0.177 C 
BRANCH  26  31
ATOM     31  O   UNL     1     -40.610   2.454  82.496  1.00  0.00    -0.384 OA
ATOM     32  H   UNL     1     -40.414   1.893  81.701  1.00  0.00     0.211 HD
ENDBRANCH  26  31
BRANCH  28  33
ATOM     33  O   UNL     1     -42.704   4.174  81.691  1.00  0.00    -0.387 OA
ATOM     34  H   UNL     1     -42.657   4.356  82.665  1.00  0.00     0.211 HD
ENDBRANCH  28  33
BRANCH  29  35
ATOM     35  C   UNL     1     -39.629   2.889  77.983  1.00  0.00     0.191 C 
BRANCH  35  36
ATOM     36  O   UNL     1     -38.643   1.900  78.118  1.00  0.00    -0.394 OA
ATOM     37  H   UNL     1     -37.801   2.368  78.356  1.00  0.00     0.210 HD
ENDBRANCH  35  36
ENDBRANCH  29  35
BRANCH  30  38
ATOM     38  O   UNL     1     -42.167   4.197  78.860  1.00  0.00    -0.387 OA
ATOM     39  H   UNL     1     -42.953   3.596  78.776  1.00  0.00     0.211 HD
ENDBRANCH  30  38
ENDBRANCH   1  25
TORSDOF 11
ENDMDL
MODEL 8
REMARK VINA RESULT:    -6.322      2.775      5.163
REMARK INTER + INTRA:         -10.320
REMARK INTER:                  -8.613
REMARK INTRA:                  -1.707
REMARK UNBOUND:                -1.226
REMARK SMILES O=c1c(O[C@@H]2O[C@@H](CO)[C@H](O)[C@@H](O)[C@H]2O)c(-c2ccc(O)cc2)oc2cc(O)cc(O)c12
REMARK SMILES IDX 4 1 3 2 16 3 24 4 2 5 25 6 1 7 32 8 26 9 30 10 27 11 29 12
REMARK SMILES IDX 17 13 18 14 19 15 20 16 23 17 22 18 21 19 31 21 28 23 5 25
REMARK SMILES IDX 14 26 6 27 12 28 7 29 10 30 15 31 13 33 8 35 9 36 11 38
REMARK H PARENT 21 20 31 22 28 24 15 32 13 34 9 37 11 39
REMARK Flexibility Score: inf
ROOT
ATOM      1  O   UNL     1     -36.471   6.247  79.884  1.00  0.00    -0.454 OA
ENDROOT
BRANCH   1   2
ATOM      2  C   UNL     1     -37.565   5.574  80.466  1.00  0.00     0.214 A 
ATOM      3  C   UNL     1     -38.851   5.825  79.943  1.00  0.00     0.180 A 
ATOM      4  O   UNL     1     -39.907   5.174  80.416  1.00  0.00    -0.452 OA
ATOM      5  C   UNL     1     -37.446   4.639  81.520  1.00  0.00     0.239 A 
ATOM      6  C   UNL     1     -39.838   4.289  81.401  1.00  0.00     0.146 A 
ATOM      7  O   UNL     1     -36.319   4.381  82.020  1.00  0.00    -0.285 OA
ATOM      8  C   UNL     1     -38.598   3.984  82.007  1.00  0.00     0.111 A 
ATOM      9  C   UNL     1     -41.010   3.663  81.835  1.00  0.00     0.094 A 
ATOM     10  C   UNL     1     -38.564   3.037  83.061  1.00  0.00     0.134 A 
ATOM     11  C   UNL     1     -40.969   2.730  82.874  1.00  0.00     0.123 A 
ATOM     12  C   UNL     1     -39.752   2.421  83.483  1.00  0.00     0.093 A 
BRANCH   3  13
ATOM     13  C   UNL     1     -39.069   6.792  78.845  1.00  0.00     0.021 A 
ATOM     14  C   UNL     1     -38.810   6.407  77.519  1.00  0.00     0.016 A 
ATOM     15  C   UNL     1     -39.023   7.304  76.468  1.00  0.00     0.047 A 
ATOM     16  C   UNL     1     -39.509   8.589  76.727  1.00  0.00     0.115 A 
ATOM     17  C   UNL     1     -39.582   8.076  79.097  1.00  0.00     0.016 A 
ATOM     18  C   UNL     1     -39.793   8.973  78.044  1.00  0.00     0.047 A 
BRANCH  16  19
ATOM     19  O   UNL     1     -39.714   9.473  75.670  1.00  0.00    -0.508 OA
ATOM     20  H   UNL     1     -38.987   9.660  74.989  1.00  0.00     0.293 HD
ENDBRANCH  16  19
ENDBRANCH   3  13
BRANCH  10  21
ATOM     21  O   UNL     1     -37.364   2.705  83.692  1.00  0.00    -0.507 OA
ATOM     22  H   UNL     1     -37.299   1.931  84.342  1.00  0.00     0.293 HD
ENDBRANCH  10  21
BRANCH  11  23
ATOM     23  O   UNL     1     -42.134   2.103  83.311  1.00  0.00    -0.508 OA
ATOM     24  H   UNL     1     -42.999   2.616  83.431  1.00  0.00     0.293 HD
ENDBRANCH  11  23
ENDBRANCH   1   2
BRANCH   1  25
ATOM     25  C   UNL     1     -35.696   7.307  80.456  1.00  0.00     0.339 C 
ATOM     26  C   UNL     1     -34.197   6.979  80.359  1.00  0.00     0.214 C 
ATOM     27  O   UNL     1     -35.983   8.559  79.845  1.00  0.00    -0.332 OA
ATOM     28  C   UNL     1     -33.754   6.992  78.883  1.00  0.00     0.180 C 
ATOM     29  C   UNL     1     -35.713   8.546  78.451  1.00  0.00     0.179 C 
ATOM     30  C   UNL     1     -34.202   8.296  78.190  1.00  0.00     0.177 C 
BRANCH  26  31
ATOM     31  O   UNL     1     -33.474   7.930  81.102  1.00  0.00    -0.384 OA
ATOM     32  H   UNL     1     -33.387   8.739  80.532  1.00  0.00     0.211 HD
ENDBRANCH  26  31
BRANCH  28  33
ATOM     33  O   UNL     1     -32.367   6.792  78.763  1.00  0.00    -0.387 OA
ATOM     34  H   UNL     1     -31.907   7.507  79.276  1.00  0.00     0.211 HD
ENDBRANCH  28  33
BRANCH  29  35
ATOM     35  C   UNL     1     -36.164   9.898  77.875  1.00  0.00     0.191 C 
BRANCH  35  36
ATOM     36  O   UNL     1     -36.284   9.843  76.478  1.00  0.00    -0.394 OA
ATOM     37  H   UNL     1     -35.496  10.316  76.105  1.00  0.00     0.210 HD
ENDBRANCH  35  36
ENDBRANCH  29  35
BRANCH  30  38
ATOM     38  O   UNL     1     -33.919   8.239  76.814  1.00  0.00    -0.387 OA
ATOM     39  H   UNL     1     -34.459   7.502  76.426  1.00  0.00     0.211 HD
ENDBRANCH  30  38
ENDBRANCH   1  25
TORSDOF 11
ENDMDL
MODEL 9
REMARK VINA RESULT:    -6.264      2.209      7.440
REMARK INTER + INTRA:         -10.236
REMARK INTER:                  -9.301
REMARK INTRA:                  -0.935
REMARK UNBOUND:                -1.226
REMARK SMILES O=c1c(O[C@@H]2O[C@@H](CO)[C@H](O)[C@@H](O)[C@H]2O)c(-c2ccc(O)cc2)oc2cc(O)cc(O)c12
REMARK SMILES IDX 4 1 3 2 16 3 24 4 2 5 25 6 1 7 32 8 26 9 30 10 27 11 29 12
REMARK SMILES IDX 17 13 18 14 19 15 20 16 23 17 22 18 21 19 31 21 28 23 5 25
REMARK SMILES IDX 14 26 6 27 12 28 7 29 10 30 15 31 13 33 8 35 9 36 11 38
REMARK H PARENT 21 20 31 22 28 24 15 32 13 34 9 37 11 39
REMARK Flexibility Score: inf
ROOT
ATOM      1  O   UNL     1     -36.864   3.942  80.179  1.00  0.00    -0.454 OA
ENDROOT
BRANCH   1   2
ATOM      2  C   UNL     1     -36.019   4.985  80.612  1.00  0.00     0.214 A 
ATOM      3  C   UNL     1     -36.266   5.553  81.880  1.00  0.00     0.180 A 
ATOM      4  O   UNL     1     -35.465   6.499  82.358  1.00  0.00    -0.452 OA
ATOM      5  C   UNL     1     -34.923   5.475  79.865  1.00  0.00     0.239 A 
ATOM      6  C   UNL     1     -34.427   6.982  81.692  1.00  0.00     0.146 A 
ATOM      7  O   UNL     1     -34.663   4.999  78.728  1.00  0.00    -0.285 OA
ATOM      8  C   UNL     1     -34.109   6.495  80.403  1.00  0.00     0.111 A 
ATOM      9  C   UNL     1     -33.649   7.985  82.279  1.00  0.00     0.094 A 
ATOM     10  C   UNL     1     -32.995   7.041  79.718  1.00  0.00     0.134 A 
ATOM     11  C   UNL     1     -32.551   8.518  81.598  1.00  0.00     0.123 A 
ATOM     12  C   UNL     1     -32.229   8.047  80.325  1.00  0.00     0.093 A 
BRANCH   3  13
ATOM     13  C   UNL     1     -37.393   5.108  82.726  1.00  0.00     0.021 A 
ATOM     14  C   UNL     1     -38.519   5.934  82.873  1.00  0.00     0.016 A 
ATOM     15  C   UNL     1     -39.600   5.523  83.659  1.00  0.00     0.047 A 
ATOM     16  C   UNL     1     -39.575   4.278  84.295  1.00  0.00     0.115 A 
ATOM     17  C   UNL     1     -37.385   3.846  83.346  1.00  0.00     0.016 A 
ATOM     18  C   UNL     1     -38.466   3.437  84.133  1.00  0.00     0.047 A 
BRANCH  16  19
ATOM     19  O   UNL     1     -40.658   3.883  85.077  1.00  0.00    -0.508 OA
ATOM     20  H   UNL     1     -40.560   3.718  86.073  1.00  0.00     0.293 HD
ENDBRANCH  16  19
ENDBRANCH   3  13
BRANCH  10  21
ATOM     21  O   UNL     1     -32.644   6.593  78.443  1.00  0.00    -0.507 OA
ATOM     22  H   UNL     1     -33.332   6.215  77.803  1.00  0.00     0.293 HD
ENDBRANCH  10  21
BRANCH  11  23
ATOM     23  O   UNL     1     -31.774   9.517  82.179  1.00  0.00    -0.508 OA
ATOM     24  H   UNL     1     -31.144   9.320  82.947  1.00  0.00     0.293 HD
ENDBRANCH  11  23
ENDBRANCH   1   2
BRANCH   1  25
ATOM     25  C   UNL     1     -37.544   3.835  78.924  1.00  0.00     0.339 C 
ATOM     26  C   UNL     1     -38.814   2.983  79.080  1.00  0.00     0.214 C 
ATOM     27  O   UNL     1     -37.851   5.111  78.379  1.00  0.00    -0.332 OA
ATOM     28  C   UNL     1     -39.837   3.729  79.958  1.00  0.00     0.180 C 
ATOM     29  C   UNL     1     -38.683   5.872  79.243  1.00  0.00     0.179 C 
ATOM     30  C   UNL     1     -40.052   5.168  79.442  1.00  0.00     0.177 C 
BRANCH  26  31
ATOM     31  O   UNL     1     -39.349   2.725  77.805  1.00  0.00    -0.384 OA
ATOM     32  H   UNL     1     -39.166   1.771  77.600  1.00  0.00     0.211 HD
ENDBRANCH  26  31
BRANCH  28  33
ATOM     33  O   UNL     1     -41.051   3.022  80.042  1.00  0.00    -0.387 OA
ATOM     34  H   UNL     1     -41.633   3.485  80.699  1.00  0.00     0.211 HD
ENDBRANCH  28  33
BRANCH  29  35
ATOM     35  C   UNL     1     -38.856   7.266  78.617  1.00  0.00     0.191 C 
BRANCH  35  36
ATOM     36  O   UNL     1     -40.060   7.358  77.903  1.00  0.00    -0.394 OA
ATOM     37  H   UNL     1     -39.885   7.952  77.127  1.00  0.00     0.210 HD
ENDBRANCH  35  36
ENDBRANCH  29  35
BRANCH  30  38
ATOM     38  O   UNL     1     -40.878   5.884  80.327  1.00  0.00    -0.387 OA
ATOM     39  H   UNL     1     -41.712   5.360  80.452  1.00  0.00     0.211 HD
ENDBRANCH  30  38
ENDBRANCH   1  25
TORSDOF 11
ENDMDL
