MODEL 1
REMARK VINA RESULT:    20.813      0.000      0.000
REMARK INTER + INTRA:          44.141
REMARK INTER:                  45.147
REMARK INTRA:                  -1.006
REMARK UNBOUND:                -1.006
REMARK SMILES CCCCCCCCCCCCCCCCCCCCCC(=O)[O-]
REMARK SMILES IDX 12 1 11 2 10 3 9 4 8 5 7 6 6 7 5 8 4 9 3 10 2 11 1 12 13 13
REMARK SMILES IDX 14 14 15 15 16 16 17 17 18 18 19 19 20 20 21 21 22 22 23 23
REMARK SMILES IDX 24 24
REMARK H PARENT
REMARK Flexibility Score: inf
ROOT
ATOM      1  C   UNL     1      -8.632 -13.151  20.455  1.00  0.00     0.000 C 
ENDROOT
BRANCH   1   2
ATOM      2  C   UNL     1      -8.951 -14.444  19.684  1.00  0.00     0.000 C 
BRANCH   2   3
ATOM      3  C   UNL     1      -8.949 -14.307  18.149  1.00  0.00     0.000 C 
BRANCH   3   4
ATOM      4  C   UNL     1      -9.462 -15.562  17.410  1.00  0.00    -0.000 C 
BRANCH   4   5
ATOM      5  C   UNL     1      -9.732 -16.733  18.371  1.00  0.00    -0.000 C 
BRANCH   5   6
ATOM      6  C   UNL     1     -10.168 -18.011  17.636  1.00  0.00    -0.000 C 
BRANCH   6   7
ATOM      7  C   UNL     1      -9.020 -19.024  17.482  1.00  0.00    -0.000 C 
BRANCH   7   8
ATOM      8  C   UNL     1      -8.476 -19.081  16.045  1.00  0.00    -0.000 C 
BRANCH   8   9
ATOM      9  C   UNL     1      -6.948 -19.247  16.000  1.00  0.00    -0.000 C 
BRANCH   9  10
ATOM     10  C   UNL     1      -6.494 -20.338  15.014  1.00  0.00    -0.000 C 
BRANCH  10  11
ATOM     11  C   UNL     1      -5.480 -19.868  13.956  1.00  0.00    -0.003 C 
ATOM     12  C   UNL     1      -6.069 -18.857  12.972  1.00  0.00     0.004 C 
ENDBRANCH  10  11
ENDBRANCH   9  10
ENDBRANCH   8   9
ENDBRANCH   7   8
ENDBRANCH   6   7
ENDBRANCH   5   6
ENDBRANCH   4   5
ENDBRANCH   3   4
ENDBRANCH   2   3
ENDBRANCH   1   2
BRANCH   1  13
ATOM     13  C   UNL     1      -7.887 -13.415  21.774  1.00  0.00     0.000 C 
BRANCH  13  14
ATOM     14  C   UNL     1      -7.715 -12.146  22.628  1.00  0.00     0.000 C 
BRANCH  14  15
ATOM     15  C   UNL     1      -6.380 -12.042  23.388  1.00  0.00     0.000 C 
BRANCH  15  16
ATOM     16  C   UNL     1      -6.463 -12.595  24.822  1.00  0.00     0.000 C 
BRANCH  16  17
ATOM     17  C   UNL     1      -5.697 -13.919  24.988  1.00  0.00     0.000 C 
BRANCH  17  18
ATOM     18  C   UNL     1      -5.242 -14.155  26.439  1.00  0.00     0.000 C 
BRANCH  18  19
ATOM     19  C   UNL     1      -5.209 -15.647  26.811  1.00  0.00     0.000 C 
BRANCH  19  20
ATOM     20  C   UNL     1      -4.485 -16.500  25.756  1.00  0.00     0.006 C 
BRANCH  20  21
ATOM     21  C   UNL     1      -5.107 -17.896  25.615  1.00  0.00     0.053 C 
BRANCH  21  22
ATOM     22  C   UNL     1      -5.384 -18.241  24.184  1.00  0.00     0.041 C 
ATOM     23  O   UNL     1      -4.598 -17.860  23.277  1.00  0.00    -0.550 OA
ATOM     24  O   UNL     1      -6.496 -19.004  23.854  1.00  0.00    -0.550 OA
ENDBRANCH  21  22
ENDBRANCH  20  21
ENDBRANCH  19  20
ENDBRANCH  18  19
ENDBRANCH  17  18
ENDBRANCH  16  17
ENDBRANCH  15  16
ENDBRANCH  14  15
ENDBRANCH  13  14
ENDBRANCH   1  13
TORSDOF 20
ENDMDL
MODEL 2
REMARK VINA RESULT:    20.956      0.830      1.307
REMARK INTER + INTRA:          44.452
REMARK INTER:                  44.844
REMARK INTRA:                  -0.392
REMARK UNBOUND:                -1.006
REMARK SMILES CCCCCCCCCCCCCCCCCCCCCC(=O)[O-]
REMARK SMILES IDX 12 1 11 2 10 3 9 4 8 5 7 6 6 7 5 8 4 9 3 10 2 11 1 12 13 13
REMARK SMILES IDX 14 14 15 15 16 16 17 17 18 18 19 19 20 20 21 21 22 22 23 23
REMARK SMILES IDX 24 24
REMARK H PARENT
REMARK Flexibility Score: inf
ROOT
ATOM      1  C   UNL     1      -9.149 -13.392  21.011  1.00  0.00     0.000 C 
ENDROOT
BRANCH   1   2
ATOM      2  C   UNL     1      -8.612 -14.269  19.867  1.00  0.00     0.000 C 
BRANCH   2   3
ATOM      3  C   UNL     1      -8.763 -13.666  18.456  1.00  0.00     0.000 C 
BRANCH   3   4
ATOM      4  C   UNL     1      -9.778 -14.412  17.563  1.00  0.00    -0.000 C 
BRANCH   4   5
ATOM      5  C   UNL     1      -9.317 -15.841  17.228  1.00  0.00    -0.000 C 
BRANCH   5   6
ATOM      6  C   UNL     1      -9.520 -16.817  18.399  1.00  0.00    -0.000 C 
BRANCH   6   7
ATOM      7  C   UNL     1     -10.278 -18.090  17.983  1.00  0.00    -0.000 C 
BRANCH   7   8
ATOM      8  C   UNL     1      -9.572 -18.850  16.848  1.00  0.00    -0.000 C 
BRANCH   8   9
ATOM      9  C   UNL     1      -8.039 -18.774  16.954  1.00  0.00    -0.000 C 
BRANCH   9  10
ATOM     10  C   UNL     1      -7.337 -18.966  15.598  1.00  0.00    -0.000 C 
BRANCH  10  11
ATOM     11  C   UNL     1      -6.291 -20.095  15.569  1.00  0.00    -0.003 C 
ATOM     12  C   UNL     1      -5.617 -20.248  14.204  1.00  0.00     0.004 C 
ENDBRANCH  10  11
ENDBRANCH   9  10
ENDBRANCH   8   9
ENDBRANCH   7   8
ENDBRANCH   6   7
ENDBRANCH   5   6
ENDBRANCH   4   5
ENDBRANCH   3   4
ENDBRANCH   2   3
ENDBRANCH   1   2
BRANCH   1  13
ATOM     13  C   UNL     1      -8.101 -12.399  21.541  1.00  0.00     0.000 C 
BRANCH  13  14
ATOM     14  C   UNL     1      -7.456 -12.857  22.861  1.00  0.00     0.000 C 
BRANCH  14  15
ATOM     15  C   UNL     1      -6.442 -11.872  23.472  1.00  0.00     0.000 C 
BRANCH  15  16
ATOM     16  C   UNL     1      -6.356 -11.975  25.005  1.00  0.00     0.000 C 
BRANCH  16  17
ATOM     17  C   UNL     1      -6.425 -13.430  25.502  1.00  0.00     0.000 C 
BRANCH  17  18
ATOM     18  C   UNL     1      -5.030 -14.051  25.691  1.00  0.00     0.000 C 
BRANCH  18  19
ATOM     19  C   UNL     1      -4.987 -15.064  26.847  1.00  0.00     0.000 C 
BRANCH  19  20
ATOM     20  C   UNL     1      -5.278 -16.501  26.382  1.00  0.00     0.006 C 
BRANCH  20  21
ATOM     21  C   UNL     1      -4.315 -16.959  25.278  1.00  0.00     0.053 C 
BRANCH  21  22
ATOM     22  C   UNL     1      -4.981 -17.888  24.309  1.00  0.00     0.041 C 
ATOM     23  O   UNL     1      -5.637 -18.877  24.729  1.00  0.00    -0.550 OA
ATOM     24  O   UNL     1      -4.896 -17.647  22.944  1.00  0.00    -0.550 OA
ENDBRANCH  21  22
ENDBRANCH  20  21
ENDBRANCH  19  20
ENDBRANCH  18  19
ENDBRANCH  17  18
ENDBRANCH  16  17
ENDBRANCH  15  16
ENDBRANCH  14  15
ENDBRANCH  13  14
ENDBRANCH   1  13
TORSDOF 20
ENDMDL
MODEL 3
REMARK VINA RESULT:    21.211      4.537      5.811
REMARK INTER + INTRA:          45.005
REMARK INTER:                  45.916
REMARK INTRA:                  -0.911
REMARK UNBOUND:                -1.006
REMARK SMILES CCCCCCCCCCCCCCCCCCCCCC(=O)[O-]
REMARK SMILES IDX 12 1 11 2 10 3 9 4 8 5 7 6 6 7 5 8 4 9 3 10 2 11 1 12 13 13
REMARK SMILES IDX 14 14 15 15 16 16 17 17 18 18 19 19 20 20 21 21 22 22 23 23
REMARK SMILES IDX 24 24
REMARK H PARENT
REMARK Flexibility Score: inf
ROOT
ATOM      1  C   UNL     1      -7.671 -13.544  21.809  1.00  0.00     0.000 C 
ENDROOT
BRANCH   1   2
ATOM      2  C   UNL     1      -8.720 -13.546  20.683  1.00  0.00     0.000 C 
BRANCH   2   3
ATOM      3  C   UNL     1      -8.166 -13.836  19.274  1.00  0.00     0.000 C 
BRANCH   3   4
ATOM      4  C   UNL     1      -9.232 -13.776  18.160  1.00  0.00    -0.000 C 
BRANCH   4   5
ATOM      5  C   UNL     1      -9.272 -15.066  17.323  1.00  0.00    -0.000 C 
BRANCH   5   6
ATOM      6  C   UNL     1      -9.981 -16.220  18.050  1.00  0.00    -0.000 C 
BRANCH   6   7
ATOM      7  C   UNL     1      -9.142 -17.511  18.068  1.00  0.00    -0.000 C 
BRANCH   7   8
ATOM      8  C   UNL     1      -9.838 -18.674  17.344  1.00  0.00    -0.000 C 
BRANCH   8   9
ATOM      9  C   UNL     1      -8.912 -19.381  16.340  1.00  0.00    -0.000 C 
BRANCH   9  10
ATOM     10  C   UNL     1      -7.445 -18.932  16.463  1.00  0.00    -0.000 C 
BRANCH  10  11
ATOM     11  C   UNL     1      -6.414 -19.962  15.969  1.00  0.00    -0.003 C 
ATOM     12  C   UNL     1      -6.218 -19.930  14.452  1.00  0.00     0.004 C 
ENDBRANCH  10  11
ENDBRANCH   9  10
ENDBRANCH   8   9
ENDBRANCH   7   8
ENDBRANCH   6   7
ENDBRANCH   5   6
ENDBRANCH   4   5
ENDBRANCH   3   4
ENDBRANCH   2   3
ENDBRANCH   1   2
BRANCH   1  13
ATOM     13  C   UNL     1      -7.644 -12.221  22.593  1.00  0.00     0.000 C 
BRANCH  13  14
ATOM     14  C   UNL     1      -6.868 -12.327  23.918  1.00  0.00     0.000 C 
BRANCH  14  15
ATOM     15  C   UNL     1      -5.602 -11.456  24.008  1.00  0.00     0.000 C 
BRANCH  15  16
ATOM     16  C   UNL     1      -5.911  -9.949  24.022  1.00  0.00     0.000 C 
BRANCH  16  17
ATOM     17  C   UNL     1      -4.945  -9.158  24.923  1.00  0.00     0.000 C 
BRANCH  17  18
ATOM     18  C   UNL     1      -4.018  -8.232  24.116  1.00  0.00     0.000 C 
BRANCH  18  19
ATOM     19  C   UNL     1      -2.600  -8.808  23.960  1.00  0.00     0.000 C 
BRANCH  19  20
ATOM     20  C   UNL     1      -1.576  -8.107  24.868  1.00  0.00     0.006 C 
BRANCH  20  21
ATOM     21  C   UNL     1      -0.883  -9.088  25.823  1.00  0.00     0.053 C 
BRANCH  21  22
ATOM     22  C   UNL     1       0.338  -8.485  26.449  1.00  0.00     0.041 C 
ATOM     23  O   UNL     1       1.122  -9.201  27.125  1.00  0.00    -0.550 OA
ATOM     24  O   UNL     1       0.621  -7.138  26.266  1.00  0.00    -0.550 OA
ENDBRANCH  21  22
ENDBRANCH  20  21
ENDBRANCH  19  20
ENDBRANCH  18  19
ENDBRANCH  17  18
ENDBRANCH  16  17
ENDBRANCH  15  16
ENDBRANCH  14  15
ENDBRANCH  13  14
ENDBRANCH   1  13
TORSDOF 20
ENDMDL
MODEL 4
REMARK VINA RESULT:    21.354      0.815      1.508
REMARK INTER + INTRA:          45.315
REMARK INTER:                  46.382
REMARK INTRA:                  -1.067
REMARK UNBOUND:                -1.006
REMARK SMILES CCCCCCCCCCCCCCCCCCCCCC(=O)[O-]
REMARK SMILES IDX 12 1 11 2 10 3 9 4 8 5 7 6 6 7 5 8 4 9 3 10 2 11 1 12 13 13
REMARK SMILES IDX 14 14 15 15 16 16 17 17 18 18 19 19 20 20 21 21 22 22 23 23
REMARK SMILES IDX 24 24
REMARK H PARENT
REMARK Flexibility Score: inf
ROOT
ATOM      1  C   UNL     1      -8.546 -12.591  21.279  1.00  0.00     0.000 C 
ENDROOT
BRANCH   1   2
ATOM      2  C   UNL     1      -9.103 -13.783  20.481  1.00  0.00     0.000 C 
BRANCH   2   3
ATOM      3  C   UNL     1      -8.398 -14.056  19.137  1.00  0.00     0.000 C 
BRANCH   3   4
ATOM      4  C   UNL     1      -9.306 -13.860  17.905  1.00  0.00    -0.000 C 
BRANCH   4   5
ATOM      5  C   UNL     1      -9.633 -15.191  17.206  1.00  0.00    -0.000 C 
BRANCH   5   6
ATOM      6  C   UNL     1      -9.254 -16.414  18.057  1.00  0.00    -0.000 C 
BRANCH   6   7
ATOM      7  C   UNL     1     -10.228 -17.590  17.868  1.00  0.00    -0.000 C 
BRANCH   7   8
ATOM      8  C   UNL     1      -9.501 -18.925  17.636  1.00  0.00    -0.000 C 
BRANCH   8   9
ATOM      9  C   UNL     1      -8.644 -18.913  16.359  1.00  0.00    -0.000 C 
BRANCH   9  10
ATOM     10  C   UNL     1      -7.157 -19.200  16.636  1.00  0.00    -0.000 C 
BRANCH  10  11
ATOM     11  C   UNL     1      -6.367 -19.727  15.425  1.00  0.00    -0.003 C 
ATOM     12  C   UNL     1      -7.176 -19.699  14.127  1.00  0.00     0.004 C 
ENDBRANCH  10  11
ENDBRANCH   9  10
ENDBRANCH   8   9
ENDBRANCH   7   8
ENDBRANCH   6   7
ENDBRANCH   5   6
ENDBRANCH   4   5
ENDBRANCH   3   4
ENDBRANCH   2   3
ENDBRANCH   1   2
BRANCH   1  13
ATOM     13  C   UNL     1      -7.553 -13.020  22.371  1.00  0.00     0.000 C 
BRANCH  13  14
ATOM     14  C   UNL     1      -6.921 -11.826  23.108  1.00  0.00     0.000 C 
BRANCH  14  15
ATOM     15  C   UNL     1      -6.495 -12.103  24.562  1.00  0.00     0.000 C 
BRANCH  15  16
ATOM     16  C   UNL     1      -5.873 -13.499  24.748  1.00  0.00     0.000 C 
BRANCH  16  17
ATOM     17  C   UNL     1      -5.719 -13.881  26.231  1.00  0.00     0.000 C 
BRANCH  17  18
ATOM     18  C   UNL     1      -4.611 -14.925  26.455  1.00  0.00     0.000 C 
BRANCH  18  19
ATOM     19  C   UNL     1      -5.171 -16.332  26.724  1.00  0.00     0.000 C 
BRANCH  19  20
ATOM     20  C   UNL     1      -4.558 -17.397  25.800  1.00  0.00     0.006 C 
BRANCH  20  21
ATOM     21  C   UNL     1      -5.612 -18.375  25.264  1.00  0.00     0.053 C 
BRANCH  21  22
ATOM     22  C   UNL     1      -5.712 -18.322  23.770  1.00  0.00     0.041 C 
ATOM     23  O   UNL     1      -6.781 -18.654  23.195  1.00  0.00    -0.550 OA
ATOM     24  O   UNL     1      -4.633 -17.881  23.016  1.00  0.00    -0.550 OA
ENDBRANCH  21  22
ENDBRANCH  20  21
ENDBRANCH  19  20
ENDBRANCH  18  19
ENDBRANCH  17  18
ENDBRANCH  16  17
ENDBRANCH  15  16
ENDBRANCH  14  15
ENDBRANCH  13  14
ENDBRANCH   1  13
TORSDOF 20
ENDMDL
MODEL 5
REMARK VINA RESULT:    21.476      4.152     10.684
REMARK INTER + INTRA:          45.581
REMARK INTER:                  46.523
REMARK INTRA:                  -0.942
REMARK UNBOUND:                -1.006
REMARK SMILES CCCCCCCCCCCCCCCCCCCCCC(=O)[O-]
REMARK SMILES IDX 12 1 11 2 10 3 9 4 8 5 7 6 6 7 5 8 4 9 3 10 2 11 1 12 13 13
REMARK SMILES IDX 14 14 15 15 16 16 17 17 18 18 19 19 20 20 21 21 22 22 23 23
REMARK SMILES IDX 24 24
REMARK H PARENT
REMARK Flexibility Score: inf
ROOT
ATOM      1  C   UNL     1      -8.172 -12.360  21.822  1.00  0.00     0.000 C 
ENDROOT
BRANCH   1   2
ATOM      2  C   UNL     1      -7.075 -12.861  22.778  1.00  0.00     0.000 C 
BRANCH   2   3
ATOM      3  C   UNL     1      -6.913 -12.043  24.074  1.00  0.00     0.000 C 
BRANCH   3   4
ATOM      4  C   UNL     1      -5.659 -11.143  24.091  1.00  0.00    -0.000 C 
BRANCH   4   5
ATOM      5  C   UNL     1      -6.016  -9.649  24.186  1.00  0.00    -0.000 C 
BRANCH   5   6
ATOM      6  C   UNL     1      -5.382  -8.967  25.409  1.00  0.00    -0.000 C 
BRANCH   6   7
ATOM      7  C   UNL     1      -3.845  -8.929  25.335  1.00  0.00    -0.000 C 
BRANCH   7   8
ATOM      8  C   UNL     1      -3.335  -8.351  24.006  1.00  0.00    -0.000 C 
BRANCH   8   9
ATOM      9  C   UNL     1      -1.811  -8.142  24.001  1.00  0.00    -0.000 C 
BRANCH   9  10
ATOM     10  C   UNL     1      -1.089  -8.995  25.058  1.00  0.00    -0.000 C 
BRANCH  10  11
ATOM     11  C   UNL     1      -0.235  -8.194  26.057  1.00  0.00    -0.003 C 
ATOM     12  C   UNL     1       0.566  -9.087  27.007  1.00  0.00     0.004 C 
ENDBRANCH  10  11
ENDBRANCH   9  10
ENDBRANCH   8   9
ENDBRANCH   7   8
ENDBRANCH   6   7
ENDBRANCH   5   6
ENDBRANCH   4   5
ENDBRANCH   3   4
ENDBRANCH   2   3
ENDBRANCH   1   2
BRANCH   1  13
ATOM     13  C   UNL     1      -8.930 -13.508  21.135  1.00  0.00     0.000 C 
BRANCH  13  14
ATOM     14  C   UNL     1      -8.288 -13.937  19.804  1.00  0.00     0.000 C 
BRANCH  14  15
ATOM     15  C   UNL     1      -9.154 -13.706  18.552  1.00  0.00     0.000 C 
BRANCH  15  16
ATOM     16  C   UNL     1      -8.845 -14.698  17.418  1.00  0.00     0.000 C 
BRANCH  16  17
ATOM     17  C   UNL     1      -9.850 -15.861  17.362  1.00  0.00     0.000 C 
BRANCH  17  18
ATOM     18  C   UNL     1      -9.364 -17.094  18.145  1.00  0.00     0.000 C 
BRANCH  18  19
ATOM     19  C   UNL     1     -10.061 -18.389  17.698  1.00  0.00     0.000 C 
BRANCH  19  20
ATOM     20  C   UNL     1      -9.205 -19.212  16.720  1.00  0.00     0.006 C 
BRANCH  20  21
ATOM     21  C   UNL     1      -7.783 -18.652  16.584  1.00  0.00     0.053 C 
BRANCH  21  22
ATOM     22  C   UNL     1      -6.929 -19.510  15.702  1.00  0.00     0.041 C 
ATOM     23  O   UNL     1      -6.848 -19.269  14.469  1.00  0.00    -0.550 OA
ATOM     24  O   UNL     1      -6.202 -20.561  16.246  1.00  0.00    -0.550 OA
ENDBRANCH  21  22
ENDBRANCH  20  21
ENDBRANCH  19  20
ENDBRANCH  18  19
ENDBRANCH  17  18
ENDBRANCH  16  17
ENDBRANCH  15  16
ENDBRANCH  14  15
ENDBRANCH  13  14
ENDBRANCH   1  13
TORSDOF 20
ENDMDL
MODEL 6
REMARK VINA RESULT:    22.038      2.610      8.943
REMARK INTER + INTRA:          46.799
REMARK INTER:                  47.823
REMARK INTRA:                  -1.024
REMARK UNBOUND:                -1.006
REMARK SMILES CCCCCCCCCCCCCCCCCCCCCC(=O)[O-]
REMARK SMILES IDX 12 1 11 2 10 3 9 4 8 5 7 6 6 7 5 8 4 9 3 10 2 11 1 12 13 13
REMARK SMILES IDX 14 14 15 15 16 16 17 17 18 18 19 19 20 20 21 21 22 22 23 23
REMARK SMILES IDX 24 24
REMARK H PARENT
REMARK Flexibility Score: inf
ROOT
ATOM      1  C   UNL     1      -8.792 -12.927  21.493  1.00  0.00     0.000 C 
ENDROOT
BRANCH   1   2
ATOM      2  C   UNL     1      -7.677 -12.097  22.152  1.00  0.00     0.000 C 
BRANCH   2   3
ATOM      3  C   UNL     1      -6.786 -12.870  23.144  1.00  0.00     0.000 C 
BRANCH   3   4
ATOM      4  C   UNL     1      -6.546 -12.129  24.477  1.00  0.00    -0.000 C 
BRANCH   4   5
ATOM      5  C   UNL     1      -6.405 -13.097  25.664  1.00  0.00    -0.000 C 
BRANCH   5   6
ATOM      6  C   UNL     1      -5.194 -14.033  25.523  1.00  0.00    -0.000 C 
BRANCH   6   7
ATOM      7  C   UNL     1      -4.755 -14.640  26.867  1.00  0.00    -0.000 C 
BRANCH   7   8
ATOM      8  C   UNL     1      -5.088 -16.137  26.973  1.00  0.00    -0.000 C 
BRANCH   8   9
ATOM      9  C   UNL     1      -4.719 -16.913  25.698  1.00  0.00    -0.000 C 
BRANCH   9  10
ATOM     10  C   UNL     1      -5.486 -18.241  25.565  1.00  0.00    -0.000 C 
BRANCH  10  11
ATOM     11  C   UNL     1      -5.796 -18.663  24.118  1.00  0.00    -0.003 C 
ATOM     12  C   UNL     1      -5.126 -17.763  23.078  1.00  0.00     0.004 C 
ENDBRANCH  10  11
ENDBRANCH   9  10
ENDBRANCH   8   9
ENDBRANCH   7   8
ENDBRANCH   6   7
ENDBRANCH   5   6
ENDBRANCH   4   5
ENDBRANCH   3   4
ENDBRANCH   2   3
ENDBRANCH   1   2
BRANCH   1  13
ATOM     13  C   UNL     1      -8.275 -13.806  20.342  1.00  0.00     0.000 C 
BRANCH  13  14
ATOM     14  C   UNL     1      -9.382 -14.205  19.350  1.00  0.00     0.000 C 
BRANCH  14  15
ATOM     15  C   UNL     1      -8.949 -14.269  17.874  1.00  0.00     0.000 C 
BRANCH  15  16
ATOM     16  C   UNL     1      -9.203 -15.645  17.234  1.00  0.00     0.000 C 
BRANCH  16  17
ATOM     17  C   UNL     1      -9.856 -16.638  18.212  1.00  0.00     0.000 C 
BRANCH  17  18
ATOM     18  C   UNL     1      -9.768 -18.092  17.716  1.00  0.00     0.000 C 
BRANCH  18  19
ATOM     19  C   UNL     1      -8.449 -18.386  16.982  1.00  0.00     0.000 C 
BRANCH  19  20
ATOM     20  C   UNL     1      -8.564 -19.581  16.020  1.00  0.00     0.006 C 
BRANCH  20  21
ATOM     21  C   UNL     1      -7.654 -19.427  14.794  1.00  0.00     0.053 C 
BRANCH  21  22
ATOM     22  C   UNL     1      -6.300 -20.025  15.028  1.00  0.00     0.041 C 
ATOM     23  O   UNL     1      -5.990 -20.467  16.165  1.00  0.00    -0.550 OA
ATOM     24  O   UNL     1      -5.390 -20.116  13.983  1.00  0.00    -0.550 OA
ENDBRANCH  21  22
ENDBRANCH  20  21
ENDBRANCH  19  20
ENDBRANCH  18  19
ENDBRANCH  17  18
ENDBRANCH  16  17
ENDBRANCH  15  16
ENDBRANCH  14  15
ENDBRANCH  13  14
ENDBRANCH   1  13
TORSDOF 20
ENDMDL
MODEL 7
REMARK VINA RESULT:    22.246      5.181      6.863
REMARK INTER + INTRA:          47.249
REMARK INTER:                  48.148
REMARK INTRA:                  -0.899
REMARK UNBOUND:                -1.006
REMARK SMILES CCCCCCCCCCCCCCCCCCCCCC(=O)[O-]
REMARK SMILES IDX 12 1 11 2 10 3 9 4 8 5 7 6 6 7 5 8 4 9 3 10 2 11 1 12 13 13
REMARK SMILES IDX 14 14 15 15 16 16 17 17 18 18 19 19 20 20 21 21 22 22 23 23
REMARK SMILES IDX 24 24
REMARK H PARENT
REMARK Flexibility Score: inf
ROOT
ATOM      1  C   UNL     1      -8.106 -12.250  22.087  1.00  0.00     0.000 C 
ENDROOT
BRANCH   1   2
ATOM      2  C   UNL     1      -8.972 -13.230  21.276  1.00  0.00     0.000 C 
BRANCH   2   3
ATOM      3  C   UNL     1      -8.753 -13.188  19.751  1.00  0.00     0.000 C 
BRANCH   3   4
ATOM      4  C   UNL     1      -8.462 -14.569  19.125  1.00  0.00    -0.000 C 
BRANCH   4   5
ATOM      5  C   UNL     1      -8.737 -14.591  17.611  1.00  0.00    -0.000 C 
BRANCH   5   6
ATOM      6  C   UNL     1     -10.182 -14.195  17.268  1.00  0.00    -0.000 C 
BRANCH   6   7
ATOM      7  C   UNL     1     -10.254 -13.004  16.295  1.00  0.00    -0.000 C 
BRANCH   7   8
ATOM      8  C   UNL     1     -10.089 -13.433  14.828  1.00  0.00    -0.000 C 
BRANCH   8   9
ATOM      9  C   UNL     1      -9.481 -12.323  13.955  1.00  0.00    -0.000 C 
BRANCH   9  10
ATOM     10  C   UNL     1      -8.876 -12.858  12.645  1.00  0.00    -0.000 C 
BRANCH  10  11
ATOM     11  C   UNL     1      -9.863 -13.621  11.744  1.00  0.00    -0.003 C 
ATOM     12  C   UNL     1     -11.085 -12.785  11.357  1.00  0.00     0.004 C 
ENDBRANCH  10  11
ENDBRANCH   9  10
ENDBRANCH   8   9
ENDBRANCH   7   8
ENDBRANCH   6   7
ENDBRANCH   5   6
ENDBRANCH   4   5
ENDBRANCH   3   4
ENDBRANCH   2   3
ENDBRANCH   1   2
BRANCH   1  13
ATOM     13  C   UNL     1      -7.116 -12.966  23.020  1.00  0.00     0.000 C 
BRANCH  13  14
ATOM     14  C   UNL     1      -6.728 -12.119  24.245  1.00  0.00     0.000 C 
BRANCH  14  15
ATOM     15  C   UNL     1      -5.887 -10.866  23.937  1.00  0.00     0.000 C 
BRANCH  15  16
ATOM     16  C   UNL     1      -5.744  -9.928  25.148  1.00  0.00     0.000 C 
BRANCH  16  17
ATOM     17  C   UNL     1      -5.128  -8.570  24.771  1.00  0.00     0.000 C 
BRANCH  17  18
ATOM     18  C   UNL     1      -3.613  -8.519  25.039  1.00  0.00     0.000 C 
BRANCH  18  19
ATOM     19  C   UNL     1      -2.824  -7.935  23.855  1.00  0.00     0.000 C 
BRANCH  19  20
ATOM     20  C   UNL     1      -1.315  -8.215  23.958  1.00  0.00     0.006 C 
BRANCH  20  21
ATOM     21  C   UNL     1      -0.970  -9.088  25.171  1.00  0.00     0.053 C 
BRANCH  21  22
ATOM     22  C   UNL     1       0.001  -8.408  26.088  1.00  0.00     0.041 C 
ATOM     23  O   UNL     1       0.267  -7.187  25.937  1.00  0.00    -0.550 OA
ATOM     24  O   UNL     1       0.593  -9.118  27.125  1.00  0.00    -0.550 OA
ENDBRANCH  21  22
ENDBRANCH  20  21
ENDBRANCH  19  20
ENDBRANCH  18  19
ENDBRANCH  17  18
ENDBRANCH  16  17
ENDBRANCH  15  16
ENDBRANCH  14  15
ENDBRANCH  13  14
ENDBRANCH   1  13
TORSDOF 20
ENDMDL
MODEL 8
REMARK VINA RESULT:    23.239      5.567     11.857
REMARK INTER + INTRA:          49.404
REMARK INTER:                  50.337
REMARK INTRA:                  -0.933
REMARK UNBOUND:                -1.006
REMARK SMILES CCCCCCCCCCCCCCCCCCCCCC(=O)[O-]
REMARK SMILES IDX 12 1 11 2 10 3 9 4 8 5 7 6 6 7 5 8 4 9 3 10 2 11 1 12 13 13
REMARK SMILES IDX 14 14 15 15 16 16 17 17 18 18 19 19 20 20 21 21 22 22 23 23
REMARK SMILES IDX 24 24
REMARK H PARENT
REMARK Flexibility Score: inf
ROOT
ATOM      1  C   UNL     1      -7.037 -12.247  22.193  1.00  0.00     0.000 C 
ENDROOT
BRANCH   1   2
ATOM      2  C   UNL     1      -6.740 -12.111  23.696  1.00  0.00     0.000 C 
BRANCH   2   3
ATOM      3  C   UNL     1      -5.751 -10.988  24.068  1.00  0.00     0.000 C 
BRANCH   3   4
ATOM      4  C   UNL     1      -6.276 -10.031  25.160  1.00  0.00    -0.000 C 
BRANCH   4   5
ATOM      5  C   UNL     1      -5.430  -8.750  25.266  1.00  0.00    -0.000 C 
BRANCH   5   6
ATOM      6  C   UNL     1      -3.955  -8.985  24.901  1.00  0.00    -0.000 C 
BRANCH   6   7
ATOM      7  C   UNL     1      -3.423  -7.948  23.896  1.00  0.00    -0.000 C 
BRANCH   7   8
ATOM      8  C   UNL     1      -1.902  -8.049  23.698  1.00  0.00    -0.000 C 
BRANCH   8   9
ATOM      9  C   UNL     1      -1.305  -9.305  24.354  1.00  0.00    -0.000 C 
BRANCH   9  10
ATOM     10  C   UNL     1      -0.578  -9.000  25.676  1.00  0.00    -0.000 C 
BRANCH  10  11
ATOM     11  C   UNL     1      -0.469  -7.504  26.020  1.00  0.00    -0.003 C 
ATOM     12  C   UNL     1       0.921  -6.929  25.747  1.00  0.00     0.004 C 
ENDBRANCH  10  11
ENDBRANCH   9  10
ENDBRANCH   8   9
ENDBRANCH   7   8
ENDBRANCH   6   7
ENDBRANCH   5   6
ENDBRANCH   4   5
ENDBRANCH   3   4
ENDBRANCH   2   3
ENDBRANCH   1   2
BRANCH   1  13
ATOM     13  C   UNL     1      -8.420 -12.859  21.914  1.00  0.00     0.000 C 
BRANCH  13  14
ATOM     14  C   UNL     1      -8.380 -13.966  20.845  1.00  0.00     0.000 C 
BRANCH  14  15
ATOM     15  C   UNL     1      -9.063 -13.614  19.511  1.00  0.00     0.000 C 
BRANCH  15  16
ATOM     16  C   UNL     1      -8.479 -14.389  18.316  1.00  0.00     0.000 C 
BRANCH  16  17
ATOM     17  C   UNL     1      -9.563 -14.848  17.326  1.00  0.00     0.000 C 
BRANCH  17  18
ATOM     18  C   UNL     1     -10.405 -13.675  16.791  1.00  0.00     0.000 C 
BRANCH  18  19
ATOM     19  C   UNL     1     -10.259 -13.489  15.272  1.00  0.00     0.000 C 
BRANCH  19  20
ATOM     20  C   UNL     1      -9.524 -12.188  14.906  1.00  0.00     0.006 C 
BRANCH  20  21
ATOM     21  C   UNL     1      -9.549 -11.915  13.396  1.00  0.00     0.053 C 
BRANCH  21  22
ATOM     22  C   UNL     1      -9.091 -13.104  12.608  1.00  0.00     0.041 C 
ATOM     23  O   UNL     1      -7.931 -13.564  12.771  1.00  0.00    -0.550 OA
ATOM     24  O   UNL     1      -9.956 -13.719  11.711  1.00  0.00    -0.550 OA
ENDBRANCH  21  22
ENDBRANCH  20  21
ENDBRANCH  19  20
ENDBRANCH  18  19
ENDBRANCH  17  18
ENDBRANCH  16  17
ENDBRANCH  15  16
ENDBRANCH  14  15
ENDBRANCH  13  14
ENDBRANCH   1  13
TORSDOF 20
ENDMDL
