MODEL 1
REMARK VINA RESULT:    -7.228      0.000      0.000
REMARK INTER + INTRA:          -8.971
REMARK INTER:                  -8.707
REMARK INTRA:                  -0.263
REMARK UNBOUND:                -0.263
REMARK SMILES O=c1c(O)c(-c2ccc(O)c(O)c2)oc2cc(O)cc(O)c12
REMARK SMILES IDX 5 1 3 2 2 3 1 4 22 5 20 6 19 7 17 8 16 9 15 10 14 11 6 12
REMARK SMILES IDX 7 13 8 14 9 15 13 16 11 17 10 18 12 20 4 22 21 24 18 26
REMARK H PARENT 10 19 12 21 4 23 21 25 18 27
REMARK Flexibility Score: inf
ROOT
ATOM      1  C   UNL     1      18.308  45.751  57.697  1.00  0.00     0.180 A 
ATOM      2  C   UNL     1      19.353  46.687  57.768  1.00  0.00     0.208 A 
ATOM      3  C   UNL     1      20.621  46.331  57.281  1.00  0.00     0.238 A 
ATOM      4  O   UNL     1      21.540  47.192  57.299  1.00  0.00    -0.285 OA
ATOM      5  C   UNL     1      20.832  45.038  56.744  1.00  0.00     0.111 A 
ATOM      6  C   UNL     1      22.084  44.556  56.259  1.00  0.00     0.134 A 
ATOM      7  C   UNL     1      22.146  43.307  55.629  1.00  0.00     0.093 A 
ATOM      8  C   UNL     1      21.018  42.496  55.525  1.00  0.00     0.123 A 
ATOM      9  C   UNL     1      19.800  42.933  56.049  1.00  0.00     0.094 A 
ATOM     10  C   UNL     1      19.698  44.189  56.651  1.00  0.00     0.146 A 
ATOM     11  O   UNL     1      18.519  44.571  57.128  1.00  0.00    -0.452 OA
ENDROOT
BRANCH   1  12
ATOM     12  C   UNL     1      16.951  46.045  58.212  1.00  0.00     0.025 A 
ATOM     13  C   UNL     1      16.086  46.853  57.458  1.00  0.00     0.016 A 
ATOM     14  C   UNL     1      14.794  47.126  57.915  1.00  0.00     0.051 A 
ATOM     15  C   UNL     1      14.342  46.585  59.122  1.00  0.00     0.157 A 
ATOM     16  C   UNL     1      16.487  45.484  59.416  1.00  0.00     0.062 A 
ATOM     17  C   UNL     1      15.190  45.756  59.875  1.00  0.00     0.158 A 
BRANCH  15  18
ATOM     18  O   UNL     1      13.048  46.878  59.554  1.00  0.00    -0.504 OA
ATOM     19  H   UNL     1      12.869  47.363  60.425  1.00  0.00     0.293 HD
ENDBRANCH  15  18
BRANCH  17  20
ATOM     20  O   UNL     1      14.740  45.200  61.072  1.00  0.00    -0.504 OA
ATOM     21  H   UNL     1      14.090  45.692  61.674  1.00  0.00     0.293 HD
ENDBRANCH  17  20
ENDBRANCH   1  12
BRANCH   2  22
ATOM     22  O   UNL     1      19.119  47.966  58.283  1.00  0.00    -0.502 OA
ATOM     23  H   UNL     1      18.614  48.120  59.147  1.00  0.00     0.293 HD
ENDBRANCH   2  22
BRANCH   6  24
ATOM     24  O   UNL     1      23.292  45.248  56.394  1.00  0.00    -0.507 OA
ATOM     25  H   UNL     1      23.751  45.435  57.273  1.00  0.00     0.293 HD
ENDBRANCH   6  24
BRANCH   8  26
ATOM     26  O   UNL     1      21.119  41.252  54.906  1.00  0.00    -0.508 OA
ATOM     27  H   UNL     1      21.278  40.406  55.439  1.00  0.00     0.293 HD
ENDBRANCH   8  26
TORSDOF 6
ENDMDL
MODEL 2
REMARK VINA RESULT:    -7.074      1.707      3.388
REMARK INTER + INTRA:          -8.784
REMARK INTER:                  -8.457
REMARK INTRA:                  -0.328
REMARK UNBOUND:                -0.263
REMARK SMILES O=c1c(O)c(-c2ccc(O)c(O)c2)oc2cc(O)cc(O)c12
REMARK SMILES IDX 5 1 3 2 2 3 1 4 22 5 20 6 19 7 17 8 16 9 15 10 14 11 6 12
REMARK SMILES IDX 7 13 8 14 9 15 13 16 11 17 10 18 12 20 4 22 21 24 18 26
REMARK H PARENT 10 19 12 21 4 23 21 25 18 27
REMARK Flexibility Score: inf
ROOT
ATOM      1  C   UNL     1      17.931  44.427  57.141  1.00  0.00     0.180 A 
ATOM      2  C   UNL     1      18.148  43.356  56.257  1.00  0.00     0.208 A 
ATOM      3  C   UNL     1      19.466  42.977  55.956  1.00  0.00     0.238 A 
ATOM      4  O   UNL     1      19.654  41.984  55.205  1.00  0.00    -0.285 OA
ATOM      5  C   UNL     1      20.551  43.684  56.530  1.00  0.00     0.111 A 
ATOM      6  C   UNL     1      21.926  43.411  56.265  1.00  0.00     0.134 A 
ATOM      7  C   UNL     1      22.916  44.087  56.990  1.00  0.00     0.093 A 
ATOM      8  C   UNL     1      22.583  45.068  57.922  1.00  0.00     0.123 A 
ATOM      9  C   UNL     1      21.242  45.384  58.146  1.00  0.00     0.094 A 
ATOM     10  C   UNL     1      20.231  44.703  57.465  1.00  0.00     0.146 A 
ATOM     11  O   UNL     1      18.967  45.025  57.715  1.00  0.00    -0.452 OA
ENDROOT
BRANCH   1  12
ATOM     12  C   UNL     1      16.571  44.899  57.487  1.00  0.00     0.025 A 
ATOM     13  C   UNL     1      15.908  44.344  58.592  1.00  0.00     0.016 A 
ATOM     14  C   UNL     1      14.632  44.790  58.950  1.00  0.00     0.051 A 
ATOM     15  C   UNL     1      14.008  45.806  58.219  1.00  0.00     0.157 A 
ATOM     16  C   UNL     1      15.951  45.936  56.767  1.00  0.00     0.062 A 
ATOM     17  C   UNL     1      14.672  46.385  57.125  1.00  0.00     0.158 A 
BRANCH  15  18
ATOM     18  O   UNL     1      12.734  46.228  58.598  1.00  0.00    -0.504 OA
ATOM     19  H   UNL     1      12.522  47.202  58.778  1.00  0.00     0.293 HD
ENDBRANCH  15  18
BRANCH  17  20
ATOM     20  O   UNL     1      14.061  47.409  56.402  1.00  0.00    -0.504 OA
ATOM     21  H   UNL     1      13.055  47.532  56.400  1.00  0.00     0.293 HD
ENDBRANCH  17  20
ENDBRANCH   1  12
BRANCH   2  22
ATOM     22  O   UNL     1      17.063  42.659  55.717  1.00  0.00    -0.502 OA
ATOM     23  H   UNL     1      16.219  43.123  55.405  1.00  0.00     0.293 HD
ENDBRANCH   2  22
BRANCH   6  24
ATOM     24  O   UNL     1      22.370  42.515  55.288  1.00  0.00    -0.507 OA
ATOM     25  H   UNL     1      21.825  41.750  54.921  1.00  0.00     0.293 HD
ENDBRANCH   6  24
BRANCH   8  26
ATOM     26  O   UNL     1      23.594  45.732  58.613  1.00  0.00    -0.508 OA
ATOM     27  H   UNL     1      24.013  45.338  59.447  1.00  0.00     0.293 HD
ENDBRANCH   8  26
TORSDOF 6
ENDMDL
MODEL 3
REMARK VINA RESULT:    -7.049      2.794      7.139
REMARK INTER + INTRA:          -8.754
REMARK INTER:                  -8.872
REMARK INTRA:                   0.118
REMARK UNBOUND:                -0.263
REMARK SMILES O=c1c(O)c(-c2ccc(O)c(O)c2)oc2cc(O)cc(O)c12
REMARK SMILES IDX 5 1 3 2 2 3 1 4 22 5 20 6 19 7 17 8 16 9 15 10 14 11 6 12
REMARK SMILES IDX 7 13 8 14 9 15 13 16 11 17 10 18 12 20 4 22 21 24 18 26
REMARK H PARENT 10 19 12 21 4 23 21 25 18 27
REMARK Flexibility Score: inf
ROOT
ATOM      1  C   UNL     1      21.459  43.905  57.333  1.00  0.00     0.180 A 
ATOM      2  C   UNL     1      21.161  42.819  56.491  1.00  0.00     0.208 A 
ATOM      3  C   UNL     1      19.898  42.758  55.881  1.00  0.00     0.238 A 
ATOM      4  O   UNL     1      19.656  41.812  55.086  1.00  0.00    -0.285 OA
ATOM      5  C   UNL     1      18.944  43.773  56.133  1.00  0.00     0.111 A 
ATOM      6  C   UNL     1      17.620  43.791  55.600  1.00  0.00     0.134 A 
ATOM      7  C   UNL     1      16.807  44.912  55.809  1.00  0.00     0.093 A 
ATOM      8  C   UNL     1      17.243  45.984  56.585  1.00  0.00     0.123 A 
ATOM      9  C   UNL     1      18.515  45.950  57.161  1.00  0.00     0.094 A 
ATOM     10  C   UNL     1      19.363  44.863  56.940  1.00  0.00     0.146 A 
ATOM     11  O   UNL     1      20.569  44.874  57.496  1.00  0.00    -0.452 OA
ENDROOT
BRANCH   1  12
ATOM     12  C   UNL     1      22.760  44.025  58.030  1.00  0.00     0.025 A 
ATOM     13  C   UNL     1      23.343  45.292  58.189  1.00  0.00     0.016 A 
ATOM     14  C   UNL     1      24.560  45.432  58.863  1.00  0.00     0.051 A 
ATOM     15  C   UNL     1      25.203  44.313  59.400  1.00  0.00     0.157 A 
ATOM     16  C   UNL     1      23.398  42.904  58.590  1.00  0.00     0.062 A 
ATOM     17  C   UNL     1      24.618  43.043  59.268  1.00  0.00     0.158 A 
BRANCH  15  18
ATOM     18  O   UNL     1      26.417  44.484  60.065  1.00  0.00    -0.504 OA
ATOM     19  H   UNL     1      26.955  45.339  59.990  1.00  0.00     0.293 HD
ENDBRANCH  15  18
BRANCH  17  20
ATOM     20  O   UNL     1      25.247  41.925  59.815  1.00  0.00    -0.504 OA
ATOM     21  H   UNL     1      25.099  40.995  59.440  1.00  0.00     0.293 HD
ENDBRANCH  17  20
ENDBRANCH   1  12
BRANCH   2  22
ATOM     22  O   UNL     1      22.125  41.838  56.239  1.00  0.00    -0.502 OA
ATOM     23  H   UNL     1      22.945  42.015  55.672  1.00  0.00     0.293 HD
ENDBRANCH   2  22
BRANCH   6  24
ATOM     24  O   UNL     1      17.051  42.731  54.887  1.00  0.00    -0.507 OA
ATOM     25  H   UNL     1      17.043  42.654  53.881  1.00  0.00     0.293 HD
ENDBRANCH   6  24
BRANCH   8  26
ATOM     26  O   UNL     1      16.402  47.075  56.787  1.00  0.00    -0.508 OA
ATOM     27  H   UNL     1      15.723  47.090  57.538  1.00  0.00     0.293 HD
ENDBRANCH   8  26
TORSDOF 6
ENDMDL
MODEL 4
REMARK VINA RESULT:    -6.888      1.387      3.010
REMARK INTER + INTRA:          -8.561
REMARK INTER:                  -8.408
REMARK INTRA:                  -0.152
REMARK UNBOUND:                -0.263
REMARK SMILES O=c1c(O)c(-c2ccc(O)c(O)c2)oc2cc(O)cc(O)c12
REMARK SMILES IDX 5 1 3 2 2 3 1 4 22 5 20 6 19 7 17 8 16 9 15 10 14 11 6 12
REMARK SMILES IDX 7 13 8 14 9 15 13 16 11 17 10 18 12 20 4 22 21 24 18 26
REMARK H PARENT 10 19 12 21 4 23 21 25 18 27
REMARK Flexibility Score: inf
ROOT
ATOM      1  C   UNL     1      17.767  44.572  57.240  1.00  0.00     0.180 A 
ATOM      2  C   UNL     1      17.929  43.402  56.479  1.00  0.00     0.208 A 
ATOM      3  C   UNL     1      19.223  43.006  56.105  1.00  0.00     0.238 A 
ATOM      4  O   UNL     1      19.366  41.929  55.469  1.00  0.00    -0.285 OA
ATOM      5  C   UNL     1      20.337  43.794  56.484  1.00  0.00     0.111 A 
ATOM      6  C   UNL     1      21.689  43.509  56.126  1.00  0.00     0.134 A 
ATOM      7  C   UNL     1      22.724  44.284  56.666  1.00  0.00     0.093 A 
ATOM      8  C   UNL     1      22.452  45.371  57.496  1.00  0.00     0.123 A 
ATOM      9  C   UNL     1      21.129  45.694  57.804  1.00  0.00     0.094 A 
ATOM     10  C   UNL     1      20.078  44.918  57.310  1.00  0.00     0.146 A 
ATOM     11  O   UNL     1      18.835  45.252  57.636  1.00  0.00    -0.452 OA
ENDROOT
BRANCH   1  12
ATOM     12  C   UNL     1      16.432  45.065  57.651  1.00  0.00     0.025 A 
ATOM     13  C   UNL     1      15.507  45.452  56.668  1.00  0.00     0.016 A 
ATOM     14  C   UNL     1      14.234  45.901  57.032  1.00  0.00     0.051 A 
ATOM     15  C   UNL     1      13.862  45.955  58.378  1.00  0.00     0.157 A 
ATOM     16  C   UNL     1      16.048  45.100  59.003  1.00  0.00     0.062 A 
ATOM     17  C   UNL     1      14.771  45.549  59.369  1.00  0.00     0.158 A 
BRANCH  15  18
ATOM     18  O   UNL     1      12.586  46.410  58.710  1.00  0.00    -0.504 OA
ATOM     19  H   UNL     1      12.100  47.102  58.152  1.00  0.00     0.293 HD
ENDBRANCH  15  18
BRANCH  17  20
ATOM     20  O   UNL     1      14.400  45.586  60.713  1.00  0.00    -0.504 OA
ATOM     21  H   UNL     1      14.835  46.226  61.367  1.00  0.00     0.293 HD
ENDBRANCH  17  20
ENDBRANCH   1  12
BRANCH   2  22
ATOM     22  O   UNL     1      16.817  42.627  56.134  1.00  0.00    -0.502 OA
ATOM     23  H   UNL     1      16.891  41.646  55.894  1.00  0.00     0.293 HD
ENDBRANCH   2  22
BRANCH   6  24
ATOM     24  O   UNL     1      22.065  42.503  55.231  1.00  0.00    -0.507 OA
ATOM     25  H   UNL     1      22.625  41.700  55.472  1.00  0.00     0.293 HD
ENDBRANCH   6  24
BRANCH   8  26
ATOM     26  O   UNL     1      23.504  46.129  58.003  1.00  0.00    -0.508 OA
ATOM     27  H   UNL     1      24.141  45.757  58.696  1.00  0.00     0.293 HD
ENDBRANCH   8  26
TORSDOF 6
ENDMDL
MODEL 5
REMARK VINA RESULT:    -6.740      1.367      6.656
REMARK INTER + INTRA:          -8.382
REMARK INTER:                  -8.510
REMARK INTRA:                   0.128
REMARK UNBOUND:                -0.263
REMARK SMILES O=c1c(O)c(-c2ccc(O)c(O)c2)oc2cc(O)cc(O)c12
REMARK SMILES IDX 5 1 3 2 2 3 1 4 22 5 20 6 19 7 17 8 16 9 15 10 14 11 6 12
REMARK SMILES IDX 7 13 8 14 9 15 13 16 11 17 10 18 12 20 4 22 21 24 18 26
REMARK H PARENT 10 19 12 21 4 23 21 25 18 27
REMARK Flexibility Score: inf
ROOT
ATOM      1  C   UNL     1      19.174  45.238  57.169  1.00  0.00     0.180 A 
ATOM      2  C   UNL     1      19.403  46.624  57.205  1.00  0.00     0.208 A 
ATOM      3  C   UNL     1      18.332  47.484  57.493  1.00  0.00     0.238 A 
ATOM      4  O   UNL     1      18.555  48.721  57.577  1.00  0.00    -0.285 OA
ATOM      5  C   UNL     1      17.041  46.949  57.726  1.00  0.00     0.111 A 
ATOM      6  C   UNL     1      15.876  47.730  57.987  1.00  0.00     0.134 A 
ATOM      7  C   UNL     1      14.679  47.089  58.333  1.00  0.00     0.093 A 
ATOM      8  C   UNL     1      14.589  45.698  58.362  1.00  0.00     0.123 A 
ATOM      9  C   UNL     1      15.708  44.925  58.050  1.00  0.00     0.094 A 
ATOM     10  C   UNL     1      16.925  45.534  57.737  1.00  0.00     0.146 A 
ATOM     11  O   UNL     1      17.969  44.763  57.457  1.00  0.00    -0.452 OA
ENDROOT
BRANCH   1  12
ATOM     12  C   UNL     1      20.248  44.270  56.848  1.00  0.00     0.025 A 
ATOM     13  C   UNL     1      21.509  44.413  57.448  1.00  0.00     0.016 A 
ATOM     14  C   UNL     1      22.530  43.499  57.176  1.00  0.00     0.051 A 
ATOM     15  C   UNL     1      22.304  42.422  56.313  1.00  0.00     0.157 A 
ATOM     16  C   UNL     1      20.016  43.174  55.997  1.00  0.00     0.062 A 
ATOM     17  C   UNL     1      21.040  42.256  55.724  1.00  0.00     0.158 A 
BRANCH  15  18
ATOM     18  O   UNL     1      23.344  41.529  56.059  1.00  0.00    -0.504 OA
ATOM     19  H   UNL     1      23.996  41.666  55.296  1.00  0.00     0.293 HD
ENDBRANCH  15  18
BRANCH  17  20
ATOM     20  O   UNL     1      20.804  41.175  54.875  1.00  0.00    -0.504 OA
ATOM     21  H   UNL     1      20.613  40.247  55.237  1.00  0.00     0.293 HD
ENDBRANCH  17  20
ENDBRANCH   1  12
BRANCH   2  22
ATOM     22  O   UNL     1      20.690  47.130  56.993  1.00  0.00    -0.502 OA
ATOM     23  H   UNL     1      20.861  48.101  56.763  1.00  0.00     0.293 HD
ENDBRANCH   2  22
BRANCH   6  24
ATOM     24  O   UNL     1      15.833  49.124  57.895  1.00  0.00    -0.507 OA
ATOM     25  H   UNL     1      16.088  49.757  58.639  1.00  0.00     0.293 HD
ENDBRANCH   6  24
BRANCH   8  26
ATOM     26  O   UNL     1      13.379  45.094  58.694  1.00  0.00    -0.508 OA
ATOM     27  H   UNL     1      13.164  44.825  59.646  1.00  0.00     0.293 HD
ENDBRANCH   8  26
TORSDOF 6
ENDMDL
MODEL 6
REMARK VINA RESULT:    -6.656      1.924      7.294
REMARK INTER + INTRA:          -8.281
REMARK INTER:                  -8.227
REMARK INTRA:                  -0.054
REMARK UNBOUND:                -0.263
REMARK SMILES O=c1c(O)c(-c2ccc(O)c(O)c2)oc2cc(O)cc(O)c12
REMARK SMILES IDX 5 1 3 2 2 3 1 4 22 5 20 6 19 7 17 8 16 9 15 10 14 11 6 12
REMARK SMILES IDX 7 13 8 14 9 15 13 16 11 17 10 18 12 20 4 22 21 24 18 26
REMARK H PARENT 10 19 12 21 4 23 21 25 18 27
REMARK Flexibility Score: inf
ROOT
ATOM      1  C   UNL     1      18.283  44.302  56.623  1.00  0.00     0.180 A 
ATOM      2  C   UNL     1      17.105  43.955  55.939  1.00  0.00     0.208 A 
ATOM      3  C   UNL     1      15.915  44.636  56.241  1.00  0.00     0.238 A 
ATOM      4  O   UNL     1      14.876  44.358  55.587  1.00  0.00    -0.285 OA
ATOM      5  C   UNL     1      15.914  45.643  57.237  1.00  0.00     0.111 A 
ATOM      6  C   UNL     1      14.758  46.370  57.653  1.00  0.00     0.134 A 
ATOM      7  C   UNL     1      14.898  47.435  58.551  1.00  0.00     0.093 A 
ATOM      8  C   UNL     1      16.139  47.757  59.098  1.00  0.00     0.123 A 
ATOM      9  C   UNL     1      17.267  47.015  58.743  1.00  0.00     0.094 A 
ATOM     10  C   UNL     1      17.165  45.970  57.822  1.00  0.00     0.146 A 
ATOM     11  O   UNL     1      18.263  45.296  57.503  1.00  0.00    -0.452 OA
ENDROOT
BRANCH   1  12
ATOM     12  C   UNL     1      19.569  43.612  56.376  1.00  0.00     0.025 A 
ATOM     13  C   UNL     1      19.639  42.216  56.496  1.00  0.00     0.016 A 
ATOM     14  C   UNL     1      20.837  41.542  56.246  1.00  0.00     0.051 A 
ATOM     15  C   UNL     1      21.979  42.250  55.859  1.00  0.00     0.157 A 
ATOM     16  C   UNL     1      20.713  44.321  55.966  1.00  0.00     0.062 A 
ATOM     17  C   UNL     1      21.916  43.646  55.714  1.00  0.00     0.158 A 
BRANCH  15  18
ATOM     18  O   UNL     1      23.161  41.551  55.620  1.00  0.00    -0.504 OA
ATOM     19  H   UNL     1      24.072  41.971  55.761  1.00  0.00     0.293 HD
ENDBRANCH  15  18
BRANCH  17  20
ATOM     20  O   UNL     1      23.047  44.356  55.313  1.00  0.00    -0.504 OA
ATOM     21  H   UNL     1      23.027  45.362  55.189  1.00  0.00     0.293 HD
ENDBRANCH  17  20
ENDBRANCH   1  12
BRANCH   2  22
ATOM     22  O   UNL     1      17.133  42.972  54.944  1.00  0.00    -0.502 OA
ATOM     23  H   UNL     1      17.983  42.716  54.457  1.00  0.00     0.293 HD
ENDBRANCH   2  22
BRANCH   6  24
ATOM     24  O   UNL     1      13.456  46.070  57.238  1.00  0.00    -0.507 OA
ATOM     25  H   UNL     1      12.682  46.716  57.267  1.00  0.00     0.293 HD
ENDBRANCH   6  24
BRANCH   8  26
ATOM     26  O   UNL     1      16.239  48.812  60.002  1.00  0.00    -0.508 OA
ATOM     27  H   UNL     1      16.198  48.660  61.002  1.00  0.00     0.293 HD
ENDBRANCH   8  26
TORSDOF 6
ENDMDL
MODEL 7
REMARK VINA RESULT:    -6.498      3.524      7.118
REMARK INTER + INTRA:          -8.091
REMARK INTER:                  -7.877
REMARK INTRA:                  -0.214
REMARK UNBOUND:                -0.263
REMARK SMILES O=c1c(O)c(-c2ccc(O)c(O)c2)oc2cc(O)cc(O)c12
REMARK SMILES IDX 5 1 3 2 2 3 1 4 22 5 20 6 19 7 17 8 16 9 15 10 14 11 6 12
REMARK SMILES IDX 7 13 8 14 9 15 13 16 11 17 10 18 12 20 4 22 21 24 18 26
REMARK H PARENT 10 19 12 21 4 23 21 25 18 27
REMARK Flexibility Score: inf
ROOT
ATOM      1  C   UNL     1      16.451  46.172  60.317  1.00  0.00     0.180 A 
ATOM      2  C   UNL     1      15.265  46.589  60.944  1.00  0.00     0.208 A 
ATOM      3  C   UNL     1      15.302  46.951  62.300  1.00  0.00     0.238 A 
ATOM      4  O   UNL     1      14.247  47.375  62.842  1.00  0.00    -0.285 OA
ATOM      5  C   UNL     1      16.521  46.874  63.017  1.00  0.00     0.111 A 
ATOM      6  C   UNL     1      16.666  47.177  64.404  1.00  0.00     0.134 A 
ATOM      7  C   UNL     1      17.944  47.193  64.977  1.00  0.00     0.093 A 
ATOM      8  C   UNL     1      19.072  46.855  64.232  1.00  0.00     0.123 A 
ATOM      9  C   UNL     1      18.934  46.499  62.889  1.00  0.00     0.094 A 
ATOM     10  C   UNL     1      17.677  46.508  62.279  1.00  0.00     0.146 A 
ATOM     11  O   UNL     1      17.590  46.174  60.998  1.00  0.00    -0.452 OA
ENDROOT
BRANCH   1  12
ATOM     12  C   UNL     1      16.486  45.752  58.897  1.00  0.00     0.025 A 
ATOM     13  C   UNL     1      15.858  44.556  58.515  1.00  0.00     0.016 A 
ATOM     14  C   UNL     1      15.860  44.152  57.177  1.00  0.00     0.051 A 
ATOM     15  C   UNL     1      16.474  44.941  56.201  1.00  0.00     0.157 A 
ATOM     16  C   UNL     1      17.085  46.556  57.910  1.00  0.00     0.062 A 
ATOM     17  C   UNL     1      17.086  46.151  56.568  1.00  0.00     0.158 A 
BRANCH  15  18
ATOM     18  O   UNL     1      16.462  44.510  54.875  1.00  0.00    -0.504 OA
ATOM     19  H   UNL     1      16.452  45.161  54.098  1.00  0.00     0.293 HD
ENDBRANCH  15  18
BRANCH  17  20
ATOM     20  O   UNL     1      17.687  46.951  55.596  1.00  0.00    -0.504 OA
ATOM     21  H   UNL     1      17.507  46.813  54.608  1.00  0.00     0.293 HD
ENDBRANCH  17  20
ENDBRANCH   1  12
BRANCH   2  22
ATOM     22  O   UNL     1      14.076  46.679  60.213  1.00  0.00    -0.502 OA
ATOM     23  H   UNL     1      13.193  46.932  60.639  1.00  0.00     0.293 HD
ENDBRANCH   2  22
BRANCH   6  24
ATOM     24  O   UNL     1      15.593  47.440  65.262  1.00  0.00    -0.507 OA
ATOM     25  H   UNL     1      15.069  46.735  65.758  1.00  0.00     0.293 HD
ENDBRANCH   6  24
BRANCH   8  26
ATOM     26  O   UNL     1      20.326  46.866  64.838  1.00  0.00    -0.508 OA
ATOM     27  H   UNL     1      21.107  47.366  64.432  1.00  0.00     0.293 HD
ENDBRANCH   8  26
TORSDOF 6
ENDMDL
MODEL 8
REMARK VINA RESULT:    -6.289      2.464      6.920
REMARK INTER + INTRA:          -7.839
REMARK INTER:                  -7.614
REMARK INTRA:                  -0.226
REMARK UNBOUND:                -0.263
REMARK SMILES O=c1c(O)c(-c2ccc(O)c(O)c2)oc2cc(O)cc(O)c12
REMARK SMILES IDX 5 1 3 2 2 3 1 4 22 5 20 6 19 7 17 8 16 9 15 10 14 11 6 12
REMARK SMILES IDX 7 13 8 14 9 15 13 16 11 17 10 18 12 20 4 22 21 24 18 26
REMARK H PARENT 10 19 12 21 4 23 21 25 18 27
REMARK Flexibility Score: inf
ROOT
ATOM      1  C   UNL     1      19.595  45.887  57.834  1.00  0.00     0.180 A 
ATOM      2  C   UNL     1      18.510  46.546  57.231  1.00  0.00     0.208 A 
ATOM      3  C   UNL     1      17.731  47.423  58.003  1.00  0.00     0.238 A 
ATOM      4  O   UNL     1      16.793  48.051  57.445  1.00  0.00    -0.285 OA
ATOM      5  C   UNL     1      18.037  47.617  59.373  1.00  0.00     0.111 A 
ATOM      6  C   UNL     1      17.292  48.451  60.259  1.00  0.00     0.134 A 
ATOM      7  C   UNL     1      17.763  48.671  61.559  1.00  0.00     0.093 A 
ATOM      8  C   UNL     1      18.914  48.038  62.025  1.00  0.00     0.123 A 
ATOM      9  C   UNL     1      19.618  47.174  61.185  1.00  0.00     0.094 A 
ATOM     10  C   UNL     1      19.193  46.962  59.871  1.00  0.00     0.146 A 
ATOM     11  O   UNL     1      19.897  46.141  59.101  1.00  0.00    -0.452 OA
ENDROOT
BRANCH   1  12
ATOM     12  C   UNL     1      20.446  44.930  57.091  1.00  0.00     0.025 A 
ATOM     13  C   UNL     1      21.797  45.237  56.867  1.00  0.00     0.016 A 
ATOM     14  C   UNL     1      22.624  44.339  56.186  1.00  0.00     0.051 A 
ATOM     15  C   UNL     1      22.119  43.116  55.734  1.00  0.00     0.157 A 
ATOM     16  C   UNL     1      19.945  43.690  56.654  1.00  0.00     0.062 A 
ATOM     17  C   UNL     1      20.774  42.788  55.972  1.00  0.00     0.158 A 
BRANCH  15  18
ATOM     18  O   UNL     1      22.967  42.242  55.056  1.00  0.00    -0.504 OA
ATOM     19  H   UNL     1      23.667  41.690  55.538  1.00  0.00     0.293 HD
ENDBRANCH  15  18
BRANCH  17  20
ATOM     20  O   UNL     1      20.268  41.563  55.538  1.00  0.00    -0.504 OA
ATOM     21  H   UNL     1      20.810  40.944  54.945  1.00  0.00     0.293 HD
ENDBRANCH  17  20
ENDBRANCH   1  12
BRANCH   2  22
ATOM     22  O   UNL     1      18.238  46.356  55.873  1.00  0.00    -0.502 OA
ATOM     23  H   UNL     1      17.992  45.452  55.489  1.00  0.00     0.293 HD
ENDBRANCH   2  22
BRANCH   6  24
ATOM     24  O   UNL     1      16.078  49.059  59.923  1.00  0.00    -0.507 OA
ATOM     25  H   UNL     1      15.222  48.562  59.728  1.00  0.00     0.293 HD
ENDBRANCH   6  24
BRANCH   8  26
ATOM     26  O   UNL     1      19.346  48.268  63.329  1.00  0.00    -0.508 OA
ATOM     27  H   UNL     1      19.864  47.569  63.847  1.00  0.00     0.293 HD
ENDBRANCH   8  26
TORSDOF 6
ENDMDL
