MODEL 1
REMARK VINA RESULT:    -5.222      0.000      0.000
REMARK INTER + INTRA:         -18.845
REMARK INTER:                 -13.769
REMARK INTRA:                  -5.076
REMARK UNBOUND:                -5.076
REMARK SMILES CCCCCCCCCCCCCCCCCCCCCCCCCCCCCC(=O)[O-]
REMARK SMILES IDX 16 1 17 2 18 3 19 4 20 5 21 6 22 7 23 8 24 9 25 10 26 11
REMARK SMILES IDX 27 12 28 13 29 14 30 15 31 16 32 17 15 18 14 19 13 20 12 21
REMARK SMILES IDX 11 22 10 23 9 24 8 25 7 26 6 27 5 28 4 29 3 30 2 31 1 32
REMARK H PARENT
REMARK Flexibility Score: inf
ROOT
ATOM      1  C   UNL     1      45.950  51.514  10.009  1.00  0.00     0.000 C 
ENDROOT
BRANCH   1   2
ATOM      2  C   UNL     1      47.006  50.611   9.353  1.00  0.00     0.000 C 
BRANCH   2   3
ATOM      3  C   UNL     1      47.641  49.671  10.389  1.00  0.00     0.000 C 
BRANCH   3   4
ATOM      4  C   UNL     1      46.818  48.390  10.619  1.00  0.00     0.000 C 
BRANCH   4   5
ATOM      5  C   UNL     1      46.866  47.370   9.464  1.00  0.00     0.000 C 
BRANCH   5   6
ATOM      6  C   UNL     1      45.557  46.591   9.227  1.00  0.00     0.000 C 
BRANCH   6   7
ATOM      7  C   UNL     1      45.281  45.465  10.243  1.00  0.00     0.000 C 
BRANCH   7   8
ATOM      8  C   UNL     1      44.200  45.786  11.295  1.00  0.00     0.000 C 
BRANCH   8   9
ATOM      9  C   UNL     1      43.368  47.050  11.008  1.00  0.00     0.000 C 
BRANCH   9  10
ATOM     10  C   UNL     1      41.859  46.826  11.192  1.00  0.00     0.000 C 
BRANCH  10  11
ATOM     11  C   UNL     1      41.293  47.754  12.274  1.00  0.00     0.000 C 
BRANCH  11  12
ATOM     12  C   UNL     1      42.419  48.536  12.970  1.00  0.00     0.000 C 
BRANCH  12  13
ATOM     13  C   UNL     1      41.926  49.844  13.614  1.00  0.00     0.006 C 
BRANCH  13  14
ATOM     14  C   UNL     1      40.570  50.336  13.083  1.00  0.00     0.053 C 
BRANCH  14  15
ATOM     15  C   UNL     1      39.836  51.158  14.097  1.00  0.00     0.041 C 
ATOM     16  O   UNL     1      38.739  51.700  13.801  1.00  0.00    -0.550 OA
ATOM     17  O   UNL     1      40.379  51.349  15.363  1.00  0.00    -0.550 OA
ENDBRANCH  14  15
ENDBRANCH  13  14
ENDBRANCH  12  13
ENDBRANCH  11  12
ENDBRANCH  10  11
ENDBRANCH   9  10
ENDBRANCH   8   9
ENDBRANCH   7   8
ENDBRANCH   6   7
ENDBRANCH   5   6
ENDBRANCH   4   5
ENDBRANCH   3   4
ENDBRANCH   2   3
ENDBRANCH   1   2
BRANCH   1  18
ATOM     18  C   UNL     1      44.555  51.347   9.386  1.00  0.00     0.000 C 
BRANCH  18  19
ATOM     19  C   UNL     1      43.568  50.636  10.328  1.00  0.00     0.000 C 
BRANCH  19  20
ATOM     20  C   UNL     1      42.153  50.534   9.737  1.00  0.00     0.000 C 
BRANCH  20  21
ATOM     21  C   UNL     1      41.974  51.392   8.474  1.00  0.00     0.000 C 
BRANCH  21  22
ATOM     22  C   UNL     1      41.159  50.683   7.379  1.00  0.00     0.000 C 
BRANCH  22  23
ATOM     23  C   UNL     1      42.026  50.086   6.251  1.00  0.00     0.000 C 
BRANCH  23  24
ATOM     24  C   UNL     1      41.866  48.561   6.138  1.00  0.00    -0.000 C 
BRANCH  24  25
ATOM     25  C   UNL     1      40.662  48.026   6.935  1.00  0.00    -0.000 C 
BRANCH  25  26
ATOM     26  C   UNL     1      39.640  47.258   6.070  1.00  0.00    -0.000 C 
BRANCH  26  27
ATOM     27  C   UNL     1      38.870  46.200   6.882  1.00  0.00    -0.000 C 
BRANCH  27  28
ATOM     28  C   UNL     1      39.384  46.080   8.332  1.00  0.00    -0.000 C 
BRANCH  28  29
ATOM     29  C   UNL     1      39.932  44.685   8.688  1.00  0.00    -0.000 C 
BRANCH  29  30
ATOM     30  C   UNL     1      41.051  44.172   7.765  1.00  0.00    -0.000 C 
BRANCH  30  31
ATOM     31  C   UNL     1      42.382  44.908   7.980  1.00  0.00    -0.003 C 
ATOM     32  C   UNL     1      43.104  45.135   6.655  1.00  0.00     0.004 C 
ENDBRANCH  30  31
ENDBRANCH  29  30
ENDBRANCH  28  29
ENDBRANCH  27  28
ENDBRANCH  26  27
ENDBRANCH  25  26
ENDBRANCH  24  25
ENDBRANCH  23  24
ENDBRANCH  22  23
ENDBRANCH  21  22
ENDBRANCH  20  21
ENDBRANCH  19  20
ENDBRANCH  18  19
ENDBRANCH   1  18
TORSDOF 28
ENDMDL
MODEL 2
REMARK VINA RESULT:    -5.181      1.191      2.062
REMARK INTER + INTRA:         -18.738
REMARK INTER:                 -14.245
REMARK INTRA:                  -4.493
REMARK UNBOUND:                -5.076
REMARK SMILES CCCCCCCCCCCCCCCCCCCCCCCCCCCCCC(=O)[O-]
REMARK SMILES IDX 16 1 17 2 18 3 19 4 20 5 21 6 22 7 23 8 24 9 25 10 26 11
REMARK SMILES IDX 27 12 28 13 29 14 30 15 31 16 32 17 15 18 14 19 13 20 12 21
REMARK SMILES IDX 11 22 10 23 9 24 8 25 7 26 6 27 5 28 4 29 3 30 2 31 1 32
REMARK H PARENT
REMARK Flexibility Score: inf
ROOT
ATOM      1  C   UNL     1      44.731  51.428  10.230  1.00  0.00     0.000 C 
ENDROOT
BRANCH   1   2
ATOM      2  C   UNL     1      45.353  50.714  11.440  1.00  0.00     0.000 C 
BRANCH   2   3
ATOM      3  C   UNL     1      46.887  50.764  11.375  1.00  0.00     0.000 C 
BRANCH   3   4
ATOM      4  C   UNL     1      47.472  49.839  10.292  1.00  0.00     0.000 C 
BRANCH   4   5
ATOM      5  C   UNL     1      47.514  48.345  10.666  1.00  0.00     0.000 C 
BRANCH   5   6
ATOM      6  C   UNL     1      46.443  47.470   9.986  1.00  0.00     0.000 C 
BRANCH   6   7
ATOM      7  C   UNL     1      46.274  46.064  10.595  1.00  0.00     0.000 C 
BRANCH   7   8
ATOM      8  C   UNL     1      44.823  45.545  10.644  1.00  0.00     0.000 C 
BRANCH   8   9
ATOM      9  C   UNL     1      43.860  46.383  11.506  1.00  0.00     0.000 C 
BRANCH   9  10
ATOM     10  C   UNL     1      42.968  47.315  10.672  1.00  0.00     0.000 C 
BRANCH  10  11
ATOM     11  C   UNL     1      42.106  48.205  11.576  1.00  0.00     0.000 C 
BRANCH  11  12
ATOM     12  C   UNL     1      42.891  48.649  12.820  1.00  0.00     0.000 C 
BRANCH  12  13
ATOM     13  C   UNL     1      42.193  49.780  13.594  1.00  0.00     0.006 C 
BRANCH  13  14
ATOM     14  C   UNL     1      40.848  50.219  12.993  1.00  0.00     0.053 C 
BRANCH  14  15
ATOM     15  C   UNL     1      40.041  51.030  13.959  1.00  0.00     0.041 C 
ATOM     16  O   UNL     1      40.508  51.318  15.092  1.00  0.00    -0.550 OA
ATOM     17  O   UNL     1      38.759  51.447  13.617  1.00  0.00    -0.550 OA
ENDBRANCH  14  15
ENDBRANCH  13  14
ENDBRANCH  12  13
ENDBRANCH  11  12
ENDBRANCH  10  11
ENDBRANCH   9  10
ENDBRANCH   8   9
ENDBRANCH   7   8
ENDBRANCH   6   7
ENDBRANCH   5   6
ENDBRANCH   4   5
ENDBRANCH   3   4
ENDBRANCH   2   3
ENDBRANCH   1   2
BRANCH   1  18
ATOM     18  C   UNL     1      43.987  50.467   9.290  1.00  0.00     0.000 C 
BRANCH  18  19
ATOM     19  C   UNL     1      42.497  50.820   9.141  1.00  0.00     0.000 C 
BRANCH  19  20
ATOM     20  C   UNL     1      42.141  51.302   7.725  1.00  0.00     0.000 C 
BRANCH  20  21
ATOM     21  C   UNL     1      41.612  50.171   6.829  1.00  0.00     0.000 C 
BRANCH  21  22
ATOM     22  C   UNL     1      41.148  48.941   7.628  1.00  0.00     0.000 C 
BRANCH  22  23
ATOM     23  C   UNL     1      41.540  47.597   6.979  1.00  0.00     0.000 C 
BRANCH  23  24
ATOM     24  C   UNL     1      41.628  47.695   5.447  1.00  0.00    -0.000 C 
BRANCH  24  25
ATOM     25  C   UNL     1      40.595  46.807   4.730  1.00  0.00    -0.000 C 
BRANCH  25  26
ATOM     26  C   UNL     1      39.223  46.759   5.437  1.00  0.00    -0.000 C 
BRANCH  26  27
ATOM     27  C   UNL     1      38.622  45.341   5.444  1.00  0.00    -0.000 C 
BRANCH  27  28
ATOM     28  C   UNL     1      38.938  44.573   6.744  1.00  0.00    -0.000 C 
BRANCH  28  29
ATOM     29  C   UNL     1      38.605  45.355   8.029  1.00  0.00    -0.000 C 
BRANCH  29  30
ATOM     30  C   UNL     1      39.655  45.240   9.148  1.00  0.00    -0.000 C 
BRANCH  30  31
ATOM     31  C   UNL     1      39.410  46.229  10.297  1.00  0.00    -0.003 C 
ATOM     32  C   UNL     1      39.660  45.571  11.650  1.00  0.00     0.004 C 
ENDBRANCH  30  31
ENDBRANCH  29  30
ENDBRANCH  28  29
ENDBRANCH  27  28
ENDBRANCH  26  27
ENDBRANCH  25  26
ENDBRANCH  24  25
ENDBRANCH  23  24
ENDBRANCH  22  23
ENDBRANCH  21  22
ENDBRANCH  20  21
ENDBRANCH  19  20
ENDBRANCH  18  19
ENDBRANCH   1  18
TORSDOF 28
ENDMDL
MODEL 3
REMARK VINA RESULT:    -5.136      2.619      4.833
REMARK INTER + INTRA:         -18.620
REMARK INTER:                 -13.260
REMARK INTRA:                  -5.359
REMARK UNBOUND:                -5.076
REMARK SMILES CCCCCCCCCCCCCCCCCCCCCCCCCCCCCC(=O)[O-]
REMARK SMILES IDX 16 1 17 2 18 3 19 4 20 5 21 6 22 7 23 8 24 9 25 10 26 11
REMARK SMILES IDX 27 12 28 13 29 14 30 15 31 16 32 17 15 18 14 19 13 20 12 21
REMARK SMILES IDX 11 22 10 23 9 24 8 25 7 26 6 27 5 28 4 29 3 30 2 31 1 32
REMARK H PARENT
REMARK Flexibility Score: inf
ROOT
ATOM      1  C   UNL     1      46.887  48.480   9.133  1.00  0.00     0.000 C 
ENDROOT
BRANCH   1   2
ATOM      2  C   UNL     1      46.573  47.578  10.336  1.00  0.00     0.000 C 
BRANCH   2   3
ATOM      3  C   UNL     1      46.710  46.095   9.959  1.00  0.00     0.000 C 
BRANCH   3   4
ATOM      4  C   UNL     1      46.972  45.881   8.457  1.00  0.00     0.000 C 
BRANCH   4   5
ATOM      5  C   UNL     1      47.618  44.528   8.096  1.00  0.00     0.000 C 
BRANCH   5   6
ATOM      6  C   UNL     1      46.650  43.475   7.522  1.00  0.00     0.000 C 
BRANCH   6   7
ATOM      7  C   UNL     1      46.163  43.758   6.087  1.00  0.00     0.000 C 
BRANCH   7   8
ATOM      8  C   UNL     1      44.747  44.359   5.987  1.00  0.00     0.000 C 
BRANCH   8   9
ATOM      9  C   UNL     1      43.682  43.668   6.860  1.00  0.00     0.000 C 
BRANCH   9  10
ATOM     10  C   UNL     1      42.941  44.645   7.785  1.00  0.00     0.000 C 
BRANCH  10  11
ATOM     11  C   UNL     1      43.175  46.098   7.351  1.00  0.00     0.000 C 
BRANCH  11  12
ATOM     12  C   UNL     1      43.299  47.022   8.573  1.00  0.00     0.000 C 
BRANCH  12  13
ATOM     13  C   UNL     1      43.360  48.511   8.190  1.00  0.00     0.006 C 
BRANCH  13  14
ATOM     14  C   UNL     1      42.079  49.297   8.511  1.00  0.00     0.053 C 
BRANCH  14  15
ATOM     15  C   UNL     1      41.238  49.520   7.292  1.00  0.00     0.041 C 
ATOM     16  O   UNL     1      40.751  48.540   6.669  1.00  0.00    -0.550 OA
ATOM     17  O   UNL     1      41.015  50.810   6.827  1.00  0.00    -0.550 OA
ENDBRANCH  14  15
ENDBRANCH  13  14
ENDBRANCH  12  13
ENDBRANCH  11  12
ENDBRANCH  10  11
ENDBRANCH   9  10
ENDBRANCH   8   9
ENDBRANCH   7   8
ENDBRANCH   6   7
ENDBRANCH   5   6
ENDBRANCH   4   5
ENDBRANCH   3   4
ENDBRANCH   2   3
ENDBRANCH   1   2
BRANCH   1  18
ATOM     18  C   UNL     1      47.003  49.964   9.517  1.00  0.00     0.000 C 
BRANCH  18  19
ATOM     19  C   UNL     1      47.200  50.170  11.029  1.00  0.00     0.000 C 
BRANCH  19  20
ATOM     20  C   UNL     1      46.152  51.114  11.640  1.00  0.00     0.000 C 
BRANCH  20  21
ATOM     21  C   UNL     1      44.719  50.777  11.197  1.00  0.00     0.000 C 
BRANCH  21  22
ATOM     22  C   UNL     1      43.873  50.159  12.324  1.00  0.00     0.000 C 
BRANCH  22  23
ATOM     23  C   UNL     1      43.446  48.702  12.048  1.00  0.00     0.000 C 
BRANCH  23  24
ATOM     24  C   UNL     1      41.971  48.451  12.403  1.00  0.00    -0.000 C 
BRANCH  24  25
ATOM     25  C   UNL     1      41.311  47.393  11.501  1.00  0.00    -0.000 C 
BRANCH  25  26
ATOM     26  C   UNL     1      39.988  46.835  12.069  1.00  0.00    -0.000 C 
BRANCH  26  27
ATOM     27  C   UNL     1      39.372  45.759  11.154  1.00  0.00    -0.000 C 
BRANCH  27  28
ATOM     28  C   UNL     1      40.027  45.726   9.758  1.00  0.00    -0.000 C 
BRANCH  28  29
ATOM     29  C   UNL     1      39.096  46.185   8.620  1.00  0.00    -0.000 C 
BRANCH  29  30
ATOM     30  C   UNL     1      38.907  45.164   7.484  1.00  0.00    -0.000 C 
BRANCH  30  31
ATOM     31  C   UNL     1      39.434  43.768   7.846  1.00  0.00    -0.003 C 
ATOM     32  C   UNL     1      39.807  42.980   6.594  1.00  0.00     0.004 C 
ENDBRANCH  30  31
ENDBRANCH  29  30
ENDBRANCH  28  29
ENDBRANCH  27  28
ENDBRANCH  26  27
ENDBRANCH  25  26
ENDBRANCH  24  25
ENDBRANCH  23  24
ENDBRANCH  22  23
ENDBRANCH  21  22
ENDBRANCH  20  21
ENDBRANCH  19  20
ENDBRANCH  18  19
ENDBRANCH   1  18
TORSDOF 28
ENDMDL
MODEL 4
REMARK VINA RESULT:    -5.067      2.248      6.242
REMARK INTER + INTRA:         -18.437
REMARK INTER:                 -12.964
REMARK INTRA:                  -5.473
REMARK UNBOUND:                -5.076
REMARK SMILES CCCCCCCCCCCCCCCCCCCCCCCCCCCCCC(=O)[O-]
REMARK SMILES IDX 16 1 17 2 18 3 19 4 20 5 21 6 22 7 23 8 24 9 25 10 26 11
REMARK SMILES IDX 27 12 28 13 29 14 30 15 31 16 32 17 15 18 14 19 13 20 12 21
REMARK SMILES IDX 11 22 10 23 9 24 8 25 7 26 6 27 5 28 4 29 3 30 2 31 1 32
REMARK H PARENT
REMARK Flexibility Score: inf
ROOT
ATOM      1  C   UNL     1      40.521  48.101   6.832  1.00  0.00     0.000 C 
ENDROOT
BRANCH   1   2
ATOM      2  C   UNL     1      41.869  48.170   7.565  1.00  0.00     0.000 C 
BRANCH   2   3
ATOM      3  C   UNL     1      42.935  47.344   6.828  1.00  0.00     0.000 C 
BRANCH   3   4
ATOM      4  C   UNL     1      43.687  46.373   7.757  1.00  0.00     0.000 C 
BRANCH   4   5
ATOM      5  C   UNL     1      43.205  44.910   7.695  1.00  0.00     0.000 C 
BRANCH   5   6
ATOM      6  C   UNL     1      44.249  43.900   7.179  1.00  0.00     0.000 C 
BRANCH   6   7
ATOM      7  C   UNL     1      45.596  44.520   6.757  1.00  0.00     0.000 C 
BRANCH   7   8
ATOM      8  C   UNL     1      46.839  43.889   7.416  1.00  0.00     0.000 C 
BRANCH   8   9
ATOM      9  C   UNL     1      47.386  44.650   8.638  1.00  0.00     0.000 C 
BRANCH   9  10
ATOM     10  C   UNL     1      46.466  44.554   9.864  1.00  0.00     0.000 C 
BRANCH  10  11
ATOM     11  C   UNL     1      46.243  45.934  10.495  1.00  0.00     0.000 C 
BRANCH  11  12
ATOM     12  C   UNL     1      46.938  47.031   9.674  1.00  0.00     0.000 C 
BRANCH  12  13
ATOM     13  C   UNL     1      46.945  48.395  10.387  1.00  0.00     0.006 C 
BRANCH  13  14
ATOM     14  C   UNL     1      45.975  49.425   9.787  1.00  0.00     0.053 C 
BRANCH  14  15
ATOM     15  C   UNL     1      45.722  50.567  10.722  1.00  0.00     0.041 C 
ATOM     16  O   UNL     1      46.415  50.699  11.765  1.00  0.00    -0.550 OA
ATOM     17  O   UNL     1      44.702  51.472  10.455  1.00  0.00    -0.550 OA
ENDBRANCH  14  15
ENDBRANCH  13  14
ENDBRANCH  12  13
ENDBRANCH  11  12
ENDBRANCH  10  11
ENDBRANCH   9  10
ENDBRANCH   8   9
ENDBRANCH   7   8
ENDBRANCH   6   7
ENDBRANCH   5   6
ENDBRANCH   4   5
ENDBRANCH   3   4
ENDBRANCH   2   3
ENDBRANCH   1   2
BRANCH   1  18
ATOM     18  C   UNL     1      40.425  46.902   5.875  1.00  0.00     0.000 C 
BRANCH  18  19
ATOM     19  C   UNL     1      38.972  46.557   5.503  1.00  0.00     0.000 C 
BRANCH  19  20
ATOM     20  C   UNL     1      38.526  45.195   6.059  1.00  0.00     0.000 C 
BRANCH  20  21
ATOM     21  C   UNL     1      39.705  44.338   6.547  1.00  0.00     0.000 C 
BRANCH  21  22
ATOM     22  C   UNL     1      39.599  43.967   8.036  1.00  0.00     0.000 C 
BRANCH  22  23
ATOM     23  C   UNL     1      38.755  44.960   8.863  1.00  0.00     0.000 C 
BRANCH  23  24
ATOM     24  C   UNL     1      39.618  46.036   9.540  1.00  0.00    -0.000 C 
BRANCH  24  25
ATOM     25  C   UNL     1      39.501  46.018  11.075  1.00  0.00    -0.000 C 
BRANCH  25  26
ATOM     26  C   UNL     1      40.759  46.546  11.798  1.00  0.00    -0.000 C 
BRANCH  26  27
ATOM     27  C   UNL     1      42.011  46.489  10.902  1.00  0.00    -0.000 C 
BRANCH  27  28
ATOM     28  C   UNL     1      43.072  47.535  11.303  1.00  0.00    -0.000 C 
BRANCH  28  29
ATOM     29  C   UNL     1      42.488  48.922  11.634  1.00  0.00    -0.000 C 
BRANCH  29  30
ATOM     30  C   UNL     1      42.893  49.485  13.007  1.00  0.00    -0.000 C 
BRANCH  30  31
ATOM     31  C   UNL     1      41.740  50.209  13.717  1.00  0.00    -0.003 C 
ATOM     32  C   UNL     1      40.451  50.117  12.905  1.00  0.00     0.004 C 
ENDBRANCH  30  31
ENDBRANCH  29  30
ENDBRANCH  28  29
ENDBRANCH  27  28
ENDBRANCH  26  27
ENDBRANCH  25  26
ENDBRANCH  24  25
ENDBRANCH  23  24
ENDBRANCH  22  23
ENDBRANCH  21  22
ENDBRANCH  20  21
ENDBRANCH  19  20
ENDBRANCH  18  19
ENDBRANCH   1  18
TORSDOF 28
ENDMDL
MODEL 5
REMARK VINA RESULT:    -5.052      0.928      1.990
REMARK INTER + INTRA:         -18.398
REMARK INTER:                 -13.254
REMARK INTRA:                  -5.145
REMARK UNBOUND:                -5.076
REMARK SMILES CCCCCCCCCCCCCCCCCCCCCCCCCCCCCC(=O)[O-]
REMARK SMILES IDX 16 1 17 2 18 3 19 4 20 5 21 6 22 7 23 8 24 9 25 10 26 11
REMARK SMILES IDX 27 12 28 13 29 14 30 15 31 16 32 17 15 18 14 19 13 20 12 21
REMARK SMILES IDX 11 22 10 23 9 24 8 25 7 26 6 27 5 28 4 29 3 30 2 31 1 32
REMARK H PARENT
REMARK Flexibility Score: inf
ROOT
ATOM      1  C   UNL     1      45.669  50.803  10.120  1.00  0.00     0.000 C 
ENDROOT
BRANCH   1   2
ATOM      2  C   UNL     1      46.145  49.853  11.230  1.00  0.00     0.000 C 
BRANCH   2   3
ATOM      3  C   UNL     1      46.960  48.691  10.643  1.00  0.00     0.000 C 
BRANCH   3   4
ATOM      4  C   UNL     1      46.431  48.217   9.278  1.00  0.00     0.000 C 
BRANCH   4   5
ATOM      5  C   UNL     1      46.842  46.785   8.882  1.00  0.00     0.000 C 
BRANCH   5   6
ATOM      6  C   UNL     1      46.490  45.696   9.915  1.00  0.00     0.000 C 
BRANCH   6   7
ATOM      7  C   UNL     1      44.986  45.381  10.035  1.00  0.00     0.000 C 
BRANCH   7   8
ATOM      8  C   UNL     1      44.330  45.827  11.357  1.00  0.00     0.000 C 
BRANCH   8   9
ATOM      9  C   UNL     1      43.609  47.186  11.301  1.00  0.00     0.000 C 
BRANCH   9  10
ATOM     10  C   UNL     1      42.181  47.083  10.744  1.00  0.00     0.000 C 
BRANCH  10  11
ATOM     11  C   UNL     1      41.195  47.881  11.606  1.00  0.00     0.000 C 
BRANCH  11  12
ATOM     12  C   UNL     1      41.938  48.698  12.675  1.00  0.00     0.000 C 
BRANCH  12  13
ATOM     13  C   UNL     1      41.321  50.090  12.896  1.00  0.00     0.006 C 
BRANCH  13  14
ATOM     14  C   UNL     1      41.553  50.667  14.302  1.00  0.00     0.053 C 
BRANCH  14  15
ATOM     15  C   UNL     1      40.329  51.341  14.840  1.00  0.00     0.041 C 
ATOM     16  O   UNL     1      40.115  51.371  16.081  1.00  0.00    -0.550 OA
ATOM     17  O   UNL     1      39.410  51.915  13.969  1.00  0.00    -0.550 OA
ENDBRANCH  14  15
ENDBRANCH  13  14
ENDBRANCH  12  13
ENDBRANCH  11  12
ENDBRANCH  10  11
ENDBRANCH   9  10
ENDBRANCH   8   9
ENDBRANCH   7   8
ENDBRANCH   6   7
ENDBRANCH   5   6
ENDBRANCH   4   5
ENDBRANCH   3   4
ENDBRANCH   2   3
ENDBRANCH   1   2
BRANCH   1  18
ATOM     18  C   UNL     1      44.226  51.288  10.332  1.00  0.00     0.000 C 
BRANCH  18  19
ATOM     19  C   UNL     1      43.205  50.484   9.508  1.00  0.00     0.000 C 
BRANCH  19  20
ATOM     20  C   UNL     1      42.137  51.376   8.854  1.00  0.00     0.000 C 
BRANCH  20  21
ATOM     21  C   UNL     1      41.460  50.704   7.649  1.00  0.00     0.000 C 
BRANCH  21  22
ATOM     22  C   UNL     1      41.357  49.176   7.796  1.00  0.00     0.000 C 
BRANCH  22  23
ATOM     23  C   UNL     1      41.366  48.423   6.449  1.00  0.00     0.000 C 
BRANCH  23  24
ATOM     24  C   UNL     1      42.720  47.753   6.165  1.00  0.00    -0.000 C 
BRANCH  24  25
ATOM     25  C   UNL     1      43.049  46.623   7.157  1.00  0.00    -0.000 C 
BRANCH  25  26
ATOM     26  C   UNL     1      42.943  45.210   6.543  1.00  0.00    -0.000 C 
BRANCH  26  27
ATOM     27  C   UNL     1      41.932  44.324   7.294  1.00  0.00    -0.000 C 
BRANCH  27  28
ATOM     28  C   UNL     1      41.087  45.123   8.308  1.00  0.00    -0.000 C 
BRANCH  28  29
ATOM     29  C   UNL     1      39.639  44.619   8.451  1.00  0.00    -0.000 C 
BRANCH  29  30
ATOM     30  C   UNL     1      38.555  45.639   8.060  1.00  0.00    -0.000 C 
BRANCH  30  31
ATOM     31  C   UNL     1      38.717  46.158   6.624  1.00  0.00    -0.003 C 
ATOM     32  C   UNL     1      38.581  45.024   5.611  1.00  0.00     0.004 C 
ENDBRANCH  30  31
ENDBRANCH  29  30
ENDBRANCH  28  29
ENDBRANCH  27  28
ENDBRANCH  26  27
ENDBRANCH  25  26
ENDBRANCH  24  25
ENDBRANCH  23  24
ENDBRANCH  22  23
ENDBRANCH  21  22
ENDBRANCH  20  21
ENDBRANCH  19  20
ENDBRANCH  18  19
ENDBRANCH   1  18
TORSDOF 28
ENDMDL
MODEL 6
REMARK VINA RESULT:    -5.027      3.350      5.320
REMARK INTER + INTRA:         -18.331
REMARK INTER:                 -12.855
REMARK INTRA:                  -5.477
REMARK UNBOUND:                -5.076
REMARK SMILES CCCCCCCCCCCCCCCCCCCCCCCCCCCCCC(=O)[O-]
REMARK SMILES IDX 16 1 17 2 18 3 19 4 20 5 21 6 22 7 23 8 24 9 25 10 26 11
REMARK SMILES IDX 27 12 28 13 29 14 30 15 31 16 32 17 15 18 14 19 13 20 12 21
REMARK SMILES IDX 11 22 10 23 9 24 8 25 7 26 6 27 5 28 4 29 3 30 2 31 1 32
REMARK H PARENT
REMARK Flexibility Score: inf
ROOT
ATOM      1  C   UNL     1      47.840  49.802  10.640  1.00  0.00     0.000 C 
ENDROOT
BRANCH   1   2
ATOM      2  C   UNL     1      47.443  48.322  10.528  1.00  0.00     0.000 C 
BRANCH   2   3
ATOM      3  C   UNL     1      46.731  48.046   9.195  1.00  0.00     0.000 C 
BRANCH   3   4
ATOM      4  C   UNL     1      45.352  47.388   9.378  1.00  0.00     0.000 C 
BRANCH   4   5
ATOM      5  C   UNL     1      45.063  46.867  10.800  1.00  0.00     0.000 C 
BRANCH   5   6
ATOM      6  C   UNL     1      43.624  46.365  11.032  1.00  0.00     0.000 C 
BRANCH   6   7
ATOM      7  C   UNL     1      42.864  47.081  12.165  1.00  0.00     0.000 C 
BRANCH   7   8
ATOM      8  C   UNL     1      41.332  46.914  12.130  1.00  0.00     0.000 C 
BRANCH   8   9
ATOM      9  C   UNL     1      40.726  46.764  10.722  1.00  0.00     0.000 C 
BRANCH   9  10
ATOM     10  C   UNL     1      39.481  45.864  10.701  1.00  0.00     0.000 C 
BRANCH  10  11
ATOM     11  C   UNL     1      39.375  45.103   9.374  1.00  0.00     0.000 C 
BRANCH  11  12
ATOM     12  C   UNL     1      38.415  45.814   8.408  1.00  0.00     0.000 C 
BRANCH  12  13
ATOM     13  C   UNL     1      39.033  46.050   7.018  1.00  0.00     0.006 C 
BRANCH  13  14
ATOM     14  C   UNL     1      38.281  45.360   5.869  1.00  0.00     0.053 C 
BRANCH  14  15
ATOM     15  C   UNL     1      38.983  44.122   5.404  1.00  0.00     0.041 C 
ATOM     16  O   UNL     1      38.722  43.630   4.274  1.00  0.00    -0.550 OA
ATOM     17  O   UNL     1      39.908  43.494   6.230  1.00  0.00    -0.550 OA
ENDBRANCH  14  15
ENDBRANCH  13  14
ENDBRANCH  12  13
ENDBRANCH  11  12
ENDBRANCH  10  11
ENDBRANCH   9  10
ENDBRANCH   8   9
ENDBRANCH   7   8
ENDBRANCH   6   7
ENDBRANCH   5   6
ENDBRANCH   4   5
ENDBRANCH   3   4
ENDBRANCH   2   3
ENDBRANCH   1   2
BRANCH   1  18
ATOM     18  C   UNL     1      46.647  50.753  10.457  1.00  0.00     0.000 C 
BRANCH  18  19
ATOM     19  C   UNL     1      45.817  50.913  11.743  1.00  0.00     0.000 C 
BRANCH  19  20
ATOM     20  C   UNL     1      44.382  50.381  11.592  1.00  0.00     0.000 C 
BRANCH  20  21
ATOM     21  C   UNL     1      43.841  50.532  10.161  1.00  0.00     0.000 C 
BRANCH  21  22
ATOM     22  C   UNL     1      42.342  50.200  10.051  1.00  0.00     0.000 C 
BRANCH  22  23
ATOM     23  C   UNL     1      41.784  50.332   8.618  1.00  0.00     0.000 C 
BRANCH  23  24
ATOM     24  C   UNL     1      42.406  49.310   7.654  1.00  0.00    -0.000 C 
BRANCH  24  25
ATOM     25  C   UNL     1      42.082  47.854   8.034  1.00  0.00    -0.000 C 
BRANCH  25  26
ATOM     26  C   UNL     1      42.665  46.814   7.053  1.00  0.00    -0.000 C 
BRANCH  26  27
ATOM     27  C   UNL     1      42.558  45.377   7.599  1.00  0.00    -0.000 C 
BRANCH  27  28
ATOM     28  C   UNL     1      43.934  44.692   7.731  1.00  0.00    -0.000 C 
BRANCH  28  29
ATOM     29  C   UNL     1      44.677  44.518   6.392  1.00  0.00    -0.000 C 
BRANCH  29  30
ATOM     30  C   UNL     1      46.142  44.065   6.518  1.00  0.00    -0.000 C 
BRANCH  30  31
ATOM     31  C   UNL     1      46.472  43.495   7.905  1.00  0.00    -0.003 C 
ATOM     32  C   UNL     1      47.455  44.395   8.649  1.00  0.00     0.004 C 
ENDBRANCH  30  31
ENDBRANCH  29  30
ENDBRANCH  28  29
ENDBRANCH  27  28
ENDBRANCH  26  27
ENDBRANCH  25  26
ENDBRANCH  24  25
ENDBRANCH  23  24
ENDBRANCH  22  23
ENDBRANCH  21  22
ENDBRANCH  20  21
ENDBRANCH  19  20
ENDBRANCH  18  19
ENDBRANCH   1  18
TORSDOF 28
ENDMDL
MODEL 7
REMARK VINA RESULT:    -4.985      4.073      8.155
REMARK INTER + INTRA:         -18.221
REMARK INTER:                 -12.593
REMARK INTRA:                  -5.627
REMARK UNBOUND:                -5.076
REMARK SMILES CCCCCCCCCCCCCCCCCCCCCCCCCCCCCC(=O)[O-]
REMARK SMILES IDX 16 1 17 2 18 3 19 4 20 5 21 6 22 7 23 8 24 9 25 10 26 11
REMARK SMILES IDX 27 12 28 13 29 14 30 15 31 16 32 17 15 18 14 19 13 20 12 21
REMARK SMILES IDX 11 22 10 23 9 24 8 25 7 26 6 27 5 28 4 29 3 30 2 31 1 32
REMARK H PARENT
REMARK Flexibility Score: inf
ROOT
ATOM      1  C   UNL     1      39.938  45.535  10.137  1.00  0.00     0.000 C 
ENDROOT
BRANCH   1   2
ATOM      2  C   UNL     1      38.898  45.428   9.012  1.00  0.00     0.000 C 
BRANCH   2   3
ATOM      3  C   UNL     1      39.354  44.427   7.939  1.00  0.00     0.000 C 
BRANCH   3   4
ATOM      4  C   UNL     1      39.520  45.072   6.551  1.00  0.00     0.000 C 
BRANCH   4   5
ATOM      5  C   UNL     1      39.289  46.595   6.509  1.00  0.00     0.000 C 
BRANCH   5   6
ATOM      6  C   UNL     1      40.547  47.439   6.225  1.00  0.00     0.000 C 
BRANCH   6   7
ATOM      7  C   UNL     1      40.887  48.479   7.310  1.00  0.00     0.000 C 
BRANCH   7   8
ATOM      8  C   UNL     1      41.879  47.996   8.387  1.00  0.00     0.000 C 
BRANCH   8   9
ATOM      9  C   UNL     1      43.005  47.080   7.872  1.00  0.00     0.000 C 
BRANCH   9  10
ATOM     10  C   UNL     1      43.127  45.775   8.672  1.00  0.00     0.000 C 
BRANCH  10  11
ATOM     11  C   UNL     1      43.181  44.560   7.738  1.00  0.00     0.000 C 
BRANCH  11  12
ATOM     12  C   UNL     1      43.340  45.000   6.274  1.00  0.00     0.000 C 
BRANCH  12  13
ATOM     13  C   UNL     1      44.760  44.761   5.731  1.00  0.00     0.006 C 
BRANCH  13  14
ATOM     14  C   UNL     1      44.831  43.751   4.575  1.00  0.00     0.053 C 
BRANCH  14  15
ATOM     15  C   UNL     1      45.533  42.490   4.974  1.00  0.00     0.041 C 
ATOM     16  O   UNL     1      45.135  41.830   5.970  1.00  0.00    -0.550 OA
ATOM     17  O   UNL     1      46.645  42.057   4.262  1.00  0.00    -0.550 OA
ENDBRANCH  14  15
ENDBRANCH  13  14
ENDBRANCH  12  13
ENDBRANCH  11  12
ENDBRANCH  10  11
ENDBRANCH   9  10
ENDBRANCH   8   9
ENDBRANCH   7   8
ENDBRANCH   6   7
ENDBRANCH   5   6
ENDBRANCH   4   5
ENDBRANCH   3   4
ENDBRANCH   2   3
ENDBRANCH   1   2
BRANCH   1  18
ATOM     18  C   UNL     1      39.400  46.268  11.377  1.00  0.00     0.000 C 
BRANCH  18  19
ATOM     19  C   UNL     1      40.497  47.043  12.128  1.00  0.00     0.000 C 
BRANCH  19  20
ATOM     20  C   UNL     1      41.882  46.389  11.995  1.00  0.00     0.000 C 
BRANCH  20  21
ATOM     21  C   UNL     1      43.031  47.399  12.141  1.00  0.00     0.000 C 
BRANCH  21  22
ATOM     22  C   UNL     1      42.786  48.426  13.260  1.00  0.00     0.000 C 
BRANCH  22  23
ATOM     23  C   UNL     1      42.751  49.886  12.762  1.00  0.00     0.000 C 
BRANCH  23  24
ATOM     24  C   UNL     1      43.152  50.007  11.283  1.00  0.00    -0.000 C 
BRANCH  24  25
ATOM     25  C   UNL     1      44.519  50.687  11.087  1.00  0.00    -0.000 C 
BRANCH  25  26
ATOM     26  C   UNL     1      45.480  49.894  10.176  1.00  0.00    -0.000 C 
BRANCH  26  27
ATOM     27  C   UNL     1      46.832  49.617  10.859  1.00  0.00    -0.000 C 
BRANCH  27  28
ATOM     28  C   UNL     1      47.310  48.164  10.655  1.00  0.00    -0.000 C 
BRANCH  28  29
ATOM     29  C   UNL     1      46.172  47.166  10.373  1.00  0.00    -0.000 C 
BRANCH  29  30
ATOM     30  C   UNL     1      46.632  45.773   9.905  1.00  0.00    -0.000 C 
BRANCH  30  31
ATOM     31  C   UNL     1      47.025  45.744   8.421  1.00  0.00    -0.003 C 
ATOM     32  C   UNL     1      47.624  44.394   8.038  1.00  0.00     0.004 C 
ENDBRANCH  30  31
ENDBRANCH  29  30
ENDBRANCH  28  29
ENDBRANCH  27  28
ENDBRANCH  26  27
ENDBRANCH  25  26
ENDBRANCH  24  25
ENDBRANCH  23  24
ENDBRANCH  22  23
ENDBRANCH  21  22
ENDBRANCH  20  21
ENDBRANCH  19  20
ENDBRANCH  18  19
ENDBRANCH   1  18
TORSDOF 28
ENDMDL
MODEL 8
REMARK VINA RESULT:    -4.942      3.682      7.562
REMARK INTER + INTRA:         -18.107
REMARK INTER:                 -12.177
REMARK INTRA:                  -5.929
REMARK UNBOUND:                -5.076
REMARK SMILES CCCCCCCCCCCCCCCCCCCCCCCCCCCCCC(=O)[O-]
REMARK SMILES IDX 16 1 17 2 18 3 19 4 20 5 21 6 22 7 23 8 24 9 25 10 26 11
REMARK SMILES IDX 27 12 28 13 29 14 30 15 31 16 32 17 15 18 14 19 13 20 12 21
REMARK SMILES IDX 11 22 10 23 9 24 8 25 7 26 6 27 5 28 4 29 3 30 2 31 1 32
REMARK H PARENT
REMARK Flexibility Score: inf
ROOT
ATOM      1  C   UNL     1      41.143  47.496  11.735  1.00  0.00     0.000 C 
ENDROOT
BRANCH   1   2
ATOM      2  C   UNL     1      39.886  46.713  12.146  1.00  0.00     0.000 C 
BRANCH   2   3
ATOM      3  C   UNL     1      39.292  45.961  10.945  1.00  0.00     0.000 C 
BRANCH   3   4
ATOM      4  C   UNL     1      40.287  45.814   9.779  1.00  0.00     0.000 C 
BRANCH   4   5
ATOM      5  C   UNL     1      39.751  45.035   8.562  1.00  0.00     0.000 C 
BRANCH   5   6
ATOM      6  C   UNL     1      38.547  45.683   7.850  1.00  0.00     0.000 C 
BRANCH   6   7
ATOM      7  C   UNL     1      38.525  45.501   6.320  1.00  0.00     0.000 C 
BRANCH   7   8
ATOM      8  C   UNL     1      39.121  46.674   5.516  1.00  0.00     0.000 C 
BRANCH   8   9
ATOM      9  C   UNL     1      40.324  46.310   4.627  1.00  0.00     0.000 C 
BRANCH   9  10
ATOM     10  C   UNL     1      41.673  46.507   5.336  1.00  0.00     0.000 C 
BRANCH  10  11
ATOM     11  C   UNL     1      42.585  45.291   5.133  1.00  0.00     0.000 C 
BRANCH  11  12
ATOM     12  C   UNL     1      42.085  44.088   5.948  1.00  0.00     0.000 C 
BRANCH  12  13
ATOM     13  C   UNL     1      43.185  43.461   6.822  1.00  0.00     0.006 C 
BRANCH  13  14
ATOM     14  C   UNL     1      44.614  43.848   6.411  1.00  0.00     0.053 C 
BRANCH  14  15
ATOM     15  C   UNL     1      45.641  42.981   7.070  1.00  0.00     0.041 C 
ATOM     16  O   UNL     1      46.410  43.460   7.945  1.00  0.00    -0.550 OA
ATOM     17  O   UNL     1      45.768  41.647   6.698  1.00  0.00    -0.550 OA
ENDBRANCH  14  15
ENDBRANCH  13  14
ENDBRANCH  12  13
ENDBRANCH  11  12
ENDBRANCH  10  11
ENDBRANCH   9  10
ENDBRANCH   8   9
ENDBRANCH   7   8
ENDBRANCH   6   7
ENDBRANCH   5   6
ENDBRANCH   4   5
ENDBRANCH   3   4
ENDBRANCH   2   3
ENDBRANCH   1   2
BRANCH   1  18
ATOM     18  C   UNL     1      42.316  47.289  12.706  1.00  0.00     0.000 C 
BRANCH  18  19
ATOM     19  C   UNL     1      43.509  48.210  12.396  1.00  0.00     0.000 C 
BRANCH  19  20
ATOM     20  C   UNL     1      43.102  49.687  12.273  1.00  0.00     0.000 C 
BRANCH  20  21
ATOM     21  C   UNL     1      44.223  50.565  11.694  1.00  0.00     0.000 C 
BRANCH  21  22
ATOM     22  C   UNL     1      45.497  49.768  11.363  1.00  0.00     0.000 C 
BRANCH  22  23
ATOM     23  C   UNL     1      46.249  50.291  10.122  1.00  0.00     0.000 C 
BRANCH  23  24
ATOM     24  C   UNL     1      46.921  49.159   9.329  1.00  0.00    -0.000 C 
BRANCH  24  25
ATOM     25  C   UNL     1      47.048  47.855  10.137  1.00  0.00    -0.000 C 
BRANCH  25  26
ATOM     26  C   UNL     1      46.423  46.630   9.437  1.00  0.00    -0.000 C 
BRANCH  26  27
ATOM     27  C   UNL     1      45.196  46.091  10.196  1.00  0.00    -0.000 C 
BRANCH  27  28
ATOM     28  C   UNL     1      43.924  46.067   9.322  1.00  0.00    -0.000 C 
BRANCH  28  29
ATOM     29  C   UNL     1      43.872  47.186   8.264  1.00  0.00    -0.000 C 
BRANCH  29  30
ATOM     30  C   UNL     1      43.222  48.497   8.739  1.00  0.00    -0.000 C 
BRANCH  30  31
ATOM     31  C   UNL     1      41.815  48.707   8.161  1.00  0.00    -0.003 C 
ATOM     32  C   UNL     1      41.829  49.752   7.048  1.00  0.00     0.004 C 
ENDBRANCH  30  31
ENDBRANCH  29  30
ENDBRANCH  28  29
ENDBRANCH  27  28
ENDBRANCH  26  27
ENDBRANCH  25  26
ENDBRANCH  24  25
ENDBRANCH  23  24
ENDBRANCH  22  23
ENDBRANCH  21  22
ENDBRANCH  20  21
ENDBRANCH  19  20
ENDBRANCH  18  19
ENDBRANCH   1  18
TORSDOF 28
ENDMDL
MODEL 9
REMARK VINA RESULT:    -4.918      3.304      7.201
REMARK INTER + INTRA:         -18.045
REMARK INTER:                 -12.602
REMARK INTRA:                  -5.443
REMARK UNBOUND:                -5.076
REMARK SMILES CCCCCCCCCCCCCCCCCCCCCCCCCCCCCC(=O)[O-]
REMARK SMILES IDX 16 1 17 2 18 3 19 4 20 5 21 6 22 7 23 8 24 9 25 10 26 11
REMARK SMILES IDX 27 12 28 13 29 14 30 15 31 16 32 17 15 18 14 19 13 20 12 21
REMARK SMILES IDX 11 22 10 23 9 24 8 25 7 26 6 27 5 28 4 29 3 30 2 31 1 32
REMARK H PARENT
REMARK Flexibility Score: inf
ROOT
ATOM      1  C   UNL     1      43.146  46.488  11.059  1.00  0.00     0.000 C 
ENDROOT
BRANCH   1   2
ATOM      2  C   UNL     1      41.984  46.509  12.065  1.00  0.00     0.000 C 
BRANCH   2   3
ATOM      3  C   UNL     1      40.685  46.977  11.390  1.00  0.00     0.000 C 
BRANCH   3   4
ATOM      4  C   UNL     1      39.658  45.844  11.217  1.00  0.00     0.000 C 
BRANCH   4   5
ATOM      5  C   UNL     1      39.141  45.649   9.778  1.00  0.00     0.000 C 
BRANCH   5   6
ATOM      6  C   UNL     1      40.072  44.840   8.853  1.00  0.00     0.000 C 
BRANCH   6   7
ATOM      7  C   UNL     1      39.367  43.757   8.013  1.00  0.00     0.000 C 
BRANCH   7   8
ATOM      8  C   UNL     1      39.571  43.879   6.489  1.00  0.00     0.000 C 
BRANCH   8   9
ATOM      9  C   UNL     1      38.642  44.887   5.786  1.00  0.00     0.000 C 
BRANCH   9  10
ATOM     10  C   UNL     1      39.404  46.060   5.151  1.00  0.00     0.000 C 
BRANCH  10  11
ATOM     11  C   UNL     1      39.524  47.233   6.132  1.00  0.00     0.000 C 
BRANCH  11  12
ATOM     12  C   UNL     1      40.992  47.485   6.508  1.00  0.00     0.000 C 
BRANCH  12  13
ATOM     13  C   UNL     1      41.978  46.712   5.615  1.00  0.00     0.006 C 
BRANCH  13  14
ATOM     14  C   UNL     1      43.135  46.048   6.380  1.00  0.00     0.053 C 
BRANCH  14  15
ATOM     15  C   UNL     1      43.091  44.555   6.276  1.00  0.00     0.041 C 
ATOM     16  O   UNL     1      43.377  43.841   7.273  1.00  0.00    -0.550 OA
ATOM     17  O   UNL     1      42.759  43.951   5.069  1.00  0.00    -0.550 OA
ENDBRANCH  14  15
ENDBRANCH  13  14
ENDBRANCH  12  13
ENDBRANCH  11  12
ENDBRANCH  10  11
ENDBRANCH   9  10
ENDBRANCH   8   9
ENDBRANCH   7   8
ENDBRANCH   6   7
ENDBRANCH   5   6
ENDBRANCH   4   5
ENDBRANCH   3   4
ENDBRANCH   2   3
ENDBRANCH   1   2
BRANCH   1  18
ATOM     18  C   UNL     1      42.742  47.015   9.673  1.00  0.00     0.000 C 
BRANCH  18  19
ATOM     19  C   UNL     1      43.431  48.345   9.322  1.00  0.00     0.000 C 
BRANCH  19  20
ATOM     20  C   UNL     1      42.452  49.530   9.293  1.00  0.00     0.000 C 
BRANCH  20  21
ATOM     21  C   UNL     1      42.841  50.645  10.277  1.00  0.00     0.000 C 
BRANCH  21  22
ATOM     22  C   UNL     1      43.470  50.106  11.574  1.00  0.00     0.000 C 
BRANCH  22  23
ATOM     23  C   UNL     1      44.915  50.594  11.810  1.00  0.00     0.000 C 
BRANCH  23  24
ATOM     24  C   UNL     1      45.451  51.419  10.629  1.00  0.00    -0.000 C 
BRANCH  24  25
ATOM     25  C   UNL     1      46.852  50.972  10.174  1.00  0.00    -0.000 C 
BRANCH  25  26
ATOM     26  C   UNL     1      46.884  49.546   9.581  1.00  0.00    -0.000 C 
BRANCH  26  27
ATOM     27  C   UNL     1      47.575  48.542  10.522  1.00  0.00    -0.000 C 
BRANCH  27  28
ATOM     28  C   UNL     1      46.836  47.188  10.585  1.00  0.00    -0.000 C 
BRANCH  28  29
ATOM     29  C   UNL     1      46.492  46.599   9.204  1.00  0.00    -0.000 C 
BRANCH  29  30
ATOM     30  C   UNL     1      46.113  45.107   9.212  1.00  0.00    -0.000 C 
BRANCH  30  31
ATOM     31  C   UNL     1      47.239  44.205   8.687  1.00  0.00    -0.003 C 
ATOM     32  C   UNL     1      46.940  43.721   7.271  1.00  0.00     0.004 C 
ENDBRANCH  30  31
ENDBRANCH  29  30
ENDBRANCH  28  29
ENDBRANCH  27  28
ENDBRANCH  26  27
ENDBRANCH  25  26
ENDBRANCH  24  25
ENDBRANCH  23  24
ENDBRANCH  22  23
ENDBRANCH  21  22
ENDBRANCH  20  21
ENDBRANCH  19  20
ENDBRANCH  18  19
ENDBRANCH   1  18
TORSDOF 28
ENDMDL
