MODEL 1
REMARK VINA RESULT:    -3.999      0.000      0.000
REMARK INTER + INTRA:          -8.307
REMARK INTER:                  -7.038
REMARK INTRA:                  -1.269
REMARK UNBOUND:                -1.269
REMARK SMILES CCCCCCC=CCCCCCCCC(=O)[O-]
REMARK SMILES IDX 10 1 11 2 12 3 13 4 14 5 15 6 16 7 17 8 18 9 9 10 8 11 7 12
REMARK SMILES IDX 6 13 5 14 4 15 3 16 2 17 1 18
REMARK H PARENT
REMARK Flexibility Score: inf
ROOT
ATOM      1  C   UNL     1      33.305 168.875  18.010  1.00  0.00     0.004 C 
ENDROOT
BRANCH   1   2
ATOM      2  C   UNL     1      34.473 168.992  17.020  1.00  0.00     0.000 C 
BRANCH   2   3
ATOM      3  C   UNL     1      35.077 170.407  16.969  1.00  0.00     0.000 C 
BRANCH   3   4
ATOM      4  C   UNL     1      35.009 171.095  15.593  1.00  0.00     0.000 C 
BRANCH   4   5
ATOM      5  C   UNL     1      33.623 170.989  14.938  1.00  0.00     0.006 C 
BRANCH   5   6
ATOM      6  C   UNL     1      32.589 171.812  15.710  1.00  0.00     0.053 C 
BRANCH   6   7
ATOM      7  C   UNL     1      31.277 171.093  15.759  1.00  0.00     0.041 C 
ATOM      8  O   UNL     1      31.214 169.871  15.462  1.00  0.00    -0.550 OA
ATOM      9  O   UNL     1      30.118 171.784  16.085  1.00  0.00    -0.550 OA
ENDBRANCH   6   7
ENDBRANCH   5   6
ENDBRANCH   4   5
ENDBRANCH   3   4
ENDBRANCH   2   3
ENDBRANCH   1   2
BRANCH   1  10
ATOM     10  C   UNL     1      33.380 169.975  19.077  1.00  0.00     0.027 C 
BRANCH  10  11
ATOM     11  C   UNL     1      32.017 170.291  19.628  1.00  0.00    -0.031 C 
ATOM     12  C   UNL     1      31.491 171.522  19.540  1.00  0.00    -0.031 C 
BRANCH  12  13
ATOM     13  C   UNL     1      30.131 171.842  20.101  1.00  0.00     0.027 C 
BRANCH  13  14
ATOM     14  C   UNL     1      30.137 173.121  20.952  1.00  0.00     0.004 C 
BRANCH  14  15
ATOM     15  C   UNL     1      28.764 173.810  20.972  1.00  0.00     0.000 C 
BRANCH  15  16
ATOM     16  C   UNL     1      28.886 175.263  21.453  1.00  0.00    -0.000 C 
BRANCH  16  17
ATOM     17  C   UNL     1      27.524 175.892  21.781  1.00  0.00    -0.003 C 
ATOM     18  C   UNL     1      26.577 175.913  20.582  1.00  0.00     0.004 C 
ENDBRANCH  16  17
ENDBRANCH  15  16
ENDBRANCH  14  15
ENDBRANCH  13  14
ENDBRANCH  12  13
ENDBRANCH  10  11
ENDBRANCH   1  10
TORSDOF 13
ENDMDL
MODEL 2
REMARK VINA RESULT:    -3.920     18.717     21.268
REMARK INTER + INTRA:          -8.169
REMARK INTER:                  -6.492
REMARK INTRA:                  -1.677
REMARK UNBOUND:                -1.269
REMARK SMILES CCCCCCC=CCCCCCCCC(=O)[O-]
REMARK SMILES IDX 10 1 11 2 12 3 13 4 14 5 15 6 16 7 17 8 18 9 9 10 8 11 7 12
REMARK SMILES IDX 6 13 5 14 4 15 3 16 2 17 1 18
REMARK H PARENT
REMARK Flexibility Score: inf
ROOT
ATOM      1  C   UNL     1      40.519 185.550  30.921  1.00  0.00     0.004 C 
ENDROOT
BRANCH   1   2
ATOM      2  C   UNL     1      41.656 186.478  31.375  1.00  0.00     0.000 C 
BRANCH   2   3
ATOM      3  C   UNL     1      41.254 187.389  32.549  1.00  0.00     0.000 C 
BRANCH   3   4
ATOM      4  C   UNL     1      41.310 186.724  33.937  1.00  0.00     0.000 C 
BRANCH   4   5
ATOM      5  C   UNL     1      42.466 185.722  34.076  1.00  0.00     0.006 C 
BRANCH   5   6
ATOM      6  C   UNL     1      41.937 184.310  34.340  1.00  0.00     0.053 C 
BRANCH   6   7
ATOM      7  C   UNL     1      42.358 183.380  33.245  1.00  0.00     0.041 C 
ATOM      8  O   UNL     1      41.609 182.428  32.901  1.00  0.00    -0.550 OA
ATOM      9  O   UNL     1      43.597 183.535  32.639  1.00  0.00    -0.550 OA
ENDBRANCH   6   7
ENDBRANCH   5   6
ENDBRANCH   4   5
ENDBRANCH   3   4
ENDBRANCH   2   3
ENDBRANCH   1   2
BRANCH   1  10
ATOM     10  C   UNL     1      39.228 186.342  30.683  1.00  0.00     0.027 C 
BRANCH  10  11
ATOM     11  C   UNL     1      38.100 185.809  31.524  1.00  0.00    -0.031 C 
ATOM     12  C   UNL     1      38.330 185.074  32.622  1.00  0.00    -0.031 C 
BRANCH  12  13
ATOM     13  C   UNL     1      37.202 184.531  33.459  1.00  0.00     0.027 C 
BRANCH  13  14
ATOM     14  C   UNL     1      35.940 185.403  33.375  1.00  0.00     0.004 C 
BRANCH  14  15
ATOM     15  C   UNL     1      34.892 184.815  32.419  1.00  0.00     0.000 C 
BRANCH  15  16
ATOM     16  C   UNL     1      34.950 183.280  32.418  1.00  0.00    -0.000 C 
BRANCH  16  17
ATOM     17  C   UNL     1      35.193 182.699  31.017  1.00  0.00    -0.003 C 
ATOM     18  C   UNL     1      34.561 183.542  29.909  1.00  0.00     0.004 C 
ENDBRANCH  16  17
ENDBRANCH  15  16
ENDBRANCH  14  15
ENDBRANCH  13  14
ENDBRANCH  12  13
ENDBRANCH  10  11
ENDBRANCH   1  10
TORSDOF 13
ENDMDL
MODEL 3
REMARK VINA RESULT:    -3.902      3.105      7.924
REMARK INTER + INTRA:          -8.137
REMARK INTER:                  -6.623
REMARK INTRA:                  -1.514
REMARK UNBOUND:                -1.269
REMARK SMILES CCCCCCC=CCCCCCCCC(=O)[O-]
REMARK SMILES IDX 10 1 11 2 12 3 13 4 14 5 15 6 16 7 17 8 18 9 9 10 8 11 7 12
REMARK SMILES IDX 6 13 5 14 4 15 3 16 2 17 1 18
REMARK H PARENT
REMARK Flexibility Score: inf
ROOT
ATOM      1  C   UNL     1      29.906 174.262  21.126  1.00  0.00     0.004 C 
ENDROOT
BRANCH   1   2
ATOM      2  C   UNL     1      29.126 175.400  21.799  1.00  0.00     0.000 C 
BRANCH   2   3
ATOM      3  C   UNL     1      28.542 175.001  23.167  1.00  0.00     0.000 C 
BRANCH   3   4
ATOM      4  C   UNL     1      29.587 174.742  24.269  1.00  0.00     0.000 C 
BRANCH   4   5
ATOM      5  C   UNL     1      29.663 173.266  24.687  1.00  0.00     0.006 C 
BRANCH   5   6
ATOM      6  C   UNL     1      31.008 172.653  24.287  1.00  0.00     0.053 C 
BRANCH   6   7
ATOM      7  C   UNL     1      30.803 171.318  23.641  1.00  0.00     0.041 C 
ATOM      8  O   UNL     1      29.640 170.866  23.476  1.00  0.00    -0.550 OA
ATOM      9  O   UNL     1      31.899 170.553  23.264  1.00  0.00    -0.550 OA
ENDBRANCH   6   7
ENDBRANCH   5   6
ENDBRANCH   4   5
ENDBRANCH   3   4
ENDBRANCH   2   3
ENDBRANCH   1   2
BRANCH   1  10
ATOM     10  C   UNL     1      28.985 173.076  20.815  1.00  0.00     0.027 C 
BRANCH  10  11
ATOM     11  C   UNL     1      29.702 172.026  20.010  1.00  0.00    -0.031 C 
ATOM     12  C   UNL     1      31.040 171.999  19.926  1.00  0.00    -0.031 C 
BRANCH  12  13
ATOM     13  C   UNL     1      31.759 170.955  19.113  1.00  0.00     0.027 C 
BRANCH  13  14
ATOM     14  C   UNL     1      31.183 170.821  17.695  1.00  0.00     0.004 C 
BRANCH  14  15
ATOM     15  C   UNL     1      32.281 170.611  16.641  1.00  0.00     0.000 C 
BRANCH  15  16
ATOM     16  C   UNL     1      33.427 171.616  16.835  1.00  0.00    -0.000 C 
BRANCH  16  17
ATOM     17  C   UNL     1      34.783 171.059  16.377  1.00  0.00    -0.003 C 
ATOM     18  C   UNL     1      35.140 169.736  17.055  1.00  0.00     0.004 C 
ENDBRANCH  16  17
ENDBRANCH  15  16
ENDBRANCH  14  15
ENDBRANCH  13  14
ENDBRANCH  12  13
ENDBRANCH  10  11
ENDBRANCH   1  10
TORSDOF 13
ENDMDL
MODEL 4
REMARK VINA RESULT:    -3.889     18.336     20.922
REMARK INTER + INTRA:          -8.113
REMARK INTER:                  -6.967
REMARK INTRA:                  -1.147
REMARK UNBOUND:                -1.269
REMARK SMILES CCCCCCC=CCCCCCCCC(=O)[O-]
REMARK SMILES IDX 10 1 11 2 12 3 13 4 14 5 15 6 16 7 17 8 18 9 9 10 8 11 7 12
REMARK SMILES IDX 6 13 5 14 4 15 3 16 2 17 1 18
REMARK H PARENT
REMARK Flexibility Score: inf
ROOT
ATOM      1  C   UNL     1      40.268 185.799  30.496  1.00  0.00     0.004 C 
ENDROOT
BRANCH   1   2
ATOM      2  C   UNL     1      41.461 186.369  31.277  1.00  0.00     0.000 C 
BRANCH   2   3
ATOM      3  C   UNL     1      41.036 187.196  32.504  1.00  0.00     0.000 C 
BRANCH   3   4
ATOM      4  C   UNL     1      41.172 186.471  33.856  1.00  0.00     0.000 C 
BRANCH   4   5
ATOM      5  C   UNL     1      42.601 185.981  34.133  1.00  0.00     0.006 C 
BRANCH   5   6
ATOM      6  C   UNL     1      42.615 184.483  34.446  1.00  0.00     0.053 C 
BRANCH   6   7
ATOM      7  C   UNL     1      42.904 183.692  33.208  1.00  0.00     0.041 C 
ATOM      8  O   UNL     1      41.975 183.083  32.615  1.00  0.00    -0.550 OA
ATOM      9  O   UNL     1      44.206 183.590  32.737  1.00  0.00    -0.550 OA
ENDBRANCH   6   7
ENDBRANCH   5   6
ENDBRANCH   4   5
ENDBRANCH   3   4
ENDBRANCH   2   3
ENDBRANCH   1   2
BRANCH   1  10
ATOM     10  C   UNL     1      39.040 186.707  30.633  1.00  0.00     0.027 C 
BRANCH  10  11
ATOM     11  C   UNL     1      37.818 185.917  31.015  1.00  0.00    -0.031 C 
ATOM     12  C   UNL     1      37.713 185.322  32.212  1.00  0.00    -0.031 C 
BRANCH  12  13
ATOM     13  C   UNL     1      36.495 184.522  32.592  1.00  0.00     0.027 C 
BRANCH  13  14
ATOM     14  C   UNL     1      35.514 184.360  31.420  1.00  0.00     0.004 C 
BRANCH  14  15
ATOM     15  C   UNL     1      35.356 182.892  30.996  1.00  0.00     0.000 C 
BRANCH  15  16
ATOM     16  C   UNL     1      34.003 182.662  30.307  1.00  0.00    -0.000 C 
BRANCH  16  17
ATOM     17  C   UNL     1      32.905 182.234  31.292  1.00  0.00    -0.003 C 
ATOM     18  C   UNL     1      32.627 180.731  31.252  1.00  0.00     0.004 C 
ENDBRANCH  16  17
ENDBRANCH  15  16
ENDBRANCH  14  15
ENDBRANCH  13  14
ENDBRANCH  12  13
ENDBRANCH  10  11
ENDBRANCH   1  10
TORSDOF 13
ENDMDL
MODEL 5
REMARK VINA RESULT:    -3.852      2.221      4.320
REMARK INTER + INTRA:          -8.048
REMARK INTER:                  -6.207
REMARK INTRA:                  -1.841
REMARK UNBOUND:                -1.269
REMARK SMILES CCCCCCC=CCCCCCCCC(=O)[O-]
REMARK SMILES IDX 10 1 11 2 12 3 13 4 14 5 15 6 16 7 17 8 18 9 9 10 8 11 7 12
REMARK SMILES IDX 6 13 5 14 4 15 3 16 2 17 1 18
REMARK H PARENT
REMARK Flexibility Score: inf
ROOT
ATOM      1  C   UNL     1      30.924 171.970  19.980  1.00  0.00     0.004 C 
ENDROOT
BRANCH   1   2
ATOM      2  C   UNL     1      31.285 170.512  19.662  1.00  0.00     0.000 C 
BRANCH   2   3
ATOM      3  C   UNL     1      32.487 170.000  20.476  1.00  0.00     0.000 C 
BRANCH   3   4
ATOM      4  C   UNL     1      33.520 169.190  19.671  1.00  0.00     0.000 C 
BRANCH   4   5
ATOM      5  C   UNL     1      33.311 169.291  18.153  1.00  0.00     0.006 C 
BRANCH   5   6
ATOM      6  C   UNL     1      34.592 169.752  17.453  1.00  0.00     0.053 C 
BRANCH   6   7
ATOM      7  C   UNL     1      34.341 171.005  16.674  1.00  0.00     0.041 C 
ATOM      8  O   UNL     1      35.021 171.257  15.644  1.00  0.00    -0.550 OA
ATOM      9  O   UNL     1      33.389 171.917  17.111  1.00  0.00    -0.550 OA
ENDBRANCH   6   7
ENDBRANCH   5   6
ENDBRANCH   4   5
ENDBRANCH   3   4
ENDBRANCH   2   3
ENDBRANCH   1   2
BRANCH   1  10
ATOM     10  C   UNL     1      29.422 172.217  19.787  1.00  0.00     0.027 C 
BRANCH  10  11
ATOM     11  C   UNL     1      28.899 173.199  20.798  1.00  0.00    -0.031 C 
ATOM     12  C   UNL     1      29.645 174.225  21.234  1.00  0.00    -0.031 C 
BRANCH  12  13
ATOM     13  C   UNL     1      29.126 175.203  22.253  1.00  0.00     0.027 C 
BRANCH  13  14
ATOM     14  C   UNL     1      29.163 174.635  23.680  1.00  0.00     0.004 C 
BRANCH  14  15
ATOM     15  C   UNL     1      30.565 174.144  24.072  1.00  0.00     0.000 C 
BRANCH  15  16
ATOM     16  C   UNL     1      30.501 172.739  24.688  1.00  0.00    -0.000 C 
BRANCH  16  17
ATOM     17  C   UNL     1      30.923 171.641  23.700  1.00  0.00    -0.003 C 
ATOM     18  C   UNL     1      29.777 170.698  23.338  1.00  0.00     0.004 C 
ENDBRANCH  16  17
ENDBRANCH  15  16
ENDBRANCH  14  15
ENDBRANCH  13  14
ENDBRANCH  12  13
ENDBRANCH  10  11
ENDBRANCH   1  10
TORSDOF 13
ENDMDL
MODEL 6
REMARK VINA RESULT:    -3.828      2.912      7.025
REMARK INTER + INTRA:          -8.007
REMARK INTER:                  -6.296
REMARK INTRA:                  -1.710
REMARK UNBOUND:                -1.269
REMARK SMILES CCCCCCC=CCCCCCCCC(=O)[O-]
REMARK SMILES IDX 10 1 11 2 12 3 13 4 14 5 15 6 16 7 17 8 18 9 9 10 8 11 7 12
REMARK SMILES IDX 6 13 5 14 4 15 3 16 2 17 1 18
REMARK H PARENT
REMARK Flexibility Score: inf
ROOT
ATOM      1  C   UNL     1      32.404 170.003  22.104  1.00  0.00     0.004 C 
ENDROOT
BRANCH   1   2
ATOM      2  C   UNL     1      31.067 169.441  22.609  1.00  0.00     0.000 C 
BRANCH   2   3
ATOM      3  C   UNL     1      29.928 170.475  22.571  1.00  0.00     0.000 C 
BRANCH   3   4
ATOM      4  C   UNL     1      30.381 171.936  22.388  1.00  0.00     0.000 C 
BRANCH   4   5
ATOM      5  C   UNL     1      29.610 172.670  21.281  1.00  0.00     0.006 C 
BRANCH   5   6
ATOM      6  C   UNL     1      30.089 174.117  21.148  1.00  0.00     0.053 C 
BRANCH   6   7
ATOM      7  C   UNL     1      29.130 175.050  21.821  1.00  0.00     0.041 C 
ATOM      8  O   UNL     1      29.212 175.257  23.060  1.00  0.00    -0.550 OA
ATOM      9  O   UNL     1      28.117 175.654  21.087  1.00  0.00    -0.550 OA
ENDBRANCH   6   7
ENDBRANCH   5   6
ENDBRANCH   4   5
ENDBRANCH   3   4
ENDBRANCH   2   3
ENDBRANCH   1   2
BRANCH   1  10
ATOM     10  C   UNL     1      33.030 169.071  21.059  1.00  0.00     0.027 C 
BRANCH  10  11
ATOM     11  C   UNL     1      32.615 169.458  19.667  1.00  0.00    -0.031 C 
ATOM     12  C   UNL     1      32.238 170.711  19.369  1.00  0.00    -0.031 C 
BRANCH  12  13
ATOM     13  C   UNL     1      31.813 171.097  17.977  1.00  0.00     0.027 C 
BRANCH  13  14
ATOM     14  C   UNL     1      31.669 169.881  17.051  1.00  0.00     0.004 C 
BRANCH  14  15
ATOM     15  C   UNL     1      32.684 169.906  15.899  1.00  0.00     0.000 C 
BRANCH  15  16
ATOM     16  C   UNL     1      33.479 171.220  15.896  1.00  0.00    -0.000 C 
BRANCH  16  17
ATOM     17  C   UNL     1      34.982 171.001  16.129  1.00  0.00    -0.003 C 
ATOM     18  C   UNL     1      35.285 169.678  16.832  1.00  0.00     0.004 C 
ENDBRANCH  16  17
ENDBRANCH  15  16
ENDBRANCH  14  15
ENDBRANCH  13  14
ENDBRANCH  12  13
ENDBRANCH  10  11
ENDBRANCH   1  10
TORSDOF 13
ENDMDL
MODEL 7
REMARK VINA RESULT:    -3.746      3.250      7.022
REMARK INTER + INTRA:          -7.861
REMARK INTER:                  -6.537
REMARK INTRA:                  -1.325
REMARK UNBOUND:                -1.269
REMARK SMILES CCCCCCC=CCCCCCCCC(=O)[O-]
REMARK SMILES IDX 10 1 11 2 12 3 13 4 14 5 15 6 16 7 17 8 18 9 9 10 8 11 7 12
REMARK SMILES IDX 6 13 5 14 4 15 3 16 2 17 1 18
REMARK H PARENT
REMARK Flexibility Score: inf
ROOT
ATOM      1  C   UNL     1      32.518 170.624  19.702  1.00  0.00     0.004 C 
ENDROOT
BRANCH   1   2
ATOM      2  C   UNL     1      31.054 170.739  20.152  1.00  0.00     0.000 C 
BRANCH   2   3
ATOM      3  C   UNL     1      30.464 172.142  19.920  1.00  0.00     0.000 C 
BRANCH   3   4
ATOM      4  C   UNL     1      29.977 172.862  21.191  1.00  0.00     0.000 C 
BRANCH   4   5
ATOM      5  C   UNL     1      28.964 173.979  20.898  1.00  0.00     0.006 C 
BRANCH   5   6
ATOM      6  C   UNL     1      29.205 175.188  21.805  1.00  0.00     0.053 C 
BRANCH   6   7
ATOM      7  C   UNL     1      28.949 174.829  23.235  1.00  0.00     0.041 C 
ATOM      8  O   UNL     1      27.778 174.577  23.625  1.00  0.00    -0.550 OA
ATOM      9  O   UNL     1      29.995 174.820  24.148  1.00  0.00    -0.550 OA
ENDBRANCH   6   7
ENDBRANCH   5   6
ENDBRANCH   4   5
ENDBRANCH   3   4
ENDBRANCH   2   3
ENDBRANCH   1   2
BRANCH   1  10
ATOM     10  C   UNL     1      32.857 169.180  19.309  1.00  0.00     0.027 C 
BRANCH  10  11
ATOM     11  C   UNL     1      33.746 169.141  18.097  1.00  0.00    -0.031 C 
ATOM     12  C   UNL     1      34.349 170.246  17.632  1.00  0.00    -0.031 C 
BRANCH  12  13
ATOM     13  C   UNL     1      35.231 170.210  16.413  1.00  0.00     0.027 C 
BRANCH  13  14
ATOM     14  C   UNL     1      34.742 171.161  15.310  1.00  0.00     0.004 C 
BRANCH  14  15
ATOM     15  C   UNL     1      33.302 170.852  14.875  1.00  0.00     0.000 C 
BRANCH  15  16
ATOM     16  C   UNL     1      32.437 172.121  14.899  1.00  0.00    -0.000 C 
BRANCH  16  17
ATOM     17  C   UNL     1      30.982 171.836  15.298  1.00  0.00    -0.003 C 
ATOM     18  C   UNL     1      30.852 170.651  16.254  1.00  0.00     0.004 C 
ENDBRANCH  16  17
ENDBRANCH  15  16
ENDBRANCH  14  15
ENDBRANCH  13  14
ENDBRANCH  12  13
ENDBRANCH  10  11
ENDBRANCH   1  10
TORSDOF 13
ENDMDL
MODEL 8
REMARK VINA RESULT:    -3.724      3.491      8.521
REMARK INTER + INTRA:          -7.822
REMARK INTER:                  -6.663
REMARK INTRA:                  -1.159
REMARK UNBOUND:                -1.269
REMARK SMILES CCCCCCC=CCCCCCCCC(=O)[O-]
REMARK SMILES IDX 10 1 11 2 12 3 13 4 14 5 15 6 16 7 17 8 18 9 9 10 8 11 7 12
REMARK SMILES IDX 6 13 5 14 4 15 3 16 2 17 1 18
REMARK H PARENT
REMARK Flexibility Score: inf
ROOT
ATOM      1  C   UNL     1      30.151 174.328  21.251  1.00  0.00     0.004 C 
ENDROOT
BRANCH   1   2
ATOM      2  C   UNL     1      28.956 175.234  21.582  1.00  0.00     0.000 C 
BRANCH   2   3
ATOM      3  C   UNL     1      27.616 174.477  21.599  1.00  0.00     0.000 C 
BRANCH   3   4
ATOM      4  C   UNL     1      27.074 174.144  23.001  1.00  0.00     0.000 C 
BRANCH   4   5
ATOM      5  C   UNL     1      27.899 174.781  24.130  1.00  0.00     0.006 C 
BRANCH   5   6
ATOM      6  C   UNL     1      28.637 173.711  24.938  1.00  0.00     0.053 C 
BRANCH   6   7
ATOM      7  C   UNL     1      30.117 173.922  24.857  1.00  0.00     0.041 C 
ATOM      8  O   UNL     1      30.593 175.087  24.889  1.00  0.00    -0.550 OA
ATOM      9  O   UNL     1      30.966 172.834  24.699  1.00  0.00    -0.550 OA
ENDBRANCH   6   7
ENDBRANCH   5   6
ENDBRANCH   4   5
ENDBRANCH   3   4
ENDBRANCH   2   3
ENDBRANCH   1   2
BRANCH   1  10
ATOM     10  C   UNL     1      29.682 172.911  20.898  1.00  0.00     0.027 C 
BRANCH  10  11
ATOM     11  C   UNL     1      30.596 172.271  19.889  1.00  0.00    -0.031 C 
ATOM     12  C   UNL     1      31.308 171.173  20.183  1.00  0.00    -0.031 C 
BRANCH  12  13
ATOM     13  C   UNL     1      32.230 170.537  19.177  1.00  0.00     0.027 C 
BRANCH  13  14
ATOM     14  C   UNL     1      31.957 171.023  17.745  1.00  0.00     0.004 C 
BRANCH  14  15
ATOM     15  C   UNL     1      33.194 171.672  17.108  1.00  0.00     0.000 C 
BRANCH  15  16
ATOM     16  C   UNL     1      33.765 170.787  15.991  1.00  0.00    -0.000 C 
BRANCH  16  17
ATOM     17  C   UNL     1      35.200 170.320  16.282  1.00  0.00    -0.003 C 
ATOM     18  C   UNL     1      35.248 169.015  17.077  1.00  0.00     0.004 C 
ENDBRANCH  16  17
ENDBRANCH  15  16
ENDBRANCH  14  15
ENDBRANCH  13  14
ENDBRANCH  12  13
ENDBRANCH  10  11
ENDBRANCH   1  10
TORSDOF 13
ENDMDL
MODEL 9
REMARK VINA RESULT:    -3.706     20.685     22.467
REMARK INTER + INTRA:          -7.791
REMARK INTER:                  -5.686
REMARK INTRA:                  -2.105
REMARK UNBOUND:                -1.269
REMARK SMILES CCCCCCC=CCCCCCCCC(=O)[O-]
REMARK SMILES IDX 10 1 11 2 12 3 13 4 14 5 15 6 16 7 17 8 18 9 9 10 8 11 7 12
REMARK SMILES IDX 6 13 5 14 4 15 3 16 2 17 1 18
REMARK H PARENT
REMARK Flexibility Score: inf
ROOT
ATOM      1  C   UNL     1      40.565 185.465  31.017  1.00  0.00     0.004 C 
ENDROOT
BRANCH   1   2
ATOM      2  C   UNL     1      41.658 186.458  31.440  1.00  0.00     0.000 C 
BRANCH   2   3
ATOM      3  C   UNL     1      41.816 186.560  32.968  1.00  0.00     0.000 C 
BRANCH   3   4
ATOM      4  C   UNL     1      40.913 185.613  33.781  1.00  0.00     0.000 C 
BRANCH   4   5
ATOM      5  C   UNL     1      41.683 184.439  34.403  1.00  0.00     0.006 C 
BRANCH   5   6
ATOM      6  C   UNL     1      43.192 184.608  34.206  1.00  0.00     0.053 C 
BRANCH   6   7
ATOM      7  C   UNL     1      43.733 183.515  33.338  1.00  0.00     0.041 C 
ATOM      8  O   UNL     1      43.829 182.341  33.784  1.00  0.00    -0.550 OA
ATOM      9  O   UNL     1      44.175 183.802  32.053  1.00  0.00    -0.550 OA
ENDBRANCH   6   7
ENDBRANCH   5   6
ENDBRANCH   4   5
ENDBRANCH   3   4
ENDBRANCH   2   3
ENDBRANCH   1   2
BRANCH   1  10
ATOM     10  C   UNL     1      39.425 186.185  30.285  1.00  0.00     0.027 C 
BRANCH  10  11
ATOM     11  C   UNL     1      38.332 186.580  31.239  1.00  0.00    -0.031 C 
ATOM     12  C   UNL     1      38.322 187.780  31.839  1.00  0.00    -0.031 C 
BRANCH  12  13
ATOM     13  C   UNL     1      37.233 188.173  32.801  1.00  0.00     0.027 C 
BRANCH  13  14
ATOM     14  C   UNL     1      37.780 188.507  34.197  1.00  0.00     0.004 C 
BRANCH  14  15
ATOM     15  C   UNL     1      37.972 187.251  35.059  1.00  0.00     0.000 C 
BRANCH  15  16
ATOM     16  C   UNL     1      36.864 186.223  34.787  1.00  0.00    -0.000 C 
BRANCH  16  17
ATOM     17  C   UNL     1      37.414 184.805  34.570  1.00  0.00    -0.003 C 
ATOM     18  C   UNL     1      36.728 184.074  33.416  1.00  0.00     0.004 C 
ENDBRANCH  16  17
ENDBRANCH  15  16
ENDBRANCH  14  15
ENDBRANCH  13  14
ENDBRANCH  12  13
ENDBRANCH  10  11
ENDBRANCH   1  10
TORSDOF 13
ENDMDL
