MODEL 1
REMARK VINA RESULT:    -3.483      0.000      0.000
REMARK INTER + INTRA:         -11.082
REMARK INTER:                  -7.962
REMARK INTRA:                  -3.120
REMARK UNBOUND:                -3.120
REMARK SMILES CCCCCCCCCCCCCCCCCCCCCCCC(=O)[O-]
REMARK SMILES IDX 13 1 14 2 15 3 16 4 17 5 18 6 19 7 20 8 21 9 22 10 23 11
REMARK SMILES IDX 24 12 25 13 26 14 12 15 11 16 10 17 9 18 8 19 7 20 6 21 5 22
REMARK SMILES IDX 4 23 3 24 2 25 1 26
REMARK H PARENT
REMARK Flexibility Score: inf
ROOT
ATOM      1  C   UNL     1      -6.832  -2.273 -23.497  1.00  0.00     0.000 C 
ENDROOT
BRANCH   1   2
ATOM      2  C   UNL     1      -5.350  -2.649 -23.672  1.00  0.00     0.000 C 
BRANCH   2   3
ATOM      3  C   UNL     1      -5.129  -3.686 -24.786  1.00  0.00     0.000 C 
BRANCH   3   4
ATOM      4  C   UNL     1      -5.586  -3.173 -26.162  1.00  0.00     0.000 C 
BRANCH   4   5
ATOM      5  C   UNL     1      -6.561  -4.133 -26.866  1.00  0.00     0.000 C 
BRANCH   5   6
ATOM      6  C   UNL     1      -7.947  -4.265 -26.201  1.00  0.00     0.000 C 
BRANCH   6   7
ATOM      7  C   UNL     1      -8.336  -5.694 -25.771  1.00  0.00     0.000 C 
BRANCH   7   8
ATOM      8  C   UNL     1      -7.221  -6.744 -25.923  1.00  0.00     0.000 C 
BRANCH   8   9
ATOM      9  C   UNL     1      -7.693  -8.015 -26.643  1.00  0.00     0.000 C 
BRANCH   9  10
ATOM     10  C   UNL     1      -9.226  -8.100 -26.657  1.00  0.00     0.006 C 
BRANCH  10  11
ATOM     11  C   UNL     1      -9.729  -9.487 -27.078  1.00  0.00     0.053 C 
BRANCH  11  12
ATOM     12  C   UNL     1     -10.392 -10.205 -25.944  1.00  0.00     0.041 C 
ATOM     13  O   UNL     1     -11.167 -11.171 -26.172  1.00  0.00    -0.550 OA
ATOM     14  O   UNL     1     -10.177  -9.789 -24.636  1.00  0.00    -0.550 OA
ENDBRANCH  11  12
ENDBRANCH  10  11
ENDBRANCH   9  10
ENDBRANCH   8   9
ENDBRANCH   7   8
ENDBRANCH   6   7
ENDBRANCH   5   6
ENDBRANCH   4   5
ENDBRANCH   3   4
ENDBRANCH   2   3
ENDBRANCH   1   2
BRANCH   1  15
ATOM     15  C   UNL     1      -7.014  -0.916 -22.797  1.00  0.00     0.000 C 
BRANCH  15  16
ATOM     16  C   UNL     1      -5.734  -0.062 -22.830  1.00  0.00     0.000 C 
BRANCH  16  17
ATOM     17  C   UNL     1      -5.863   1.225 -22.001  1.00  0.00     0.000 C 
BRANCH  17  18
ATOM     18  C   UNL     1      -5.632   2.492 -22.840  1.00  0.00    -0.000 C 
BRANCH  18  19
ATOM     19  C   UNL     1      -6.835   2.771 -23.753  1.00  0.00    -0.000 C 
BRANCH  19  20
ATOM     20  C   UNL     1      -6.507   2.606 -25.248  1.00  0.00    -0.000 C 
BRANCH  20  21
ATOM     21  C   UNL     1      -7.396   1.600 -26.001  1.00  0.00    -0.000 C 
BRANCH  21  22
ATOM     22  C   UNL     1      -8.720   1.311 -25.277  1.00  0.00    -0.000 C 
BRANCH  22  23
ATOM     23  C   UNL     1      -9.159  -0.144 -25.492  1.00  0.00    -0.000 C 
BRANCH  23  24
ATOM     24  C   UNL     1      -8.376  -0.787 -26.647  1.00  0.00    -0.000 C 
BRANCH  24  25
ATOM     25  C   UNL     1      -9.261  -1.078 -27.870  1.00  0.00    -0.003 C 
ATOM     26  C   UNL     1     -10.707  -1.391 -27.490  1.00  0.00     0.004 C 
ENDBRANCH  24  25
ENDBRANCH  23  24
ENDBRANCH  22  23
ENDBRANCH  21  22
ENDBRANCH  20  21
ENDBRANCH  19  20
ENDBRANCH  18  19
ENDBRANCH  17  18
ENDBRANCH  16  17
ENDBRANCH  15  16
ENDBRANCH   1  15
TORSDOF 22
ENDMDL
MODEL 2
REMARK VINA RESULT:    -3.417      1.824      3.794
REMARK INTER + INTRA:         -10.932
REMARK INTER:                  -8.687
REMARK INTRA:                  -2.245
REMARK UNBOUND:                -3.120
REMARK SMILES CCCCCCCCCCCCCCCCCCCCCCCC(=O)[O-]
REMARK SMILES IDX 13 1 14 2 15 3 16 4 17 5 18 6 19 7 20 8 21 9 22 10 23 11
REMARK SMILES IDX 24 12 25 13 26 14 12 15 11 16 10 17 9 18 8 19 7 20 6 21 5 22
REMARK SMILES IDX 4 23 3 24 2 25 1 26
REMARK H PARENT
REMARK Flexibility Score: inf
ROOT
ATOM      1  C   UNL     1      -8.007  -3.609 -25.197  1.00  0.00     0.000 C 
ENDROOT
BRANCH   1   2
ATOM      2  C   UNL     1      -8.246  -4.949 -25.915  1.00  0.00     0.000 C 
BRANCH   2   3
ATOM      3  C   UNL     1      -6.970  -5.801 -26.020  1.00  0.00     0.000 C 
BRANCH   3   4
ATOM      4  C   UNL     1      -7.235  -7.291 -25.751  1.00  0.00     0.000 C 
BRANCH   4   5
ATOM      5  C   UNL     1      -8.553  -7.787 -26.371  1.00  0.00     0.000 C 
BRANCH   5   6
ATOM      6  C   UNL     1      -9.269  -8.906 -25.587  1.00  0.00     0.000 C 
BRANCH   6   7
ATOM      7  C   UNL     1     -10.044  -9.921 -26.451  1.00  0.00     0.000 C 
BRANCH   7   8
ATOM      8  C   UNL     1     -10.875  -9.303 -27.590  1.00  0.00     0.000 C 
BRANCH   8   9
ATOM      9  C   UNL     1     -12.068 -10.179 -28.001  1.00  0.00     0.000 C 
BRANCH   9  10
ATOM     10  C   UNL     1     -11.768 -11.665 -27.751  1.00  0.00     0.006 C 
BRANCH  10  11
ATOM     11  C   UNL     1     -12.480 -12.201 -26.502  1.00  0.00     0.053 C 
BRANCH  11  12
ATOM     12  C   UNL     1     -12.880 -13.635 -26.663  1.00  0.00     0.041 C 
ATOM     13  O   UNL     1     -14.030 -14.014 -26.316  1.00  0.00    -0.550 OA
ATOM     14  O   UNL     1     -11.973 -14.558 -27.167  1.00  0.00    -0.550 OA
ENDBRANCH  11  12
ENDBRANCH  10  11
ENDBRANCH   9  10
ENDBRANCH   8   9
ENDBRANCH   7   8
ENDBRANCH   6   7
ENDBRANCH   5   6
ENDBRANCH   4   5
ENDBRANCH   3   4
ENDBRANCH   2   3
ENDBRANCH   1   2
BRANCH   1  15
ATOM     15  C   UNL     1      -6.649  -2.986 -25.555  1.00  0.00     0.000 C 
BRANCH  15  16
ATOM     16  C   UNL     1      -6.261  -1.838 -24.606  1.00  0.00     0.000 C 
BRANCH  16  17
ATOM     17  C   UNL     1      -7.006  -1.904 -23.264  1.00  0.00     0.000 C 
BRANCH  17  18
ATOM     18  C   UNL     1      -6.991  -0.563 -22.514  1.00  0.00    -0.000 C 
BRANCH  18  19
ATOM     19  C   UNL     1      -5.718   0.233 -22.841  1.00  0.00    -0.000 C 
BRANCH  19  20
ATOM     20  C   UNL     1      -5.841   1.730 -22.503  1.00  0.00    -0.000 C 
BRANCH  20  21
ATOM     21  C   UNL     1      -6.023   2.658 -23.717  1.00  0.00    -0.000 C 
BRANCH  21  22
ATOM     22  C   UNL     1      -5.767   1.950 -25.056  1.00  0.00    -0.000 C 
BRANCH  22  23
ATOM     23  C   UNL     1      -6.995   2.042 -25.972  1.00  0.00    -0.000 C 
BRANCH  23  24
ATOM     24  C   UNL     1      -8.251   1.520 -25.258  1.00  0.00    -0.000 C 
BRANCH  24  25
ATOM     25  C   UNL     1      -8.850   0.284 -25.948  1.00  0.00    -0.003 C 
ATOM     26  C   UNL     1     -10.115  -0.223 -25.256  1.00  0.00     0.004 C 
ENDBRANCH  24  25
ENDBRANCH  23  24
ENDBRANCH  22  23
ENDBRANCH  21  22
ENDBRANCH  20  21
ENDBRANCH  19  20
ENDBRANCH  18  19
ENDBRANCH  17  18
ENDBRANCH  16  17
ENDBRANCH  15  16
ENDBRANCH   1  15
TORSDOF 22
ENDMDL
MODEL 3
REMARK VINA RESULT:    -3.334      1.512      2.717
REMARK INTER + INTRA:         -10.743
REMARK INTER:                  -8.025
REMARK INTRA:                  -2.718
REMARK UNBOUND:                -3.120
REMARK SMILES CCCCCCCCCCCCCCCCCCCCCCCC(=O)[O-]
REMARK SMILES IDX 13 1 14 2 15 3 16 4 17 5 18 6 19 7 20 8 21 9 22 10 23 11
REMARK SMILES IDX 24 12 25 13 26 14 12 15 11 16 10 17 9 18 8 19 7 20 6 21 5 22
REMARK SMILES IDX 4 23 3 24 2 25 1 26
REMARK H PARENT
REMARK Flexibility Score: inf
ROOT
ATOM      1  C   UNL     1      -8.114  -2.518 -25.833  1.00  0.00     0.000 C 
ENDROOT
BRANCH   1   2
ATOM      2  C   UNL     1      -6.861  -2.795 -26.684  1.00  0.00     0.000 C 
BRANCH   2   3
ATOM      3  C   UNL     1      -7.103  -3.861 -27.765  1.00  0.00     0.000 C 
BRANCH   3   4
ATOM      4  C   UNL     1      -6.441  -5.206 -27.421  1.00  0.00     0.000 C 
BRANCH   4   5
ATOM      5  C   UNL     1      -7.142  -5.940 -26.264  1.00  0.00     0.000 C 
BRANCH   5   6
ATOM      6  C   UNL     1      -8.359  -6.796 -26.671  1.00  0.00     0.000 C 
BRANCH   6   7
ATOM      7  C   UNL     1      -8.598  -8.049 -25.805  1.00  0.00     0.000 C 
BRANCH   7   8
ATOM      8  C   UNL     1     -10.010  -8.653 -25.913  1.00  0.00     0.000 C 
BRANCH   8   9
ATOM      9  C   UNL     1     -10.592  -8.556 -27.331  1.00  0.00     0.000 C 
BRANCH   9  10
ATOM     10  C   UNL     1     -10.644  -9.939 -27.998  1.00  0.00     0.006 C 
BRANCH  10  11
ATOM     11  C   UNL     1     -11.949 -10.686 -27.690  1.00  0.00     0.053 C 
BRANCH  11  12
ATOM     12  C   UNL     1     -11.711 -11.888 -26.828  1.00  0.00     0.041 C 
ATOM     13  O   UNL     1     -10.550 -12.158 -26.425  1.00  0.00    -0.550 OA
ATOM     14  O   UNL     1     -12.768 -12.726 -26.497  1.00  0.00    -0.550 OA
ENDBRANCH  11  12
ENDBRANCH  10  11
ENDBRANCH   9  10
ENDBRANCH   8   9
ENDBRANCH   7   8
ENDBRANCH   6   7
ENDBRANCH   5   6
ENDBRANCH   4   5
ENDBRANCH   3   4
ENDBRANCH   2   3
ENDBRANCH   1   2
BRANCH   1  15
ATOM     15  C   UNL     1      -7.899  -2.854 -24.348  1.00  0.00     0.000 C 
BRANCH  15  16
ATOM     16  C   UNL     1      -6.416  -3.084 -24.006  1.00  0.00     0.000 C 
BRANCH  16  17
ATOM     17  C   UNL     1      -5.793  -1.897 -23.256  1.00  0.00     0.000 C 
BRANCH  17  18
ATOM     18  C   UNL     1      -6.845  -0.886 -22.773  1.00  0.00    -0.000 C 
BRANCH  18  19
ATOM     19  C   UNL     1      -6.449   0.545 -23.165  1.00  0.00    -0.000 C 
BRANCH  19  20
ATOM     20  C   UNL     1      -5.666   0.612 -24.488  1.00  0.00    -0.000 C 
BRANCH  20  21
ATOM     21  C   UNL     1      -6.334   1.444 -25.598  1.00  0.00    -0.000 C 
BRANCH  21  22
ATOM     22  C   UNL     1      -7.608   2.161 -25.125  1.00  0.00    -0.000 C 
BRANCH  22  23
ATOM     23  C   UNL     1      -8.634   2.268 -26.260  1.00  0.00    -0.000 C 
BRANCH  23  24
ATOM     24  C   UNL     1      -8.852   0.903 -26.931  1.00  0.00    -0.000 C 
BRANCH  24  25
ATOM     25  C   UNL     1     -10.274   0.361 -26.717  1.00  0.00    -0.003 C 
ATOM     26  C   UNL     1     -10.584   0.081 -25.248  1.00  0.00     0.004 C 
ENDBRANCH  24  25
ENDBRANCH  23  24
ENDBRANCH  22  23
ENDBRANCH  21  22
ENDBRANCH  20  21
ENDBRANCH  19  20
ENDBRANCH  18  19
ENDBRANCH  17  18
ENDBRANCH  16  17
ENDBRANCH  15  16
ENDBRANCH   1  15
TORSDOF 22
ENDMDL
MODEL 4
REMARK VINA RESULT:    -3.247      3.070      7.430
REMARK INTER + INTRA:         -10.542
REMARK INTER:                  -7.558
REMARK INTRA:                  -2.984
REMARK UNBOUND:                -3.120
REMARK SMILES CCCCCCCCCCCCCCCCCCCCCCCC(=O)[O-]
REMARK SMILES IDX 13 1 14 2 15 3 16 4 17 5 18 6 19 7 20 8 21 9 22 10 23 11
REMARK SMILES IDX 24 12 25 13 26 14 12 15 11 16 10 17 9 18 8 19 7 20 6 21 5 22
REMARK SMILES IDX 4 23 3 24 2 25 1 26
REMARK H PARENT
REMARK Flexibility Score: inf
ROOT
ATOM      1  C   UNL     1      -5.523   0.380 -22.861  1.00  0.00     0.000 C 
ENDROOT
BRANCH   1   2
ATOM      2  C   UNL     1      -5.568   1.726 -22.115  1.00  0.00     0.000 C 
BRANCH   2   3
ATOM      3  C   UNL     1      -6.225   2.841 -22.945  1.00  0.00     0.000 C 
BRANCH   3   4
ATOM      4  C   UNL     1      -5.226   3.538 -23.885  1.00  0.00     0.000 C 
BRANCH   4   5
ATOM      5  C   UNL     1      -5.350   3.069 -25.345  1.00  0.00     0.000 C 
BRANCH   5   6
ATOM      6  C   UNL     1      -6.664   3.459 -26.051  1.00  0.00     0.000 C 
BRANCH   6   7
ATOM      7  C   UNL     1      -7.591   2.280 -26.411  1.00  0.00     0.000 C 
BRANCH   7   8
ATOM      8  C   UNL     1      -6.905   0.904 -26.452  1.00  0.00     0.000 C 
BRANCH   8   9
ATOM      9  C   UNL     1      -7.825  -0.235 -25.987  1.00  0.00     0.000 C 
BRANCH   9  10
ATOM     10  C   UNL     1      -8.409  -0.993 -27.189  1.00  0.00     0.006 C 
BRANCH  10  11
ATOM     11  C   UNL     1      -9.907  -1.281 -27.023  1.00  0.00     0.053 C 
BRANCH  11  12
ATOM     12  C   UNL     1     -10.662  -0.065 -26.584  1.00  0.00     0.041 C 
ATOM     13  O   UNL     1     -10.749   0.935 -27.344  1.00  0.00    -0.550 OA
ATOM     14  O   UNL     1     -11.243  -0.024 -25.323  1.00  0.00    -0.550 OA
ENDBRANCH  11  12
ENDBRANCH  10  11
ENDBRANCH   9  10
ENDBRANCH   8   9
ENDBRANCH   7   8
ENDBRANCH   6   7
ENDBRANCH   5   6
ENDBRANCH   4   5
ENDBRANCH   3   4
ENDBRANCH   2   3
ENDBRANCH   1   2
BRANCH   1  15
ATOM     15  C   UNL     1      -6.758  -0.489 -22.579  1.00  0.00     0.000 C 
BRANCH  15  16
ATOM     16  C   UNL     1      -6.516  -1.975 -22.899  1.00  0.00     0.000 C 
BRANCH  16  17
ATOM     17  C   UNL     1      -5.436  -2.180 -23.972  1.00  0.00     0.000 C 
BRANCH  17  18
ATOM     18  C   UNL     1      -5.852  -3.202 -25.041  1.00  0.00    -0.000 C 
BRANCH  18  19
ATOM     19  C   UNL     1      -7.297  -3.672 -24.816  1.00  0.00    -0.000 C 
BRANCH  19  20
ATOM     20  C   UNL     1      -7.817  -4.580 -25.945  1.00  0.00    -0.000 C 
BRANCH  20  21
ATOM     21  C   UNL     1      -6.858  -5.708 -26.367  1.00  0.00    -0.000 C 
BRANCH  21  22
ATOM     22  C   UNL     1      -7.308  -7.093 -25.878  1.00  0.00    -0.000 C 
BRANCH  22  23
ATOM     23  C   UNL     1      -8.839  -7.193 -25.843  1.00  0.00    -0.000 C 
BRANCH  23  24
ATOM     24  C   UNL     1      -9.356  -8.075 -26.990  1.00  0.00    -0.000 C 
BRANCH  24  25
ATOM     25  C   UNL     1     -10.256  -9.219 -26.496  1.00  0.00    -0.003 C 
ATOM     26  C   UNL     1      -9.472 -10.320 -25.783  1.00  0.00     0.004 C 
ENDBRANCH  24  25
ENDBRANCH  23  24
ENDBRANCH  22  23
ENDBRANCH  21  22
ENDBRANCH  20  21
ENDBRANCH  19  20
ENDBRANCH  18  19
ENDBRANCH  17  18
ENDBRANCH  16  17
ENDBRANCH  15  16
ENDBRANCH   1  15
TORSDOF 22
ENDMDL
MODEL 5
REMARK VINA RESULT:    -3.169      3.367      8.048
REMARK INTER + INTRA:         -10.365
REMARK INTER:                  -7.167
REMARK INTRA:                  -3.198
REMARK UNBOUND:                -3.120
REMARK SMILES CCCCCCCCCCCCCCCCCCCCCCCC(=O)[O-]
REMARK SMILES IDX 13 1 14 2 15 3 16 4 17 5 18 6 19 7 20 8 21 9 22 10 23 11
REMARK SMILES IDX 24 12 25 13 26 14 12 15 11 16 10 17 9 18 8 19 7 20 6 21 5 22
REMARK SMILES IDX 4 23 3 24 2 25 1 26
REMARK H PARENT
REMARK Flexibility Score: inf
ROOT
ATOM      1  C   UNL     1     -10.293  -0.128 -25.969  1.00  0.00     0.000 C 
ENDROOT
BRANCH   1   2
ATOM      2  C   UNL     1     -10.624   0.784 -27.164  1.00  0.00     0.000 C 
BRANCH   2   3
ATOM      3  C   UNL     1      -9.367   1.282 -27.895  1.00  0.00     0.000 C 
BRANCH   3   4
ATOM      4  C   UNL     1      -9.382   2.804 -28.116  1.00  0.00     0.000 C 
BRANCH   4   5
ATOM      5  C   UNL     1      -8.704   3.582 -26.975  1.00  0.00     0.000 C 
BRANCH   5   6
ATOM      6  C   UNL     1      -7.486   2.884 -26.337  1.00  0.00     0.000 C 
BRANCH   6   7
ATOM      7  C   UNL     1      -6.296   2.641 -27.288  1.00  0.00     0.000 C 
BRANCH   7   8
ATOM      8  C   UNL     1      -5.178   1.753 -26.714  1.00  0.00     0.000 C 
BRANCH   8   9
ATOM      9  C   UNL     1      -5.561   0.267 -26.668  1.00  0.00     0.000 C 
BRANCH   9  10
ATOM     10  C   UNL     1      -5.285  -0.328 -25.279  1.00  0.00     0.006 C 
BRANCH  10  11
ATOM     11  C   UNL     1      -6.288   0.163 -24.226  1.00  0.00     0.053 C 
BRANCH  11  12
ATOM     12  C   UNL     1      -5.918  -0.298 -22.850  1.00  0.00     0.041 C 
ATOM     13  O   UNL     1      -5.920   0.514 -21.889  1.00  0.00    -0.550 OA
ATOM     14  O   UNL     1      -5.542  -1.618 -22.636  1.00  0.00    -0.550 OA
ENDBRANCH  11  12
ENDBRANCH  10  11
ENDBRANCH   9  10
ENDBRANCH   8   9
ENDBRANCH   7   8
ENDBRANCH   6   7
ENDBRANCH   5   6
ENDBRANCH   4   5
ENDBRANCH   3   4
ENDBRANCH   2   3
ENDBRANCH   1   2
BRANCH   1  15
ATOM     15  C   UNL     1      -9.021  -0.961 -26.202  1.00  0.00     0.000 C 
BRANCH  15  16
ATOM     16  C   UNL     1      -9.302  -2.256 -26.984  1.00  0.00     0.000 C 
BRANCH  16  17
ATOM     17  C   UNL     1      -8.286  -3.365 -26.674  1.00  0.00     0.000 C 
BRANCH  17  18
ATOM     18  C   UNL     1      -7.797  -3.326 -25.217  1.00  0.00    -0.000 C 
BRANCH  18  19
ATOM     19  C   UNL     1      -6.387  -3.923 -25.097  1.00  0.00    -0.000 C 
BRANCH  19  20
ATOM     20  C   UNL     1      -5.594  -3.862 -26.415  1.00  0.00    -0.000 C 
BRANCH  20  21
ATOM     21  C   UNL     1      -5.226  -5.230 -27.017  1.00  0.00    -0.000 C 
BRANCH  21  22
ATOM     22  C   UNL     1      -5.637  -6.409 -26.121  1.00  0.00    -0.000 C 
BRANCH  22  23
ATOM     23  C   UNL     1      -6.854  -7.142 -26.700  1.00  0.00    -0.000 C 
BRANCH  23  24
ATOM     24  C   UNL     1      -7.907  -7.399 -25.611  1.00  0.00    -0.000 C 
BRANCH  24  25
ATOM     25  C   UNL     1      -9.279  -7.775 -26.193  1.00  0.00    -0.003 C 
ATOM     26  C   UNL     1      -9.822  -9.086 -25.626  1.00  0.00     0.004 C 
ENDBRANCH  24  25
ENDBRANCH  23  24
ENDBRANCH  22  23
ENDBRANCH  21  22
ENDBRANCH  20  21
ENDBRANCH  19  20
ENDBRANCH  18  19
ENDBRANCH  17  18
ENDBRANCH  16  17
ENDBRANCH  15  16
ENDBRANCH   1  15
TORSDOF 22
ENDMDL
MODEL 6
REMARK VINA RESULT:    -3.144      3.546     10.741
REMARK INTER + INTRA:         -10.308
REMARK INTER:                  -7.835
REMARK INTRA:                  -2.473
REMARK UNBOUND:                -3.120
REMARK SMILES CCCCCCCCCCCCCCCCCCCCCCCC(=O)[O-]
REMARK SMILES IDX 13 1 14 2 15 3 16 4 17 5 18 6 19 7 20 8 21 9 22 10 23 11
REMARK SMILES IDX 24 12 25 13 26 14 12 15 11 16 10 17 9 18 8 19 7 20 6 21 5 22
REMARK SMILES IDX 4 23 3 24 2 25 1 26
REMARK H PARENT
REMARK Flexibility Score: inf
ROOT
ATOM      1  C   UNL     1      -7.748  -7.963 -26.369  1.00  0.00     0.000 C 
ENDROOT
BRANCH   1   2
ATOM      2  C   UNL     1      -7.219  -6.612 -25.857  1.00  0.00     0.000 C 
BRANCH   2   3
ATOM      3  C   UNL     1      -8.231  -5.470 -26.045  1.00  0.00     0.000 C 
BRANCH   3   4
ATOM      4  C   UNL     1      -7.858  -4.216 -25.235  1.00  0.00     0.000 C 
BRANCH   4   5
ATOM      5  C   UNL     1      -6.505  -3.614 -25.653  1.00  0.00     0.000 C 
BRANCH   5   6
ATOM      6  C   UNL     1      -5.478  -3.454 -24.515  1.00  0.00     0.000 C 
BRANCH   6   7
ATOM      7  C   UNL     1      -6.002  -2.739 -23.253  1.00  0.00     0.000 C 
BRANCH   7   8
ATOM      8  C   UNL     1      -6.493  -1.299 -23.479  1.00  0.00     0.000 C 
BRANCH   8   9
ATOM      9  C   UNL     1      -7.959  -1.098 -23.069  1.00  0.00     0.000 C 
BRANCH   9  10
ATOM     10  C   UNL     1      -8.829  -0.764 -24.289  1.00  0.00     0.006 C 
BRANCH  10  11
ATOM     11  C   UNL     1      -8.031  -0.071 -25.401  1.00  0.00     0.053 C 
BRANCH  11  12
ATOM     12  C   UNL     1      -8.304  -0.678 -26.743  1.00  0.00     0.041 C 
ATOM     13  O   UNL     1      -9.334  -1.380 -26.922  1.00  0.00    -0.550 OA
ATOM     14  O   UNL     1      -7.405  -0.494 -27.786  1.00  0.00    -0.550 OA
ENDBRANCH  11  12
ENDBRANCH  10  11
ENDBRANCH   9  10
ENDBRANCH   8   9
ENDBRANCH   7   8
ENDBRANCH   6   7
ENDBRANCH   5   6
ENDBRANCH   4   5
ENDBRANCH   3   4
ENDBRANCH   2   3
ENDBRANCH   1   2
BRANCH   1  15
ATOM     15  C   UNL     1      -9.173  -8.260 -25.874  1.00  0.00     0.000 C 
BRANCH  15  16
ATOM     16  C   UNL     1     -10.160  -8.492 -27.032  1.00  0.00     0.000 C 
BRANCH  16  17
ATOM     17  C   UNL     1     -10.248  -9.968 -27.447  1.00  0.00     0.000 C 
BRANCH  17  18
ATOM     18  C   UNL     1     -11.123 -10.798 -26.493  1.00  0.00    -0.000 C 
BRANCH  18  19
ATOM     19  C   UNL     1     -11.987 -11.799 -27.274  1.00  0.00    -0.000 C 
BRANCH  19  20
ATOM     20  C   UNL     1     -12.715 -12.804 -26.363  1.00  0.00    -0.000 C 
BRANCH  20  21
ATOM     21  C   UNL     1     -12.456 -14.285 -26.692  1.00  0.00    -0.000 C 
BRANCH  21  22
ATOM     22  C   UNL     1     -11.142 -14.508 -27.457  1.00  0.00    -0.000 C 
BRANCH  22  23
ATOM     23  C   UNL     1     -10.054 -15.068 -26.532  1.00  0.00    -0.000 C 
BRANCH  23  24
ATOM     24  C   UNL     1      -8.675 -14.502 -26.902  1.00  0.00    -0.000 C 
BRANCH  24  25
ATOM     25  C   UNL     1      -8.351 -13.199 -26.153  1.00  0.00    -0.003 C 
ATOM     26  C   UNL     1      -7.492 -12.242 -26.978  1.00  0.00     0.004 C 
ENDBRANCH  24  25
ENDBRANCH  23  24
ENDBRANCH  22  23
ENDBRANCH  21  22
ENDBRANCH  20  21
ENDBRANCH  19  20
ENDBRANCH  18  19
ENDBRANCH  17  18
ENDBRANCH  16  17
ENDBRANCH  15  16
ENDBRANCH   1  15
TORSDOF 22
ENDMDL
MODEL 7
REMARK VINA RESULT:    -3.085      1.467      3.415
REMARK INTER + INTRA:         -10.173
REMARK INTER:                  -7.698
REMARK INTRA:                  -2.475
REMARK UNBOUND:                -3.120
REMARK SMILES CCCCCCCCCCCCCCCCCCCCCCCC(=O)[O-]
REMARK SMILES IDX 13 1 14 2 15 3 16 4 17 5 18 6 19 7 20 8 21 9 22 10 23 11
REMARK SMILES IDX 24 12 25 13 26 14 12 15 11 16 10 17 9 18 8 19 7 20 6 21 5 22
REMARK SMILES IDX 4 23 3 24 2 25 1 26
REMARK H PARENT
REMARK Flexibility Score: inf
ROOT
ATOM      1  C   UNL     1      -7.935  -3.431 -25.083  1.00  0.00     0.000 C 
ENDROOT
BRANCH   1   2
ATOM      2  C   UNL     1      -6.944  -3.749 -26.217  1.00  0.00     0.000 C 
BRANCH   2   3
ATOM      3  C   UNL     1      -5.569  -4.197 -25.694  1.00  0.00     0.000 C 
BRANCH   3   4
ATOM      4  C   UNL     1      -5.316  -5.697 -25.919  1.00  0.00     0.000 C 
BRANCH   4   5
ATOM      5  C   UNL     1      -5.345  -6.093 -27.405  1.00  0.00     0.000 C 
BRANCH   5   6
ATOM      6  C   UNL     1      -6.158  -7.362 -27.731  1.00  0.00     0.000 C 
BRANCH   6   7
ATOM      7  C   UNL     1      -7.629  -7.117 -28.125  1.00  0.00     0.000 C 
BRANCH   7   8
ATOM      8  C   UNL     1      -8.587  -6.882 -26.944  1.00  0.00     0.000 C 
BRANCH   8   9
ATOM      9  C   UNL     1      -8.496  -7.981 -25.874  1.00  0.00     0.000 C 
BRANCH   9  10
ATOM     10  C   UNL     1      -9.858  -8.658 -25.666  1.00  0.00     0.006 C 
BRANCH  10  11
ATOM     11  C   UNL     1     -10.214  -9.615 -26.812  1.00  0.00     0.053 C 
BRANCH  11  12
ATOM     12  C   UNL     1      -9.970 -11.044 -26.439  1.00  0.00     0.041 C 
ATOM     13  O   UNL     1     -10.658 -11.961 -26.960  1.00  0.00    -0.550 OA
ATOM     14  O   UNL     1      -9.003 -11.361 -25.494  1.00  0.00    -0.550 OA
ENDBRANCH  11  12
ENDBRANCH  10  11
ENDBRANCH   9  10
ENDBRANCH   8   9
ENDBRANCH   7   8
ENDBRANCH   6   7
ENDBRANCH   5   6
ENDBRANCH   4   5
ENDBRANCH   3   4
ENDBRANCH   2   3
ENDBRANCH   1   2
BRANCH   1  15
ATOM     15  C   UNL     1      -7.263  -2.714 -23.901  1.00  0.00     0.000 C 
BRANCH  15  16
ATOM     16  C   UNL     1      -7.718  -1.250 -23.767  1.00  0.00     0.000 C 
BRANCH  16  17
ATOM     17  C   UNL     1      -8.436  -0.737 -25.024  1.00  0.00     0.000 C 
BRANCH  17  18
ATOM     18  C   UNL     1      -9.812  -0.128 -24.710  1.00  0.00    -0.000 C 
BRANCH  18  19
ATOM     19  C   UNL     1     -10.704  -0.115 -25.961  1.00  0.00    -0.000 C 
BRANCH  19  20
ATOM     20  C   UNL     1      -9.937   0.262 -27.242  1.00  0.00    -0.000 C 
BRANCH  20  21
ATOM     21  C   UNL     1      -9.588   1.755 -27.375  1.00  0.00    -0.000 C 
BRANCH  21  22
ATOM     22  C   UNL     1      -8.079   2.008 -27.507  1.00  0.00    -0.000 C 
BRANCH  22  23
ATOM     23  C   UNL     1      -7.653   3.239 -26.696  1.00  0.00    -0.000 C 
BRANCH  23  24
ATOM     24  C   UNL     1      -6.629   2.857 -25.616  1.00  0.00    -0.000 C 
BRANCH  24  25
ATOM     25  C   UNL     1      -7.290   2.514 -24.272  1.00  0.00    -0.003 C 
ATOM     26  C   UNL     1      -6.358   2.738 -23.082  1.00  0.00     0.004 C 
ENDBRANCH  24  25
ENDBRANCH  23  24
ENDBRANCH  22  23
ENDBRANCH  21  22
ENDBRANCH  20  21
ENDBRANCH  19  20
ENDBRANCH  18  19
ENDBRANCH  17  18
ENDBRANCH  16  17
ENDBRANCH  15  16
ENDBRANCH   1  15
TORSDOF 22
ENDMDL
MODEL 8
REMARK VINA RESULT:    -3.004      2.328      6.131
REMARK INTER + INTRA:          -9.986
REMARK INTER:                  -7.304
REMARK INTRA:                  -2.683
REMARK UNBOUND:                -3.120
REMARK SMILES CCCCCCCCCCCCCCCCCCCCCCCC(=O)[O-]
REMARK SMILES IDX 13 1 14 2 15 3 16 4 17 5 18 6 19 7 20 8 21 9 22 10 23 11
REMARK SMILES IDX 24 12 25 13 26 14 12 15 11 16 10 17 9 18 8 19 7 20 6 21 5 22
REMARK SMILES IDX 4 23 3 24 2 25 1 26
REMARK H PARENT
REMARK Flexibility Score: inf
ROOT
ATOM      1  C   UNL     1      -7.680  -7.972 -25.916  1.00  0.00     0.000 C 
ENDROOT
BRANCH   1   2
ATOM      2  C   UNL     1      -9.089  -7.355 -25.944  1.00  0.00     0.000 C 
BRANCH   2   3
ATOM      3  C   UNL     1     -10.144  -8.313 -26.521  1.00  0.00     0.000 C 
BRANCH   3   4
ATOM      4  C   UNL     1      -9.750  -8.853 -27.906  1.00  0.00     0.000 C 
BRANCH   4   5
ATOM      5  C   UNL     1     -10.126 -10.332 -28.102  1.00  0.00     0.000 C 
BRANCH   5   6
ATOM      6  C   UNL     1     -11.605 -10.675 -27.833  1.00  0.00     0.000 C 
BRANCH   6   7
ATOM      7  C   UNL     1     -11.868 -11.485 -26.548  1.00  0.00     0.000 C 
BRANCH   7   8
ATOM      8  C   UNL     1     -12.349 -12.929 -26.777  1.00  0.00     0.000 C 
BRANCH   8   9
ATOM      9  C   UNL     1     -11.332 -13.780 -27.551  1.00  0.00     0.000 C 
BRANCH   9  10
ATOM     10  C   UNL     1     -10.246 -14.326 -26.611  1.00  0.00     0.006 C 
BRANCH  10  11
ATOM     11  C   UNL     1      -8.845 -13.826 -26.988  1.00  0.00     0.053 C 
BRANCH  11  12
ATOM     12  C   UNL     1      -8.187 -13.107 -25.851  1.00  0.00     0.041 C 
ATOM     13  O   UNL     1      -7.121 -13.553 -25.351  1.00  0.00    -0.550 OA
ATOM     14  O   UNL     1      -8.768 -11.961 -25.323  1.00  0.00    -0.550 OA
ENDBRANCH  11  12
ENDBRANCH  10  11
ENDBRANCH   9  10
ENDBRANCH   8   9
ENDBRANCH   7   8
ENDBRANCH   6   7
ENDBRANCH   5   6
ENDBRANCH   4   5
ENDBRANCH   3   4
ENDBRANCH   2   3
ENDBRANCH   1   2
BRANCH   1  15
ATOM     15  C   UNL     1      -6.612  -7.022 -26.481  1.00  0.00     0.000 C 
BRANCH  15  16
ATOM     16  C   UNL     1      -7.089  -6.288 -27.746  1.00  0.00     0.000 C 
BRANCH  16  17
ATOM     17  C   UNL     1      -6.994  -4.760 -27.614  1.00  0.00     0.000 C 
BRANCH  17  18
ATOM     18  C   UNL     1      -6.867  -4.301 -26.152  1.00  0.00    -0.000 C 
BRANCH  18  19
ATOM     19  C   UNL     1      -8.215  -3.794 -25.618  1.00  0.00    -0.000 C 
BRANCH  19  20
ATOM     20  C   UNL     1      -8.761  -2.591 -26.408  1.00  0.00    -0.000 C 
BRANCH  20  21
ATOM     21  C   UNL     1      -7.807  -1.386 -26.499  1.00  0.00    -0.000 C 
BRANCH  21  22
ATOM     22  C   UNL     1      -8.268  -0.192 -25.649  1.00  0.00    -0.000 C 
BRANCH  22  23
ATOM     23  C   UNL     1      -7.421  -0.063 -24.376  1.00  0.00    -0.000 C 
BRANCH  23  24
ATOM     24  C   UNL     1      -5.935  -0.313 -24.678  1.00  0.00    -0.000 C 
BRANCH  24  25
ATOM     25  C   UNL     1      -5.319  -1.385 -23.764  1.00  0.00    -0.003 C 
ATOM     26  C   UNL     1      -6.373  -2.215 -23.034  1.00  0.00     0.004 C 
ENDBRANCH  24  25
ENDBRANCH  23  24
ENDBRANCH  22  23
ENDBRANCH  21  22
ENDBRANCH  20  21
ENDBRANCH  19  20
ENDBRANCH  18  19
ENDBRANCH  17  18
ENDBRANCH  16  17
ENDBRANCH  15  16
ENDBRANCH   1  15
TORSDOF 22
ENDMDL
MODEL 9
REMARK VINA RESULT:    -2.981      3.673     10.538
REMARK INTER + INTRA:          -9.934
REMARK INTER:                  -7.586
REMARK INTRA:                  -2.348
REMARK UNBOUND:                -3.120
REMARK SMILES CCCCCCCCCCCCCCCCCCCCCCCC(=O)[O-]
REMARK SMILES IDX 13 1 14 2 15 3 16 4 17 5 18 6 19 7 20 8 21 9 22 10 23 11
REMARK SMILES IDX 24 12 25 13 26 14 12 15 11 16 10 17 9 18 8 19 7 20 6 21 5 22
REMARK SMILES IDX 4 23 3 24 2 25 1 26
REMARK H PARENT
REMARK Flexibility Score: inf
ROOT
ATOM      1  C   UNL     1      -8.625  -7.264 -26.310  1.00  0.00     0.000 C 
ENDROOT
BRANCH   1   2
ATOM      2  C   UNL     1      -7.316  -7.501 -25.535  1.00  0.00     0.000 C 
BRANCH   2   3
ATOM      3  C   UNL     1      -6.117  -7.761 -26.462  1.00  0.00     0.000 C 
BRANCH   3   4
ATOM      4  C   UNL     1      -5.207  -6.530 -26.603  1.00  0.00     0.000 C 
BRANCH   4   5
ATOM      5  C   UNL     1      -5.218  -5.935 -28.022  1.00  0.00     0.000 C 
BRANCH   5   6
ATOM      6  C   UNL     1      -5.745  -4.490 -28.125  1.00  0.00     0.000 C 
BRANCH   6   7
ATOM      7  C   UNL     1      -6.285  -3.893 -26.809  1.00  0.00     0.000 C 
BRANCH   7   8
ATOM      8  C   UNL     1      -5.620  -2.576 -26.373  1.00  0.00     0.000 C 
BRANCH   8   9
ATOM      9  C   UNL     1      -6.637  -1.512 -25.932  1.00  0.00     0.000 C 
BRANCH   9  10
ATOM     10  C   UNL     1      -7.644  -2.099 -24.932  1.00  0.00     0.006 C 
BRANCH  10  11
ATOM     11  C   UNL     1      -7.674  -1.320 -23.611  1.00  0.00     0.053 C 
BRANCH  11  12
ATOM     12  C   UNL     1      -6.381  -1.440 -22.865  1.00  0.00     0.041 C 
ATOM     13  O   UNL     1      -5.949  -2.573 -22.526  1.00  0.00    -0.550 OA
ATOM     14  O   UNL     1      -5.670  -0.299 -22.517  1.00  0.00    -0.550 OA
ENDBRANCH  11  12
ENDBRANCH  10  11
ENDBRANCH   9  10
ENDBRANCH   8   9
ENDBRANCH   7   8
ENDBRANCH   6   7
ENDBRANCH   5   6
ENDBRANCH   4   5
ENDBRANCH   3   4
ENDBRANCH   2   3
ENDBRANCH   1   2
BRANCH   1  15
ATOM     15  C   UNL     1      -9.749  -8.215 -25.868  1.00  0.00     0.000 C 
BRANCH  15  16
ATOM     16  C   UNL     1      -9.313  -9.691 -25.894  1.00  0.00     0.000 C 
BRANCH  16  17
ATOM     17  C   UNL     1      -8.862 -10.149 -27.289  1.00  0.00     0.000 C 
BRANCH  17  18
ATOM     18  C   UNL     1      -7.905 -11.351 -27.234  1.00  0.00    -0.000 C 
BRANCH  18  19
ATOM     19  C   UNL     1      -8.557 -12.538 -26.509  1.00  0.00    -0.000 C 
BRANCH  19  20
ATOM     20  C   UNL     1      -8.727 -13.774 -27.411  1.00  0.00    -0.000 C 
BRANCH  20  21
ATOM     21  C   UNL     1      -9.775 -14.792 -26.928  1.00  0.00    -0.000 C 
BRANCH  21  22
ATOM     22  C   UNL     1     -11.152 -14.589 -27.578  1.00  0.00    -0.000 C 
BRANCH  22  23
ATOM     23  C   UNL     1     -12.258 -14.520 -26.517  1.00  0.00    -0.000 C 
BRANCH  23  24
ATOM     24  C   UNL     1     -13.004 -13.179 -26.588  1.00  0.00    -0.000 C 
BRANCH  24  25
ATOM     25  C   UNL     1     -12.050 -11.974 -26.612  1.00  0.00    -0.003 C 
ATOM     26  C   UNL     1     -12.400 -10.967 -27.706  1.00  0.00     0.004 C 
ENDBRANCH  24  25
ENDBRANCH  23  24
ENDBRANCH  22  23
ENDBRANCH  21  22
ENDBRANCH  20  21
ENDBRANCH  19  20
ENDBRANCH  18  19
ENDBRANCH  17  18
ENDBRANCH  16  17
ENDBRANCH  15  16
ENDBRANCH   1  15
TORSDOF 22
ENDMDL
