MODEL 1
REMARK VINA RESULT:    -3.915      0.000      0.000
REMARK INTER + INTRA:          -5.991
REMARK INTER:                  -5.975
REMARK INTRA:                  -0.016
REMARK UNBOUND:                -0.016
REMARK SMILES CC1=CCC[C@H](C)C(=O)C[C@@H](C(C)C)C(=O)C1
REMARK SMILES IDX 8 1 9 2 6 3 7 4 5 5 4 6 3 7 2 8 1 9 10 11 11 12 15 13 16 14
REMARK SMILES IDX 17 15 12 17 13 18 14 19
REMARK H PARENT
REMARK Flexibility Score: 70.00
ROOT
ATOM      1  C   UNL     1      10.226 -12.511  16.988  1.00  0.00     0.136 C 
ATOM      2  O   UNL     1      10.819 -12.802  18.018  1.00  0.00    -0.299 OA
ENDROOT
BRANCH   1   3
ATOM      3  C   UNL     1       9.930 -11.057  16.679  1.00  0.00     0.053 C 
ATOM      4  C   UNL     1       9.437 -10.353  17.948  1.00  0.00     0.016 C 
BRANCH   3   5
ATOM      5  C   UNL     1      11.163 -10.328  16.107  1.00  0.00     0.015 C 
BRANCH   5   6
ATOM      6  C   UNL     1      12.139 -11.233  15.335  1.00  0.00     0.028 C 
BRANCH   6   7
ATOM      7  C   UNL     1      11.812 -11.366  13.866  1.00  0.00    -0.028 C 
ATOM      8  C   UNL     1      11.969 -12.455  13.069  1.00  0.00    -0.070 CG0
ATOM      9  C   UNL     1      11.647 -12.273  11.603  1.00  0.00     0.039 C 
ATOM     10  G   UNL     1      12.351 -13.854  13.541  1.00  0.00     0.000 G0
ENDBRANCH   6   7
ENDBRANCH   5   6
ENDBRANCH   3   5
ENDBRANCH   1   3
BRANCH   1  11
ATOM     11  C   UNL     1       9.773 -13.616  16.068  1.00  0.00     0.087 C 
BRANCH  11  12
ATOM     12  C   UNL     1      10.929 -14.582  15.686  1.00  0.00     0.066 C 
BRANCH  12  13
ATOM     13  C   UNL     1      11.237 -14.652  14.189  1.00  0.00     0.140 C 
ATOM     14  O   UNL     1      10.498 -15.313  13.474  1.00  0.00    -0.299 OA
BRANCH  13  15
ATOM     15  C   UNL     1      12.349 -13.866  13.534  1.00  0.00     0.106 CG0
ATOM     16  G   UNL     1      11.965 -12.464  13.069  1.00  0.00     0.000 G0
ENDBRANCH  13  15
ENDBRANCH  12  13
BRANCH  12  17
ATOM     17  C   UNL     1      10.718 -15.994  16.314  1.00  0.00    -0.006 C 
ATOM     18  C   UNL     1      12.021 -16.793  16.487  1.00  0.00     0.008 C 
ATOM     19  C   UNL     1       9.969 -15.918  17.654  1.00  0.00     0.008 C 
ENDBRANCH  12  17
ENDBRANCH  11  12
ENDBRANCH   1  11
TORSDOF 1
ENDMDL
MODEL 2
REMARK VINA RESULT:    -3.624     16.795     18.528
REMARK INTER + INTRA:          -5.547
REMARK INTER:                  -5.306
REMARK INTRA:                  -0.241
REMARK UNBOUND:                -0.016
REMARK SMILES CC1=CCC[C@H](C)C(=O)C[C@@H](C(C)C)C(=O)C1
REMARK SMILES IDX 8 1 9 2 6 3 7 4 5 5 4 6 3 7 2 8 1 9 10 11 11 12 15 13 16 14
REMARK SMILES IDX 17 15 12 17 13 18 14 19
REMARK H PARENT
REMARK Flexibility Score: 70.00
ROOT
ATOM      1  C   UNL     1      -1.276 -25.368  13.985  1.00  0.00     0.136 C 
ATOM      2  O   UNL     1      -2.324 -25.082  13.423  1.00  0.00    -0.299 OA
ENDROOT
BRANCH   1   3
ATOM      3  C   UNL     1      -1.103 -25.049  15.457  1.00  0.00     0.053 C 
ATOM      4  C   UNL     1      -1.278 -23.543  15.679  1.00  0.00     0.016 C 
BRANCH   3   5
ATOM      5  C   UNL     1      -2.094 -25.839  16.336  1.00  0.00     0.015 C 
BRANCH   5   6
ATOM      6  C   UNL     1      -1.588 -27.222  16.784  1.00  0.00     0.028 C 
BRANCH   6   7
ATOM      7  C   UNL     1      -0.098 -27.410  16.609  1.00  0.00    -0.028 C 
ATOM      8  C   UNL     1       0.544 -28.264  15.770  1.00  0.00    -0.070 CG0
ATOM      9  C   UNL     1       2.051 -28.310  15.875  1.00  0.00     0.039 C 
ATOM     10  G   UNL     1      -0.116 -29.103  14.680  1.00  0.00     0.000 G0
ENDBRANCH   6   7
ENDBRANCH   5   6
ENDBRANCH   3   5
ENDBRANCH   1   3
BRANCH   1  11
ATOM     11  C   UNL     1      -0.166 -26.000  13.183  1.00  0.00     0.087 C 
BRANCH  11  12
ATOM     12  C   UNL     1      -0.543 -27.413  12.657  1.00  0.00     0.066 C 
BRANCH  12  13
ATOM     13  C   UNL     1      -1.027 -28.389  13.731  1.00  0.00     0.140 C 
ATOM     14  O   UNL     1      -2.218 -28.665  13.769  1.00  0.00    -0.299 OA
BRANCH  13  15
ATOM     15  C   UNL     1      -0.097 -29.104  14.682  1.00  0.00     0.106 CG0
ATOM     16  G   UNL     1       0.531 -28.224  15.758  1.00  0.00     0.000 G0
ENDBRANCH  13  15
ENDBRANCH  12  13
BRANCH  12  17
ATOM     17  C   UNL     1       0.598 -28.014  11.779  1.00  0.00    -0.006 C 
ATOM     18  C   UNL     1       0.090 -28.901  10.630  1.00  0.00     0.008 C 
ATOM     19  C   UNL     1       1.530 -26.923  11.228  1.00  0.00     0.008 C 
ENDBRANCH  12  17
ENDBRANCH  11  12
ENDBRANCH   1  11
TORSDOF 1
ENDMDL
MODEL 3
REMARK VINA RESULT:    -3.585     16.715     18.825
REMARK INTER + INTRA:          -5.488
REMARK INTER:                  -5.946
REMARK INTRA:                   0.458
REMARK UNBOUND:                -0.016
REMARK SMILES CC1=CCC[C@H](C)C(=O)C[C@@H](C(C)C)C(=O)C1
REMARK SMILES IDX 8 1 9 2 6 3 7 4 5 5 4 6 3 7 2 8 1 9 10 11 11 12 15 13 16 14
REMARK SMILES IDX 17 15 12 17 13 18 14 19
REMARK H PARENT
REMARK Flexibility Score: 70.00
ROOT
ATOM      1  C   UNL     1       0.183 -25.629  14.020  1.00  0.00     0.136 C 
ATOM      2  O   UNL     1       1.149 -25.468  14.753  1.00  0.00    -0.299 OA
ENDROOT
BRANCH   1   3
ATOM      3  C   UNL     1      -1.168 -25.077  14.430  1.00  0.00     0.053 C 
ATOM      4  C   UNL     1      -1.178 -23.556  14.244  1.00  0.00     0.016 C 
BRANCH   3   5
ATOM      5  C   UNL     1      -2.319 -25.722  13.630  1.00  0.00     0.015 C 
BRANCH   5   6
ATOM      6  C   UNL     1      -3.059 -26.849  14.372  1.00  0.00     0.028 C 
BRANCH   6   7
ATOM      7  C   UNL     1      -2.482 -27.161  15.734  1.00  0.00    -0.028 C 
ATOM      8  C   UNL     1      -1.646 -28.175  16.076  1.00  0.00    -0.070 CG0
ATOM      9  C   UNL     1      -1.303 -28.305  17.542  1.00  0.00     0.039 C 
ATOM     10  G   UNL     1      -0.959 -29.128  15.101  1.00  0.00     0.000 G0
ENDBRANCH   6   7
ENDBRANCH   5   6
ENDBRANCH   3   5
ENDBRANCH   1   3
BRANCH   1  11
ATOM     11  C   UNL     1       0.357 -26.407  12.741  1.00  0.00     0.087 C 
BRANCH  11  12
ATOM     12  C   UNL     1      -0.100 -27.886  12.877  1.00  0.00     0.066 C 
BRANCH  12  13
ATOM     13  C   UNL     1       0.147 -28.509  14.252  1.00  0.00     0.140 C 
ATOM     14  O   UNL     1       1.270 -28.435  14.730  1.00  0.00    -0.299 OA
BRANCH  13  15
ATOM     15  C   UNL     1      -0.948 -29.123  15.093  1.00  0.00     0.106 CG0
ATOM     16  G   UNL     1      -1.649 -28.161  16.048  1.00  0.00     0.000 G0
ENDBRANCH  13  15
ENDBRANCH  12  13
BRANCH  12  17
ATOM     17  C   UNL     1       0.465 -28.763  11.718  1.00  0.00    -0.006 C 
ATOM     18  C   UNL     1      -0.556 -29.043  10.601  1.00  0.00     0.008 C 
ATOM     19  C   UNL     1       1.746 -28.162  11.118  1.00  0.00     0.008 C 
ENDBRANCH  12  17
ENDBRANCH  11  12
ENDBRANCH   1  11
TORSDOF 1
ENDMDL
MODEL 4
REMARK VINA RESULT:    -3.541     16.644     18.832
REMARK INTER + INTRA:          -5.421
REMARK INTER:                  -5.339
REMARK INTRA:                  -0.081
REMARK UNBOUND:                -0.016
REMARK SMILES CC1=CCC[C@H](C)C(=O)C[C@@H](C(C)C)C(=O)C1
REMARK SMILES IDX 8 1 9 2 6 3 7 4 5 5 4 6 3 7 2 8 1 9 10 11 11 12 15 13 16 14
REMARK SMILES IDX 17 15 12 17 13 18 14 19
REMARK H PARENT
REMARK Flexibility Score: 70.00
ROOT
ATOM      1  C   UNL     1      -1.860 -25.213  13.817  1.00  0.00     0.136 C 
ATOM      2  O   UNL     1      -2.986 -24.774  13.630  1.00  0.00    -0.299 OA
ENDROOT
BRANCH   1   3
ATOM      3  C   UNL     1      -0.775 -24.295  14.343  1.00  0.00     0.053 C 
ATOM      4  C   UNL     1      -1.125 -23.851  15.767  1.00  0.00     0.016 C 
BRANCH   3   5
ATOM      5  C   UNL     1       0.612 -24.970  14.319  1.00  0.00     0.015 C 
BRANCH   5   6
ATOM      6  C   UNL     1       1.154 -25.365  15.704  1.00  0.00     0.028 C 
BRANCH   6   7
ATOM      7  C   UNL     1       1.206 -26.859  15.933  1.00  0.00    -0.028 C 
ATOM      8  C   UNL     1       0.200 -27.678  16.337  1.00  0.00    -0.070 CG0
ATOM      9  C   UNL     1       0.563 -29.125  16.580  1.00  0.00     0.039 C 
ATOM     10  G   UNL     1      -1.266 -27.282  16.478  1.00  0.00     0.000 G0
ENDBRANCH   6   7
ENDBRANCH   5   6
ENDBRANCH   3   5
ENDBRANCH   1   3
BRANCH   1  11
ATOM     11  C   UNL     1      -1.573 -26.655  13.482  1.00  0.00     0.087 C 
BRANCH  11  12
ATOM     12  C   UNL     1      -2.583 -27.632  14.145  1.00  0.00     0.066 C 
BRANCH  12  13
ATOM     13  C   UNL     1      -2.225 -28.056  15.570  1.00  0.00     0.140 C 
ATOM     14  O   UNL     1      -2.667 -29.116  15.989  1.00  0.00    -0.299 OA
BRANCH  13  15
ATOM     15  C   UNL     1      -1.272 -27.281  16.451  1.00  0.00     0.106 CG0
ATOM     16  G   UNL     1       0.193 -27.695  16.341  1.00  0.00     0.000 G0
ENDBRANCH  13  15
ENDBRANCH  12  13
BRANCH  12  17
ATOM     17  C   UNL     1      -2.881 -28.852  13.220  1.00  0.00    -0.006 C 
ATOM     18  C   UNL     1      -4.349 -28.937  12.764  1.00  0.00     0.008 C 
ATOM     19  C   UNL     1      -1.951 -28.884  11.998  1.00  0.00     0.008 C 
ENDBRANCH  12  17
ENDBRANCH  11  12
ENDBRANCH   1  11
TORSDOF 1
ENDMDL
MODEL 5
REMARK VINA RESULT:    -3.495      1.816      4.162
REMARK INTER + INTRA:          -5.349
REMARK INTER:                  -5.063
REMARK INTRA:                  -0.286
REMARK UNBOUND:                -0.016
REMARK SMILES CC1=CCC[C@H](C)C(=O)C[C@@H](C(C)C)C(=O)C1
REMARK SMILES IDX 8 1 9 2 6 3 7 4 5 5 4 6 3 7 2 8 1 9 10 11 11 12 15 13 16 14
REMARK SMILES IDX 17 15 12 17 13 18 14 19
REMARK H PARENT
REMARK Flexibility Score: 70.00
ROOT
ATOM      1  C   UNL     1      11.669 -13.956  14.477  1.00  0.00     0.136 C 
ATOM      2  O   UNL     1      10.780 -14.629  13.973  1.00  0.00    -0.299 OA
ENDROOT
BRANCH   1   3
ATOM      3  C   UNL     1      12.508 -13.046  13.603  1.00  0.00     0.053 C 
ATOM      4  C   UNL     1      11.955 -13.056  12.174  1.00  0.00     0.016 C 
BRANCH   3   5
ATOM      5  C   UNL     1      12.554 -11.605  14.150  1.00  0.00     0.015 C 
BRANCH   5   6
ATOM      6  C   UNL     1      11.173 -10.967  14.385  1.00  0.00     0.028 C 
BRANCH   6   7
ATOM      7  C   UNL     1      11.116 -10.076  15.605  1.00  0.00    -0.028 C 
ATOM      8  C   UNL     1      10.402 -10.264  16.745  1.00  0.00    -0.070 CG0
ATOM      9  C   UNL     1      10.457  -9.154  17.769  1.00  0.00     0.039 C 
ATOM     10  G   UNL     1       9.631 -11.528  17.112  1.00  0.00     0.000 G0
ENDBRANCH   6   7
ENDBRANCH   5   6
ENDBRANCH   3   5
ENDBRANCH   1   3
BRANCH   1  11
ATOM     11  C   UNL     1      11.928 -14.079  15.958  1.00  0.00     0.087 C 
BRANCH  11  12
ATOM     12  C   UNL     1      10.625 -13.987  16.799  1.00  0.00     0.066 C 
BRANCH  12  13
ATOM     13  C   UNL     1      10.462 -12.687  17.588  1.00  0.00     0.140 C 
ATOM     14  O   UNL     1      11.110 -12.546  18.615  1.00  0.00    -0.299 OA
BRANCH  13  15
ATOM     15  C   UNL     1       9.617 -11.528  17.111  1.00  0.00     0.106 CG0
ATOM     16  G   UNL     1      10.395 -10.267  16.746  1.00  0.00     0.000 G0
ENDBRANCH  13  15
ENDBRANCH  12  13
BRANCH  12  17
ATOM     17  C   UNL     1      10.438 -15.251  17.694  1.00  0.00    -0.006 C 
ATOM     18  C   UNL     1       9.018 -15.396  18.268  1.00  0.00     0.008 C 
ATOM     19  C   UNL     1      10.838 -16.539  16.956  1.00  0.00     0.008 C 
ENDBRANCH  12  17
ENDBRANCH  11  12
ENDBRANCH   1  11
TORSDOF 1
ENDMDL
MODEL 6
REMARK VINA RESULT:    -3.367     16.856     18.927
REMARK INTER + INTRA:          -5.155
REMARK INTER:                  -5.161
REMARK INTRA:                   0.006
REMARK UNBOUND:                -0.016
REMARK SMILES CC1=CCC[C@H](C)C(=O)C[C@@H](C(C)C)C(=O)C1
REMARK SMILES IDX 8 1 9 2 6 3 7 4 5 5 4 6 3 7 2 8 1 9 10 11 11 12 15 13 16 14
REMARK SMILES IDX 17 15 12 17 13 18 14 19
REMARK H PARENT
REMARK Flexibility Score: 70.00
ROOT
ATOM      1  C   UNL     1       0.605 -25.786  13.999  1.00  0.00     0.136 C 
ATOM      2  O   UNL     1       1.187 -24.903  13.385  1.00  0.00    -0.299 OA
ENDROOT
BRANCH   1   3
ATOM      3  C   UNL     1      -0.252 -25.427  15.197  1.00  0.00     0.053 C 
ATOM      4  C   UNL     1      -0.554 -23.925  15.179  1.00  0.00     0.016 C 
BRANCH   3   5
ATOM      5  C   UNL     1      -1.564 -26.237  15.229  1.00  0.00     0.015 C 
BRANCH   5   6
ATOM      6  C   UNL     1      -2.612 -25.795  14.192  1.00  0.00     0.028 C 
BRANCH   6   7
ATOM      7  C   UNL     1      -3.548 -26.903  13.764  1.00  0.00    -0.028 C 
ATOM      8  C   UNL     1      -3.225 -28.150  13.332  1.00  0.00    -0.070 CG0
ATOM      9  C   UNL     1      -4.368 -29.025  12.873  1.00  0.00     0.039 C 
ATOM     10  G   UNL     1      -1.828 -28.765  13.356  1.00  0.00     0.000 G0
ENDBRANCH   6   7
ENDBRANCH   5   6
ENDBRANCH   3   5
ENDBRANCH   1   3
BRANCH   1  11
ATOM     11  C   UNL     1       0.785 -27.219  13.565  1.00  0.00     0.087 C 
BRANCH  11  12
ATOM     12  C   UNL     1       0.184 -27.495  12.159  1.00  0.00     0.066 C 
BRANCH  12  13
ATOM     13  C   UNL     1      -0.985 -28.481  12.145  1.00  0.00     0.140 C 
ATOM     14  O   UNL     1      -1.190 -29.125  11.126  1.00  0.00    -0.299 OA
BRANCH  13  15
ATOM     15  C   UNL     1      -1.839 -28.773  13.357  1.00  0.00     0.106 CG0
ATOM     16  G   UNL     1      -3.236 -28.160  13.328  1.00  0.00     0.000 G0
ENDBRANCH  13  15
ENDBRANCH  12  13
BRANCH  12  17
ATOM     17  C   UNL     1       1.295 -27.876  11.133  1.00  0.00    -0.006 C 
ATOM     18  C   UNL     1       2.214 -26.702  10.755  1.00  0.00     0.008 C 
ATOM     19  C   UNL     1       2.137 -29.066  11.617  1.00  0.00     0.008 C 
ENDBRANCH  12  17
ENDBRANCH  11  12
ENDBRANCH   1  11
TORSDOF 1
ENDMDL
MODEL 7
REMARK VINA RESULT:    -3.279     16.448     18.255
REMARK INTER + INTRA:          -5.020
REMARK INTER:                  -4.738
REMARK INTRA:                  -0.282
REMARK UNBOUND:                -0.016
REMARK SMILES CC1=CCC[C@H](C)C(=O)C[C@@H](C(C)C)C(=O)C1
REMARK SMILES IDX 8 1 9 2 6 3 7 4 5 5 4 6 3 7 2 8 1 9 10 11 11 12 15 13 16 14
REMARK SMILES IDX 17 15 12 17 13 18 14 19
REMARK H PARENT
REMARK Flexibility Score: 70.00
ROOT
ATOM      1  C   UNL     1      -1.978 -25.517  14.396  1.00  0.00     0.136 C 
ATOM      2  O   UNL     1      -2.266 -25.615  15.581  1.00  0.00    -0.299 OA
ENDROOT
BRANCH   1   3
ATOM      3  C   UNL     1      -1.250 -24.283  13.902  1.00  0.00     0.053 C 
ATOM      4  C   UNL     1      -1.925 -23.028  14.466  1.00  0.00     0.016 C 
BRANCH   3   5
ATOM      5  C   UNL     1       0.244 -24.305  14.286  1.00  0.00     0.015 C 
BRANCH   5   6
ATOM      6  C   UNL     1       0.984 -25.599  13.901  1.00  0.00     0.028 C 
BRANCH   6   7
ATOM      7  C   UNL     1       1.169 -25.772  12.411  1.00  0.00    -0.028 C 
ATOM      8  C   UNL     1       1.094 -26.919  11.687  1.00  0.00    -0.070 CG0
ATOM      9  C   UNL     1       1.423 -26.813  10.216  1.00  0.00     0.039 C 
ATOM     10  G   UNL     1       0.622 -28.272  12.211  1.00  0.00     0.000 G0
ENDBRANCH   6   7
ENDBRANCH   5   6
ENDBRANCH   3   5
ENDBRANCH   1   3
BRANCH   1  11
ATOM     11  C   UNL     1      -2.390 -26.617  13.450  1.00  0.00     0.087 C 
BRANCH  11  12
ATOM     12  C   UNL     1      -1.578 -27.924  13.669  1.00  0.00     0.066 C 
BRANCH  12  13
ATOM     13  C   UNL     1      -0.844 -28.436  12.429  1.00  0.00     0.140 C 
ATOM     14  O   UNL     1      -1.504 -28.932  11.526  1.00  0.00    -0.299 OA
BRANCH  13  15
ATOM     15  C   UNL     1       0.644 -28.273  12.219  1.00  0.00     0.106 CG0
ATOM     16  G   UNL     1       1.077 -26.909  11.689  1.00  0.00     0.000 G0
ENDBRANCH  13  15
ENDBRANCH  12  13
BRANCH  12  17
ATOM     17  C   UNL     1      -2.452 -29.027  14.340  1.00  0.00    -0.006 C 
ATOM     18  C   UNL     1      -2.264 -29.122  15.864  1.00  0.00     0.008 C 
ATOM     19  C   UNL     1      -3.943 -28.859  14.006  1.00  0.00     0.008 C 
ENDBRANCH  12  17
ENDBRANCH  11  12
ENDBRANCH   1  11
TORSDOF 1
ENDMDL
MODEL 8
REMARK VINA RESULT:    -3.214     17.124     19.137
REMARK INTER + INTRA:          -4.921
REMARK INTER:                  -4.891
REMARK INTRA:                  -0.030
REMARK UNBOUND:                -0.016
REMARK SMILES CC1=CCC[C@H](C)C(=O)C[C@@H](C(C)C)C(=O)C1
REMARK SMILES IDX 8 1 9 2 6 3 7 4 5 5 4 6 3 7 2 8 1 9 10 11 11 12 15 13 16 14
REMARK SMILES IDX 17 15 12 17 13 18 14 19
REMARK H PARENT
REMARK Flexibility Score: 70.00
ROOT
ATOM      1  C   UNL     1      -0.046 -25.524  14.795  1.00  0.00     0.136 C 
ATOM      2  O   UNL     1       0.865 -24.892  14.278  1.00  0.00    -0.299 OA
ENDROOT
BRANCH   1   3
ATOM      3  C   UNL     1      -1.408 -24.878  14.958  1.00  0.00     0.053 C 
ATOM      4  C   UNL     1      -1.234 -23.428  15.422  1.00  0.00     0.016 C 
BRANCH   3   5
ATOM      5  C   UNL     1      -2.228 -24.928  13.653  1.00  0.00     0.015 C 
BRANCH   5   6
ATOM      6  C   UNL     1      -3.422 -25.899  13.686  1.00  0.00     0.028 C 
BRANCH   6   7
ATOM      7  C   UNL     1      -3.358 -26.976  12.627  1.00  0.00    -0.028 C 
ATOM      8  C   UNL     1      -3.057 -28.291  12.788  1.00  0.00    -0.070 CG0
ATOM      9  C   UNL     1      -2.971 -29.125  11.531  1.00  0.00     0.039 C 
ATOM     10  G   UNL     1      -2.890 -29.007  14.125  1.00  0.00     0.000 G0
ENDBRANCH   6   7
ENDBRANCH   5   6
ENDBRANCH   3   5
ENDBRANCH   1   3
BRANCH   1  11
ATOM     11  C   UNL     1       0.223 -26.923  15.289  1.00  0.00     0.087 C 
BRANCH  11  12
ATOM     12  C   UNL     1      -0.447 -28.007  14.401  1.00  0.00     0.066 C 
BRANCH  12  13
ATOM     13  C   UNL     1      -1.726 -28.612  14.982  1.00  0.00     0.140 C 
ATOM     14  O   UNL     1      -1.834 -28.683  16.198  1.00  0.00    -0.299 OA
BRANCH  13  15
ATOM     15  C   UNL     1      -2.904 -29.034  14.135  1.00  0.00     0.106 CG0
ATOM     16  G   UNL     1      -3.053 -28.285  12.814  1.00  0.00     0.000 G0
ENDBRANCH  13  15
ENDBRANCH  12  13
BRANCH  12  17
ATOM     17  C   UNL     1       0.580 -29.097  13.966  1.00  0.00    -0.006 C 
ATOM     18  C   UNL     1       1.014 -28.984  12.494  1.00  0.00     0.008 C 
ATOM     19  C   UNL     1       1.817 -29.114  14.877  1.00  0.00     0.008 C 
ENDBRANCH  12  17
ENDBRANCH  11  12
ENDBRANCH   1  11
TORSDOF 1
ENDMDL
MODEL 9
REMARK VINA RESULT:    -3.213     16.701     19.185
REMARK INTER + INTRA:          -4.919
REMARK INTER:                  -5.131
REMARK INTRA:                   0.213
REMARK UNBOUND:                -0.016
REMARK SMILES CC1=CCC[C@H](C)C(=O)C[C@@H](C(C)C)C(=O)C1
REMARK SMILES IDX 8 1 9 2 6 3 7 4 5 5 4 6 3 7 2 8 1 9 10 11 11 12 15 13 16 14
REMARK SMILES IDX 17 15 12 17 13 18 14 19
REMARK H PARENT
REMARK Flexibility Score: 70.00
ROOT
ATOM      1  C   UNL     1      -3.008 -26.682  13.061  1.00  0.00     0.136 C 
ATOM      2  O   UNL     1      -3.632 -26.643  12.010  1.00  0.00    -0.299 OA
ENDROOT
BRANCH   1   3
ATOM      3  C   UNL     1      -2.632 -28.023  13.660  1.00  0.00     0.053 C 
ATOM      4  C   UNL     1      -3.774 -29.020  13.441  1.00  0.00     0.016 C 
BRANCH   3   5
ATOM      5  C   UNL     1      -1.319 -28.572  13.064  1.00  0.00     0.015 C 
BRANCH   5   6
ATOM      6  C   UNL     1      -0.132 -28.591  14.042  1.00  0.00     0.028 C 
BRANCH   6   7
ATOM      7  C   UNL     1      -0.494 -29.076  15.427  1.00  0.00    -0.028 C 
ATOM      8  C   UNL     1      -0.548 -28.356  16.578  1.00  0.00    -0.070 CG0
ATOM      9  C   UNL     1      -0.846 -29.125  17.844  1.00  0.00     0.039 C 
ATOM     10  G   UNL     1      -0.423 -26.839  16.684  1.00  0.00     0.000 G0
ENDBRANCH   6   7
ENDBRANCH   5   6
ENDBRANCH   3   5
ENDBRANCH   1   3
BRANCH   1  11
ATOM     11  C   UNL     1      -2.658 -25.388  13.752  1.00  0.00     0.087 C 
BRANCH  11  12
ATOM     12  C   UNL     1      -1.346 -25.491  14.578  1.00  0.00     0.066 C 
BRANCH  12  13
ATOM     13  C   UNL     1      -1.516 -26.081  15.979  1.00  0.00     0.140 C 
ATOM     14  O   UNL     1      -2.612 -25.997  16.516  1.00  0.00    -0.299 OA
BRANCH  13  15
ATOM     15  C   UNL     1      -0.429 -26.850  16.693  1.00  0.00     0.106 CG0
ATOM     16  G   UNL     1      -0.538 -28.368  16.595  1.00  0.00     0.000 G0
ENDBRANCH  13  15
ENDBRANCH  12  13
BRANCH  12  17
ATOM     17  C   UNL     1      -0.580 -24.132  14.596  1.00  0.00    -0.006 C 
ATOM     18  C   UNL     1       0.564 -24.056  13.570  1.00  0.00     0.008 C 
ATOM     19  C   UNL     1      -1.529 -22.938  14.412  1.00  0.00     0.008 C 
ENDBRANCH  12  17
ENDBRANCH  11  12
ENDBRANCH   1  11
TORSDOF 1
ENDMDL
