MODEL 1
REMARK VINA RESULT:    -4.768      0.000      0.000
REMARK INTER + INTRA:         -10.748
REMARK INTER:                  -8.949
REMARK INTRA:                  -1.799
REMARK UNBOUND:                -1.799
REMARK SMILES O=C([O-])CCCCCCCCCCCCCCC(=O)[O-]
REMARK SMILES IDX 10 1 9 2 8 3 7 4 6 5 5 6 4 7 2 8 1 9 3 10 11 11 12 12 13 13
REMARK SMILES IDX 14 14 15 15 16 16 17 17 18 18 19 19 20 20
REMARK H PARENT
REMARK Flexibility Score: inf
ROOT
ATOM      1  C   UNL     1      -7.808   6.463  28.418  1.00  0.00     0.000 C 
ENDROOT
BRANCH   1   2
ATOM      2  C   UNL     1      -7.061   6.474  29.764  1.00  0.00     0.000 C 
BRANCH   2   3
ATOM      3  C   UNL     1      -6.305   7.789  30.015  1.00  0.00     0.000 C 
BRANCH   3   4
ATOM      4  C   UNL     1      -4.861   7.557  30.489  1.00  0.00     0.000 C 
BRANCH   4   5
ATOM      5  C   UNL     1      -4.525   6.067  30.661  1.00  0.00     0.000 C 
BRANCH   5   6
ATOM      6  C   UNL     1      -4.119   5.760  32.107  1.00  0.00     0.006 C 
BRANCH   6   7
ATOM      7  C   UNL     1      -4.692   4.416  32.566  1.00  0.00     0.053 C 
BRANCH   7   8
ATOM      8  C   UNL     1      -4.557   4.266  34.048  1.00  0.00     0.041 C 
ATOM      9  O   UNL     1      -4.457   3.121  34.562  1.00  0.00    -0.550 OA
ATOM     10  O   UNL     1      -4.591   5.388  34.866  1.00  0.00    -0.550 OA
ENDBRANCH   7   8
ENDBRANCH   6   7
ENDBRANCH   5   6
ENDBRANCH   4   5
ENDBRANCH   3   4
ENDBRANCH   2   3
ENDBRANCH   1   2
BRANCH   1  11
ATOM     11  C   UNL     1      -7.000   7.080  27.257  1.00  0.00     0.000 C 
BRANCH  11  12
ATOM     12  C   UNL     1      -5.848   6.167  26.803  1.00  0.00     0.000 C 
BRANCH  12  13
ATOM     13  C   UNL     1      -4.488   6.882  26.803  1.00  0.00     0.000 C 
BRANCH  13  14
ATOM     14  C   UNL     1      -4.595   8.358  26.395  1.00  0.00     0.000 C 
BRANCH  14  15
ATOM     15  C   UNL     1      -4.249   8.545  24.913  1.00  0.00     0.000 C 
BRANCH  15  16
ATOM     16  C   UNL     1      -5.355   9.322  24.183  1.00  0.00     0.006 C 
BRANCH  16  17
ATOM     17  C   UNL     1      -6.467   8.400  23.664  1.00  0.00     0.053 C 
BRANCH  17  18
ATOM     18  C   UNL     1      -7.827   8.940  23.984  1.00  0.00     0.041 C 
ATOM     19  O   UNL     1      -8.037   9.527  25.078  1.00  0.00    -0.550 OA
ATOM     20  O   UNL     1      -8.872   8.767  23.085  1.00  0.00    -0.550 OA
ENDBRANCH  17  18
ENDBRANCH  16  17
ENDBRANCH  15  16
ENDBRANCH  14  15
ENDBRANCH  13  14
ENDBRANCH  12  13
ENDBRANCH  11  12
ENDBRANCH   1  11
TORSDOF 15
ENDMDL
MODEL 2
REMARK VINA RESULT:    -4.760     15.440     17.712
REMARK INTER + INTRA:         -10.733
REMARK INTER:                  -8.502
REMARK INTRA:                  -2.231
REMARK UNBOUND:                -1.799
REMARK SMILES O=C([O-])CCCCCCCCCCCCCCC(=O)[O-]
REMARK SMILES IDX 10 1 9 2 8 3 7 4 6 5 5 6 4 7 2 8 1 9 3 10 11 11 12 12 13 13
REMARK SMILES IDX 14 14 15 15 16 16 17 17 18 18 19 19 20 20
REMARK H PARENT
REMARK Flexibility Score: inf
ROOT
ATOM      1  C   UNL     1     -22.434   0.392  25.650  1.00  0.00     0.000 C 
ENDROOT
BRANCH   1   2
ATOM      2  C   UNL     1     -23.539  -0.229  26.523  1.00  0.00     0.000 C 
BRANCH   2   3
ATOM      3  C   UNL     1     -23.677   0.460  27.890  1.00  0.00     0.000 C 
BRANCH   3   4
ATOM      4  C   UNL     1     -23.638  -0.536  29.060  1.00  0.00     0.000 C 
BRANCH   4   5
ATOM      5  C   UNL     1     -22.958  -1.863  28.687  1.00  0.00     0.000 C 
BRANCH   5   6
ATOM      6  C   UNL     1     -21.940  -2.276  29.756  1.00  0.00     0.006 C 
BRANCH   6   7
ATOM      7  C   UNL     1     -21.775  -3.799  29.800  1.00  0.00     0.053 C 
BRANCH   7   8
ATOM      8  C   UNL     1     -20.486  -4.168  30.461  1.00  0.00     0.041 C 
ATOM      9  O   UNL     1     -19.517  -4.582  29.772  1.00  0.00    -0.550 OA
ATOM     10  O   UNL     1     -20.369  -4.103  31.844  1.00  0.00    -0.550 OA
ENDBRANCH   7   8
ENDBRANCH   6   7
ENDBRANCH   5   6
ENDBRANCH   4   5
ENDBRANCH   3   4
ENDBRANCH   2   3
ENDBRANCH   1   2
BRANCH   1  11
ATOM     11  C   UNL     1     -21.016  -0.111  25.996  1.00  0.00     0.000 C 
BRANCH  11  12
ATOM     12  C   UNL     1     -20.060   1.044  26.339  1.00  0.00     0.000 C 
BRANCH  12  13
ATOM     13  C   UNL     1     -20.299   1.615  27.745  1.00  0.00     0.000 C 
BRANCH  13  14
ATOM     14  C   UNL     1     -19.879   0.644  28.858  1.00  0.00     0.000 C 
BRANCH  14  15
ATOM     15  C   UNL     1     -18.503   0.034  28.565  1.00  0.00     0.000 C 
BRANCH  15  16
ATOM     16  C   UNL     1     -18.303  -1.273  29.346  1.00  0.00     0.006 C 
BRANCH  16  17
ATOM     17  C   UNL     1     -18.380  -1.062  30.863  1.00  0.00     0.053 C 
BRANCH  17  18
ATOM     18  C   UNL     1     -17.532  -2.050  31.603  1.00  0.00     0.041 C 
ATOM     19  O   UNL     1     -17.473  -2.021  32.861  1.00  0.00    -0.550 OA
ATOM     20  O   UNL     1     -16.782  -2.986  30.902  1.00  0.00    -0.550 OA
ENDBRANCH  17  18
ENDBRANCH  16  17
ENDBRANCH  15  16
ENDBRANCH  14  15
ENDBRANCH  13  14
ENDBRANCH  12  13
ENDBRANCH  11  12
ENDBRANCH   1  11
TORSDOF 15
ENDMDL
MODEL 3
REMARK VINA RESULT:    -4.727     14.089     16.755
REMARK INTER + INTRA:         -10.671
REMARK INTER:                  -9.220
REMARK INTRA:                  -1.452
REMARK UNBOUND:                -1.799
REMARK SMILES O=C([O-])CCCCCCCCCCCCCCC(=O)[O-]
REMARK SMILES IDX 10 1 9 2 8 3 7 4 6 5 5 6 4 7 2 8 1 9 3 10 11 11 12 12 13 13
REMARK SMILES IDX 14 14 15 15 16 16 17 17 18 18 19 19 20 20
REMARK H PARENT
REMARK Flexibility Score: inf
ROOT
ATOM      1  C   UNL     1     -18.421   0.087  28.348  1.00  0.00     0.000 C 
ENDROOT
BRANCH   1   2
ATOM      2  C   UNL     1     -18.875   0.254  26.887  1.00  0.00     0.000 C 
BRANCH   2   3
ATOM      3  C   UNL     1     -20.329   0.739  26.766  1.00  0.00     0.000 C 
BRANCH   3   4
ATOM      4  C   UNL     1     -21.152  -0.105  25.778  1.00  0.00     0.000 C 
BRANCH   4   5
ATOM      5  C   UNL     1     -22.597   0.396  25.631  1.00  0.00     0.000 C 
BRANCH   5   6
ATOM      6  C   UNL     1     -23.553  -0.424  26.504  1.00  0.00     0.006 C 
BRANCH   6   7
ATOM      7  C   UNL     1     -23.814   0.275  27.842  1.00  0.00     0.053 C 
BRANCH   7   8
ATOM      8  C   UNL     1     -23.240  -0.521  28.971  1.00  0.00     0.041 C 
ATOM      9  O   UNL     1     -22.807  -1.685  28.768  1.00  0.00    -0.550 OA
ATOM     10  O   UNL     1     -23.229   0.004  30.257  1.00  0.00    -0.550 OA
ENDBRANCH   7   8
ENDBRANCH   6   7
ENDBRANCH   5   6
ENDBRANCH   4   5
ENDBRANCH   3   4
ENDBRANCH   2   3
ENDBRANCH   1   2
BRANCH   1  11
ATOM     11  C   UNL     1     -19.562  -0.313  29.308  1.00  0.00     0.000 C 
BRANCH  11  12
ATOM     12  C   UNL     1     -19.433  -1.770  29.785  1.00  0.00     0.000 C 
BRANCH  12  13
ATOM     13  C   UNL     1     -17.980  -2.268  29.786  1.00  0.00     0.000 C 
BRANCH  13  14
ATOM     14  C   UNL     1     -17.468  -2.598  31.196  1.00  0.00     0.000 C 
BRANCH  14  15
ATOM     15  C   UNL     1     -16.901  -1.350  31.881  1.00  0.00     0.000 C 
BRANCH  15  16
ATOM     16  C   UNL     1     -15.962  -0.583  30.938  1.00  0.00     0.006 C 
BRANCH  16  17
ATOM     17  C   UNL     1     -14.554  -0.420  31.525  1.00  0.00     0.053 C 
BRANCH  17  18
ATOM     18  C   UNL     1     -13.654   0.343  30.602  1.00  0.00     0.041 C 
ATOM     19  O   UNL     1     -14.036   1.434  30.101  1.00  0.00    -0.550 OA
ATOM     20  O   UNL     1     -12.404  -0.165  30.272  1.00  0.00    -0.550 OA
ENDBRANCH  17  18
ENDBRANCH  16  17
ENDBRANCH  15  16
ENDBRANCH  14  15
ENDBRANCH  13  14
ENDBRANCH  12  13
ENDBRANCH  11  12
ENDBRANCH   1  11
TORSDOF 15
ENDMDL
MODEL 4
REMARK VINA RESULT:    -4.686     15.437     17.621
REMARK INTER + INTRA:         -10.594
REMARK INTER:                  -8.456
REMARK INTRA:                  -2.139
REMARK UNBOUND:                -1.799
REMARK SMILES O=C([O-])CCCCCCCCCCCCCCC(=O)[O-]
REMARK SMILES IDX 10 1 9 2 8 3 7 4 6 5 5 6 4 7 2 8 1 9 3 10 11 11 12 12 13 13
REMARK SMILES IDX 14 14 15 15 16 16 17 17 18 18 19 19 20 20
REMARK H PARENT
REMARK Flexibility Score: inf
ROOT
ATOM      1  C   UNL     1     -21.068  -0.035  26.035  1.00  0.00     0.000 C 
ENDROOT
BRANCH   1   2
ATOM      2  C   UNL     1     -20.160   1.155  26.393  1.00  0.00     0.000 C 
BRANCH   2   3
ATOM      3  C   UNL     1     -20.396   1.677  27.820  1.00  0.00     0.000 C 
BRANCH   3   4
ATOM      4  C   UNL     1     -19.792   0.757  28.893  1.00  0.00     0.000 C 
BRANCH   4   5
ATOM      5  C   UNL     1     -18.460   0.128  28.453  1.00  0.00     0.000 C 
BRANCH   5   6
ATOM      6  C   UNL     1     -18.280  -1.262  29.073  1.00  0.00     0.006 C 
BRANCH   6   7
ATOM      7  C   UNL     1     -18.265  -1.186  30.603  1.00  0.00     0.053 C 
BRANCH   7   8
ATOM      8  C   UNL     1     -16.983  -1.735  31.143  1.00  0.00     0.041 C 
ATOM      9  O   UNL     1     -16.095  -0.958  31.581  1.00  0.00    -0.550 OA
ATOM     10  O   UNL     1     -16.747  -3.104  31.117  1.00  0.00    -0.550 OA
ENDBRANCH   7   8
ENDBRANCH   6   7
ENDBRANCH   5   6
ENDBRANCH   4   5
ENDBRANCH   3   4
ENDBRANCH   2   3
ENDBRANCH   1   2
BRANCH   1  11
ATOM     11  C   UNL     1     -22.478   0.383  25.564  1.00  0.00     0.000 C 
BRANCH  11  12
ATOM     12  C   UNL     1     -23.585  -0.225  26.442  1.00  0.00     0.000 C 
BRANCH  12  13
ATOM     13  C   UNL     1     -23.029  -1.087  27.586  1.00  0.00     0.000 C 
BRANCH  13  14
ATOM     14  C   UNL     1     -23.273  -0.467  28.969  1.00  0.00     0.000 C 
BRANCH  14  15
ATOM     15  C   UNL     1     -22.852  -1.429  30.085  1.00  0.00     0.000 C 
BRANCH  15  16
ATOM     16  C   UNL     1     -21.761  -2.394  29.597  1.00  0.00     0.006 C 
BRANCH  16  17
ATOM     17  C   UNL     1     -21.514  -3.541  30.586  1.00  0.00     0.053 C 
BRANCH  17  18
ATOM     18  C   UNL     1     -20.713  -4.645  29.966  1.00  0.00     0.041 C 
ATOM     19  O   UNL     1     -19.501  -4.464  29.676  1.00  0.00    -0.550 OA
ATOM     20  O   UNL     1     -21.314  -5.864  29.681  1.00  0.00    -0.550 OA
ENDBRANCH  17  18
ENDBRANCH  16  17
ENDBRANCH  15  16
ENDBRANCH  14  15
ENDBRANCH  13  14
ENDBRANCH  12  13
ENDBRANCH  11  12
ENDBRANCH   1  11
TORSDOF 15
ENDMDL
MODEL 5
REMARK VINA RESULT:    -4.679      2.143      3.993
REMARK INTER + INTRA:         -10.580
REMARK INTER:                  -8.835
REMARK INTRA:                  -1.745
REMARK UNBOUND:                -1.799
REMARK SMILES O=C([O-])CCCCCCCCCCCCCCC(=O)[O-]
REMARK SMILES IDX 10 1 9 2 8 3 7 4 6 5 5 6 4 7 2 8 1 9 3 10 11 11 12 12 13 13
REMARK SMILES IDX 14 14 15 15 16 16 17 17 18 18 19 19 20 20
REMARK H PARENT
REMARK Flexibility Score: inf
ROOT
ATOM      1  C   UNL     1      -4.600   7.594  24.631  1.00  0.00     0.000 C 
ENDROOT
BRANCH   1   2
ATOM      2  C   UNL     1      -4.414   7.168  26.098  1.00  0.00     0.000 C 
BRANCH   2   3
ATOM      3  C   UNL     1      -4.313   8.365  27.058  1.00  0.00     0.000 C 
BRANCH   3   4
ATOM      4  C   UNL     1      -5.025   8.111  28.396  1.00  0.00     0.000 C 
BRANCH   4   5
ATOM      5  C   UNL     1      -4.482   6.875  29.132  1.00  0.00     0.000 C 
BRANCH   5   6
ATOM      6  C   UNL     1      -5.521   6.321  30.113  1.00  0.00     0.006 C 
BRANCH   6   7
ATOM      7  C   UNL     1      -5.344   6.932  31.507  1.00  0.00     0.053 C 
BRANCH   7   8
ATOM      8  C   UNL     1      -4.826   5.908  32.466  1.00  0.00     0.041 C 
ATOM      9  O   UNL     1      -4.834   6.139  33.704  1.00  0.00    -0.550 OA
ATOM     10  O   UNL     1      -4.289   4.718  31.991  1.00  0.00    -0.550 OA
ENDBRANCH   7   8
ENDBRANCH   6   7
ENDBRANCH   5   6
ENDBRANCH   4   5
ENDBRANCH   3   4
ENDBRANCH   2   3
ENDBRANCH   1   2
BRANCH   1  11
ATOM     11  C   UNL     1      -4.363   9.100  24.389  1.00  0.00     0.000 C 
BRANCH  11  12
ATOM     12  C   UNL     1      -5.627   9.810  23.875  1.00  0.00     0.000 C 
BRANCH  12  13
ATOM     13  C   UNL     1      -6.508   8.898  23.006  1.00  0.00     0.000 C 
BRANCH  13  14
ATOM     14  C   UNL     1      -7.939   8.767  23.547  1.00  0.00     0.000 C 
BRANCH  14  15
ATOM     15  C   UNL     1      -8.008   9.178  25.022  1.00  0.00     0.000 C 
BRANCH  15  16
ATOM     16  C   UNL     1      -8.012   7.944  25.937  1.00  0.00     0.006 C 
BRANCH  16  17
ATOM     17  C   UNL     1      -9.085   8.035  27.031  1.00  0.00     0.053 C 
BRANCH  17  18
ATOM     18  C   UNL     1      -8.793   7.107  28.170  1.00  0.00     0.041 C 
ATOM     19  O   UNL     1      -8.241   5.995  27.959  1.00  0.00    -0.550 OA
ATOM     20  O   UNL     1      -9.158   7.459  29.464  1.00  0.00    -0.550 OA
ENDBRANCH  17  18
ENDBRANCH  16  17
ENDBRANCH  15  16
ENDBRANCH  14  15
ENDBRANCH  13  14
ENDBRANCH  12  13
ENDBRANCH  11  12
ENDBRANCH   1  11
TORSDOF 15
ENDMDL
MODEL 6
REMARK VINA RESULT:    -4.660      1.228      8.488
REMARK INTER + INTRA:         -10.546
REMARK INTER:                  -9.109
REMARK INTRA:                  -1.436
REMARK UNBOUND:                -1.799
REMARK SMILES O=C([O-])CCCCCCCCCCCCCCC(=O)[O-]
REMARK SMILES IDX 10 1 9 2 8 3 7 4 6 5 5 6 4 7 2 8 1 9 3 10 11 11 12 12 13 13
REMARK SMILES IDX 14 14 15 15 16 16 17 17 18 18 19 19 20 20
REMARK H PARENT
REMARK Flexibility Score: inf
ROOT
ATOM      1  C   UNL     1      -8.155   7.243  27.107  1.00  0.00     0.000 C 
ENDROOT
BRANCH   1   2
ATOM      2  C   UNL     1      -7.018   7.642  26.150  1.00  0.00     0.000 C 
BRANCH   2   3
ATOM      3  C   UNL     1      -5.773   6.752  26.299  1.00  0.00     0.000 C 
BRANCH   3   4
ATOM      4  C   UNL     1      -4.463   7.530  26.093  1.00  0.00     0.000 C 
BRANCH   4   5
ATOM      5  C   UNL     1      -4.663   8.826  25.293  1.00  0.00     0.000 C 
BRANCH   5   6
ATOM      6  C   UNL     1      -4.195   8.654  23.843  1.00  0.00     0.006 C 
BRANCH   6   7
ATOM      7  C   UNL     1      -5.169   9.321  22.867  1.00  0.00     0.053 C 
BRANCH   7   8
ATOM      8  C   UNL     1      -6.446   8.546  22.787  1.00  0.00     0.041 C 
ATOM      9  O   UNL     1      -6.428   7.329  22.466  1.00  0.00    -0.550 OA
ATOM     10  O   UNL     1      -7.660   9.180  23.017  1.00  0.00    -0.550 OA
ENDBRANCH   7   8
ENDBRANCH   6   7
ENDBRANCH   5   6
ENDBRANCH   4   5
ENDBRANCH   3   4
ENDBRANCH   2   3
ENDBRANCH   1   2
BRANCH   1  11
ATOM     11  C   UNL     1      -7.710   6.283  28.231  1.00  0.00     0.000 C 
BRANCH  11  12
ATOM     12  C   UNL     1      -7.805   6.935  29.621  1.00  0.00     0.000 C 
BRANCH  12  13
ATOM     13  C   UNL     1      -6.429   7.285  30.208  1.00  0.00     0.000 C 
BRANCH  13  14
ATOM     14  C   UNL     1      -5.409   6.149  30.044  1.00  0.00     0.000 C 
BRANCH  14  15
ATOM     15  C   UNL     1      -5.746   4.970  30.965  1.00  0.00     0.000 C 
BRANCH  15  16
ATOM     16  C   UNL     1      -4.542   4.594  31.841  1.00  0.00     0.006 C 
BRANCH  16  17
ATOM     17  C   UNL     1      -3.982   5.800  32.608  1.00  0.00     0.053 C 
BRANCH  17  18
ATOM     18  C   UNL     1      -4.458   5.822  34.028  1.00  0.00     0.041 C 
ATOM     19  O   UNL     1      -4.681   4.744  34.640  1.00  0.00    -0.550 OA
ATOM     20  O   UNL     1      -4.685   7.034  34.666  1.00  0.00    -0.550 OA
ENDBRANCH  17  18
ENDBRANCH  16  17
ENDBRANCH  15  16
ENDBRANCH  14  15
ENDBRANCH  13  14
ENDBRANCH  12  13
ENDBRANCH  11  12
ENDBRANCH   1  11
TORSDOF 15
ENDMDL
MODEL 7
REMARK VINA RESULT:    -4.659      1.443      8.182
REMARK INTER + INTRA:         -10.543
REMARK INTER:                  -8.927
REMARK INTRA:                  -1.617
REMARK UNBOUND:                -1.799
REMARK SMILES O=C([O-])CCCCCCCCCCCCCCC(=O)[O-]
REMARK SMILES IDX 10 1 9 2 8 3 7 4 6 5 5 6 4 7 2 8 1 9 3 10 11 11 12 12 13 13
REMARK SMILES IDX 14 14 15 15 16 16 17 17 18 18 19 19 20 20
REMARK H PARENT
REMARK Flexibility Score: inf
ROOT
ATOM      1  C   UNL     1      -5.378   7.807  26.471  1.00  0.00     0.000 C 
ENDROOT
BRANCH   1   2
ATOM      2  C   UNL     1      -4.269   8.293  25.521  1.00  0.00     0.000 C 
BRANCH   2   3
ATOM      3  C   UNL     1      -4.136   7.419  24.263  1.00  0.00     0.000 C 
BRANCH   3   4
ATOM      4  C   UNL     1      -4.787   8.061  23.027  1.00  0.00     0.000 C 
BRANCH   4   5
ATOM      5  C   UNL     1      -4.713   9.596  23.049  1.00  0.00     0.000 C 
BRANCH   5   6
ATOM      6  C   UNL     1      -6.091  10.214  22.784  1.00  0.00     0.006 C 
BRANCH   6   7
ATOM      7  C   UNL     1      -6.863  10.419  24.092  1.00  0.00     0.053 C 
BRANCH   7   8
ATOM      8  C   UNL     1      -7.936   9.387  24.235  1.00  0.00     0.041 C 
ATOM      9  O   UNL     1      -8.358   9.066  25.376  1.00  0.00    -0.550 OA
ATOM     10  O   UNL     1      -8.434   8.741  23.110  1.00  0.00    -0.550 OA
ENDBRANCH   7   8
ENDBRANCH   6   7
ENDBRANCH   5   6
ENDBRANCH   4   5
ENDBRANCH   3   4
ENDBRANCH   2   3
ENDBRANCH   1   2
BRANCH   1  11
ATOM     11  C   UNL     1      -5.174   6.361  26.973  1.00  0.00     0.000 C 
BRANCH  11  12
ATOM     12  C   UNL     1      -6.448   5.785  27.615  1.00  0.00     0.000 C 
BRANCH  12  13
ATOM     13  C   UNL     1      -7.340   6.870  28.239  1.00  0.00     0.000 C 
BRANCH  13  14
ATOM     14  C   UNL     1      -7.299   6.862  29.773  1.00  0.00     0.000 C 
BRANCH  14  15
ATOM     15  C   UNL     1      -6.128   7.703  30.296  1.00  0.00     0.000 C 
BRANCH  15  16
ATOM     16  C   UNL     1      -5.402   6.983  31.442  1.00  0.00     0.006 C 
BRANCH  16  17
ATOM     17  C   UNL     1      -4.566   5.796  30.946  1.00  0.00     0.053 C 
BRANCH  17  18
ATOM     18  C   UNL     1      -5.078   4.495  31.484  1.00  0.00     0.041 C 
ATOM     19  O   UNL     1      -5.842   3.776  30.788  1.00  0.00    -0.550 OA
ATOM     20  O   UNL     1      -4.735   4.091  32.769  1.00  0.00    -0.550 OA
ENDBRANCH  17  18
ENDBRANCH  16  17
ENDBRANCH  15  16
ENDBRANCH  14  15
ENDBRANCH  13  14
ENDBRANCH  12  13
ENDBRANCH  11  12
ENDBRANCH   1  11
TORSDOF 15
ENDMDL
MODEL 8
REMARK VINA RESULT:    -4.623      2.968      7.438
REMARK INTER + INTRA:         -10.476
REMARK INTER:                  -8.633
REMARK INTRA:                  -1.843
REMARK UNBOUND:                -1.799
REMARK SMILES O=C([O-])CCCCCCCCCCCCCCC(=O)[O-]
REMARK SMILES IDX 10 1 9 2 8 3 7 4 6 5 5 6 4 7 2 8 1 9 3 10 11 11 12 12 13 13
REMARK SMILES IDX 14 14 15 15 16 16 17 17 18 18 19 19 20 20
REMARK H PARENT
REMARK Flexibility Score: inf
ROOT
ATOM      1  C   UNL     1      -5.350   7.091  25.969  1.00  0.00     0.000 C 
ENDROOT
BRANCH   1   2
ATOM      2  C   UNL     1      -4.496   7.854  24.941  1.00  0.00     0.000 C 
BRANCH   2   3
ATOM      3  C   UNL     1      -4.935   7.595  23.490  1.00  0.00     0.000 C 
BRANCH   3   4
ATOM      4  C   UNL     1      -4.834   8.851  22.610  1.00  0.00     0.000 C 
BRANCH   4   5
ATOM      5  C   UNL     1      -5.064  10.149  23.401  1.00  0.00     0.000 C 
BRANCH   5   6
ATOM      6  C   UNL     1      -6.523  10.607  23.291  1.00  0.00     0.006 C 
BRANCH   6   7
ATOM      7  C   UNL     1      -7.314  10.232  24.548  1.00  0.00     0.053 C 
BRANCH   7   8
ATOM      8  C   UNL     1      -8.172   9.034  24.290  1.00  0.00     0.041 C 
ATOM      9  O   UNL     1      -8.436   8.687  23.109  1.00  0.00    -0.550 OA
ATOM     10  O   UNL     1      -8.722   8.330  25.354  1.00  0.00    -0.550 OA
ENDBRANCH   7   8
ENDBRANCH   6   7
ENDBRANCH   5   6
ENDBRANCH   4   5
ENDBRANCH   3   4
ENDBRANCH   2   3
ENDBRANCH   1   2
BRANCH   1  11
ATOM     11  C   UNL     1      -4.692   6.981  27.361  1.00  0.00     0.000 C 
BRANCH  11  12
ATOM     12  C   UNL     1      -4.469   8.360  28.007  1.00  0.00     0.000 C 
BRANCH  12  13
ATOM     13  C   UNL     1      -4.060   8.264  29.485  1.00  0.00     0.000 C 
BRANCH  13  14
ATOM     14  C   UNL     1      -4.226   6.848  30.054  1.00  0.00     0.000 C 
BRANCH  14  15
ATOM     15  C   UNL     1      -5.429   6.774  31.002  1.00  0.00     0.000 C 
BRANCH  15  16
ATOM     16  C   UNL     1      -6.657   6.190  30.289  1.00  0.00     0.006 C 
BRANCH  16  17
ATOM     17  C   UNL     1      -7.613   7.282  29.789  1.00  0.00     0.053 C 
BRANCH  17  18
ATOM     18  C   UNL     1      -8.470   6.794  28.662  1.00  0.00     0.041 C 
ATOM     19  O   UNL     1      -9.607   7.299  28.463  1.00  0.00    -0.550 OA
ATOM     20  O   UNL     1      -8.025   5.760  27.848  1.00  0.00    -0.550 OA
ENDBRANCH  17  18
ENDBRANCH  16  17
ENDBRANCH  15  16
ENDBRANCH  14  15
ENDBRANCH  13  14
ENDBRANCH  12  13
ENDBRANCH  11  12
ENDBRANCH   1  11
TORSDOF 15
ENDMDL
MODEL 9
REMARK VINA RESULT:    -4.581      3.073      4.094
REMARK INTER + INTRA:         -10.397
REMARK INTER:                  -8.861
REMARK INTRA:                  -1.535
REMARK UNBOUND:                -1.799
REMARK SMILES O=C([O-])CCCCCCCCCCCCCCC(=O)[O-]
REMARK SMILES IDX 10 1 9 2 8 3 7 4 6 5 5 6 4 7 2 8 1 9 3 10 11 11 12 12 13 13
REMARK SMILES IDX 14 14 15 15 16 16 17 17 18 18 19 19 20 20
REMARK H PARENT
REMARK Flexibility Score: inf
ROOT
ATOM      1  C   UNL     1      -4.647   6.522  26.393  1.00  0.00     0.000 C 
ENDROOT
BRANCH   1   2
ATOM      2  C   UNL     1      -3.875   7.033  27.622  1.00  0.00     0.000 C 
BRANCH   2   3
ATOM      3  C   UNL     1      -4.505   8.291  28.241  1.00  0.00     0.000 C 
BRANCH   3   4
ATOM      4  C   UNL     1      -4.921   8.083  29.706  1.00  0.00     0.000 C 
BRANCH   4   5
ATOM      5  C   UNL     1      -4.958   6.600  30.107  1.00  0.00     0.000 C 
BRANCH   5   6
ATOM      6  C   UNL     1      -6.390   6.055  30.061  1.00  0.00     0.006 C 
BRANCH   6   7
ATOM      7  C   UNL     1      -7.395   7.173  29.767  1.00  0.00     0.053 C 
BRANCH   7   8
ATOM      8  C   UNL     1      -8.297   6.785  28.638  1.00  0.00     0.041 C 
ATOM      9  O   UNL     1      -9.470   7.236  28.581  1.00  0.00    -0.550 OA
ATOM     10  O   UNL     1      -7.858   5.884  27.676  1.00  0.00    -0.550 OA
ENDBRANCH   7   8
ENDBRANCH   6   7
ENDBRANCH   5   6
ENDBRANCH   4   5
ENDBRANCH   3   4
ENDBRANCH   2   3
ENDBRANCH   1   2
BRANCH   1  11
ATOM     11  C   UNL     1      -4.989   7.629  25.372  1.00  0.00     0.000 C 
BRANCH  11  12
ATOM     12  C   UNL     1      -4.434   7.317  23.972  1.00  0.00     0.000 C 
BRANCH  12  13
ATOM     13  C   UNL     1      -3.993   8.578  23.213  1.00  0.00     0.000 C 
BRANCH  13  14
ATOM     14  C   UNL     1      -5.109   9.162  22.336  1.00  0.00     0.000 C 
BRANCH  14  15
ATOM     15  C   UNL     1      -5.381  10.628  22.695  1.00  0.00     0.000 C 
BRANCH  15  16
ATOM     16  C   UNL     1      -6.865  10.849  23.022  1.00  0.00     0.006 C 
BRANCH  16  17
ATOM     17  C   UNL     1      -7.245  10.296  24.402  1.00  0.00     0.053 C 
BRANCH  17  18
ATOM     18  C   UNL     1      -8.164   9.118  24.293  1.00  0.00     0.041 C 
ATOM     19  O   UNL     1      -8.468   8.453  25.318  1.00  0.00    -0.550 OA
ATOM     20  O   UNL     1      -8.662   8.737  23.053  1.00  0.00    -0.550 OA
ENDBRANCH  17  18
ENDBRANCH  16  17
ENDBRANCH  15  16
ENDBRANCH  14  15
ENDBRANCH  13  14
ENDBRANCH  12  13
ENDBRANCH  11  12
ENDBRANCH   1  11
TORSDOF 15
ENDMDL
