MODEL 1
REMARK VINA RESULT:    -3.309      0.000      0.000
REMARK INTER + INTRA:          -4.474
REMARK INTER:                  -4.276
REMARK INTRA:                  -0.198
REMARK UNBOUND:                -0.198
REMARK SMILES CCCCCCC(=O)[O-]
REMARK SMILES IDX 5 1 6 2 7 3 8 4 9 5 4 6 3 7 2 8 1 9
REMARK H PARENT
REMARK Flexibility Score: inf
ROOT
ATOM      1  C   UNL     1     156.118 155.142 167.124  1.00  0.00     0.006 C 
ENDROOT
BRANCH   1   2
ATOM      2  C   UNL     1     154.969 154.859 168.106  1.00  0.00     0.053 C 
BRANCH   2   3
ATOM      3  C   UNL     1     154.603 153.406 168.137  1.00  0.00     0.041 C 
ATOM      4  O   UNL     1     154.642 152.719 167.083  1.00  0.00    -0.550 OA
ATOM      5  O   UNL     1     154.189 152.820 169.327  1.00  0.00    -0.550 OA
ENDBRANCH   2   3
ENDBRANCH   1   2
BRANCH   1   6
ATOM      6  C   UNL     1     155.748 156.092 165.970  1.00  0.00     0.000 C 
BRANCH   6   7
ATOM      7  C   UNL     1     154.287 156.570 166.038  1.00  0.00    -0.000 C 
BRANCH   7   8
ATOM      8  C   UNL     1     153.921 157.508 164.877  1.00  0.00    -0.003 C 
ATOM      9  C   UNL     1     153.788 158.967 165.313  1.00  0.00     0.004 C 
ENDBRANCH   7   8
ENDBRANCH   6   7
ENDBRANCH   1   6
TORSDOF 5
ENDMDL
MODEL 2
REMARK VINA RESULT:    -3.302      2.201      2.640
REMARK INTER + INTRA:          -4.465
REMARK INTER:                  -4.142
REMARK INTRA:                  -0.323
REMARK UNBOUND:                -0.198
REMARK SMILES CCCCCCC(=O)[O-]
REMARK SMILES IDX 5 1 6 2 7 3 8 4 9 5 4 6 3 7 2 8 1 9
REMARK H PARENT
REMARK Flexibility Score: inf
ROOT
ATOM      1  C   UNL     1     156.232 155.040 164.984  1.00  0.00     0.006 C 
ENDROOT
BRANCH   1   2
ATOM      2  C   UNL     1     155.739 156.013 166.067  1.00  0.00     0.053 C 
BRANCH   2   3
ATOM      3  C   UNL     1     155.079 155.298 167.206  1.00  0.00     0.041 C 
ATOM      4  O   UNL     1     155.716 154.438 167.869  1.00  0.00    -0.550 OA
ATOM      5  O   UNL     1     153.750 155.559 167.514  1.00  0.00    -0.550 OA
ENDBRANCH   2   3
ENDBRANCH   1   2
BRANCH   1   6
ATOM      6  C   UNL     1     155.108 154.370 164.172  1.00  0.00     0.000 C 
BRANCH   6   7
ATOM      7  C   UNL     1     154.081 155.380 163.632  1.00  0.00    -0.000 C 
BRANCH   7   8
ATOM      8  C   UNL     1     154.632 156.209 162.461  1.00  0.00    -0.003 C 
ATOM      9  C   UNL     1     154.170 157.666 162.497  1.00  0.00     0.004 C 
ENDBRANCH   7   8
ENDBRANCH   6   7
ENDBRANCH   1   6
TORSDOF 5
ENDMDL
MODEL 3
REMARK VINA RESULT:    -3.278      2.602      3.234
REMARK INTER + INTRA:          -4.435
REMARK INTER:                  -4.069
REMARK INTRA:                  -0.366
REMARK UNBOUND:                -0.198
REMARK SMILES CCCCCCC(=O)[O-]
REMARK SMILES IDX 5 1 6 2 7 3 8 4 9 5 4 6 3 7 2 8 1 9
REMARK H PARENT
REMARK Flexibility Score: inf
ROOT
ATOM      1  C   UNL     1     154.122 156.114 166.431  1.00  0.00     0.006 C 
ENDROOT
BRANCH   1   2
ATOM      2  C   UNL     1     155.543 156.110 165.842  1.00  0.00     0.053 C 
BRANCH   2   3
ATOM      3  C   UNL     1     155.725 155.027 164.824  1.00  0.00     0.041 C 
ATOM      4  O   UNL     1     156.881 154.635 164.515  1.00  0.00    -0.550 OA
ATOM      5  O   UNL     1     154.618 154.472 164.193  1.00  0.00    -0.550 OA
ENDBRANCH   2   3
ENDBRANCH   1   2
BRANCH   1   6
ATOM      6  C   UNL     1     153.180 157.163 165.812  1.00  0.00     0.000 C 
BRANCH   6   7
ATOM      7  C   UNL     1     153.928 158.408 165.304  1.00  0.00    -0.000 C 
BRANCH   7   8
ATOM      8  C   UNL     1     153.527 158.790 163.871  1.00  0.00    -0.003 C 
ATOM      9  C   UNL     1     153.893 157.717 162.846  1.00  0.00     0.004 C 
ENDBRANCH   7   8
ENDBRANCH   6   7
ENDBRANCH   1   6
TORSDOF 5
ENDMDL
MODEL 4
REMARK VINA RESULT:    -3.229      2.271      3.344
REMARK INTER + INTRA:          -4.371
REMARK INTER:                  -4.182
REMARK INTRA:                  -0.189
REMARK UNBOUND:                -0.198
REMARK SMILES CCCCCCC(=O)[O-]
REMARK SMILES IDX 5 1 6 2 7 3 8 4 9 5 4 6 3 7 2 8 1 9
REMARK H PARENT
REMARK Flexibility Score: inf
ROOT
ATOM      1  C   UNL     1     154.054 157.577 165.562  1.00  0.00     0.006 C 
ENDROOT
BRANCH   1   2
ATOM      2  C   UNL     1     153.983 156.224 166.288  1.00  0.00     0.053 C 
BRANCH   2   3
ATOM      3  C   UNL     1     155.341 155.717 166.666  1.00  0.00     0.041 C 
ATOM      4  O   UNL     1     156.349 156.036 165.982  1.00  0.00    -0.550 OA
ATOM      5  O   UNL     1     155.488 154.866 167.754  1.00  0.00    -0.550 OA
ENDBRANCH   2   3
ENDBRANCH   1   2
BRANCH   1   6
ATOM      6  C   UNL     1     153.265 157.631 164.240  1.00  0.00     0.000 C 
BRANCH   6   7
ATOM      7  C   UNL     1     153.754 158.746 163.301  1.00  0.00    -0.000 C 
BRANCH   7   8
ATOM      8  C   UNL     1     154.132 158.218 161.908  1.00  0.00    -0.003 C 
ATOM      9  C   UNL     1     154.586 156.759 161.930  1.00  0.00     0.004 C 
ENDBRANCH   7   8
ENDBRANCH   6   7
ENDBRANCH   1   6
TORSDOF 5
ENDMDL
MODEL 5
REMARK VINA RESULT:    -3.222      3.627      5.525
REMARK INTER + INTRA:          -4.362
REMARK INTER:                  -4.091
REMARK INTRA:                  -0.271
REMARK UNBOUND:                -0.198
REMARK SMILES CCCCCCC(=O)[O-]
REMARK SMILES IDX 5 1 6 2 7 3 8 4 9 5 4 6 3 7 2 8 1 9
REMARK H PARENT
REMARK Flexibility Score: inf
ROOT
ATOM      1  C   UNL     1     154.079 158.184 165.423  1.00  0.00     0.006 C 
ENDROOT
BRANCH   1   2
ATOM      2  C   UNL     1     153.306 158.876 164.288  1.00  0.00     0.053 C 
BRANCH   2   3
ATOM      3  C   UNL     1     153.829 158.491 162.938  1.00  0.00     0.041 C 
ATOM      4  O   UNL     1     153.981 159.365 162.044  1.00  0.00    -0.550 OA
ATOM      5  O   UNL     1     154.118 157.161 162.658  1.00  0.00    -0.550 OA
ENDBRANCH   2   3
ENDBRANCH   1   2
BRANCH   1   6
ATOM      6  C   UNL     1     153.353 156.974 166.040  1.00  0.00     0.000 C 
BRANCH   6   7
ATOM      7  C   UNL     1     154.145 155.664 165.888  1.00  0.00    -0.000 C 
BRANCH   7   8
ATOM      8  C   UNL     1     155.664 155.897 165.855  1.00  0.00    -0.003 C 
ATOM      9  C   UNL     1     156.404 155.140 166.957  1.00  0.00     0.004 C 
ENDBRANCH   7   8
ENDBRANCH   6   7
ENDBRANCH   1   6
TORSDOF 5
ENDMDL
MODEL 6
REMARK VINA RESULT:    -3.219      2.229      2.653
REMARK INTER + INTRA:          -4.358
REMARK INTER:                  -4.054
REMARK INTRA:                  -0.305
REMARK UNBOUND:                -0.198
REMARK SMILES CCCCCCC(=O)[O-]
REMARK SMILES IDX 5 1 6 2 7 3 8 4 9 5 4 6 3 7 2 8 1 9
REMARK H PARENT
REMARK Flexibility Score: inf
ROOT
ATOM      1  C   UNL     1     156.313 154.990 167.266  1.00  0.00     0.006 C 
ENDROOT
BRANCH   1   2
ATOM      2  C   UNL     1     155.168 154.132 167.828  1.00  0.00     0.053 C 
BRANCH   2   3
ATOM      3  C   UNL     1     154.251 154.926 168.708  1.00  0.00     0.041 C 
ATOM      4  O   UNL     1     154.453 154.980 169.949  1.00  0.00    -0.550 OA
ATOM      5  O   UNL     1     153.155 155.580 168.159  1.00  0.00    -0.550 OA
ENDBRANCH   2   3
ENDBRANCH   1   2
BRANCH   1   6
ATOM      6  C   UNL     1     155.972 155.728 165.958  1.00  0.00     0.000 C 
BRANCH   6   7
ATOM      7  C   UNL     1     156.347 154.919 164.705  1.00  0.00    -0.000 C 
BRANCH   7   8
ATOM      8  C   UNL     1     155.180 154.798 163.712  1.00  0.00    -0.003 C 
ATOM      9  C   UNL     1     153.813 154.919 164.387  1.00  0.00     0.004 C 
ENDBRANCH   7   8
ENDBRANCH   6   7
ENDBRANCH   1   6
TORSDOF 5
ENDMDL
MODEL 7
REMARK VINA RESULT:    -3.204      2.896      4.694
REMARK INTER + INTRA:          -4.338
REMARK INTER:                  -3.912
REMARK INTRA:                  -0.427
REMARK UNBOUND:                -0.198
REMARK SMILES CCCCCCC(=O)[O-]
REMARK SMILES IDX 5 1 6 2 7 3 8 4 9 5 4 6 3 7 2 8 1 9
REMARK H PARENT
REMARK Flexibility Score: inf
ROOT
ATOM      1  C   UNL     1     154.583 156.369 166.081  1.00  0.00     0.006 C 
ENDROOT
BRANCH   1   2
ATOM      2  C   UNL     1     154.107 157.156 164.849  1.00  0.00     0.053 C 
BRANCH   2   3
ATOM      3  C   UNL     1     154.052 156.298 163.622  1.00  0.00     0.041 C 
ATOM      4  O   UNL     1     153.539 155.150 163.673  1.00  0.00    -0.550 OA
ATOM      5  O   UNL     1     154.597 156.757 162.429  1.00  0.00    -0.550 OA
ENDBRANCH   2   3
ENDBRANCH   1   2
BRANCH   1   6
ATOM      6  C   UNL     1     156.079 156.002 166.061  1.00  0.00     0.000 C 
BRANCH   6   7
ATOM      7  C   UNL     1     156.343 154.559 166.521  1.00  0.00    -0.000 C 
BRANCH   7   8
ATOM      8  C   UNL     1     156.476 153.581 165.343  1.00  0.00    -0.003 C 
ATOM      9  C   UNL     1     157.097 154.226 164.104  1.00  0.00     0.004 C 
ENDBRANCH   7   8
ENDBRANCH   6   7
ENDBRANCH   1   6
TORSDOF 5
ENDMDL
MODEL 8
REMARK VINA RESULT:    -3.160      3.494      5.032
REMARK INTER + INTRA:          -4.282
REMARK INTER:                  -4.039
REMARK INTRA:                  -0.243
REMARK UNBOUND:                -0.198
REMARK SMILES CCCCCCC(=O)[O-]
REMARK SMILES IDX 5 1 6 2 7 3 8 4 9 5 4 6 3 7 2 8 1 9
REMARK H PARENT
REMARK Flexibility Score: inf
ROOT
ATOM      1  C   UNL     1     154.768 156.138 164.676  1.00  0.00     0.006 C 
ENDROOT
BRANCH   1   2
ATOM      2  C   UNL     1     154.359 157.288 165.610  1.00  0.00     0.053 C 
BRANCH   2   3
ATOM      3  C   UNL     1     153.655 158.386 164.874  1.00  0.00     0.041 C 
ATOM      4  O   UNL     1     153.088 159.314 165.508  1.00  0.00    -0.550 OA
ATOM      5  O   UNL     1     153.598 158.367 163.485  1.00  0.00    -0.550 OA
ENDBRANCH   2   3
ENDBRANCH   1   2
BRANCH   1   6
ATOM      6  C   UNL     1     155.868 155.220 165.241  1.00  0.00     0.000 C 
BRANCH   6   7
ATOM      7  C   UNL     1     156.124 155.453 166.740  1.00  0.00    -0.000 C 
BRANCH   7   8
ATOM      8  C   UNL     1     155.562 154.320 167.614  1.00  0.00    -0.003 C 
ATOM      9  C   UNL     1     154.693 154.833 168.762  1.00  0.00     0.004 C 
ENDBRANCH   7   8
ENDBRANCH   6   7
ENDBRANCH   1   6
TORSDOF 5
ENDMDL
MODEL 9
REMARK VINA RESULT:    -3.075      2.245      2.813
REMARK INTER + INTRA:          -4.172
REMARK INTER:                  -3.843
REMARK INTRA:                  -0.329
REMARK UNBOUND:                -0.198
REMARK SMILES CCCCCCC(=O)[O-]
REMARK SMILES IDX 5 1 6 2 7 3 8 4 9 5 4 6 3 7 2 8 1 9
REMARK H PARENT
REMARK Flexibility Score: inf
ROOT
ATOM      1  C   UNL     1     154.793 154.816 164.027  1.00  0.00     0.006 C 
ENDROOT
BRANCH   1   2
ATOM      2  C   UNL     1     154.594 154.216 165.428  1.00  0.00     0.053 C 
BRANCH   2   3
ATOM      3  C   UNL     1     154.894 155.207 166.511  1.00  0.00     0.041 C 
ATOM      4  O   UNL     1     156.065 155.644 166.664  1.00  0.00    -0.550 OA
ATOM      5  O   UNL     1     153.885 155.623 167.372  1.00  0.00    -0.550 OA
ENDBRANCH   2   3
ENDBRANCH   1   2
BRANCH   1   6
ATOM      6  C   UNL     1     153.674 155.776 163.582  1.00  0.00     0.000 C 
BRANCH   6   7
ATOM      7  C   UNL     1     154.213 157.028 162.869  1.00  0.00    -0.000 C 
BRANCH   7   8
ATOM      8  C   UNL     1     153.668 158.331 163.475  1.00  0.00    -0.003 C 
ATOM      9  C   UNL     1     153.789 158.372 164.998  1.00  0.00     0.004 C 
ENDBRANCH   7   8
ENDBRANCH   6   7
ENDBRANCH   1   6
TORSDOF 5
ENDMDL
