MODEL 1
REMARK VINA RESULT:    -3.226      0.000      0.000
REMARK INTER + INTRA:          -5.093
REMARK INTER:                  -4.924
REMARK INTRA:                  -0.169
REMARK UNBOUND:                -0.169
REMARK SMILES CC1=CCC[C@H](C)C(=O)C[C@H](C(C)C)C(=O)C1
REMARK SMILES IDX 8 1 9 2 6 3 7 4 5 5 4 6 3 7 2 8 1 9 10 11 11 12 15 13 16 14
REMARK SMILES IDX 17 15 12 17 13 18 14 19
REMARK H PARENT
REMARK Flexibility Score: 70.00
ROOT
ATOM      1  C   UNL     1     157.920 165.566 198.517  1.00  0.00     0.136 C 
ATOM      2  O   UNL     1     158.296 165.475 199.677  1.00  0.00    -0.299 OA
ENDROOT
BRANCH   1   3
ATOM      3  C   UNL     1     158.889 166.135 197.494  1.00  0.00     0.053 C 
ATOM      4  C   UNL     1     159.038 167.666 197.552  1.00  0.00     0.016 C 
BRANCH   3   5
ATOM      5  C   UNL     1     160.258 165.422 197.548  1.00  0.00     0.015 C 
BRANCH   5   6
ATOM      6  C   UNL     1     160.334 164.122 196.717  1.00  0.00     0.028 C 
BRANCH   6   7
ATOM      7  C   UNL     1     160.286 162.895 197.601  1.00  0.00    -0.028 C 
ATOM      8  C   UNL     1     159.320 161.945 197.638  1.00  0.00    -0.070 CG0
ATOM      9  C   UNL     1     159.477 160.834 198.648  1.00  0.00     0.039 C 
ATOM     10  G   UNL     1     158.104 161.911 196.728  1.00  0.00     0.000 G0
ENDBRANCH   6   7
ENDBRANCH   5   6
ENDBRANCH   3   5
ENDBRANCH   1   3
BRANCH   1  11
ATOM     11  C   UNL     1     156.548 165.045 198.131  1.00  0.00     0.087 C 
BRANCH  11  12
ATOM     12  C   UNL     1     156.571 164.080 196.919  1.00  0.00     0.066 C 
BRANCH  12  13
ATOM     13  C   UNL     1     156.918 162.645 197.294  1.00  0.00     0.140 C 
ATOM     14  O   UNL     1     156.252 162.101 198.163  1.00  0.00    -0.299 OA
BRANCH  13  15
ATOM     15  C   UNL     1     158.093 161.891 196.709  1.00  0.00     0.106 CG0
ATOM     16  G   UNL     1     159.302 161.963 197.627  1.00  0.00     0.000 G0
ENDBRANCH  13  15
ENDBRANCH  12  13
BRANCH  12  17
ATOM     17  C   UNL     1     155.286 164.134 196.034  1.00  0.00    -0.006 C 
ATOM     18  C   UNL     1     155.282 165.274 195.002  1.00  0.00     0.008 C 
ATOM     19  C   UNL     1     155.012 162.793 195.334  1.00  0.00     0.008 C 
ENDBRANCH  12  17
ENDBRANCH  11  12
ENDBRANCH   1  11
TORSDOF 1
ENDMDL
MODEL 2
REMARK VINA RESULT:    -3.095      1.718      4.165
REMARK INTER + INTRA:          -4.892
REMARK INTER:                  -4.594
REMARK INTRA:                  -0.297
REMARK UNBOUND:                -0.169
REMARK SMILES CC1=CCC[C@H](C)C(=O)C[C@H](C(C)C)C(=O)C1
REMARK SMILES IDX 8 1 9 2 6 3 7 4 5 5 4 6 3 7 2 8 1 9 10 11 11 12 15 13 16 14
REMARK SMILES IDX 17 15 12 17 13 18 14 19
REMARK H PARENT
REMARK Flexibility Score: 70.00
ROOT
ATOM      1  C   UNL     1     160.276 163.585 197.436  1.00  0.00     0.136 C 
ATOM      2  O   UNL     1     160.922 164.412 196.809  1.00  0.00    -0.299 OA
ENDROOT
BRANCH   1   3
ATOM      3  C   UNL     1     160.601 162.116 197.227  1.00  0.00     0.053 C 
ATOM      4  C   UNL     1     160.602 161.282 198.522  1.00  0.00     0.016 C 
BRANCH   3   5
ATOM      5  C   UNL     1     159.707 161.484 196.138  1.00  0.00     0.015 C 
BRANCH   5   6
ATOM      6  C   UNL     1     158.396 160.862 196.668  1.00  0.00     0.028 C 
BRANCH   6   7
ATOM      7  C   UNL     1     157.184 161.462 195.989  1.00  0.00    -0.028 C 
ATOM      8  C   UNL     1     156.332 162.387 196.494  1.00  0.00    -0.070 CG0
ATOM      9  C   UNL     1     155.161 162.795 195.633  1.00  0.00     0.039 C 
ATOM     10  G   UNL     1     156.480 163.051 197.853  1.00  0.00     0.000 G0
ENDBRANCH   6   7
ENDBRANCH   5   6
ENDBRANCH   3   5
ENDBRANCH   1   3
BRANCH   1  11
ATOM     11  C   UNL     1     159.239 164.051 198.442  1.00  0.00     0.087 C 
BRANCH  11  12
ATOM     12  C   UNL     1     158.231 165.076 197.863  1.00  0.00     0.066 C 
BRANCH  12  13
ATOM     13  C   UNL     1     156.813 164.532 197.749  1.00  0.00     0.140 C 
ATOM     14  O   UNL     1     155.899 165.334 197.617  1.00  0.00    -0.299 OA
BRANCH  13  15
ATOM     15  C   UNL     1     156.470 163.063 197.874  1.00  0.00     0.106 CG0
ATOM     16  G   UNL     1     156.316 162.417 196.507  1.00  0.00     0.000 G0
ENDBRANCH  13  15
ENDBRANCH  12  13
BRANCH  12  17
ATOM     17  C   UNL     1     158.245 166.462 198.580  1.00  0.00    -0.006 C 
ATOM     18  C   UNL     1     159.047 166.483 199.892  1.00  0.00     0.008 C 
ATOM     19  C   UNL     1     158.730 167.587 197.652  1.00  0.00     0.008 C 
ENDBRANCH  12  17
ENDBRANCH  11  12
ENDBRANCH   1  11
TORSDOF 1
ENDMDL
MODEL 3
REMARK VINA RESULT:    -3.042      7.600     10.021
REMARK INTER + INTRA:          -4.812
REMARK INTER:                  -4.309
REMARK INTRA:                  -0.503
REMARK UNBOUND:                -0.169
REMARK SMILES CC1=CCC[C@H](C)C(=O)C[C@H](C(C)C)C(=O)C1
REMARK SMILES IDX 8 1 9 2 6 3 7 4 5 5 4 6 3 7 2 8 1 9 10 11 11 12 15 13 16 14
REMARK SMILES IDX 17 15 12 17 13 18 14 19
REMARK H PARENT
REMARK Flexibility Score: 70.00
ROOT
ATOM      1  C   UNL     1     151.860 156.488 199.556  1.00  0.00     0.136 C 
ATOM      2  O   UNL     1     151.689 155.277 199.523  1.00  0.00    -0.299 OA
ENDROOT
BRANCH   1   3
ATOM      3  C   UNL     1     152.164 157.203 198.250  1.00  0.00     0.053 C 
ATOM      4  C   UNL     1     153.121 156.435 197.320  1.00  0.00     0.016 C 
BRANCH   3   5
ATOM      5  C   UNL     1     150.871 157.627 197.520  1.00  0.00     0.015 C 
BRANCH   5   6
ATOM      6  C   UNL     1     150.621 159.152 197.496  1.00  0.00     0.028 C 
BRANCH   6   7
ATOM      7  C   UNL     1     149.467 159.538 198.394  1.00  0.00    -0.028 C 
ATOM      8  C   UNL     1     149.530 160.184 199.583  1.00  0.00    -0.070 CG0
ATOM      9  C   UNL     1     148.231 160.416 200.317  1.00  0.00     0.039 C 
ATOM     10  G   UNL     1     150.808 160.705 200.219  1.00  0.00     0.000 G0
ENDBRANCH   6   7
ENDBRANCH   5   6
ENDBRANCH   3   5
ENDBRANCH   1   3
BRANCH   1  11
ATOM     11  C   UNL     1     151.689 157.233 200.867  1.00  0.00     0.087 C 
BRANCH  11  12
ATOM     12  C   UNL     1     152.356 158.632 200.875  1.00  0.00     0.066 C 
BRANCH  12  13
ATOM     13  C   UNL     1     151.397 159.757 201.240  1.00  0.00     0.140 C 
ATOM     14  O   UNL     1     151.032 159.846 202.404  1.00  0.00    -0.299 OA
BRANCH  13  15
ATOM     15  C   UNL     1     150.809 160.715 200.226  1.00  0.00     0.106 CG0
ATOM     16  G   UNL     1     149.535 160.154 199.616  1.00  0.00     0.000 G0
ENDBRANCH  13  15
ENDBRANCH  12  13
BRANCH  12  17
ATOM     17  C   UNL     1     153.665 158.712 201.722  1.00  0.00    -0.006 C 
ATOM     18  C   UNL     1     154.008 157.415 202.472  1.00  0.00     0.008 C 
ATOM     19  C   UNL     1     154.869 159.165 200.880  1.00  0.00     0.008 C 
ENDBRANCH  12  17
ENDBRANCH  11  12
ENDBRANCH   1  11
TORSDOF 1
ENDMDL
MODEL 4
REMARK VINA RESULT:    -2.934      7.353      8.328
REMARK INTER + INTRA:          -4.646
REMARK INTER:                  -4.624
REMARK INTRA:                  -0.022
REMARK UNBOUND:                -0.169
REMARK SMILES CC1=CCC[C@H](C)C(=O)C[C@H](C(C)C)C(=O)C1
REMARK SMILES IDX 8 1 9 2 6 3 7 4 5 5 4 6 3 7 2 8 1 9 10 11 11 12 15 13 16 14
REMARK SMILES IDX 17 15 12 17 13 18 14 19
REMARK H PARENT
REMARK Flexibility Score: 70.00
ROOT
ATOM      1  C   UNL     1     149.628 160.054 200.404  1.00  0.00     0.136 C 
ATOM      2  O   UNL     1     148.527 160.444 200.765  1.00  0.00    -0.299 OA
ENDROOT
BRANCH   1   3
ATOM      3  C   UNL     1     150.817 160.335 201.307  1.00  0.00     0.053 C 
ATOM      4  C   UNL     1     150.438 160.671 202.761  1.00  0.00     0.016 C 
BRANCH   3   5
ATOM      5  C   UNL     1     151.867 159.204 201.234  1.00  0.00     0.015 C 
BRANCH   5   6
ATOM      6  C   UNL     1     153.213 159.622 200.602  1.00  0.00     0.028 C 
BRANCH   6   7
ATOM      7  C   UNL     1     153.815 158.498 199.787  1.00  0.00    -0.028 C 
ATOM      8  C   UNL     1     153.743 158.325 198.445  1.00  0.00    -0.070 CG0
ATOM      9  C   UNL     1     154.391 157.089 197.869  1.00  0.00     0.039 C 
ATOM     10  G   UNL     1     153.073 159.290 197.482  1.00  0.00     0.000 G0
ENDBRANCH   6   7
ENDBRANCH   5   6
ENDBRANCH   3   5
ENDBRANCH   1   3
BRANCH   1  11
ATOM     11  C   UNL     1     149.755 159.249 199.124  1.00  0.00     0.087 C 
BRANCH  11  12
ATOM     12  C   UNL     1     150.572 159.966 198.020  1.00  0.00     0.066 C 
BRANCH  12  13
ATOM     13  C   UNL     1     151.607 159.069 197.353  1.00  0.00     0.140 C 
ATOM     14  O   UNL     1     151.209 158.077 196.758  1.00  0.00    -0.299 OA
BRANCH  13  15
ATOM     15  C   UNL     1     153.100 159.294 197.461  1.00  0.00     0.106 CG0
ATOM     16  G   UNL     1     153.733 158.315 198.435  1.00  0.00     0.000 G0
ENDBRANCH  13  15
ENDBRANCH  12  13
BRANCH  12  17
ATOM     17  C   UNL     1     149.700 160.704 196.956  1.00  0.00    -0.006 C 
ATOM     18  C   UNL     1     150.425 160.973 195.627  1.00  0.00     0.008 C 
ATOM     19  C   UNL     1     148.373 159.975 196.691  1.00  0.00     0.008 C 
ENDBRANCH  12  17
ENDBRANCH  11  12
ENDBRANCH   1  11
TORSDOF 1
ENDMDL
MODEL 5
REMARK VINA RESULT:    -2.893      7.143      9.038
REMARK INTER + INTRA:          -4.584
REMARK INTER:                  -4.372
REMARK INTRA:                  -0.212
REMARK UNBOUND:                -0.169
REMARK SMILES CC1=CCC[C@H](C)C(=O)C[C@H](C(C)C)C(=O)C1
REMARK SMILES IDX 8 1 9 2 6 3 7 4 5 5 4 6 3 7 2 8 1 9 10 11 11 12 15 13 16 14
REMARK SMILES IDX 17 15 12 17 13 18 14 19
REMARK H PARENT
REMARK Flexibility Score: 70.00
ROOT
ATOM      1  C   UNL     1     151.986 157.029 202.558  1.00  0.00     0.136 C 
ATOM      2  O   UNL     1     151.500 157.456 203.596  1.00  0.00    -0.299 OA
ENDROOT
BRANCH   1   3
ATOM      3  C   UNL     1     152.751 155.718 202.613  1.00  0.00     0.053 C 
ATOM      4  C   UNL     1     152.305 154.685 201.561  1.00  0.00     0.016 C 
BRANCH   3   5
ATOM      5  C   UNL     1     154.278 155.948 202.581  1.00  0.00     0.015 C 
BRANCH   5   6
ATOM      6  C   UNL     1     154.962 155.512 201.266  1.00  0.00     0.028 C 
BRANCH   6   7
ATOM      7  C   UNL     1     155.873 156.595 200.731  1.00  0.00    -0.028 C 
ATOM      8  C   UNL     1     155.536 157.626 199.919  1.00  0.00    -0.070 CG0
ATOM      9  C   UNL     1     156.643 158.555 199.482  1.00  0.00     0.039 C 
ATOM     10  G   UNL     1     154.127 157.922 199.435  1.00  0.00     0.000 G0
ENDBRANCH   6   7
ENDBRANCH   5   6
ENDBRANCH   3   5
ENDBRANCH   1   3
BRANCH   1  11
ATOM     11  C   UNL     1     151.747 157.774 201.258  1.00  0.00     0.087 C 
BRANCH  11  12
ATOM     12  C   UNL     1     152.484 159.135 201.178  1.00  0.00     0.066 C 
BRANCH  12  13
ATOM     13  C   UNL     1     153.562 159.177 200.104  1.00  0.00     0.140 C 
ATOM     14  O   UNL     1     153.945 160.273 199.718  1.00  0.00    -0.299 OA
BRANCH  13  15
ATOM     15  C   UNL     1     154.122 157.941 199.433  1.00  0.00     0.106 CG0
ATOM     16  G   UNL     1     155.526 157.636 199.929  1.00  0.00     0.000 G0
ENDBRANCH  13  15
ENDBRANCH  12  13
BRANCH  12  17
ATOM     17  C   UNL     1     151.536 160.371 201.072  1.00  0.00    -0.006 C 
ATOM     18  C   UNL     1     150.358 160.177 200.104  1.00  0.00     0.008 C 
ATOM     19  C   UNL     1     151.016 160.818 202.448  1.00  0.00     0.008 C 
ENDBRANCH  12  17
ENDBRANCH  11  12
ENDBRANCH   1  11
TORSDOF 1
ENDMDL
MODEL 6
REMARK VINA RESULT:    -2.844      7.449      9.267
REMARK INTER + INTRA:          -4.509
REMARK INTER:                  -4.280
REMARK INTRA:                  -0.229
REMARK UNBOUND:                -0.169
REMARK SMILES CC1=CCC[C@H](C)C(=O)C[C@H](C(C)C)C(=O)C1
REMARK SMILES IDX 8 1 9 2 6 3 7 4 5 5 4 6 3 7 2 8 1 9 10 11 11 12 15 13 16 14
REMARK SMILES IDX 17 15 12 17 13 18 14 19
REMARK H PARENT
REMARK Flexibility Score: 70.00
ROOT
ATOM      1  C   UNL     1     151.677 158.022 200.637  1.00  0.00     0.136 C 
ATOM      2  O   UNL     1     151.407 157.052 199.943  1.00  0.00    -0.299 OA
ENDROOT
BRANCH   1   3
ATOM      3  C   UNL     1     151.504 159.404 200.030  1.00  0.00     0.053 C 
ATOM      4  C   UNL     1     151.259 160.519 201.064  1.00  0.00     0.016 C 
BRANCH   3   5
ATOM      5  C   UNL     1     152.664 159.754 199.072  1.00  0.00     0.015 C 
BRANCH   5   6
ATOM      6  C   UNL     1     154.004 160.064 199.777  1.00  0.00     0.028 C 
BRANCH   6   7
ATOM      7  C   UNL     1     155.006 158.949 199.576  1.00  0.00    -0.028 C 
ATOM      8  C   UNL     1     155.492 158.100 200.514  1.00  0.00    -0.070 CG0
ATOM      9  C   UNL     1     156.527 157.094 200.071  1.00  0.00     0.039 C 
ATOM     10  G   UNL     1     155.058 158.078 201.970  1.00  0.00     0.000 G0
ENDBRANCH   6   7
ENDBRANCH   5   6
ENDBRANCH   3   5
ENDBRANCH   1   3
BRANCH   1  11
ATOM     11  C   UNL     1     152.093 157.817 202.081  1.00  0.00     0.087 C 
BRANCH  11  12
ATOM     12  C   UNL     1     152.919 156.526 202.311  1.00  0.00     0.066 C 
BRANCH  12  13
ATOM     13  C   UNL     1     154.421 156.769 202.371  1.00  0.00     0.140 C 
ATOM     14  O   UNL     1     155.130 155.878 202.817  1.00  0.00    -0.299 OA
BRANCH  13  15
ATOM     15  C   UNL     1     155.070 158.082 201.988  1.00  0.00     0.106 CG0
ATOM     16  G   UNL     1     155.473 158.088 200.523  1.00  0.00     0.000 G0
ENDBRANCH  13  15
ENDBRANCH  12  13
BRANCH  12  17
ATOM     17  C   UNL     1     152.440 155.667 203.523  1.00  0.00    -0.006 C 
ATOM     18  C   UNL     1     152.434 156.421 204.863  1.00  0.00     0.008 C 
ATOM     19  C   UNL     1     151.062 155.033 203.272  1.00  0.00     0.008 C 
ENDBRANCH  12  17
ENDBRANCH  11  12
ENDBRANCH   1  11
TORSDOF 1
ENDMDL
MODEL 7
REMARK VINA RESULT:    -2.813      2.020      3.813
REMARK INTER + INTRA:          -4.462
REMARK INTER:                  -4.279
REMARK INTRA:                  -0.183
REMARK UNBOUND:                -0.169
REMARK SMILES CC1=CCC[C@H](C)C(=O)C[C@H](C(C)C)C(=O)C1
REMARK SMILES IDX 8 1 9 2 6 3 7 4 5 5 4 6 3 7 2 8 1 9 10 11 11 12 15 13 16 14
REMARK SMILES IDX 17 15 12 17 13 18 14 19
REMARK H PARENT
REMARK Flexibility Score: 70.00
ROOT
ATOM      1  C   UNL     1     159.728 164.822 197.190  1.00  0.00     0.136 C 
ATOM      2  O   UNL     1     160.884 165.115 197.462  1.00  0.00    -0.299 OA
ENDROOT
BRANCH   1   3
ATOM      3  C   UNL     1     158.618 165.678 197.775  1.00  0.00     0.053 C 
ATOM      4  C   UNL     1     157.274 165.560 197.032  1.00  0.00     0.016 C 
BRANCH   3   5
ATOM      5  C   UNL     1     158.457 165.442 199.293  1.00  0.00     0.015 C 
BRANCH   5   6
ATOM      6  C   UNL     1     158.641 163.973 199.735  1.00  0.00     0.028 C 
BRANCH   6   7
ATOM      7  C   UNL     1     157.410 163.147 199.436  1.00  0.00    -0.028 C 
ATOM      8  C   UNL     1     157.364 161.910 198.883  1.00  0.00    -0.070 CG0
ATOM      9  C   UNL     1     156.000 161.309 198.641  1.00  0.00     0.039 C 
ATOM     10  G   UNL     1     158.582 161.084 198.507  1.00  0.00     0.000 G0
ENDBRANCH   6   7
ENDBRANCH   5   6
ENDBRANCH   3   5
ENDBRANCH   1   3
BRANCH   1  11
ATOM     11  C   UNL     1     159.450 163.679 196.231  1.00  0.00     0.087 C 
BRANCH  11  12
ATOM     12  C   UNL     1     160.061 162.329 196.684  1.00  0.00     0.066 C 
BRANCH  12  13
ATOM     13  C   UNL     1     159.016 161.296 197.085  1.00  0.00     0.140 C 
ATOM     14  O   UNL     1     158.456 160.670 196.196  1.00  0.00    -0.299 OA
BRANCH  13  15
ATOM     15  C   UNL     1     158.576 161.065 198.515  1.00  0.00     0.106 CG0
ATOM     16  G   UNL     1     157.362 161.911 198.859  1.00  0.00     0.000 G0
ENDBRANCH  13  15
ENDBRANCH  12  13
BRANCH  12  17
ATOM     17  C   UNL     1     161.092 161.724 195.681  1.00  0.00    -0.006 C 
ATOM     18  C   UNL     1     161.625 162.729 194.646  1.00  0.00     0.008 C 
ATOM     19  C   UNL     1     162.266 161.042 196.402  1.00  0.00     0.008 C 
ENDBRANCH  12  17
ENDBRANCH  11  12
ENDBRANCH   1  11
TORSDOF 1
ENDMDL
MODEL 8
REMARK VINA RESULT:    -2.678      2.256      3.826
REMARK INTER + INTRA:          -4.256
REMARK INTER:                  -4.035
REMARK INTRA:                  -0.221
REMARK UNBOUND:                -0.169
REMARK SMILES CC1=CCC[C@H](C)C(=O)C[C@H](C(C)C)C(=O)C1
REMARK SMILES IDX 8 1 9 2 6 3 7 4 5 5 4 6 3 7 2 8 1 9 10 11 11 12 15 13 16 14
REMARK SMILES IDX 17 15 12 17 13 18 14 19
REMARK H PARENT
REMARK Flexibility Score: 70.00
ROOT
ATOM      1  C   UNL     1     160.243 163.442 196.767  1.00  0.00     0.136 C 
ATOM      2  O   UNL     1     161.139 164.255 196.592  1.00  0.00    -0.299 OA
ENDROOT
BRANCH   1   3
ATOM      3  C   UNL     1     159.851 162.548 195.604  1.00  0.00     0.053 C 
ATOM      4  C   UNL     1     160.854 162.560 194.435  1.00  0.00     0.016 C 
BRANCH   3   5
ATOM      5  C   UNL     1     159.532 161.111 196.072  1.00  0.00     0.015 C 
BRANCH   5   6
ATOM      6  C   UNL     1     158.061 160.685 195.868  1.00  0.00     0.028 C 
BRANCH   6   7
ATOM      7  C   UNL     1     157.576 159.811 197.004  1.00  0.00    -0.028 C 
ATOM      8  C   UNL     1     156.831 160.187 198.071  1.00  0.00    -0.070 CG0
ATOM      9  C   UNL     1     156.511 159.131 199.102  1.00  0.00     0.039 C 
ATOM     10  G   UNL     1     156.284 161.587 198.295  1.00  0.00     0.000 G0
ENDBRANCH   6   7
ENDBRANCH   5   6
ENDBRANCH   3   5
ENDBRANCH   1   3
BRANCH   1  11
ATOM     11  C   UNL     1     159.617 163.302 198.143  1.00  0.00     0.087 C 
BRANCH  11  12
ATOM     12  C   UNL     1     158.088 163.556 198.156  1.00  0.00     0.066 C 
BRANCH  12  13
ATOM     13  C   UNL     1     157.307 162.508 198.935  1.00  0.00     0.140 C 
ATOM     14  O   UNL     1     157.578 162.350 200.117  1.00  0.00    -0.299 OA
BRANCH  13  15
ATOM     15  C   UNL     1     156.275 161.596 198.305  1.00  0.00     0.106 CG0
ATOM     16  G   UNL     1     156.838 160.202 198.083  1.00  0.00     0.000 G0
ENDBRANCH  13  15
ENDBRANCH  12  13
BRANCH  12  17
ATOM     17  C   UNL     1     157.683 164.999 198.593  1.00  0.00    -0.006 C 
ATOM     18  C   UNL     1     158.650 165.646 199.598  1.00  0.00     0.008 C 
ATOM     19  C   UNL     1     157.480 165.931 197.387  1.00  0.00     0.008 C 
ENDBRANCH  12  17
ENDBRANCH  11  12
ENDBRANCH   1  11
TORSDOF 1
ENDMDL
MODEL 9
REMARK VINA RESULT:    -2.620      6.816      8.333
REMARK INTER + INTRA:          -4.168
REMARK INTER:                  -4.086
REMARK INTRA:                  -0.082
REMARK UNBOUND:                -0.169
REMARK SMILES CC1=CCC[C@H](C)C(=O)C[C@H](C(C)C)C(=O)C1
REMARK SMILES IDX 8 1 9 2 6 3 7 4 5 5 4 6 3 7 2 8 1 9 10 11 11 12 15 13 16 14
REMARK SMILES IDX 17 15 12 17 13 18 14 19
REMARK H PARENT
REMARK Flexibility Score: 70.00
ROOT
ATOM      1  C   UNL     1     154.290 159.625 199.324  1.00  0.00     0.136 C 
ATOM      2  O   UNL     1     154.889 160.569 198.828  1.00  0.00    -0.299 OA
ENDROOT
BRANCH   1   3
ATOM      3  C   UNL     1     154.550 158.238 198.761  1.00  0.00     0.053 C 
ATOM      4  C   UNL     1     154.300 158.117 197.246  1.00  0.00     0.016 C 
BRANCH   3   5
ATOM      5  C   UNL     1     155.950 157.717 199.154  1.00  0.00     0.015 C 
BRANCH   5   6
ATOM      6  C   UNL     1     156.180 157.590 200.677  1.00  0.00     0.028 C 
BRANCH   6   7
ATOM      7  C   UNL     1     155.508 156.356 201.237  1.00  0.00    -0.028 C 
ATOM      8  C   UNL     1     154.375 156.302 201.979  1.00  0.00    -0.070 CG0
ATOM      9  C   UNL     1     153.927 154.944 202.463  1.00  0.00     0.039 C 
ATOM     10  G   UNL     1     153.519 157.504 202.342  1.00  0.00     0.000 G0
ENDBRANCH   6   7
ENDBRANCH   5   6
ENDBRANCH   3   5
ENDBRANCH   1   3
BRANCH   1  11
ATOM     11  C   UNL     1     153.381 159.857 200.517  1.00  0.00     0.087 C 
BRANCH  11  12
ATOM     12  C   UNL     1     152.149 158.918 200.549  1.00  0.00     0.066 C 
BRANCH  12  13
ATOM     13  C   UNL     1     152.357 157.675 201.404  1.00  0.00     0.140 C 
ATOM     14  O   UNL     1     151.499 156.804 201.369  1.00  0.00    -0.299 OA
BRANCH  13  15
ATOM     15  C   UNL     1     153.521 157.502 202.356  1.00  0.00     0.106 CG0
ATOM     16  G   UNL     1     154.362 156.293 201.979  1.00  0.00     0.000 G0
ENDBRANCH  13  15
ENDBRANCH  12  13
BRANCH  12  17
ATOM     17  C   UNL     1     150.809 159.632 200.910  1.00  0.00    -0.006 C 
ATOM     18  C   UNL     1     150.943 160.700 202.007  1.00  0.00     0.008 C 
ATOM     19  C   UNL     1     150.125 160.234 199.672  1.00  0.00     0.008 C 
ENDBRANCH  12  17
ENDBRANCH  11  12
ENDBRANCH   1  11
TORSDOF 1
ENDMDL
