MODEL 1
REMARK VINA RESULT:    -3.108      0.000      0.000
REMARK INTER + INTRA:          -3.609
REMARK INTER:                  -3.563
REMARK INTRA:                  -0.046
REMARK UNBOUND:                -0.046
REMARK SMILES CC(C)[C@@H]([NH3+])C(=O)[O-]
REMARK SMILES IDX 4 1 5 2 6 6 7 7 8 8 2 9 1 10 3 11
REMARK H PARENT 5 3 5 4 5 5
REMARK Flexibility Score: inf
ROOT
ATOM      1  C   UNL     1       5.347  -0.739   0.557  1.00  0.00     0.230 C 
ENDROOT
BRANCH   1   2
ATOM      2  N   UNL     1       4.346  -0.597   1.625  1.00  0.00    -0.350 N 
ATOM      3  H   UNL     1       3.417  -0.310   1.244  1.00  0.00     0.345 HD
ATOM      4  H   UNL     1       4.233  -1.512   2.121  1.00  0.00     0.345 HD
ATOM      5  H   UNL     1       4.666   0.112   2.324  1.00  0.00     0.345 HD
ENDBRANCH   1   2
BRANCH   1   6
ATOM      6  C   UNL     1       5.365   0.485  -0.328  1.00  0.00     0.099 C 
ATOM      7  O   UNL     1       5.580   1.628   0.156  1.00  0.00    -0.544 OA
ATOM      8  O   UNL     1       5.175   0.350  -1.698  1.00  0.00    -0.544 OA
ENDBRANCH   1   6
BRANCH   1   9
ATOM      9  C   UNL     1       6.753  -1.094   1.126  1.00  0.00     0.047 C 
ATOM     10  C   UNL     1       7.891  -0.940   0.102  1.00  0.00     0.014 C 
ATOM     11  C   UNL     1       6.772  -2.511   1.723  1.00  0.00     0.014 C 
ENDBRANCH   1   9
TORSDOF 3
ENDMDL
MODEL 2
REMARK VINA RESULT:    -3.087      2.075      2.257
REMARK INTER + INTRA:          -3.584
REMARK INTER:                  -3.509
REMARK INTRA:                  -0.075
REMARK UNBOUND:                -0.046
REMARK SMILES CC(C)[C@@H]([NH3+])C(=O)[O-]
REMARK SMILES IDX 4 1 5 2 6 6 7 7 8 8 2 9 1 10 3 11
REMARK H PARENT 5 3 5 4 5 5
REMARK Flexibility Score: inf
ROOT
ATOM      1  C   UNL     1       6.450   0.887  -0.525  1.00  0.00     0.230 C 
ENDROOT
BRANCH   1   2
ATOM      2  N   UNL     1       6.909   0.808  -1.920  1.00  0.00    -0.350 N 
ATOM      3  H   UNL     1       7.658   1.509  -2.116  1.00  0.00     0.345 HD
ATOM      4  H   UNL     1       7.290  -0.148  -2.108  1.00  0.00     0.345 HD
ATOM      5  H   UNL     1       6.107   0.970  -2.570  1.00  0.00     0.345 HD
ENDBRANCH   1   2
BRANCH   1   6
ATOM      6  C   UNL     1       5.116   1.591  -0.437  1.00  0.00     0.099 C 
ATOM      7  O   UNL     1       4.683   2.018   0.666  1.00  0.00    -0.544 OA
ATOM      8  O   UNL     1       4.369   1.802  -1.589  1.00  0.00    -0.544 OA
ENDBRANCH   1   6
BRANCH   1   9
ATOM      9  C   UNL     1       6.440  -0.512   0.160  1.00  0.00     0.047 C 
ATOM     10  C   UNL     1       7.810  -1.211   0.159  1.00  0.00     0.014 C 
ATOM     11  C   UNL     1       5.380  -1.433  -0.466  1.00  0.00     0.014 C 
ENDBRANCH   1   9
TORSDOF 3
ENDMDL
MODEL 3
REMARK VINA RESULT:    -3.073      1.822      2.508
REMARK INTER + INTRA:          -3.568
REMARK INTER:                  -3.495
REMARK INTRA:                  -0.073
REMARK UNBOUND:                -0.046
REMARK SMILES CC(C)[C@@H]([NH3+])C(=O)[O-]
REMARK SMILES IDX 4 1 5 2 6 6 7 7 8 8 2 9 1 10 3 11
REMARK H PARENT 5 3 5 4 5 5
REMARK Flexibility Score: inf
ROOT
ATOM      1  C   UNL     1       5.670  -1.343   0.446  1.00  0.00     0.230 C 
ENDROOT
BRANCH   1   2
ATOM      2  N   UNL     1       4.567  -0.405   0.707  1.00  0.00    -0.350 N 
ATOM      3  H   UNL     1       4.421  -0.261   1.731  1.00  0.00     0.345 HD
ATOM      4  H   UNL     1       4.785   0.520   0.268  1.00  0.00     0.345 HD
ATOM      5  H   UNL     1       3.683  -0.765   0.280  1.00  0.00     0.345 HD
ENDBRANCH   1   2
BRANCH   1   6
ATOM      6  C   UNL     1       6.946  -0.598   0.135  1.00  0.00     0.099 C 
ATOM      7  O   UNL     1       8.006  -1.221  -0.142  1.00  0.00    -0.544 OA
ATOM      8  O   UNL     1       6.950   0.792   0.120  1.00  0.00    -0.544 OA
ENDBRANCH   1   6
BRANCH   1   9
ATOM      9  C   UNL     1       5.839  -2.372   1.603  1.00  0.00     0.047 C 
ATOM     10  C   UNL     1       4.625  -3.298   1.788  1.00  0.00     0.014 C 
ATOM     11  C   UNL     1       6.173  -1.671   2.930  1.00  0.00     0.014 C 
ENDBRANCH   1   9
TORSDOF 3
ENDMDL
MODEL 4
REMARK VINA RESULT:    -3.030      1.070      1.932
REMARK INTER + INTRA:          -3.520
REMARK INTER:                  -3.540
REMARK INTRA:                   0.020
REMARK UNBOUND:                -0.046
REMARK SMILES CC(C)[C@@H]([NH3+])C(=O)[O-]
REMARK SMILES IDX 4 1 5 2 6 6 7 7 8 8 2 9 1 10 3 11
REMARK H PARENT 5 3 5 4 5 5
REMARK Flexibility Score: inf
ROOT
ATOM      1  C   UNL     1       5.709  -1.449  -0.383  1.00  0.00     0.230 C 
ENDROOT
BRANCH   1   2
ATOM      2  N   UNL     1       4.539  -2.122   0.200  1.00  0.00    -0.350 N 
ATOM      3  H   UNL     1       4.789  -3.060   0.585  1.00  0.00     0.345 HD
ATOM      4  H   UNL     1       4.151  -1.537   0.976  1.00  0.00     0.345 HD
ATOM      5  H   UNL     1       3.792  -2.234  -0.524  1.00  0.00     0.345 HD
ENDBRANCH   1   2
BRANCH   1   6
ATOM      6  C   UNL     1       5.489   0.044  -0.457  1.00  0.00     0.099 C 
ATOM      7  O   UNL     1       5.617   0.662  -1.547  1.00  0.00    -0.544 OA
ATOM      8  O   UNL     1       5.110   0.744   0.682  1.00  0.00    -0.544 OA
ENDBRANCH   1   6
BRANCH   1   9
ATOM      9  C   UNL     1       7.024  -1.830   0.359  1.00  0.00     0.047 C 
ATOM     10  C   UNL     1       6.816  -2.189   1.840  1.00  0.00     0.014 C 
ATOM     11  C   UNL     1       8.079  -0.719   0.231  1.00  0.00     0.014 C 
ENDBRANCH   1   9
TORSDOF 3
ENDMDL
MODEL 5
REMARK VINA RESULT:    -3.014      2.746      3.462
REMARK INTER + INTRA:          -3.501
REMARK INTER:                  -3.453
REMARK INTRA:                  -0.048
REMARK UNBOUND:                -0.046
REMARK SMILES CC(C)[C@@H]([NH3+])C(=O)[O-]
REMARK SMILES IDX 4 1 5 2 6 6 7 7 8 8 2 9 1 10 3 11
REMARK H PARENT 5 3 5 4 5 5
REMARK Flexibility Score: inf
ROOT
ATOM      1  C   UNL     1       6.083  -1.892   1.643  1.00  0.00     0.230 C 
ENDROOT
BRANCH   1   2
ATOM      2  N   UNL     1       7.284  -2.709   1.873  1.00  0.00    -0.350 N 
ATOM      3  H   UNL     1       8.147  -2.121   1.902  1.00  0.00     0.345 HD
ATOM      4  H   UNL     1       7.194  -3.212   2.786  1.00  0.00     0.345 HD
ATOM      5  H   UNL     1       7.380  -3.425   1.117  1.00  0.00     0.345 HD
ENDBRANCH   1   2
BRANCH   1   6
ATOM      6  C   UNL     1       5.607  -1.262   2.931  1.00  0.00     0.099 C 
ATOM      7  O   UNL     1       4.715  -0.372   2.922  1.00  0.00    -0.544 OA
ATOM      8  O   UNL     1       6.134  -1.686   4.144  1.00  0.00    -0.544 OA
ENDBRANCH   1   6
BRANCH   1   9
ATOM      9  C   UNL     1       6.301  -0.850   0.505  1.00  0.00     0.047 C 
ATOM     10  C   UNL     1       5.353  -1.036  -0.691  1.00  0.00     0.014 C 
ATOM     11  C   UNL     1       7.761  -0.847   0.024  1.00  0.00     0.014 C 
ENDBRANCH   1   9
TORSDOF 3
ENDMDL
MODEL 6
REMARK VINA RESULT:    -2.994      8.156      9.234
REMARK INTER + INTRA:          -3.479
REMARK INTER:                  -3.418
REMARK INTRA:                  -0.061
REMARK UNBOUND:                -0.046
REMARK SMILES CC(C)[C@@H]([NH3+])C(=O)[O-]
REMARK SMILES IDX 4 1 5 2 6 6 7 7 8 8 2 9 1 10 3 11
REMARK H PARENT 5 3 5 4 5 5
REMARK Flexibility Score: inf
ROOT
ATOM      1  C   UNL     1       4.517   6.186  -4.956  1.00  0.00     0.230 C 
ENDROOT
BRANCH   1   2
ATOM      2  N   UNL     1       3.870   5.594  -3.775  1.00  0.00    -0.350 N 
ATOM      3  H   UNL     1       4.572   5.315  -3.054  1.00  0.00     0.345 HD
ATOM      4  H   UNL     1       3.215   6.291  -3.351  1.00  0.00     0.345 HD
ATOM      5  H   UNL     1       3.312   4.755  -4.056  1.00  0.00     0.345 HD
ENDBRANCH   1   2
BRANCH   1   6
ATOM      6  C   UNL     1       5.951   5.725  -5.070  1.00  0.00     0.099 C 
ATOM      7  O   UNL     1       6.898   6.557  -5.070  1.00  0.00    -0.544 OA
ATOM      8  O   UNL     1       6.238   4.368  -5.144  1.00  0.00    -0.544 OA
ENDBRANCH   1   6
BRANCH   1   9
ATOM      9  C   UNL     1       3.696   5.930  -6.255  1.00  0.00     0.047 C 
ATOM     10  C   UNL     1       4.460   6.271  -7.546  1.00  0.00     0.014 C 
ATOM     11  C   UNL     1       2.355   6.680  -6.224  1.00  0.00     0.014 C 
ENDBRANCH   1   9
TORSDOF 3
ENDMDL
MODEL 7
REMARK VINA RESULT:    -2.994      2.513      3.076
REMARK INTER + INTRA:          -3.478
REMARK INTER:                  -3.406
REMARK INTRA:                  -0.072
REMARK UNBOUND:                -0.046
REMARK SMILES CC(C)[C@@H]([NH3+])C(=O)[O-]
REMARK SMILES IDX 4 1 5 2 6 6 7 7 8 8 2 9 1 10 3 11
REMARK H PARENT 5 3 5 4 5 5
REMARK Flexibility Score: inf
ROOT
ATOM      1  C   UNL     1       5.373  -0.832   0.536  1.00  0.00     0.230 C 
ENDROOT
BRANCH   1   2
ATOM      2  N   UNL     1       4.867  -1.715  -0.526  1.00  0.00    -0.350 N 
ATOM      3  H   UNL     1       4.638  -2.665  -0.157  1.00  0.00     0.345 HD
ATOM      4  H   UNL     1       4.000  -1.300  -0.940  1.00  0.00     0.345 HD
ATOM      5  H   UNL     1       5.579  -1.803  -1.287  1.00  0.00     0.345 HD
ENDBRANCH   1   2
BRANCH   1   6
ATOM      6  C   UNL     1       5.499  -1.580   1.842  1.00  0.00     0.099 C 
ATOM      7  O   UNL     1       5.329  -2.827   1.890  1.00  0.00    -0.544 OA
ATOM      8  O   UNL     1       5.836  -0.894   3.002  1.00  0.00    -0.544 OA
ENDBRANCH   1   6
BRANCH   1   9
ATOM      9  C   UNL     1       6.695  -0.122   0.117  1.00  0.00     0.047 C 
ATOM     10  C   UNL     1       6.607   0.595  -1.241  1.00  0.00     0.014 C 
ATOM     11  C   UNL     1       7.879  -1.102   0.119  1.00  0.00     0.014 C 
ENDBRANCH   1   9
TORSDOF 3
ENDMDL
MODEL 8
REMARK VINA RESULT:    -2.968      7.699      8.521
REMARK INTER + INTRA:          -3.449
REMARK INTER:                  -3.400
REMARK INTRA:                  -0.049
REMARK UNBOUND:                -0.046
REMARK SMILES CC(C)[C@@H]([NH3+])C(=O)[O-]
REMARK SMILES IDX 4 1 5 2 6 6 7 7 8 8 2 9 1 10 3 11
REMARK H PARENT 5 3 5 4 5 5
REMARK Flexibility Score: inf
ROOT
ATOM      1  C   UNL     1       5.590   5.163  -5.250  1.00  0.00     0.230 C 
ENDROOT
BRANCH   1   2
ATOM      2  N   UNL     1       6.293   3.963  -4.774  1.00  0.00    -0.350 N 
ATOM      3  H   UNL     1       5.633   3.168  -4.620  1.00  0.00     0.345 HD
ATOM      4  H   UNL     1       7.006   3.672  -5.483  1.00  0.00     0.345 HD
ATOM      5  H   UNL     1       6.793   4.172  -3.879  1.00  0.00     0.345 HD
ENDBRANCH   1   2
BRANCH   1   6
ATOM      6  C   UNL     1       4.514   5.579  -4.274  1.00  0.00     0.099 C 
ATOM      7  O   UNL     1       3.978   6.716  -4.351  1.00  0.00    -0.544 OA
ATOM      8  O   UNL     1       4.085   4.689  -3.298  1.00  0.00    -0.544 OA
ENDBRANCH   1   6
BRANCH   1   9
ATOM      9  C   UNL     1       6.580   6.319  -5.586  1.00  0.00     0.047 C 
ATOM     10  C   UNL     1       6.548   6.749  -7.062  1.00  0.00     0.014 C 
ATOM     11  C   UNL     1       8.016   5.960  -5.172  1.00  0.00     0.014 C 
ENDBRANCH   1   9
TORSDOF 3
ENDMDL
MODEL 9
REMARK VINA RESULT:    -2.961      2.380      2.998
REMARK INTER + INTRA:          -3.441
REMARK INTER:                  -3.385
REMARK INTRA:                  -0.056
REMARK UNBOUND:                -0.046
REMARK SMILES CC(C)[C@@H]([NH3+])C(=O)[O-]
REMARK SMILES IDX 4 1 5 2 6 6 7 7 8 8 2 9 1 10 3 11
REMARK H PARENT 5 3 5 4 5 5
REMARK Flexibility Score: inf
ROOT
ATOM      1  C   UNL     1       6.962  -1.556   1.843  1.00  0.00     0.230 C 
ENDROOT
BRANCH   1   2
ATOM      2  N   UNL     1       7.321  -2.959   1.586  1.00  0.00    -0.350 N 
ATOM      3  H   UNL     1       8.135  -3.032   0.935  1.00  0.00     0.345 HD
ATOM      4  H   UNL     1       7.574  -3.426   2.488  1.00  0.00     0.345 HD
ATOM      5  H   UNL     1       6.505  -3.468   1.176  1.00  0.00     0.345 HD
ENDBRANCH   1   2
BRANCH   1   6
ATOM      6  C   UNL     1       7.081  -0.731   0.584  1.00  0.00     0.099 C 
ATOM      7  O   UNL     1       7.926  -1.025  -0.303  1.00  0.00    -0.544 OA
ATOM      8  O   UNL     1       6.229   0.348   0.381  1.00  0.00    -0.544 OA
ENDBRANCH   1   6
BRANCH   1   9
ATOM      9  C   UNL     1       5.563  -1.432   2.518  1.00  0.00     0.047 C 
ATOM     10  C   UNL     1       5.623  -1.348   4.052  1.00  0.00     0.014 C 
ATOM     11  C   UNL     1       4.634  -2.578   2.089  1.00  0.00     0.014 C 
ENDBRANCH   1   9
TORSDOF 3
ENDMDL
