MODEL 1
REMARK VINA RESULT:    -6.915      0.000      0.000
REMARK INTER + INTRA:         -10.039
REMARK INTER:                  -9.543
REMARK INTRA:                  -0.496
REMARK UNBOUND:                -0.496
REMARK SMILES CC[C@@H](CC[C@@H](C)[C@@H]1CC[C@@H]2[C@H]3CC=C4C[C@@H](O)CC[C@]4(C)[C@H]3CC[C@]21C)C(C)C
REMARK SMILES IDX 5 1 4 2 3 3 2 4 1 5 28 6 29 7 30 8 6 9 7 10 8 11 9 12 26 13
REMARK SMILES IDX 10 14 11 15 25 16 27 17 12 18 24 19 23 20 13 21 21 22 14 23
REMARK SMILES IDX 15 24 20 25 22 26 16 27 19 28 17 29 18 30
REMARK H PARENT 18 31
REMARK Flexibility Score: inf
ROOT
ATOM      1  C   UNL     1      13.356  11.722  32.825  1.00  0.00     0.004 C 
ENDROOT
BRANCH   1   2
ATOM      2  C   UNL     1      12.286  12.503  33.627  1.00  0.00     0.004 C 
BRANCH   2   3
ATOM      3  C   UNL     1      12.750  13.130  34.981  1.00  0.00    -0.009 C 
BRANCH   3   4
ATOM      4  C   UNL     1      14.012  14.016  34.761  1.00  0.00     0.000 C 
ATOM      5  C   UNL     1      13.746  15.255  33.895  1.00  0.00     0.004 C 
ENDBRANCH   3   4
BRANCH   3   6
ATOM      6  C   UNL     1      12.965  12.056  36.097  1.00  0.00    -0.014 C 
ATOM      7  C   UNL     1      11.967  10.883  36.039  1.00  0.00     0.007 C 
ATOM      8  C   UNL     1      14.408  11.520  36.125  1.00  0.00     0.007 C 
ENDBRANCH   3   6
ENDBRANCH   2   3
ENDBRANCH   1   2
BRANCH   1   9
ATOM      9  C   UNL     1      13.219  11.777  31.275  1.00  0.00    -0.011 C 
ATOM     10  C   UNL     1      11.875  11.148  30.835  1.00  0.00     0.008 C 
BRANCH   9  11
ATOM     11  C   UNL     1      13.314  13.249  30.733  1.00  0.00    -0.002 C 
ATOM     12  C   UNL     1      11.986  14.038  30.905  1.00  0.00     0.005 C 
ATOM     13  C   UNL     1      13.700  13.485  29.241  1.00  0.00    -0.026 C 
ATOM     14  C   UNL     1      11.898  15.044  29.750  1.00  0.00     0.005 C 
ATOM     15  C   UNL     1      13.254  14.953  29.074  1.00  0.00    -0.001 C 
ATOM     16  C   UNL     1      15.229  13.386  28.927  1.00  0.00     0.007 C 
ATOM     17  C   UNL     1      12.912  12.520  28.294  1.00  0.00     0.012 C 
ATOM     18  C   UNL     1      13.363  15.447  27.617  1.00  0.00     0.000 C 
ATOM     19  C   UNL     1      15.794  14.578  28.109  1.00  0.00     0.005 C 
ATOM     20  C   UNL     1      14.807  15.156  27.037  1.00  0.00     0.003 C 
ATOM     21  C   UNL     1      12.933  16.918  27.502  1.00  0.00     0.031 C 
ATOM     22  C   UNL     1      15.436  16.357  26.196  1.00  0.00    -0.008 C 
ATOM     23  C   UNL     1      13.182  17.411  26.114  1.00  0.00    -0.027 C 
ATOM     24  C   UNL     1      14.332  17.137  25.470  1.00  0.00    -0.065 C 
ATOM     25  C   UNL     1      16.426  15.769  25.147  1.00  0.00     0.014 C 
ATOM     26  C   UNL     1      16.201  17.359  27.114  1.00  0.00     0.016 C 
ATOM     27  C   UNL     1      14.498  17.734  24.079  1.00  0.00     0.063 C 
ATOM     28  C   UNL     1      16.916  16.830  24.157  1.00  0.00     0.033 C 
ATOM     29  C   UNL     1      15.763  17.334  23.286  1.00  0.00     0.118 C 
BRANCH  29  30
ATOM     30  O   UNL     1      16.207  18.452  22.551  1.00  0.00    -0.393 OA
ATOM     31  H   UNL     1      17.138  18.269  22.267  1.00  0.00     0.210 HD
ENDBRANCH  29  30
ENDBRANCH   9  11
ENDBRANCH   1   9
TORSDOF 7
ENDMDL
MODEL 2
REMARK VINA RESULT:    -5.841      1.203      2.379
REMARK INTER + INTRA:          -8.556
REMARK INTER:                  -7.867
REMARK INTRA:                  -0.689
REMARK UNBOUND:                -0.496
REMARK SMILES CC[C@@H](CC[C@@H](C)[C@@H]1CC[C@@H]2[C@H]3CC=C4C[C@@H](O)CC[C@]4(C)[C@H]3CC[C@]21C)C(C)C
REMARK SMILES IDX 5 1 4 2 3 3 2 4 1 5 28 6 29 7 30 8 6 9 7 10 8 11 9 12 26 13
REMARK SMILES IDX 10 14 11 15 25 16 27 17 12 18 24 19 23 20 13 21 21 22 14 23
REMARK SMILES IDX 15 24 20 25 22 26 16 27 19 28 17 29 18 30
REMARK H PARENT 18 31
REMARK Flexibility Score: inf
ROOT
ATOM      1  C   UNL     1      12.712  13.376  32.835  1.00  0.00     0.004 C 
ENDROOT
BRANCH   1   2
ATOM      2  C   UNL     1      11.943  13.297  34.176  1.00  0.00     0.004 C 
BRANCH   2   3
ATOM      3  C   UNL     1      12.807  13.318  35.477  1.00  0.00    -0.009 C 
BRANCH   3   4
ATOM      4  C   UNL     1      14.187  13.983  35.199  1.00  0.00     0.000 C 
ATOM      5  C   UNL     1      14.190  15.502  35.424  1.00  0.00     0.004 C 
ENDBRANCH   3   4
BRANCH   3   6
ATOM      6  C   UNL     1      12.950  11.902  36.125  1.00  0.00    -0.014 C 
ATOM      7  C   UNL     1      11.892  10.886  35.652  1.00  0.00     0.007 C 
ATOM      8  C   UNL     1      14.361  11.315  35.945  1.00  0.00     0.007 C 
ENDBRANCH   3   6
ENDBRANCH   2   3
ENDBRANCH   1   2
BRANCH   1   9
ATOM      9  C   UNL     1      12.994  12.015  32.131  1.00  0.00    -0.011 C 
ATOM     10  C   UNL     1      11.876  10.999  32.466  1.00  0.00     0.008 C 
BRANCH   9  11
ATOM     11  C   UNL     1      13.110  12.178  30.573  1.00  0.00    -0.002 C 
ATOM     12  C   UNL     1      13.683  10.911  29.879  1.00  0.00     0.005 C 
ATOM     13  C   UNL     1      13.968  13.344  29.993  1.00  0.00    -0.026 C 
ATOM     14  C   UNL     1      14.456  11.378  28.639  1.00  0.00     0.005 C 
ATOM     15  C   UNL     1      14.138  12.859  28.537  1.00  0.00    -0.001 C 
ATOM     16  C   UNL     1      13.266  14.741  29.978  1.00  0.00     0.007 C 
ATOM     17  C   UNL     1      15.340  13.460  30.737  1.00  0.00     0.012 C 
ATOM     18  C   UNL     1      15.100  13.745  27.722  1.00  0.00     0.000 C 
ATOM     19  C   UNL     1      13.343  15.484  28.616  1.00  0.00     0.005 C 
ATOM     20  C   UNL     1      14.685  15.269  27.835  1.00  0.00     0.003 C 
ATOM     21  C   UNL     1      15.220  13.241  26.276  1.00  0.00     0.031 C 
ATOM     22  C   UNL     1      14.738  16.073  26.459  1.00  0.00    -0.008 C 
ATOM     23  C   UNL     1      16.043  14.195  25.473  1.00  0.00    -0.027 C 
ATOM     24  C   UNL     1      15.858  15.525  25.563  1.00  0.00    -0.065 C 
ATOM     25  C   UNL     1      15.013  17.575  26.766  1.00  0.00     0.014 C 
ATOM     26  C   UNL     1      13.397  15.950  25.673  1.00  0.00     0.016 C 
ATOM     27  C   UNL     1      16.717  16.400  24.660  1.00  0.00     0.063 C 
ATOM     28  C   UNL     1      15.291  18.384  25.495  1.00  0.00     0.033 C 
ATOM     29  C   UNL     1      16.595  17.930  24.836  1.00  0.00     0.118 C 
BRANCH  29  30
ATOM     30  O   UNL     1      16.697  18.540  23.569  1.00  0.00    -0.393 OA
ATOM     31  H   UNL     1      17.371  19.261  23.640  1.00  0.00     0.210 HD
ENDBRANCH  29  30
ENDBRANCH   9  11
ENDBRANCH   1   9
TORSDOF 7
ENDMDL
