MODEL 1
REMARK VINA RESULT:    -4.503      0.000      0.000
REMARK INTER + INTRA:          -5.118
REMARK INTER:                  -4.898
REMARK INTRA:                  -0.220
REMARK UNBOUND:                -0.220
REMARK SMILES O=C([O-])c1ccccc1O
REMARK SMILES IDX 4 1 9 2 5 3 8 4 6 5 7 6 2 7 1 8 3 9 10 10
REMARK H PARENT 10 11
REMARK Flexibility Score: inf
ROOT
ATOM      1  C   UNL     1      -1.305  -0.297   1.680  1.00  0.00     0.039 A 
ATOM      2  C   UNL     1      -0.031   0.306   1.837  1.00  0.00     0.124 A 
ATOM      3  C   UNL     1      -1.707  -0.716   0.397  1.00  0.00     0.014 A 
ATOM      4  C   UNL     1       0.825   0.415   0.732  1.00  0.00     0.047 A 
ATOM      5  C   UNL     1      -0.850  -0.581  -0.698  1.00  0.00     0.001 A 
ATOM      6  C   UNL     1       0.417  -0.025  -0.528  1.00  0.00     0.004 A 
ENDROOT
BRANCH   1   7
ATOM      7  C   UNL     1      -2.215  -0.537   2.821  1.00  0.00     0.075 C 
ATOM      8  O   UNL     1      -2.119   0.162   3.865  1.00  0.00    -0.545 OA
ATOM      9  O   UNL     1      -3.229  -1.483   2.736  1.00  0.00    -0.545 OA
ENDBRANCH   1   7
BRANCH   2  10
ATOM     10  O   UNL     1       0.406   0.837   3.052  1.00  0.00    -0.507 OA
ATOM     11  H   UNL     1       0.247   1.797   3.327  1.00  0.00     0.293 HD
ENDBRANCH   2  10
TORSDOF 2
ENDMDL
MODEL 2
REMARK VINA RESULT:    -4.467      1.847      3.389
REMARK INTER + INTRA:          -5.079
REMARK INTER:                  -4.851
REMARK INTRA:                  -0.228
REMARK UNBOUND:                -0.220
REMARK SMILES O=C([O-])c1ccccc1O
REMARK SMILES IDX 4 1 9 2 5 3 8 4 6 5 7 6 2 7 1 8 3 9 10 10
REMARK H PARENT 10 11
REMARK Flexibility Score: inf
ROOT
ATOM      1  C   UNL     1      -0.902  -0.344   1.205  1.00  0.00     0.039 A 
ATOM      2  C   UNL     1      -0.707   0.043   2.555  1.00  0.00     0.124 A 
ATOM      3  C   UNL     1      -1.989  -1.180   0.887  1.00  0.00     0.014 A 
ATOM      4  C   UNL     1      -1.628  -0.358   3.532  1.00  0.00     0.047 A 
ATOM      5  C   UNL     1      -2.887  -1.588   1.876  1.00  0.00     0.001 A 
ATOM      6  C   UNL     1      -2.712  -1.170   3.194  1.00  0.00     0.004 A 
ENDROOT
BRANCH   1   7
ATOM      7  C   UNL     1      -0.027   0.128   0.110  1.00  0.00     0.075 C 
ATOM      8  O   UNL     1       1.175   0.424   0.343  1.00  0.00    -0.545 OA
ATOM      9  O   UNL     1      -0.493   0.186  -1.197  1.00  0.00    -0.545 OA
ENDBRANCH   1   7
BRANCH   2  10
ATOM     10  O   UNL     1       0.399   0.787   2.973  1.00  0.00    -0.507 OA
ATOM     11  H   UNL     1       0.583   1.731   2.661  1.00  0.00     0.293 HD
ENDBRANCH   2  10
TORSDOF 2
ENDMDL
MODEL 3
REMARK VINA RESULT:    -4.349      2.363      3.103
REMARK INTER + INTRA:          -4.950
REMARK INTER:                  -4.697
REMARK INTRA:                  -0.253
REMARK UNBOUND:                -0.220
REMARK SMILES O=C([O-])c1ccccc1O
REMARK SMILES IDX 4 1 9 2 5 3 8 4 6 5 7 6 2 7 1 8 3 9 10 10
REMARK H PARENT 10 11
REMARK Flexibility Score: inf
ROOT
ATOM      1  C   UNL     1      -0.725  -1.371  -0.801  1.00  0.00     0.039 A 
ATOM      2  C   UNL     1      -0.034  -0.234  -1.290  1.00  0.00     0.124 A 
ATOM      3  C   UNL     1      -0.912  -2.474  -1.657  1.00  0.00     0.014 A 
ATOM      4  C   UNL     1       0.502  -0.250  -2.584  1.00  0.00     0.047 A 
ATOM      5  C   UNL     1      -0.389  -2.467  -2.952  1.00  0.00     0.001 A 
ATOM      6  C   UNL     1       0.326  -1.361  -3.411  1.00  0.00     0.004 A 
ENDROOT
BRANCH   1   7
ATOM      7  C   UNL     1      -1.227  -1.460   0.587  1.00  0.00     0.075 C 
ATOM      8  O   UNL     1      -0.981  -2.478   1.286  1.00  0.00    -0.545 OA
ATOM      9  O   UNL     1      -1.915  -0.399   1.163  1.00  0.00    -0.545 OA
ENDBRANCH   1   7
BRANCH   2  10
ATOM     10  O   UNL     1       0.109   0.938  -0.543  1.00  0.00    -0.507 OA
ATOM     11  H   UNL     1      -0.335   1.083   0.354  1.00  0.00     0.293 HD
ENDBRANCH   2  10
TORSDOF 2
ENDMDL
MODEL 4
REMARK VINA RESULT:    -4.334      8.937      9.804
REMARK INTER + INTRA:          -4.934
REMARK INTER:                  -4.685
REMARK INTRA:                  -0.248
REMARK UNBOUND:                -0.220
REMARK SMILES O=C([O-])c1ccccc1O
REMARK SMILES IDX 4 1 9 2 5 3 8 4 6 5 7 6 2 7 1 8 3 9 10 10
REMARK H PARENT 10 11
REMARK Flexibility Score: inf
ROOT
ATOM      1  C   UNL     1      -5.738   3.385  -5.529  1.00  0.00     0.039 A 
ATOM      2  C   UNL     1      -5.137   2.584  -6.532  1.00  0.00     0.124 A 
ATOM      3  C   UNL     1      -7.056   3.098  -5.127  1.00  0.00     0.014 A 
ATOM      4  C   UNL     1      -5.837   1.489  -7.057  1.00  0.00     0.047 A 
ATOM      5  C   UNL     1      -7.748   2.016  -5.675  1.00  0.00     0.001 A 
ATOM      6  C   UNL     1      -7.135   1.207  -6.631  1.00  0.00     0.004 A 
ENDROOT
BRANCH   1   7
ATOM      7  C   UNL     1      -5.018   4.492  -4.860  1.00  0.00     0.075 C 
ATOM      8  O   UNL     1      -3.841   4.322  -4.447  1.00  0.00    -0.545 OA
ATOM      9  O   UNL     1      -5.600   5.747  -4.738  1.00  0.00    -0.545 OA
ENDBRANCH   1   7
BRANCH   2  10
ATOM     10  O   UNL     1      -3.872   2.859  -7.058  1.00  0.00    -0.507 OA
ATOM     11  H   UNL     1      -3.710   3.540  -7.787  1.00  0.00     0.293 HD
ENDBRANCH   2  10
TORSDOF 2
ENDMDL
MODEL 5
REMARK VINA RESULT:    -4.314      2.648      3.747
REMARK INTER + INTRA:          -4.912
REMARK INTER:                  -4.660
REMARK INTRA:                  -0.252
REMARK UNBOUND:                -0.220
REMARK SMILES O=C([O-])c1ccccc1O
REMARK SMILES IDX 4 1 9 2 5 3 8 4 6 5 7 6 2 7 1 8 3 9 10 10
REMARK H PARENT 10 11
REMARK Flexibility Score: inf
ROOT
ATOM      1  C   UNL     1      -0.433  -0.263   0.009  1.00  0.00     0.039 A 
ATOM      2  C   UNL     1       0.464   0.487   0.811  1.00  0.00     0.124 A 
ATOM      3  C   UNL     1      -1.614  -0.761   0.593  1.00  0.00     0.014 A 
ATOM      4  C   UNL     1       0.133   0.771   2.143  1.00  0.00     0.047 A 
ATOM      5  C   UNL     1      -1.920  -0.486   1.928  1.00  0.00     0.001 A 
ATOM      6  C   UNL     1      -1.052   0.287   2.699  1.00  0.00     0.004 A 
ENDROOT
BRANCH   1   7
ATOM      7  C   UNL     1      -0.195  -0.511  -1.429  1.00  0.00     0.075 C 
ATOM      8  O   UNL     1      -0.621  -1.566  -1.968  1.00  0.00    -0.545 OA
ATOM      9  O   UNL     1       0.439   0.440  -2.219  1.00  0.00    -0.545 OA
ENDBRANCH   1   7
BRANCH   2  10
ATOM     10  O   UNL     1       1.701   0.934   0.340  1.00  0.00    -0.507 OA
ATOM     11  H   UNL     1       2.009   0.810  -0.615  1.00  0.00     0.293 HD
ENDBRANCH   2  10
TORSDOF 2
ENDMDL
MODEL 6
REMARK VINA RESULT:    -4.310      2.194      4.063
REMARK INTER + INTRA:          -4.908
REMARK INTER:                  -4.667
REMARK INTRA:                  -0.241
REMARK UNBOUND:                -0.220
REMARK SMILES O=C([O-])c1ccccc1O
REMARK SMILES IDX 4 1 9 2 5 3 8 4 6 5 7 6 2 7 1 8 3 9 10 10
REMARK H PARENT 10 11
REMARK Flexibility Score: inf
ROOT
ATOM      1  C   UNL     1      -0.566  -0.176   1.341  1.00  0.00     0.039 A 
ATOM      2  C   UNL     1      -1.409  -1.239   0.928  1.00  0.00     0.124 A 
ATOM      3  C   UNL     1      -0.845   0.482   2.554  1.00  0.00     0.014 A 
ATOM      4  C   UNL     1      -2.458  -1.655   1.758  1.00  0.00     0.047 A 
ATOM      5  C   UNL     1      -1.908   0.069   3.361  1.00  0.00     0.001 A 
ATOM      6  C   UNL     1      -2.707  -1.005   2.968  1.00  0.00     0.004 A 
ENDROOT
BRANCH   1   7
ATOM      7  C   UNL     1       0.619   0.246   0.563  1.00  0.00     0.075 C 
ATOM      8  O   UNL     1       0.589   0.225  -0.696  1.00  0.00    -0.545 OA
ATOM      9  O   UNL     1       1.752   0.733   1.201  1.00  0.00    -0.545 OA
ENDBRANCH   1   7
BRANCH   2  10
ATOM     10  O   UNL     1      -1.264  -1.879  -0.305  1.00  0.00    -0.507 OA
ATOM     11  H   UNL     1      -0.731  -1.493  -1.072  1.00  0.00     0.293 HD
ENDBRANCH   2  10
TORSDOF 2
ENDMDL
MODEL 7
REMARK VINA RESULT:    -4.289      2.562      3.761
REMARK INTER + INTRA:          -4.885
REMARK INTER:                  -4.640
REMARK INTRA:                  -0.246
REMARK UNBOUND:                -0.220
REMARK SMILES O=C([O-])c1ccccc1O
REMARK SMILES IDX 4 1 9 2 5 3 8 4 6 5 7 6 2 7 1 8 3 9 10 10
REMARK H PARENT 10 11
REMARK Flexibility Score: inf
ROOT
ATOM      1  C   UNL     1      -0.892  -1.584  -0.772  1.00  0.00     0.039 A 
ATOM      2  C   UNL     1      -1.105  -2.645  -1.688  1.00  0.00     0.124 A 
ATOM      3  C   UNL     1      -0.097  -0.492  -1.169  1.00  0.00     0.014 A 
ATOM      4  C   UNL     1      -0.578  -2.559  -2.984  1.00  0.00     0.047 A 
ATOM      5  C   UNL     1       0.438  -0.431  -2.457  1.00  0.00     0.001 A 
ATOM      6  C   UNL     1       0.189  -1.458  -3.366  1.00  0.00     0.004 A 
ENDROOT
BRANCH   1   7
ATOM      7  C   UNL     1      -1.504  -1.564   0.575  1.00  0.00     0.075 C 
ATOM      8  O   UNL     1      -1.903  -0.478   1.072  1.00  0.00    -0.545 OA
ATOM      9  O   UNL     1      -1.709  -2.743   1.280  1.00  0.00    -0.545 OA
ENDBRANCH   1   7
BRANCH   2  10
ATOM     10  O   UNL     1      -1.797  -3.809  -1.345  1.00  0.00    -0.507 OA
ATOM     11  H   UNL     1      -1.896  -4.136  -0.393  1.00  0.00     0.293 HD
ENDBRANCH   2  10
TORSDOF 2
ENDMDL
MODEL 8
REMARK VINA RESULT:    -4.282      3.800      5.224
REMARK INTER + INTRA:          -4.877
REMARK INTER:                  -4.629
REMARK INTRA:                  -0.248
REMARK UNBOUND:                -0.220
REMARK SMILES O=C([O-])c1ccccc1O
REMARK SMILES IDX 4 1 9 2 5 3 8 4 6 5 7 6 2 7 1 8 3 9 10 10
REMARK H PARENT 10 11
REMARK Flexibility Score: inf
ROOT
ATOM      1  C   UNL     1      -0.548  -1.325  -1.515  1.00  0.00     0.039 A 
ATOM      2  C   UNL     1      -1.107  -2.548  -1.966  1.00  0.00     0.124 A 
ATOM      3  C   UNL     1      -0.565  -1.037  -0.137  1.00  0.00     0.014 A 
ATOM      4  C   UNL     1      -1.605  -3.469  -1.035  1.00  0.00     0.047 A 
ATOM      5  C   UNL     1      -1.085  -1.957   0.778  1.00  0.00     0.001 A 
ATOM      6  C   UNL     1      -1.594  -3.175   0.329  1.00  0.00     0.004 A 
ENDROOT
BRANCH   1   7
ATOM      7  C   UNL     1       0.086  -0.355  -2.434  1.00  0.00     0.075 C 
ATOM      8  O   UNL     1       0.897  -0.753  -3.311  1.00  0.00    -0.545 OA
ATOM      9  O   UNL     1      -0.251   0.992  -2.389  1.00  0.00    -0.545 OA
ENDBRANCH   1   7
BRANCH   2  10
ATOM     10  O   UNL     1      -1.220  -2.869  -3.321  1.00  0.00    -0.507 OA
ATOM     11  H   UNL     1      -1.152  -2.184  -4.061  1.00  0.00     0.293 HD
ENDBRANCH   2  10
TORSDOF 2
ENDMDL
MODEL 9
REMARK VINA RESULT:    -4.127      1.835      2.818
REMARK INTER + INTRA:          -4.709
REMARK INTER:                  -4.461
REMARK INTRA:                  -0.249
REMARK UNBOUND:                -0.220
REMARK SMILES O=C([O-])c1ccccc1O
REMARK SMILES IDX 4 1 9 2 5 3 8 4 6 5 7 6 2 7 1 8 3 9 10 10
REMARK H PARENT 10 11
REMARK Flexibility Score: inf
ROOT
ATOM      1  C   UNL     1      -0.801  -0.555   0.742  1.00  0.00     0.039 A 
ATOM      2  C   UNL     1      -0.239  -0.425  -0.554  1.00  0.00     0.124 A 
ATOM      3  C   UNL     1      -1.513  -1.727   1.060  1.00  0.00     0.014 A 
ATOM      4  C   UNL     1      -0.347  -1.483  -1.466  1.00  0.00     0.047 A 
ATOM      5  C   UNL     1      -1.630  -2.764   0.132  1.00  0.00     0.001 A 
ATOM      6  C   UNL     1      -1.039  -2.646  -1.125  1.00  0.00     0.004 A 
ENDROOT
BRANCH   1   7
ATOM      7  C   UNL     1      -0.635   0.480   1.786  1.00  0.00     0.075 C 
ATOM      8  O   UNL     1      -1.497   0.603   2.697  1.00  0.00    -0.545 OA
ATOM      9  O   UNL     1       0.499   1.281   1.819  1.00  0.00    -0.545 OA
ENDBRANCH   1   7
BRANCH   2  10
ATOM     10  O   UNL     1       0.398   0.742  -0.984  1.00  0.00    -0.507 OA
ATOM     11  H   UNL     1       0.019   1.667  -0.837  1.00  0.00     0.293 HD
ENDBRANCH   2  10
TORSDOF 2
ENDMDL
