MODEL 1
REMARK VINA RESULT:    -4.618      0.000      0.000
REMARK INTER + INTRA:          -9.582
REMARK INTER:                  -7.857
REMARK INTRA:                  -1.724
REMARK UNBOUND:                -1.724
REMARK SMILES CCCCCCCCCCCCCC(=O)[O-]
REMARK SMILES IDX 8 1 9 2 10 3 11 4 12 5 13 6 14 7 15 8 16 9 7 10 6 11 5 12
REMARK SMILES IDX 4 13 3 14 2 15 1 16
REMARK H PARENT
REMARK Flexibility Score: inf
ROOT
ATOM      1  C   UNL     1      63.817  30.380  27.590  1.00  0.00     0.000 C 
ENDROOT
BRANCH   1   2
ATOM      2  C   UNL     1      65.297  30.262  27.976  1.00  0.00     0.000 C 
BRANCH   2   3
ATOM      3  C   UNL     1      66.136  29.757  26.797  1.00  0.00     0.000 C 
BRANCH   3   4
ATOM      4  C   UNL     1      65.249  29.097  25.732  1.00  0.00     0.000 C 
BRANCH   4   5
ATOM      5  C   UNL     1      65.942  27.920  25.023  1.00  0.00     0.006 C 
BRANCH   5   6
ATOM      6  C   UNL     1      65.285  26.553  25.275  1.00  0.00     0.053 C 
BRANCH   6   7
ATOM      7  C   UNL     1      64.740  25.951  24.017  1.00  0.00     0.041 C 
ATOM      8  O   UNL     1      65.422  25.968  22.959  1.00  0.00    -0.550 OA
ATOM      9  O   UNL     1      63.492  25.339  24.022  1.00  0.00    -0.550 OA
ENDBRANCH   6   7
ENDBRANCH   5   6
ENDBRANCH   4   5
ENDBRANCH   3   4
ENDBRANCH   2   3
ENDBRANCH   1   2
BRANCH   1  10
ATOM     10  C   UNL     1      62.910  30.152  28.806  1.00  0.00     0.000 C 
BRANCH  10  11
ATOM     11  C   UNL     1      61.871  29.057  28.518  1.00  0.00    -0.000 C 
BRANCH  11  12
ATOM     12  C   UNL     1      62.504  27.666  28.356  1.00  0.00    -0.000 C 
BRANCH  12  13
ATOM     13  C   UNL     1      62.208  27.039  26.982  1.00  0.00    -0.000 C 
BRANCH  13  14
ATOM     14  C   UNL     1      60.732  27.179  26.575  1.00  0.00    -0.000 C 
BRANCH  14  15
ATOM     15  C   UNL     1      60.555  27.858  25.209  1.00  0.00    -0.003 C 
ATOM     16  C   UNL     1      61.859  28.497  24.740  1.00  0.00     0.004 C 
ENDBRANCH  14  15
ENDBRANCH  13  14
ENDBRANCH  12  13
ENDBRANCH  11  12
ENDBRANCH  10  11
ENDBRANCH   1  10
TORSDOF 12
ENDMDL
MODEL 2
REMARK VINA RESULT:    -4.593     13.406     15.406
REMARK INTER + INTRA:          -9.540
REMARK INTER:                  -7.911
REMARK INTRA:                  -1.629
REMARK UNBOUND:                -1.724
REMARK SMILES CCCCCCCCCCCCCC(=O)[O-]
REMARK SMILES IDX 8 1 9 2 10 3 11 4 12 5 13 6 14 7 15 8 16 9 7 10 6 11 5 12
REMARK SMILES IDX 4 13 3 14 2 15 1 16
REMARK H PARENT
REMARK Flexibility Score: inf
ROOT
ATOM      1  C   UNL     1      64.106  30.129  10.644  1.00  0.00     0.000 C 
ENDROOT
BRANCH   1   2
ATOM      2  C   UNL     1      64.661  31.510  10.275  1.00  0.00     0.000 C 
BRANCH   2   3
ATOM      3  C   UNL     1      64.566  32.478  11.460  1.00  0.00     0.000 C 
BRANCH   3   4
ATOM      4  C   UNL     1      63.848  31.825  12.649  1.00  0.00     0.000 C 
BRANCH   4   5
ATOM      5  C   UNL     1      62.985  32.819  13.446  1.00  0.00     0.006 C 
BRANCH   5   6
ATOM      6  C   UNL     1      61.500  32.826  13.052  1.00  0.00     0.053 C 
BRANCH   6   7
ATOM      7  C   UNL     1      60.601  32.875  14.249  1.00  0.00     0.041 C 
ATOM      8  O   UNL     1      59.619  32.092  14.336  1.00  0.00    -0.550 OA
ATOM      9  O   UNL     1      60.868  33.761  15.285  1.00  0.00    -0.550 OA
ENDBRANCH   6   7
ENDBRANCH   5   6
ENDBRANCH   4   5
ENDBRANCH   3   4
ENDBRANCH   2   3
ENDBRANCH   1   2
BRANCH   1  10
ATOM     10  C   UNL     1      63.795  29.306   9.388  1.00  0.00     0.000 C 
BRANCH  10  11
ATOM     11  C   UNL     1      62.339  29.512   8.944  1.00  0.00    -0.000 C 
BRANCH  11  12
ATOM     12  C   UNL     1      61.392  28.433   9.493  1.00  0.00    -0.000 C 
BRANCH  12  13
ATOM     13  C   UNL     1      60.106  29.028  10.096  1.00  0.00    -0.000 C 
BRANCH  13  14
ATOM     14  C   UNL     1      60.372  29.822  11.385  1.00  0.00    -0.000 C 
BRANCH  14  15
ATOM     15  C   UNL     1      60.312  28.947  12.645  1.00  0.00    -0.003 C 
ATOM     16  C   UNL     1      61.648  28.955  13.384  1.00  0.00     0.004 C 
ENDBRANCH  14  15
ENDBRANCH  13  14
ENDBRANCH  12  13
ENDBRANCH  11  12
ENDBRANCH  10  11
ENDBRANCH   1  10
TORSDOF 12
ENDMDL
MODEL 3
REMARK VINA RESULT:    -4.506     12.412     14.518
REMARK INTER + INTRA:          -9.392
REMARK INTER:                  -7.457
REMARK INTRA:                  -1.935
REMARK UNBOUND:                -1.724
REMARK SMILES CCCCCCCCCCCCCC(=O)[O-]
REMARK SMILES IDX 8 1 9 2 10 3 11 4 12 5 13 6 14 7 15 8 16 9 7 10 6 11 5 12
REMARK SMILES IDX 4 13 3 14 2 15 1 16
REMARK H PARENT
REMARK Flexibility Score: inf
ROOT
ATOM      1  C   UNL     1      64.102  30.344  12.609  1.00  0.00     0.000 C 
ENDROOT
BRANCH   1   2
ATOM      2  C   UNL     1      63.153  31.207  13.448  1.00  0.00     0.000 C 
BRANCH   2   3
ATOM      3  C   UNL     1      62.680  32.435  12.661  1.00  0.00     0.000 C 
BRANCH   3   4
ATOM      4  C   UNL     1      61.232  32.794  13.019  1.00  0.00     0.000 C 
BRANCH   4   5
ATOM      5  C   UNL     1      60.940  32.672  14.526  1.00  0.00     0.006 C 
BRANCH   5   6
ATOM      6  C   UNL     1      61.049  33.994  15.302  1.00  0.00     0.053 C 
BRANCH   6   7
ATOM      7  C   UNL     1      61.963  33.880  16.482  1.00  0.00     0.041 C 
ATOM      8  O   UNL     1      62.990  33.154  16.420  1.00  0.00    -0.550 OA
ATOM      9  O   UNL     1      61.699  34.601  17.640  1.00  0.00    -0.550 OA
ENDBRANCH   6   7
ENDBRANCH   5   6
ENDBRANCH   4   5
ENDBRANCH   3   4
ENDBRANCH   2   3
ENDBRANCH   1   2
BRANCH   1  10
ATOM     10  C   UNL     1      63.936  30.636  11.113  1.00  0.00     0.000 C 
BRANCH  10  11
ATOM     11  C   UNL     1      63.718  29.338  10.320  1.00  0.00    -0.000 C 
BRANCH  11  12
ATOM     12  C   UNL     1      62.371  29.314   9.580  1.00  0.00    -0.000 C 
BRANCH  12  13
ATOM     13  C   UNL     1      61.248  28.678  10.418  1.00  0.00    -0.000 C 
BRANCH  13  14
ATOM     14  C   UNL     1      60.293  29.725  11.014  1.00  0.00    -0.000 C 
BRANCH  14  15
ATOM     15  C   UNL     1      59.990  29.476  12.499  1.00  0.00    -0.003 C 
ATOM     16  C   UNL     1      60.861  28.353  13.055  1.00  0.00     0.004 C 
ENDBRANCH  14  15
ENDBRANCH  13  14
ENDBRANCH  12  13
ENDBRANCH  11  12
ENDBRANCH  10  11
ENDBRANCH   1  10
TORSDOF 12
ENDMDL
MODEL 4
REMARK VINA RESULT:    -4.500      1.755      4.044
REMARK INTER + INTRA:          -9.381
REMARK INTER:                  -7.699
REMARK INTRA:                  -1.683
REMARK UNBOUND:                -1.724
REMARK SMILES CCCCCCCCCCCCCC(=O)[O-]
REMARK SMILES IDX 8 1 9 2 10 3 11 4 12 5 13 6 14 7 15 8 16 9 7 10 6 11 5 12
REMARK SMILES IDX 4 13 3 14 2 15 1 16
REMARK H PARENT
REMARK Flexibility Score: inf
ROOT
ATOM      1  C   UNL     1      64.113  29.991  27.719  1.00  0.00     0.000 C 
ENDROOT
BRANCH   1   2
ATOM      2  C   UNL     1      63.114  30.496  28.767  1.00  0.00     0.000 C 
BRANCH   2   3
ATOM      3  C   UNL     1      62.016  29.458  29.029  1.00  0.00     0.000 C 
BRANCH   3   4
ATOM      4  C   UNL     1      62.572  28.031  28.923  1.00  0.00     0.000 C 
BRANCH   4   5
ATOM      5  C   UNL     1      61.707  27.117  28.036  1.00  0.00     0.006 C 
BRANCH   5   6
ATOM      6  C   UNL     1      62.191  27.003  26.582  1.00  0.00     0.053 C 
BRANCH   6   7
ATOM      7  C   UNL     1      61.121  27.375  25.602  1.00  0.00     0.041 C 
ATOM      8  O   UNL     1      61.356  28.217  24.696  1.00  0.00    -0.550 OA
ATOM      9  O   UNL     1      59.874  26.765  25.668  1.00  0.00    -0.550 OA
ENDBRANCH   6   7
ENDBRANCH   5   6
ENDBRANCH   4   5
ENDBRANCH   3   4
ENDBRANCH   2   3
ENDBRANCH   1   2
BRANCH   1  10
ATOM     10  C   UNL     1      63.673  30.384  26.303  1.00  0.00     0.000 C 
BRANCH  10  11
ATOM     11  C   UNL     1      64.623  29.794  25.250  1.00  0.00    -0.000 C 
BRANCH  11  12
ATOM     12  C   UNL     1      65.436  28.603  25.784  1.00  0.00    -0.000 C 
BRANCH  12  13
ATOM     13  C   UNL     1      65.867  27.635  24.668  1.00  0.00    -0.000 C 
BRANCH  13  14
ATOM     14  C   UNL     1      65.272  26.228  24.845  1.00  0.00    -0.000 C 
BRANCH  14  15
ATOM     15  C   UNL     1      64.235  25.883  23.767  1.00  0.00    -0.003 C 
ATOM     16  C   UNL     1      64.118  27.004  22.738  1.00  0.00     0.004 C 
ENDBRANCH  14  15
ENDBRANCH  13  14
ENDBRANCH  12  13
ENDBRANCH  11  12
ENDBRANCH  10  11
ENDBRANCH   1  10
TORSDOF 12
ENDMDL
MODEL 5
REMARK VINA RESULT:    -4.421     13.003     15.177
REMARK INTER + INTRA:          -9.247
REMARK INTER:                  -7.441
REMARK INTRA:                  -1.806
REMARK UNBOUND:                -1.724
REMARK SMILES CCCCCCCCCCCCCC(=O)[O-]
REMARK SMILES IDX 8 1 9 2 10 3 11 4 12 5 13 6 14 7 15 8 16 9 7 10 6 11 5 12
REMARK SMILES IDX 4 13 3 14 2 15 1 16
REMARK H PARENT
REMARK Flexibility Score: inf
ROOT
ATOM      1  C   UNL     1      62.969  29.814  13.413  1.00  0.00     0.000 C 
ENDROOT
BRANCH   1   2
ATOM      2  C   UNL     1      61.869  28.864  12.924  1.00  0.00     0.000 C 
BRANCH   2   3
ATOM      3  C   UNL     1      60.493  29.538  12.981  1.00  0.00     0.000 C 
BRANCH   3   4
ATOM      4  C   UNL     1      60.547  30.952  12.386  1.00  0.00     0.000 C 
BRANCH   4   5
ATOM      5  C   UNL     1      60.043  32.031  13.362  1.00  0.00     0.006 C 
BRANCH   5   6
ATOM      6  C   UNL     1      61.099  33.078  13.750  1.00  0.00     0.053 C 
BRANCH   6   7
ATOM      7  C   UNL     1      61.315  33.136  15.231  1.00  0.00     0.041 C 
ATOM      8  O   UNL     1      61.353  34.247  15.822  1.00  0.00    -0.550 OA
ATOM      9  O   UNL     1      61.441  31.962  15.963  1.00  0.00    -0.550 OA
ENDBRANCH   6   7
ENDBRANCH   5   6
ENDBRANCH   4   5
ENDBRANCH   3   4
ENDBRANCH   2   3
ENDBRANCH   1   2
BRANCH   1  10
ATOM     10  C   UNL     1      64.131  29.873  12.414  1.00  0.00     0.000 C 
BRANCH  10  11
ATOM     11  C   UNL     1      63.950  31.040  11.430  1.00  0.00    -0.000 C 
BRANCH  11  12
ATOM     12  C   UNL     1      64.428  30.698  10.010  1.00  0.00    -0.000 C 
BRANCH  12  13
ATOM     13  C   UNL     1      63.795  29.404   9.469  1.00  0.00    -0.000 C 
BRANCH  13  14
ATOM     14  C   UNL     1      62.343  29.606   9.006  1.00  0.00    -0.000 C 
BRANCH  14  15
ATOM     15  C   UNL     1      61.464  28.371   9.253  1.00  0.00    -0.003 C 
ATOM     16  C   UNL     1      59.996  28.763   9.398  1.00  0.00     0.004 C 
ENDBRANCH  14  15
ENDBRANCH  13  14
ENDBRANCH  12  13
ENDBRANCH  11  12
ENDBRANCH  10  11
ENDBRANCH   1  10
TORSDOF 12
ENDMDL
MODEL 6
REMARK VINA RESULT:    -4.399     11.934     14.010
REMARK INTER + INTRA:          -9.209
REMARK INTER:                  -7.608
REMARK INTRA:                  -1.601
REMARK UNBOUND:                -1.724
REMARK SMILES CCCCCCCCCCCCCC(=O)[O-]
REMARK SMILES IDX 8 1 9 2 10 3 11 4 12 5 13 6 14 7 15 8 16 9 7 10 6 11 5 12
REMARK SMILES IDX 4 13 3 14 2 15 1 16
REMARK H PARENT
REMARK Flexibility Score: inf
ROOT
ATOM      1  C   UNL     1      60.410  30.535  13.037  1.00  0.00     0.000 C 
ENDROOT
BRANCH   1   2
ATOM      2  C   UNL     1      60.379  31.963  13.594  1.00  0.00     0.000 C 
BRANCH   2   3
ATOM      3  C   UNL     1      61.607  32.761  13.138  1.00  0.00     0.000 C 
BRANCH   3   4
ATOM      4  C   UNL     1      62.509  33.112  14.328  1.00  0.00     0.000 C 
BRANCH   4   5
ATOM      5  C   UNL     1      61.815  32.904  15.687  1.00  0.00     0.006 C 
BRANCH   5   6
ATOM      6  C   UNL     1      61.588  34.197  16.486  1.00  0.00     0.053 C 
BRANCH   6   7
ATOM      7  C   UNL     1      62.435  34.251  17.720  1.00  0.00     0.041 C 
ATOM      8  O   UNL     1      63.660  33.967  17.661  1.00  0.00    -0.550 OA
ATOM      9  O   UNL     1      61.878  34.648  18.930  1.00  0.00    -0.550 OA
ENDBRANCH   6   7
ENDBRANCH   5   6
ENDBRANCH   4   5
ENDBRANCH   3   4
ENDBRANCH   2   3
ENDBRANCH   1   2
BRANCH   1  10
ATOM     10  C   UNL     1      61.217  29.603  13.950  1.00  0.00     0.000 C 
BRANCH  10  11
ATOM     11  C   UNL     1      62.288  28.845  13.151  1.00  0.00    -0.000 C 
BRANCH  11  12
ATOM     12  C   UNL     1      63.504  29.721  12.809  1.00  0.00    -0.000 C 
BRANCH  12  13
ATOM     13  C   UNL     1      63.644  29.970  11.297  1.00  0.00    -0.000 C 
BRANCH  13  14
ATOM     14  C   UNL     1      62.743  29.047  10.461  1.00  0.00    -0.000 C 
BRANCH  14  15
ATOM     15  C   UNL     1      61.772  29.823   9.559  1.00  0.00    -0.003 C 
ATOM     16  C   UNL     1      60.352  29.279   9.687  1.00  0.00     0.004 C 
ENDBRANCH  14  15
ENDBRANCH  13  14
ENDBRANCH  12  13
ENDBRANCH  11  12
ENDBRANCH  10  11
ENDBRANCH   1  10
TORSDOF 12
ENDMDL
MODEL 7
REMARK VINA RESULT:    -4.397      1.440      2.273
REMARK INTER + INTRA:          -9.206
REMARK INTER:                  -7.586
REMARK INTRA:                  -1.619
REMARK UNBOUND:                -1.724
REMARK SMILES CCCCCCCCCCCCCC(=O)[O-]
REMARK SMILES IDX 8 1 9 2 10 3 11 4 12 5 13 6 14 7 15 8 16 9 7 10 6 11 5 12
REMARK SMILES IDX 4 13 3 14 2 15 1 16
REMARK H PARENT
REMARK Flexibility Score: inf
ROOT
ATOM      1  C   UNL     1      65.514  29.936  27.047  1.00  0.00     0.000 C 
ENDROOT
BRANCH   1   2
ATOM      2  C   UNL     1      65.900  28.994  25.899  1.00  0.00     0.000 C 
BRANCH   2   3
ATOM      3  C   UNL     1      64.672  28.255  25.355  1.00  0.00     0.000 C 
BRANCH   3   4
ATOM      4  C   UNL     1      64.758  26.751  25.650  1.00  0.00     0.000 C 
BRANCH   4   5
ATOM      5  C   UNL     1      65.452  25.960  24.526  1.00  0.00     0.006 C 
BRANCH   5   6
ATOM      6  C   UNL     1      65.126  26.457  23.109  1.00  0.00     0.053 C 
BRANCH   6   7
ATOM      7  C   UNL     1      66.362  26.802  22.336  1.00  0.00     0.041 C 
ATOM      8  O   UNL     1      66.698  26.112  21.338  1.00  0.00    -0.550 OA
ATOM      9  O   UNL     1      67.124  27.906  22.698  1.00  0.00    -0.550 OA
ENDBRANCH   6   7
ENDBRANCH   5   6
ENDBRANCH   4   5
ENDBRANCH   3   4
ENDBRANCH   2   3
ENDBRANCH   1   2
BRANCH   1  10
ATOM     10  C   UNL     1      64.028  30.308  26.980  1.00  0.00     0.000 C 
BRANCH  10  11
ATOM     11  C   UNL     1      63.434  30.448  28.390  1.00  0.00    -0.000 C 
BRANCH  11  12
ATOM     12  C   UNL     1      62.633  29.209  28.822  1.00  0.00    -0.000 C 
BRANCH  12  13
ATOM     13  C   UNL     1      61.515  28.851  27.827  1.00  0.00    -0.000 C 
BRANCH  13  14
ATOM     14  C   UNL     1      61.519  27.361  27.448  1.00  0.00    -0.000 C 
BRANCH  14  15
ATOM     15  C   UNL     1      60.869  27.096  26.082  1.00  0.00    -0.003 C 
ATOM     16  C   UNL     1      61.110  28.259  25.124  1.00  0.00     0.004 C 
ENDBRANCH  14  15
ENDBRANCH  13  14
ENDBRANCH  12  13
ENDBRANCH  11  12
ENDBRANCH  10  11
ENDBRANCH   1  10
TORSDOF 12
ENDMDL
MODEL 8
REMARK VINA RESULT:    -4.388     13.197     15.180
REMARK INTER + INTRA:          -9.190
REMARK INTER:                  -7.509
REMARK INTRA:                  -1.681
REMARK UNBOUND:                -1.724
REMARK SMILES CCCCCCCCCCCCCC(=O)[O-]
REMARK SMILES IDX 8 1 9 2 10 3 11 4 12 5 13 6 14 7 15 8 16 9 7 10 6 11 5 12
REMARK SMILES IDX 4 13 3 14 2 15 1 16
REMARK H PARENT
REMARK Flexibility Score: inf
ROOT
ATOM      1  C   UNL     1      60.048  29.278  12.228  1.00  0.00     0.000 C 
ENDROOT
BRANCH   1   2
ATOM      2  C   UNL     1      60.156  28.923  10.740  1.00  0.00     0.000 C 
BRANCH   2   3
ATOM      3  C   UNL     1      61.151  29.844  10.023  1.00  0.00     0.000 C 
BRANCH   3   4
ATOM      4  C   UNL     1      62.212  29.029   9.271  1.00  0.00     0.000 C 
BRANCH   4   5
ATOM      5  C   UNL     1      63.646  29.340   9.737  1.00  0.00     0.006 C 
BRANCH   5   6
ATOM      6  C   UNL     1      63.831  30.751  10.317  1.00  0.00     0.053 C 
BRANCH   6   7
ATOM      7  C   UNL     1      65.248  31.223  10.205  1.00  0.00     0.041 C 
ATOM      8  O   UNL     1      66.022  30.708   9.357  1.00  0.00    -0.550 OA
ATOM      9  O   UNL     1      65.704  32.256  11.015  1.00  0.00    -0.550 OA
ENDBRANCH   6   7
ENDBRANCH   5   6
ENDBRANCH   4   5
ENDBRANCH   3   4
ENDBRANCH   2   3
ENDBRANCH   1   2
BRANCH   1  10
ATOM     10  C   UNL     1      60.905  28.337  13.084  1.00  0.00     0.000 C 
BRANCH  10  11
ATOM     11  C   UNL     1      62.302  28.931  13.321  1.00  0.00    -0.000 C 
BRANCH  11  12
ATOM     12  C   UNL     1      62.269  30.197  14.193  1.00  0.00    -0.000 C 
BRANCH  12  13
ATOM     13  C   UNL     1      63.427  31.160  13.879  1.00  0.00    -0.000 C 
BRANCH  13  14
ATOM     14  C   UNL     1      62.937  32.536  13.398  1.00  0.00    -0.000 C 
BRANCH  14  15
ATOM     15  C   UNL     1      61.410  32.603  13.251  1.00  0.00    -0.003 C 
ATOM     16  C   UNL     1      60.793  33.495  14.325  1.00  0.00     0.004 C 
ENDBRANCH  14  15
ENDBRANCH  13  14
ENDBRANCH  12  13
ENDBRANCH  11  12
ENDBRANCH  10  11
ENDBRANCH   1  10
TORSDOF 12
ENDMDL
MODEL 9
REMARK VINA RESULT:    -4.336     12.017     14.193
REMARK INTER + INTRA:          -9.103
REMARK INTER:                  -7.354
REMARK INTRA:                  -1.749
REMARK UNBOUND:                -1.724
REMARK SMILES CCCCCCCCCCCCCC(=O)[O-]
REMARK SMILES IDX 8 1 9 2 10 3 11 4 12 5 13 6 14 7 15 8 16 9 7 10 6 11 5 12
REMARK SMILES IDX 4 13 3 14 2 15 1 16
REMARK H PARENT
REMARK Flexibility Score: inf
ROOT
ATOM      1  C   UNL     1      61.165  30.436  14.021  1.00  0.00     0.000 C 
ENDROOT
BRANCH   1   2
ATOM      2  C   UNL     1      60.364  31.460  13.207  1.00  0.00     0.000 C 
BRANCH   2   3
ATOM      3  C   UNL     1      61.116  32.792  13.101  1.00  0.00     0.000 C 
BRANCH   3   4
ATOM      4  C   UNL     1      62.139  32.938  14.237  1.00  0.00     0.000 C 
BRANCH   4   5
ATOM      5  C   UNL     1      61.649  33.860  15.368  1.00  0.00     0.006 C 
BRANCH   5   6
ATOM      6  C   UNL     1      61.877  33.303  16.782  1.00  0.00     0.053 C 
BRANCH   6   7
ATOM      7  C   UNL     1      62.459  34.330  17.703  1.00  0.00     0.041 C 
ATOM      8  O   UNL     1      61.887  34.603  18.791  1.00  0.00    -0.550 OA
ATOM      9  O   UNL     1      63.653  34.961  17.376  1.00  0.00    -0.550 OA
ENDBRANCH   6   7
ENDBRANCH   5   6
ENDBRANCH   4   5
ENDBRANCH   3   4
ENDBRANCH   2   3
ENDBRANCH   1   2
BRANCH   1  10
ATOM     10  C   UNL     1      61.097  29.046  13.378  1.00  0.00     0.000 C 
BRANCH  10  11
ATOM     11  C   UNL     1      60.250  29.074  12.096  1.00  0.00    -0.000 C 
BRANCH  11  12
ATOM     12  C   UNL     1      61.032  28.606  10.858  1.00  0.00    -0.000 C 
BRANCH  12  13
ATOM     13  C   UNL     1      61.674  29.775  10.089  1.00  0.00    -0.000 C 
BRANCH  13  14
ATOM     14  C   UNL     1      63.204  29.807  10.234  1.00  0.00    -0.000 C 
BRANCH  14  15
ATOM     15  C   UNL     1      63.688  30.935  11.156  1.00  0.00    -0.003 C 
ATOM     16  C   UNL     1      64.403  30.373  12.383  1.00  0.00     0.004 C 
ENDBRANCH  14  15
ENDBRANCH  13  14
ENDBRANCH  12  13
ENDBRANCH  11  12
ENDBRANCH  10  11
ENDBRANCH   1  10
TORSDOF 12
ENDMDL
