MODEL 1
REMARK VINA RESULT:    -1.791      0.000      0.000
REMARK INTER + INTRA:          -1.791
REMARK INTER:                  -1.791
REMARK INTRA:                   0.000
REMARK UNBOUND:                 0.000
REMARK SMILES CC(=O)[O-]
REMARK SMILES IDX 1 1 2 2 3 3 4 4
REMARK H PARENT
REMARK Flexibility Score: inf
ROOT
ATOM      1  C   UNL     1      61.094  30.710  61.730  1.00  0.00     0.063 C 
ATOM      2  C   UNL     1      62.270  29.794  61.726  1.00  0.00     0.038 C 
ATOM      3  O   UNL     1      62.101  28.547  61.750  1.00  0.00    -0.550 OA
ATOM      4  O   UNL     1      63.556  30.313  61.638  1.00  0.00    -0.550 OA
ENDROOT
TORSDOF 0
ENDMDL
MODEL 2
REMARK VINA RESULT:    -1.781      0.093      1.621
REMARK INTER + INTRA:          -1.781
REMARK INTER:                  -1.781
REMARK INTRA:                   0.000
REMARK UNBOUND:                 0.000
REMARK SMILES CC(=O)[O-]
REMARK SMILES IDX 1 1 2 2 3 3 4 4
REMARK H PARENT
REMARK Flexibility Score: inf
ROOT
ATOM      1  C   UNL     1      61.087  30.731  61.736  1.00  0.00     0.063 C 
ATOM      2  C   UNL     1      62.262  29.814  61.702  1.00  0.00     0.038 C 
ATOM      3  O   UNL     1      63.430  30.283  61.698  1.00  0.00    -0.550 OA
ATOM      4  O   UNL     1      62.073  28.438  61.733  1.00  0.00    -0.550 OA
ENDROOT
TORSDOF 0
ENDMDL
MODEL 3
REMARK VINA RESULT:    -1.780     12.809     12.983
REMARK INTER + INTRA:          -1.780
REMARK INTER:                  -1.780
REMARK INTRA:                   0.000
REMARK UNBOUND:                 0.000
REMARK SMILES CC(=O)[O-]
REMARK SMILES IDX 1 1 2 2 3 3 4 4
REMARK H PARENT
REMARK Flexibility Score: inf
ROOT
ATOM      1  C   UNL     1      59.140  28.958  49.238  1.00  0.00     0.063 C 
ATOM      2  C   UNL     1      59.942  27.701  49.213  1.00  0.00     0.038 C 
ATOM      3  O   UNL     1      61.200  27.754  49.191  1.00  0.00    -0.550 OA
ATOM      4  O   UNL     1      59.306  26.468  49.271  1.00  0.00    -0.550 OA
ENDROOT
TORSDOF 0
ENDMDL
MODEL 4
REMARK VINA RESULT:    -1.709      9.589      9.981
REMARK INTER + INTRA:          -1.709
REMARK INTER:                  -1.709
REMARK INTRA:                   0.000
REMARK UNBOUND:                 0.000
REMARK SMILES CC(=O)[O-]
REMARK SMILES IDX 1 1 2 2 3 3 4 4
REMARK H PARENT
REMARK Flexibility Score: inf
ROOT
ATOM      1  C   UNL     1      72.053  31.526  60.743  1.00  0.00     0.063 C 
ATOM      2  C   UNL     1      72.141  30.336  61.635  1.00  0.00     0.038 C 
ATOM      3  O   UNL     1      71.359  29.363  61.471  1.00  0.00    -0.550 OA
ATOM      4  O   UNL     1      73.125  30.271  62.614  1.00  0.00    -0.550 OA
ENDROOT
TORSDOF 0
ENDMDL
MODEL 5
REMARK VINA RESULT:    -1.708      4.949      5.385
REMARK INTER + INTRA:          -1.708
REMARK INTER:                  -1.708
REMARK INTRA:                   0.000
REMARK UNBOUND:                 0.000
REMARK SMILES CC(=O)[O-]
REMARK SMILES IDX 1 1 2 2 3 3 4 4
REMARK H PARENT
REMARK Flexibility Score: inf
ROOT
ATOM      1  C   UNL     1      62.809  35.422  60.975  1.00  0.00     0.063 C 
ATOM      2  C   UNL     1      64.134  34.804  61.267  1.00  0.00     0.038 C 
ATOM      3  O   UNL     1      64.363  33.612  60.932  1.00  0.00    -0.550 OA
ATOM      4  O   UNL     1      65.139  35.558  61.858  1.00  0.00    -0.550 OA
ENDROOT
TORSDOF 0
ENDMDL
MODEL 6
REMARK VINA RESULT:    -1.704     14.146     14.531
REMARK INTER + INTRA:          -1.704
REMARK INTER:                  -1.704
REMARK INTRA:                   0.000
REMARK UNBOUND:                 0.000
REMARK SMILES CC(=O)[O-]
REMARK SMILES IDX 1 1 2 2 3 3 4 4
REMARK H PARENT
REMARK Flexibility Score: inf
ROOT
ATOM      1  C   UNL     1      54.648  27.684  50.049  1.00  0.00     0.063 C 
ATOM      2  C   UNL     1      55.095  26.310  49.683  1.00  0.00     0.038 C 
ATOM      3  O   UNL     1      56.199  25.872  50.100  1.00  0.00    -0.550 OA
ATOM      4  O   UNL     1      54.268  25.487  48.929  1.00  0.00    -0.550 OA
ENDROOT
TORSDOF 0
ENDMDL
MODEL 7
REMARK VINA RESULT:    -1.619     17.003     17.505
REMARK INTER + INTRA:          -1.619
REMARK INTER:                  -1.619
REMARK INTRA:                   0.000
REMARK UNBOUND:                 0.000
REMARK SMILES CC(=O)[O-]
REMARK SMILES IDX 1 1 2 2 3 3 4 4
REMARK H PARENT
REMARK Flexibility Score: inf
ROOT
ATOM      1  C   UNL     1      59.581  19.112  49.733  1.00  0.00     0.063 C 
ATOM      2  C   UNL     1      58.696  17.954  49.418  1.00  0.00     0.038 C 
ATOM      3  O   UNL     1      59.132  16.994  48.731  1.00  0.00    -0.550 OA
ATOM      4  O   UNL     1      57.406  17.905  49.931  1.00  0.00    -0.550 OA
ENDROOT
TORSDOF 0
ENDMDL
MODEL 8
REMARK VINA RESULT:    -1.597      9.744      9.833
REMARK INTER + INTRA:          -1.597
REMARK INTER:                  -1.597
REMARK INTRA:                   0.000
REMARK UNBOUND:                 0.000
REMARK SMILES CC(=O)[O-]
REMARK SMILES IDX 1 1 2 2 3 3 4 4
REMARK H PARENT
REMARK Flexibility Score: inf
ROOT
ATOM      1  C   UNL     1      71.036  31.729  59.041  1.00  0.00     0.063 C 
ATOM      2  C   UNL     1      71.566  32.273  60.323  1.00  0.00     0.038 C 
ATOM      3  O   UNL     1      72.254  31.542  61.083  1.00  0.00    -0.550 OA
ATOM      4  O   UNL     1      71.351  33.604  60.657  1.00  0.00    -0.550 OA
ENDROOT
TORSDOF 0
ENDMDL
MODEL 9
REMARK VINA RESULT:    -1.576      9.454     10.180
REMARK INTER + INTRA:          -1.576
REMARK INTER:                  -1.576
REMARK INTRA:                   0.000
REMARK UNBOUND:                 0.000
REMARK SMILES CC(=O)[O-]
REMARK SMILES IDX 1 1 2 2 3 3 4 4
REMARK H PARENT
REMARK Flexibility Score: inf
ROOT
ATOM      1  C   UNL     1      73.125  30.316  62.476  1.00  0.00     0.063 C 
ATOM      2  C   UNL     1      72.159  30.375  61.342  1.00  0.00     0.038 C 
ATOM      3  O   UNL     1      72.410  31.085  60.333  1.00  0.00    -0.550 OA
ATOM      4  O   UNL     1      71.004  29.604  61.371  1.00  0.00    -0.550 OA
ENDROOT
TORSDOF 0
ENDMDL
