MODEL 1
REMARK VINA RESULT:    -4.098      0.000      0.000
REMARK INTER + INTRA:          -5.166
REMARK INTER:                  -5.056
REMARK INTRA:                  -0.110
REMARK UNBOUND:                -0.110
REMARK SMILES CCCCCC(=O)[O-]
REMARK SMILES IDX 4 1 5 2 6 3 7 4 8 5 3 6 2 7 1 8
REMARK H PARENT
REMARK Flexibility Score: inf
ROOT
ATOM      1  C   UNL     1     -11.758 -16.294  27.964  1.00  0.00     0.006 C 
ENDROOT
BRANCH   1   2
ATOM      2  C   UNL     1     -10.624 -16.879  28.816  1.00  0.00     0.053 C 
BRANCH   2   3
ATOM      3  C   UNL     1     -11.005 -18.228  29.337  1.00  0.00     0.041 C 
ATOM      4  O   UNL     1     -10.123 -19.004  29.791  1.00  0.00    -0.550 OA
ATOM      5  O   UNL     1     -12.339 -18.611  29.366  1.00  0.00    -0.550 OA
ENDBRANCH   2   3
ENDBRANCH   1   2
BRANCH   1   6
ATOM      6  C   UNL     1     -11.248 -15.624  26.679  1.00  0.00     0.000 C 
BRANCH   6   7
ATOM      7  C   UNL     1      -9.748 -15.297  26.738  1.00  0.00    -0.003 C 
ATOM      8  C   UNL     1      -9.406 -14.119  25.831  1.00  0.00     0.004 C 
ENDBRANCH   6   7
ENDBRANCH   1   6
TORSDOF 4
ENDMDL
MODEL 2
REMARK VINA RESULT:    -4.014      3.365      4.695
REMARK INTER + INTRA:          -5.062
REMARK INTER:                  -5.006
REMARK INTRA:                  -0.056
REMARK UNBOUND:                -0.110
REMARK SMILES CCCCCC(=O)[O-]
REMARK SMILES IDX 4 1 5 2 6 3 7 4 8 5 3 6 2 7 1 8
REMARK H PARENT
REMARK Flexibility Score: inf
ROOT
ATOM      1  C   UNL     1     -10.662 -16.015  27.715  1.00  0.00     0.006 C 
ENDROOT
BRANCH   1   2
ATOM      2  C   UNL     1     -10.640 -15.236  26.394  1.00  0.00     0.053 C 
BRANCH   2   3
ATOM      3  C   UNL     1      -9.291 -14.628  26.168  1.00  0.00     0.041 C 
ATOM      4  O   UNL     1      -8.249 -15.295  26.402  1.00  0.00    -0.550 OA
ATOM      5  O   UNL     1      -9.185 -13.343  25.654  1.00  0.00    -0.550 OA
ENDBRANCH   2   3
ENDBRANCH   1   2
BRANCH   1   6
ATOM      6  C   UNL     1     -11.848 -16.986  27.810  1.00  0.00     0.000 C 
BRANCH   6   7
ATOM      7  C   UNL     1     -13.064 -16.367  28.515  1.00  0.00    -0.003 C 
ATOM      8  C   UNL     1     -13.518 -17.232  29.687  1.00  0.00     0.004 C 
ENDBRANCH   6   7
ENDBRANCH   1   6
TORSDOF 4
ENDMDL
MODEL 3
REMARK VINA RESULT:    -3.978      0.966      1.204
REMARK INTER + INTRA:          -5.018
REMARK INTER:                  -4.937
REMARK INTRA:                  -0.081
REMARK UNBOUND:                -0.110
REMARK SMILES CCCCCC(=O)[O-]
REMARK SMILES IDX 4 1 5 2 6 3 7 4 8 5 3 6 2 7 1 8
REMARK H PARENT
REMARK Flexibility Score: inf
ROOT
ATOM      1  C   UNL     1     -10.757 -15.978  27.673  1.00  0.00     0.006 C 
ENDROOT
BRANCH   1   2
ATOM      2  C   UNL     1     -11.919 -16.977  27.734  1.00  0.00     0.053 C 
BRANCH   2   3
ATOM      3  C   UNL     1     -11.714 -17.949  28.852  1.00  0.00     0.041 C 
ATOM      4  O   UNL     1     -10.552 -18.332  29.153  1.00  0.00    -0.550 OA
ATOM      5  O   UNL     1     -12.799 -18.395  29.594  1.00  0.00    -0.550 OA
ENDBRANCH   2   3
ENDBRANCH   1   2
BRANCH   1   6
ATOM      6  C   UNL     1     -10.619 -15.313  26.295  1.00  0.00     0.000 C 
BRANCH   6   7
ATOM      7  C   UNL     1      -9.345 -14.464  26.173  1.00  0.00    -0.003 C 
ATOM      8  C   UNL     1      -8.114 -15.259  26.598  1.00  0.00     0.004 C 
ENDBRANCH   6   7
ENDBRANCH   1   6
TORSDOF 4
ENDMDL
MODEL 4
REMARK VINA RESULT:    -3.941      1.388      2.008
REMARK INTER + INTRA:          -4.972
REMARK INTER:                  -4.852
REMARK INTRA:                  -0.119
REMARK UNBOUND:                -0.110
REMARK SMILES CCCCCC(=O)[O-]
REMARK SMILES IDX 4 1 5 2 6 3 7 4 8 5 3 6 2 7 1 8
REMARK H PARENT
REMARK Flexibility Score: inf
ROOT
ATOM      1  C   UNL     1     -10.962 -16.804  29.107  1.00  0.00     0.006 C 
ENDROOT
BRANCH   1   2
ATOM      2  C   UNL     1     -10.820 -18.320  29.286  1.00  0.00     0.053 C 
BRANCH   2   3
ATOM      3  C   UNL     1     -10.600 -18.657  30.727  1.00  0.00     0.041 C 
ATOM      4  O   UNL     1      -9.430 -18.722  31.191  1.00  0.00    -0.550 OA
ATOM      5  O   UNL     1     -11.686 -18.851  31.570  1.00  0.00    -0.550 OA
ENDBRANCH   2   3
ENDBRANCH   1   2
BRANCH   1   6
ATOM      6  C   UNL     1     -12.342 -16.398  28.567  1.00  0.00     0.000 C 
BRANCH   6   7
ATOM      7  C   UNL     1     -12.308 -16.028  27.076  1.00  0.00    -0.003 C 
ATOM      8  C   UNL     1     -10.920 -15.551  26.660  1.00  0.00     0.004 C 
ENDBRANCH   6   7
ENDBRANCH   1   6
TORSDOF 4
ENDMDL
MODEL 5
REMARK VINA RESULT:    -3.911      2.823      4.207
REMARK INTER + INTRA:          -4.935
REMARK INTER:                  -4.729
REMARK INTRA:                  -0.206
REMARK UNBOUND:                -0.110
REMARK SMILES CCCCCC(=O)[O-]
REMARK SMILES IDX 4 1 5 2 6 3 7 4 8 5 3 6 2 7 1 8
REMARK H PARENT
REMARK Flexibility Score: inf
ROOT
ATOM      1  C   UNL     1     -11.628 -16.709  27.703  1.00  0.00     0.006 C 
ENDROOT
BRANCH   1   2
ATOM      2  C   UNL     1     -11.483 -15.602  26.651  1.00  0.00     0.053 C 
BRANCH   2   3
ATOM      3  C   UNL     1     -10.051 -15.186  26.524  1.00  0.00     0.041 C 
ATOM      4  O   UNL     1      -9.689 -14.445  25.573  1.00  0.00    -0.550 OA
ATOM      5  O   UNL     1      -9.127 -15.577  27.484  1.00  0.00    -0.550 OA
ENDBRANCH   2   3
ENDBRANCH   1   2
BRANCH   1   6
ATOM      6  C   UNL     1     -12.464 -16.269  28.914  1.00  0.00     0.000 C 
BRANCH   6   7
ATOM      7  C   UNL     1     -11.665 -16.299  30.226  1.00  0.00    -0.003 C 
ATOM      8  C   UNL     1     -10.561 -17.351  30.172  1.00  0.00     0.004 C 
ENDBRANCH   6   7
ENDBRANCH   1   6
TORSDOF 4
ENDMDL
MODEL 6
REMARK VINA RESULT:    -3.730      3.036      3.880
REMARK INTER + INTRA:          -4.712
REMARK INTER:                  -4.481
REMARK INTRA:                  -0.230
REMARK UNBOUND:                -0.110
REMARK SMILES CCCCCC(=O)[O-]
REMARK SMILES IDX 4 1 5 2 6 3 7 4 8 5 3 6 2 7 1 8
REMARK H PARENT
REMARK Flexibility Score: inf
ROOT
ATOM      1  C   UNL     1     -10.907 -18.435  29.423  1.00  0.00     0.006 C 
ENDROOT
BRANCH   1   2
ATOM      2  C   UNL     1     -10.184 -18.267  30.766  1.00  0.00     0.053 C 
BRANCH   2   3
ATOM      3  C   UNL     1      -9.388 -17.000  30.775  1.00  0.00     0.041 C 
ATOM      4  O   UNL     1      -9.726 -16.034  30.039  1.00  0.00    -0.550 OA
ATOM      5  O   UNL     1      -8.303 -16.867  31.630  1.00  0.00    -0.550 OA
ENDBRANCH   2   3
ENDBRANCH   1   2
BRANCH   1   6
ATOM      6  C   UNL     1     -12.429 -18.562  29.582  1.00  0.00     0.000 C 
BRANCH   6   7
ATOM      7  C   UNL     1     -13.119 -17.203  29.773  1.00  0.00    -0.003 C 
ATOM      8  C   UNL     1     -12.947 -16.322  28.539  1.00  0.00     0.004 C 
ENDBRANCH   6   7
ENDBRANCH   1   6
TORSDOF 4
ENDMDL
MODEL 7
REMARK VINA RESULT:    -3.718      2.703      3.860
REMARK INTER + INTRA:          -4.696
REMARK INTER:                  -4.515
REMARK INTRA:                  -0.182
REMARK UNBOUND:                -0.110
REMARK SMILES CCCCCC(=O)[O-]
REMARK SMILES IDX 4 1 5 2 6 3 7 4 8 5 3 6 2 7 1 8
REMARK H PARENT
REMARK Flexibility Score: inf
ROOT
ATOM      1  C   UNL     1     -11.605 -18.319  28.803  1.00  0.00     0.006 C 
ENDROOT
BRANCH   1   2
ATOM      2  C   UNL     1     -12.374 -16.993  28.839  1.00  0.00     0.053 C 
BRANCH   2   3
ATOM      3  C   UNL     1     -12.138 -16.218  27.581  1.00  0.00     0.041 C 
ATOM      4  O   UNL     1     -10.964 -15.927  27.227  1.00  0.00    -0.550 OA
ATOM      5  O   UNL     1     -13.209 -15.857  26.775  1.00  0.00    -0.550 OA
ENDBRANCH   2   3
ENDBRANCH   1   2
BRANCH   1   6
ATOM      6  C   UNL     1     -10.441 -18.356  29.805  1.00  0.00     0.000 C 
BRANCH   6   7
ATOM      7  C   UNL     1     -10.431 -17.140  30.744  1.00  0.00    -0.003 C 
ATOM      8  C   UNL     1      -9.006 -16.657  31.000  1.00  0.00     0.004 C 
ENDBRANCH   6   7
ENDBRANCH   1   6
TORSDOF 4
ENDMDL
MODEL 8
REMARK VINA RESULT:    -3.681      2.657      4.604
REMARK INTER + INTRA:          -4.652
REMARK INTER:                  -4.529
REMARK INTRA:                  -0.122
REMARK UNBOUND:                -0.110
REMARK SMILES CCCCCC(=O)[O-]
REMARK SMILES IDX 4 1 5 2 6 3 7 4 8 5 3 6 2 7 1 8
REMARK H PARENT
REMARK Flexibility Score: inf
ROOT
ATOM      1  C   UNL     1     -12.943 -16.291  29.178  1.00  0.00     0.006 C 
ENDROOT
BRANCH   1   2
ATOM      2  C   UNL     1     -12.590 -16.387  27.688  1.00  0.00     0.053 C 
BRANCH   2   3
ATOM      3  C   UNL     1     -11.165 -15.992  27.463  1.00  0.00     0.041 C 
ATOM      4  O   UNL     1     -10.278 -16.319  28.296  1.00  0.00    -0.550 OA
ATOM      5  O   UNL     1     -10.807 -15.306  26.311  1.00  0.00    -0.550 OA
ENDBRANCH   2   3
ENDBRANCH   1   2
BRANCH   1   6
ATOM      6  C   UNL     1     -13.162 -17.668  29.824  1.00  0.00     0.000 C 
BRANCH   6   7
ATOM      7  C   UNL     1     -12.171 -17.951  30.962  1.00  0.00    -0.003 C 
ATOM      8  C   UNL     1     -12.791 -18.862  32.017  1.00  0.00     0.004 C 
ENDBRANCH   6   7
ENDBRANCH   1   6
TORSDOF 4
ENDMDL
MODEL 9
REMARK VINA RESULT:    -3.668      3.800      4.581
REMARK INTER + INTRA:          -4.636
REMARK INTER:                  -4.373
REMARK INTRA:                  -0.263
REMARK UNBOUND:                -0.110
REMARK SMILES CCCCCC(=O)[O-]
REMARK SMILES IDX 4 1 5 2 6 3 7 4 8 5 3 6 2 7 1 8
REMARK H PARENT
REMARK Flexibility Score: inf
ROOT
ATOM      1  C   UNL     1     -12.510 -17.636  31.452  1.00  0.00     0.006 C 
ENDROOT
BRANCH   1   2
ATOM      2  C   UNL     1     -13.244 -18.263  32.644  1.00  0.00     0.053 C 
BRANCH   2   3
ATOM      3  C   UNL     1     -12.904 -19.715  32.761  1.00  0.00     0.041 C 
ATOM      4  O   UNL     1     -11.738 -20.069  33.080  1.00  0.00    -0.550 OA
ATOM      5  O   UNL     1     -13.886 -20.677  32.567  1.00  0.00    -0.550 OA
ENDBRANCH   2   3
ENDBRANCH   1   2
BRANCH   1   6
ATOM      6  C   UNL     1     -12.967 -18.216  30.104  1.00  0.00     0.000 C 
BRANCH   6   7
ATOM      7  C   UNL     1     -11.789 -18.572  29.184  1.00  0.00    -0.003 C 
ATOM      8  C   UNL     1     -10.481 -18.636  29.967  1.00  0.00     0.004 C 
ENDBRANCH   6   7
ENDBRANCH   1   6
TORSDOF 4
ENDMDL
