MODEL 1
REMARK VINA RESULT:    -3.173      0.000      0.000
REMARK INTER + INTRA:          -8.384
REMARK INTER:                  -6.141
REMARK INTRA:                  -2.243
REMARK UNBOUND:                -2.243
REMARK SMILES CCCCCCCCCCCCCCCCCC(=O)[O-]
REMARK SMILES IDX 10 1 11 2 12 3 13 4 14 5 15 6 16 7 17 8 18 9 19 10 20 11
REMARK SMILES IDX 9 12 8 13 7 14 6 15 5 16 4 17 3 18 2 19 1 20
REMARK H PARENT
REMARK Flexibility Score: inf
ROOT
ATOM      1  C   UNL     1      28.097  33.356  53.064  1.00  0.00     0.000 C 
ENDROOT
BRANCH   1   2
ATOM      2  C   UNL     1      27.111  34.225  53.864  1.00  0.00     0.000 C 
BRANCH   2   3
ATOM      3  C   UNL     1      25.647  33.981  53.462  1.00  0.00     0.000 C 
BRANCH   3   4
ATOM      4  C   UNL     1      25.362  32.503  53.141  1.00  0.00     0.000 C 
BRANCH   4   5
ATOM      5  C   UNL     1      24.894  31.711  54.375  1.00  0.00     0.000 C 
BRANCH   5   6
ATOM      6  C   UNL     1      24.272  30.353  54.005  1.00  0.00     0.000 C 
BRANCH   6   7
ATOM      7  C   UNL     1      23.840  29.546  55.241  1.00  0.00     0.006 C 
BRANCH   7   8
ATOM      8  C   UNL     1      23.415  30.439  56.413  1.00  0.00     0.053 C 
BRANCH   8   9
ATOM      9  C   UNL     1      22.002  30.145  56.806  1.00  0.00     0.041 C 
ATOM     10  O   UNL     1      21.084  30.178  55.945  1.00  0.00    -0.550 OA
ATOM     11  O   UNL     1      21.690  29.882  58.134  1.00  0.00    -0.550 OA
ENDBRANCH   8   9
ENDBRANCH   7   8
ENDBRANCH   6   7
ENDBRANCH   5   6
ENDBRANCH   4   5
ENDBRANCH   3   4
ENDBRANCH   2   3
ENDBRANCH   1   2
BRANCH   1  12
ATOM     12  C   UNL     1      29.562  33.625  53.445  1.00  0.00     0.000 C 
BRANCH  12  13
ATOM     13  C   UNL     1      29.707  34.754  54.480  1.00  0.00    -0.000 C 
BRANCH  13  14
ATOM     14  C   UNL     1      30.975  34.611  55.341  1.00  0.00    -0.000 C 
BRANCH  14  15
ATOM     15  C   UNL     1      30.861  33.596  56.497  1.00  0.00    -0.000 C 
BRANCH  15  16
ATOM     16  C   UNL     1      31.511  32.223  56.231  1.00  0.00    -0.000 C 
BRANCH  16  17
ATOM     17  C   UNL     1      30.562  31.017  56.344  1.00  0.00    -0.000 C 
BRANCH  17  18
ATOM     18  C   UNL     1      29.185  31.394  56.919  1.00  0.00    -0.000 C 
BRANCH  18  19
ATOM     19  C   UNL     1      28.026  30.899  56.039  1.00  0.00    -0.003 C 
ATOM     20  C   UNL     1      28.504  30.190  54.772  1.00  0.00     0.004 C 
ENDBRANCH  18  19
ENDBRANCH  17  18
ENDBRANCH  16  17
ENDBRANCH  15  16
ENDBRANCH  14  15
ENDBRANCH  13  14
ENDBRANCH  12  13
ENDBRANCH   1  12
TORSDOF 16
ENDMDL
MODEL 2
REMARK VINA RESULT:    -3.146      2.411      4.051
REMARK INTER + INTRA:          -8.331
REMARK INTER:                  -5.694
REMARK INTRA:                  -2.637
REMARK UNBOUND:                -2.243
REMARK SMILES CCCCCCCCCCCCCCCCCC(=O)[O-]
REMARK SMILES IDX 10 1 11 2 12 3 13 4 14 5 15 6 16 7 17 8 18 9 19 10 20 11
REMARK SMILES IDX 9 12 8 13 7 14 6 15 5 16 4 17 3 18 2 19 1 20
REMARK H PARENT
REMARK Flexibility Score: inf
ROOT
ATOM      1  C   UNL     1      30.653  31.672  53.035  1.00  0.00     0.000 C 
ENDROOT
BRANCH   1   2
ATOM      2  C   UNL     1      30.056  32.993  52.518  1.00  0.00     0.000 C 
BRANCH   2   3
ATOM      3  C   UNL     1      30.005  34.082  53.601  1.00  0.00     0.000 C 
BRANCH   3   4
ATOM      4  C   UNL     1      28.570  34.377  54.075  1.00  0.00     0.000 C 
BRANCH   4   5
ATOM      5  C   UNL     1      27.508  33.662  53.221  1.00  0.00     0.000 C 
BRANCH   5   6
ATOM      6  C   UNL     1      26.081  33.864  53.761  1.00  0.00     0.000 C 
BRANCH   6   7
ATOM      7  C   UNL     1      25.269  32.559  53.786  1.00  0.00     0.006 C 
BRANCH   7   8
ATOM      8  C   UNL     1      25.925  31.438  52.970  1.00  0.00     0.053 C 
BRANCH   8   9
ATOM      9  C   UNL     1      25.160  31.196  51.707  1.00  0.00     0.041 C 
ATOM     10  O   UNL     1      25.221  32.024  50.760  1.00  0.00    -0.550 OA
ATOM     11  O   UNL     1      24.339  30.082  51.594  1.00  0.00    -0.550 OA
ENDBRANCH   8   9
ENDBRANCH   7   8
ENDBRANCH   6   7
ENDBRANCH   5   6
ENDBRANCH   4   5
ENDBRANCH   3   4
ENDBRANCH   2   3
ENDBRANCH   1   2
BRANCH   1  12
ATOM     12  C   UNL     1      31.864  31.893  53.955  1.00  0.00     0.000 C 
BRANCH  12  13
ATOM     13  C   UNL     1      31.902  30.903  55.132  1.00  0.00    -0.000 C 
BRANCH  13  14
ATOM     14  C   UNL     1      31.833  31.605  56.501  1.00  0.00    -0.000 C 
BRANCH  14  15
ATOM     15  C   UNL     1      30.498  32.319  56.795  1.00  0.00    -0.000 C 
BRANCH  15  16
ATOM     16  C   UNL     1      29.301  31.386  57.067  1.00  0.00    -0.000 C 
BRANCH  16  17
ATOM     17  C   UNL     1      28.299  31.252  55.907  1.00  0.00    -0.000 C 
BRANCH  17  18
ATOM     18  C   UNL     1      27.519  29.927  55.942  1.00  0.00    -0.000 C 
BRANCH  18  19
ATOM     19  C   UNL     1      26.423  29.919  57.019  1.00  0.00    -0.003 C 
ATOM     20  C   UNL     1      25.032  29.649  56.447  1.00  0.00     0.004 C 
ENDBRANCH  18  19
ENDBRANCH  17  18
ENDBRANCH  16  17
ENDBRANCH  15  16
ENDBRANCH  14  15
ENDBRANCH  13  14
ENDBRANCH  12  13
ENDBRANCH   1  12
TORSDOF 16
ENDMDL
MODEL 3
REMARK VINA RESULT:    -3.132      2.853      5.859
REMARK INTER + INTRA:          -8.305
REMARK INTER:                  -6.071
REMARK INTRA:                  -2.233
REMARK UNBOUND:                -2.243
REMARK SMILES CCCCCCCCCCCCCCCCCC(=O)[O-]
REMARK SMILES IDX 10 1 11 2 12 3 13 4 14 5 15 6 16 7 17 8 18 9 19 10 20 11
REMARK SMILES IDX 9 12 8 13 7 14 6 15 5 16 4 17 3 18 2 19 1 20
REMARK H PARENT
REMARK Flexibility Score: inf
ROOT
ATOM      1  C   UNL     1      29.943  32.452  52.701  1.00  0.00     0.000 C 
ENDROOT
BRANCH   1   2
ATOM      2  C   UNL     1      30.700  31.256  53.305  1.00  0.00     0.000 C 
BRANCH   2   3
ATOM      3  C   UNL     1      31.995  31.675  54.019  1.00  0.00     0.000 C 
BRANCH   3   4
ATOM      4  C   UNL     1      32.057  31.171  55.473  1.00  0.00     0.000 C 
BRANCH   4   5
ATOM      5  C   UNL     1      31.749  32.279  56.495  1.00  0.00     0.000 C 
BRANCH   5   6
ATOM      6  C   UNL     1      30.281  32.267  56.957  1.00  0.00     0.000 C 
BRANCH   6   7
ATOM      7  C   UNL     1      29.722  30.843  57.109  1.00  0.00     0.006 C 
BRANCH   7   8
ATOM      8  C   UNL     1      28.229  30.753  56.767  1.00  0.00     0.053 C 
BRANCH   8   9
ATOM      9  C   UNL     1      27.438  30.383  57.981  1.00  0.00     0.041 C 
ATOM     10  O   UNL     1      26.409  29.665  57.874  1.00  0.00    -0.550 OA
ATOM     11  O   UNL     1      27.808  30.872  59.228  1.00  0.00    -0.550 OA
ENDBRANCH   8   9
ENDBRANCH   7   8
ENDBRANCH   6   7
ENDBRANCH   5   6
ENDBRANCH   4   5
ENDBRANCH   3   4
ENDBRANCH   2   3
ENDBRANCH   1   2
BRANCH   1  12
ATOM     12  C   UNL     1      30.207  33.761  53.463  1.00  0.00     0.000 C 
BRANCH  12  13
ATOM     13  C   UNL     1      28.932  34.344  54.096  1.00  0.00    -0.000 C 
BRANCH  13  14
ATOM     14  C   UNL     1      27.756  33.351  54.087  1.00  0.00    -0.000 C 
BRANCH  14  15
ATOM     15  C   UNL     1      26.387  33.971  53.743  1.00  0.00    -0.000 C 
BRANCH  15  16
ATOM     16  C   UNL     1      25.617  33.272  52.605  1.00  0.00    -0.000 C 
BRANCH  16  17
ATOM     17  C   UNL     1      26.460  32.915  51.368  1.00  0.00    -0.000 C 
BRANCH  17  18
ATOM     18  C   UNL     1      25.768  33.291  50.046  1.00  0.00    -0.000 C 
BRANCH  18  19
ATOM     19  C   UNL     1      26.739  33.299  48.856  1.00  0.00    -0.003 C 
ATOM     20  C   UNL     1      28.076  32.631  49.178  1.00  0.00     0.004 C 
ENDBRANCH  18  19
ENDBRANCH  17  18
ENDBRANCH  16  17
ENDBRANCH  15  16
ENDBRANCH  14  15
ENDBRANCH  13  14
ENDBRANCH  12  13
ENDBRANCH   1  12
TORSDOF 16
ENDMDL
MODEL 4
REMARK VINA RESULT:    -3.129      4.204      5.529
REMARK INTER + INTRA:          -8.299
REMARK INTER:                  -5.280
REMARK INTRA:                  -3.019
REMARK UNBOUND:                -2.243
REMARK SMILES CCCCCCCCCCCCCCCCCC(=O)[O-]
REMARK SMILES IDX 10 1 11 2 12 3 13 4 14 5 15 6 16 7 17 8 18 9 19 10 20 11
REMARK SMILES IDX 9 12 8 13 7 14 6 15 5 16 4 17 3 18 2 19 1 20
REMARK H PARENT
REMARK Flexibility Score: inf
ROOT
ATOM      1  C   UNL     1      29.317  34.596  54.496  1.00  0.00     0.000 C 
ENDROOT
BRANCH   1   2
ATOM      2  C   UNL     1      28.397  33.891  53.483  1.00  0.00     0.000 C 
BRANCH   2   3
ATOM      3  C   UNL     1      26.908  34.164  53.748  1.00  0.00     0.000 C 
BRANCH   3   4
ATOM      4  C   UNL     1      26.058  32.881  53.723  1.00  0.00     0.000 C 
BRANCH   4   5
ATOM      5  C   UNL     1      26.019  32.226  52.331  1.00  0.00     0.000 C 
BRANCH   5   6
ATOM      6  C   UNL     1      25.670  33.227  51.215  1.00  0.00     0.000 C 
BRANCH   6   7
ATOM      7  C   UNL     1      26.515  33.016  49.948  1.00  0.00     0.006 C 
BRANCH   7   8
ATOM      8  C   UNL     1      27.786  32.199  50.213  1.00  0.00     0.053 C 
BRANCH   8   9
ATOM      9  C   UNL     1      28.972  32.863  49.590  1.00  0.00     0.041 C 
ATOM     10  O   UNL     1      29.951  33.211  50.301  1.00  0.00    -0.550 OA
ATOM     11  O   UNL     1      28.976  33.144  48.229  1.00  0.00    -0.550 OA
ENDBRANCH   8   9
ENDBRANCH   7   8
ENDBRANCH   6   7
ENDBRANCH   5   6
ENDBRANCH   4   5
ENDBRANCH   3   4
ENDBRANCH   2   3
ENDBRANCH   1   2
BRANCH   1  12
ATOM     12  C   UNL     1      30.624  33.825  54.740  1.00  0.00     0.000 C 
BRANCH  12  13
ATOM     13  C   UNL     1      30.870  33.532  56.230  1.00  0.00    -0.000 C 
BRANCH  13  14
ATOM     14  C   UNL     1      30.694  32.043  56.579  1.00  0.00    -0.000 C 
BRANCH  14  15
ATOM     15  C   UNL     1      29.255  31.630  56.947  1.00  0.00    -0.000 C 
BRANCH  15  16
ATOM     16  C   UNL     1      28.459  30.947  55.817  1.00  0.00    -0.000 C 
BRANCH  16  17
ATOM     17  C   UNL     1      29.274  29.991  54.928  1.00  0.00    -0.000 C 
BRANCH  17  18
ATOM     18  C   UNL     1      29.029  30.219  53.427  1.00  0.00    -0.000 C 
BRANCH  18  19
ATOM     19  C   UNL     1      30.274  30.758  52.704  1.00  0.00    -0.003 C 
ATOM     20  C   UNL     1      31.579  30.338  53.380  1.00  0.00     0.004 C 
ENDBRANCH  18  19
ENDBRANCH  17  18
ENDBRANCH  16  17
ENDBRANCH  15  16
ENDBRANCH  14  15
ENDBRANCH  13  14
ENDBRANCH  12  13
ENDBRANCH   1  12
TORSDOF 16
ENDMDL
MODEL 5
REMARK VINA RESULT:    -3.094     16.152     17.684
REMARK INTER + INTRA:          -8.231
REMARK INTER:                  -6.306
REMARK INTRA:                  -1.925
REMARK UNBOUND:                -2.243
REMARK SMILES CCCCCCCCCCCCCCCCCC(=O)[O-]
REMARK SMILES IDX 10 1 11 2 12 3 13 4 14 5 15 6 16 7 17 8 18 9 19 10 20 11
REMARK SMILES IDX 9 12 8 13 7 14 6 15 5 16 4 17 3 18 2 19 1 20
REMARK H PARENT
REMARK Flexibility Score: inf
ROOT
ATOM      1  C   UNL     1      28.255  21.990  41.979  1.00  0.00     0.000 C 
ENDROOT
BRANCH   1   2
ATOM      2  C   UNL     1      27.162  20.908  41.954  1.00  0.00     0.000 C 
BRANCH   2   3
ATOM      3  C   UNL     1      26.724  20.477  43.363  1.00  0.00     0.000 C 
BRANCH   3   4
ATOM      4  C   UNL     1      25.367  19.750  43.363  1.00  0.00     0.000 C 
BRANCH   4   5
ATOM      5  C   UNL     1      24.926  19.322  44.773  1.00  0.00     0.000 C 
BRANCH   5   6
ATOM      6  C   UNL     1      23.434  19.591  45.035  1.00  0.00     0.000 C 
BRANCH   6   7
ATOM      7  C   UNL     1      22.517  18.809  44.081  1.00  0.00     0.006 C 
BRANCH   7   8
ATOM      8  C   UNL     1      22.681  17.290  44.214  1.00  0.00     0.053 C 
BRANCH   8   9
ATOM      9  C   UNL     1      22.748  16.653  42.863  1.00  0.00     0.041 C 
ATOM     10  O   UNL     1      22.633  15.404  42.744  1.00  0.00    -0.550 OA
ATOM     11  O   UNL     1      22.986  17.432  41.738  1.00  0.00    -0.550 OA
ENDBRANCH   8   9
ENDBRANCH   7   8
ENDBRANCH   6   7
ENDBRANCH   5   6
ENDBRANCH   4   5
ENDBRANCH   3   4
ENDBRANCH   2   3
ENDBRANCH   1   2
BRANCH   1  12
ATOM     12  C   UNL     1      29.431  21.661  41.046  1.00  0.00     0.000 C 
BRANCH  12  13
ATOM     13  C   UNL     1      29.435  20.191  40.592  1.00  0.00    -0.000 C 
BRANCH  13  14
ATOM     14  C   UNL     1      30.845  19.679  40.248  1.00  0.00    -0.000 C 
BRANCH  14  15
ATOM     15  C   UNL     1      31.585  18.989  41.412  1.00  0.00    -0.000 C 
BRANCH  15  16
ATOM     16  C   UNL     1      32.601  19.875  42.161  1.00  0.00    -0.000 C 
BRANCH  16  17
ATOM     17  C   UNL     1      32.238  20.195  43.622  1.00  0.00    -0.000 C 
BRANCH  17  18
ATOM     18  C   UNL     1      30.857  19.650  44.026  1.00  0.00    -0.000 C 
BRANCH  18  19
ATOM     19  C   UNL     1      30.128  20.571  45.016  1.00  0.00    -0.003 C 
ATOM     20  C   UNL     1      30.540  22.036  44.876  1.00  0.00     0.004 C 
ENDBRANCH  18  19
ENDBRANCH  17  18
ENDBRANCH  16  17
ENDBRANCH  15  16
ENDBRANCH  14  15
ENDBRANCH  13  14
ENDBRANCH  12  13
ENDBRANCH   1  12
TORSDOF 16
ENDMDL
MODEL 6
REMARK VINA RESULT:    -3.092      6.295     11.462
REMARK INTER + INTRA:          -8.227
REMARK INTER:                  -5.395
REMARK INTRA:                  -2.832
REMARK UNBOUND:                -2.243
REMARK SMILES CCCCCCCCCCCCCCCCCC(=O)[O-]
REMARK SMILES IDX 10 1 11 2 12 3 13 4 14 5 15 6 16 7 17 8 18 9 19 10 20 11
REMARK SMILES IDX 9 12 8 13 7 14 6 15 5 16 4 17 3 18 2 19 1 20
REMARK H PARENT
REMARK Flexibility Score: inf
ROOT
ATOM      1  C   UNL     1      16.178  26.210  54.302  1.00  0.00     0.000 C 
ENDROOT
BRANCH   1   2
ATOM      2  C   UNL     1      17.002  25.483  55.379  1.00  0.00     0.000 C 
BRANCH   2   3
ATOM      3  C   UNL     1      18.227  26.293  55.832  1.00  0.00     0.000 C 
BRANCH   3   4
ATOM      4  C   UNL     1      18.013  26.975  57.196  1.00  0.00     0.000 C 
BRANCH   4   5
ATOM      5  C   UNL     1      18.936  28.188  57.402  1.00  0.00     0.000 C 
BRANCH   5   6
ATOM      6  C   UNL     1      20.011  28.307  56.306  1.00  0.00     0.000 C 
BRANCH   6   7
ATOM      7  C   UNL     1      20.478  29.756  56.093  1.00  0.00     0.006 C 
BRANCH   7   8
ATOM      8  C   UNL     1      21.553  30.186  57.099  1.00  0.00     0.053 C 
BRANCH   8   9
ATOM      9  C   UNL     1      22.857  29.527  56.781  1.00  0.00     0.041 C 
ATOM     10  O   UNL     1      23.442  29.769  55.692  1.00  0.00    -0.550 OA
ATOM     11  O   UNL     1      23.405  28.605  57.666  1.00  0.00    -0.550 OA
ENDBRANCH   8   9
ENDBRANCH   7   8
ENDBRANCH   6   7
ENDBRANCH   5   6
ENDBRANCH   4   5
ENDBRANCH   3   4
ENDBRANCH   2   3
ENDBRANCH   1   2
BRANCH   1  12
ATOM     12  C   UNL     1      15.078  27.099  54.904  1.00  0.00     0.000 C 
BRANCH  12  13
ATOM     13  C   UNL     1      15.132  28.545  54.381  1.00  0.00    -0.000 C 
BRANCH  13  14
ATOM     14  C   UNL     1      16.199  29.395  55.095  1.00  0.00    -0.000 C 
BRANCH  14  15
ATOM     15  C   UNL     1      17.218  30.075  54.159  1.00  0.00    -0.000 C 
BRANCH  15  16
ATOM     16  C   UNL     1      18.084  29.113  53.321  1.00  0.00    -0.000 C 
BRANCH  16  17
ATOM     17  C   UNL     1      17.883  29.209  51.799  1.00  0.00    -0.000 C 
BRANCH  17  18
ATOM     18  C   UNL     1      17.284  27.927  51.195  1.00  0.00    -0.000 C 
BRANCH  18  19
ATOM     19  C   UNL     1      15.924  28.174  50.523  1.00  0.00    -0.003 C 
ATOM     20  C   UNL     1      14.861  27.161  50.947  1.00  0.00     0.004 C 
ENDBRANCH  18  19
ENDBRANCH  17  18
ENDBRANCH  16  17
ENDBRANCH  15  16
ENDBRANCH  14  15
ENDBRANCH  13  14
ENDBRANCH  12  13
ENDBRANCH   1  12
TORSDOF 16
ENDMDL
MODEL 7
REMARK VINA RESULT:    -3.076      1.635      3.978
REMARK INTER + INTRA:          -8.197
REMARK INTER:                  -5.181
REMARK INTRA:                  -3.016
REMARK UNBOUND:                -2.243
REMARK SMILES CCCCCCCCCCCCCCCCCC(=O)[O-]
REMARK SMILES IDX 10 1 11 2 12 3 13 4 14 5 15 6 16 7 17 8 18 9 19 10 20 11
REMARK SMILES IDX 9 12 8 13 7 14 6 15 5 16 4 17 3 18 2 19 1 20
REMARK H PARENT
REMARK Flexibility Score: inf
ROOT
ATOM      1  C   UNL     1      28.658  30.238  55.007  1.00  0.00     0.000 C 
ENDROOT
BRANCH   1   2
ATOM      2  C   UNL     1      28.084  30.957  56.241  1.00  0.00     0.000 C 
BRANCH   2   3
ATOM      3  C   UNL     1      27.201  30.040  57.102  1.00  0.00     0.000 C 
BRANCH   3   4
ATOM      4  C   UNL     1      26.655  28.836  56.313  1.00  0.00     0.000 C 
BRANCH   4   5
ATOM      5  C   UNL     1      25.124  28.710  56.412  1.00  0.00     0.000 C 
BRANCH   5   6
ATOM      6  C   UNL     1      24.473  29.929  57.089  1.00  0.00     0.000 C 
BRANCH   6   7
ATOM      7  C   UNL     1      23.069  30.230  56.538  1.00  0.00     0.006 C 
BRANCH   7   8
ATOM      8  C   UNL     1      22.537  29.113  55.631  1.00  0.00     0.053 C 
BRANCH   8   9
ATOM      9  C   UNL     1      21.125  29.397  55.229  1.00  0.00     0.041 C 
ATOM     10  O   UNL     1      20.618  28.812  54.235  1.00  0.00    -0.550 OA
ATOM     11  O   UNL     1      20.382  30.345  55.921  1.00  0.00    -0.550 OA
ENDBRANCH   8   9
ENDBRANCH   7   8
ENDBRANCH   6   7
ENDBRANCH   5   6
ENDBRANCH   4   5
ENDBRANCH   3   4
ENDBRANCH   2   3
ENDBRANCH   1   2
BRANCH   1  12
ATOM     12  C   UNL     1      29.087  31.217  53.902  1.00  0.00     0.000 C 
BRANCH  12  13
ATOM     13  C   UNL     1      29.277  32.652  54.423  1.00  0.00    -0.000 C 
BRANCH  13  14
ATOM     14  C   UNL     1      28.517  33.694  53.583  1.00  0.00    -0.000 C 
BRANCH  14  15
ATOM     15  C   UNL     1      27.850  33.136  52.309  1.00  0.00    -0.000 C 
BRANCH  15  16
ATOM     16  C   UNL     1      26.317  33.290  52.249  1.00  0.00    -0.000 C 
BRANCH  16  17
ATOM     17  C   UNL     1      25.605  33.280  53.614  1.00  0.00    -0.000 C 
BRANCH  17  18
ATOM     18  C   UNL     1      25.193  31.867  54.061  1.00  0.00    -0.000 C 
BRANCH  18  19
ATOM     19  C   UNL     1      24.877  30.944  52.874  1.00  0.00    -0.003 C 
ATOM     20  C   UNL     1      25.765  29.700  52.838  1.00  0.00     0.004 C 
ENDBRANCH  18  19
ENDBRANCH  17  18
ENDBRANCH  16  17
ENDBRANCH  15  16
ENDBRANCH  14  15
ENDBRANCH  13  14
ENDBRANCH  12  13
ENDBRANCH   1  12
TORSDOF 16
ENDMDL
MODEL 8
REMARK VINA RESULT:    -3.066     16.656     18.890
REMARK INTER + INTRA:          -8.177
REMARK INTER:                  -5.654
REMARK INTRA:                  -2.522
REMARK UNBOUND:                -2.243
REMARK SMILES CCCCCCCCCCCCCCCCCC(=O)[O-]
REMARK SMILES IDX 10 1 11 2 12 3 13 4 14 5 15 6 16 7 17 8 18 9 19 10 20 11
REMARK SMILES IDX 9 12 8 13 7 14 6 15 5 16 4 17 3 18 2 19 1 20
REMARK H PARENT
REMARK Flexibility Score: inf
ROOT
ATOM      1  C   UNL     1      14.098  18.684  47.606  1.00  0.00     0.000 C 
ENDROOT
BRANCH   1   2
ATOM      2  C   UNL     1      14.454  17.549  46.629  1.00  0.00     0.000 C 
BRANCH   2   3
ATOM      3  C   UNL     1      15.846  17.724  46.001  1.00  0.00     0.000 C 
BRANCH   3   4
ATOM      4  C   UNL     1      16.899  18.192  47.022  1.00  0.00     0.000 C 
BRANCH   4   5
ATOM      5  C   UNL     1      17.968  19.102  46.392  1.00  0.00     0.000 C 
BRANCH   5   6
ATOM      6  C   UNL     1      17.522  20.572  46.311  1.00  0.00     0.000 C 
BRANCH   6   7
ATOM      7  C   UNL     1      17.213  21.017  44.872  1.00  0.00     0.006 C 
BRANCH   7   8
ATOM      8  C   UNL     1      17.762  20.043  43.821  1.00  0.00     0.053 C 
BRANCH   8   9
ATOM      9  C   UNL     1      18.145  20.781  42.578  1.00  0.00     0.041 C 
ATOM     10  O   UNL     1      19.086  20.360  41.855  1.00  0.00    -0.550 OA
ATOM     11  O   UNL     1      17.496  21.963  42.242  1.00  0.00    -0.550 OA
ENDBRANCH   8   9
ENDBRANCH   7   8
ENDBRANCH   6   7
ENDBRANCH   5   6
ENDBRANCH   4   5
ENDBRANCH   3   4
ENDBRANCH   2   3
ENDBRANCH   1   2
BRANCH   1  12
ATOM     12  C   UNL     1      13.760  19.997  46.883  1.00  0.00     0.000 C 
BRANCH  12  13
ATOM     13  C   UNL     1      14.223  21.239  47.665  1.00  0.00    -0.000 C 
BRANCH  13  14
ATOM     14  C   UNL     1      14.696  20.902  49.090  1.00  0.00    -0.000 C 
BRANCH  14  15
ATOM     15  C   UNL     1      16.039  21.543  49.496  1.00  0.00    -0.000 C 
BRANCH  15  16
ATOM     16  C   UNL     1      16.894  20.712  50.474  1.00  0.00    -0.000 C 
BRANCH  16  17
ATOM     17  C   UNL     1      16.554  19.212  50.529  1.00  0.00    -0.000 C 
BRANCH  17  18
ATOM     18  C   UNL     1      17.806  18.319  50.578  1.00  0.00    -0.000 C 
BRANCH  18  19
ATOM     19  C   UNL     1      17.935  17.562  51.909  1.00  0.00    -0.003 C 
ATOM     20  C   UNL     1      16.632  17.544  52.709  1.00  0.00     0.004 C 
ENDBRANCH  18  19
ENDBRANCH  17  18
ENDBRANCH  16  17
ENDBRANCH  15  16
ENDBRANCH  14  15
ENDBRANCH  13  14
ENDBRANCH  12  13
ENDBRANCH   1  12
TORSDOF 16
ENDMDL
MODEL 9
REMARK VINA RESULT:    -3.041      5.898      8.419
REMARK INTER + INTRA:          -8.129
REMARK INTER:                  -5.146
REMARK INTRA:                  -2.984
REMARK UNBOUND:                -2.243
REMARK SMILES CCCCCCCCCCCCCCCCCC(=O)[O-]
REMARK SMILES IDX 10 1 11 2 12 3 13 4 14 5 15 6 16 7 17 8 18 9 19 10 20 11
REMARK SMILES IDX 9 12 8 13 7 14 6 15 5 16 4 17 3 18 2 19 1 20
REMARK H PARENT
REMARK Flexibility Score: inf
ROOT
ATOM      1  C   UNL     1      19.399  28.420  57.190  1.00  0.00     0.000 C 
ENDROOT
BRANCH   1   2
ATOM      2  C   UNL     1      19.932  27.628  55.983  1.00  0.00     0.000 C 
BRANCH   2   3
ATOM      3  C   UNL     1      19.896  28.443  54.680  1.00  0.00     0.000 C 
BRANCH   3   4
ATOM      4  C   UNL     1      19.387  29.880  54.895  1.00  0.00     0.000 C 
BRANCH   4   5
ATOM      5  C   UNL     1      18.063  30.154  54.160  1.00  0.00     0.000 C 
BRANCH   5   6
ATOM      6  C   UNL     1      17.798  29.151  53.024  1.00  0.00     0.000 C 
BRANCH   6   7
ATOM      7  C   UNL     1      16.471  28.395  53.201  1.00  0.00     0.006 C 
BRANCH   7   8
ATOM      8  C   UNL     1      16.132  28.132  54.674  1.00  0.00     0.053 C 
BRANCH   8   9
ATOM      9  C   UNL     1      16.374  26.696  55.015  1.00  0.00     0.041 C 
ATOM     10  O   UNL     1      15.790  26.170  56.000  1.00  0.00    -0.550 OA
ATOM     11  O   UNL     1      17.284  25.949  54.276  1.00  0.00    -0.550 OA
ENDBRANCH   8   9
ENDBRANCH   7   8
ENDBRANCH   6   7
ENDBRANCH   5   6
ENDBRANCH   4   5
ENDBRANCH   3   4
ENDBRANCH   2   3
ENDBRANCH   1   2
BRANCH   1  12
ATOM     12  C   UNL     1      19.929  27.881  58.528  1.00  0.00     0.000 C 
BRANCH  12  13
ATOM     13  C   UNL     1      20.931  28.838  59.197  1.00  0.00    -0.000 C 
BRANCH  13  14
ATOM     14  C   UNL     1      21.041  30.188  58.467  1.00  0.00    -0.000 C 
BRANCH  14  15
ATOM     15  C   UNL     1      22.448  30.522  57.931  1.00  0.00    -0.000 C 
BRANCH  15  16
ATOM     16  C   UNL     1      22.663  30.239  56.430  1.00  0.00    -0.000 C 
BRANCH  16  17
ATOM     17  C   UNL     1      23.551  29.022  56.115  1.00  0.00    -0.000 C 
BRANCH  17  18
ATOM     18  C   UNL     1      24.603  28.754  57.205  1.00  0.00    -0.000 C 
BRANCH  18  19
ATOM     19  C   UNL     1      24.483  27.343  57.803  1.00  0.00    -0.003 C 
ATOM     20  C   UNL     1      23.247  26.593  57.307  1.00  0.00     0.004 C 
ENDBRANCH  18  19
ENDBRANCH  17  18
ENDBRANCH  16  17
ENDBRANCH  15  16
ENDBRANCH  14  15
ENDBRANCH  13  14
ENDBRANCH  12  13
ENDBRANCH   1  12
TORSDOF 16
ENDMDL
