MODEL 1
REMARK VINA RESULT:    -4.346      0.000      0.000
REMARK INTER + INTRA:          -4.621
REMARK INTER:                  -4.600
REMARK INTRA:                  -0.021
REMARK UNBOUND:                -0.021
REMARK SMILES O=C([O-])c1cccnc1
REMARK SMILES IDX 4 1 5 2 9 3 6 4 8 5 7 6 2 7 1 8 3 9
REMARK H PARENT
REMARK Flexibility Score: inf
ROOT
ATOM      1  C   UNL     1      88.872  74.666  71.219  1.00  0.00     0.016 A 
ATOM      2  C   UNL     1      89.488  74.292  70.014  1.00  0.00     0.013 A 
ATOM      3  C   UNL     1      88.114  75.851  71.243  1.00  0.00     0.120 A 
ATOM      4  C   UNL     1      89.339  75.086  68.875  1.00  0.00     0.021 A 
ATOM      5  N   UNL     1      87.985  76.605  70.120  1.00  0.00    -0.264 NA
ATOM      6  C   UNL     1      88.577  76.252  68.948  1.00  0.00     0.111 A 
ENDROOT
BRANCH   1   7
ATOM      7  C   UNL     1      89.022  73.834  72.432  1.00  0.00     0.073 C 
ATOM      8  O   UNL     1      90.124  73.287  72.702  1.00  0.00    -0.545 OA
ATOM      9  O   UNL     1      87.946  73.645  73.293  1.00  0.00    -0.545 OA
ENDBRANCH   1   7
TORSDOF 1
ENDMDL
MODEL 2
REMARK VINA RESULT:    -4.224      2.853      3.988
REMARK INTER + INTRA:          -4.492
REMARK INTER:                  -4.476
REMARK INTRA:                  -0.016
REMARK UNBOUND:                -0.021
REMARK SMILES O=C([O-])c1cccnc1
REMARK SMILES IDX 4 1 5 2 9 3 6 4 8 5 7 6 2 7 1 8 3 9
REMARK H PARENT
REMARK Flexibility Score: inf
ROOT
ATOM      1  C   UNL     1      88.757  76.214  71.205  1.00  0.00     0.016 A 
ATOM      2  C   UNL     1      87.870  77.168  71.730  1.00  0.00     0.013 A 
ATOM      3  C   UNL     1      88.799  74.940  71.800  1.00  0.00     0.120 A 
ATOM      4  C   UNL     1      87.055  76.843  72.816  1.00  0.00     0.021 A 
ATOM      5  N   UNL     1      87.994  74.651  72.857  1.00  0.00    -0.264 NA
ATOM      6  C   UNL     1      87.131  75.566  73.373  1.00  0.00     0.111 A 
ENDROOT
BRANCH   1   7
ATOM      7  C   UNL     1      89.626  76.545  70.056  1.00  0.00     0.073 C 
ATOM      8  O   UNL     1      89.204  76.418  68.875  1.00  0.00    -0.545 OA
ATOM      9  O   UNL     1      90.922  77.005  70.262  1.00  0.00    -0.545 OA
ENDBRANCH   1   7
TORSDOF 1
ENDMDL
MODEL 3
REMARK VINA RESULT:    -4.202      1.828      2.530
REMARK INTER + INTRA:          -4.469
REMARK INTER:                  -4.451
REMARK INTRA:                  -0.018
REMARK UNBOUND:                -0.021
REMARK SMILES O=C([O-])c1cccnc1
REMARK SMILES IDX 4 1 5 2 9 3 6 4 8 5 7 6 2 7 1 8 3 9
REMARK H PARENT
REMARK Flexibility Score: inf
ROOT
ATOM      1  C   UNL     1      88.122  75.910  71.381  1.00  0.00     0.016 A 
ATOM      2  C   UNL     1      87.635  76.285  70.119  1.00  0.00     0.013 A 
ATOM      3  C   UNL     1      89.460  75.489  71.484  1.00  0.00     0.120 A 
ATOM      4  C   UNL     1      88.472  76.238  69.002  1.00  0.00     0.021 A 
ATOM      5  N   UNL     1      90.254  75.452  70.380  1.00  0.00    -0.264 NA
ATOM      6  C   UNL     1      89.792  75.814  69.154  1.00  0.00     0.111 A 
ENDROOT
BRANCH   1   7
ATOM      7  C   UNL     1      87.246  75.956  72.571  1.00  0.00     0.073 C 
ATOM      8  O   UNL     1      86.704  77.036  72.927  1.00  0.00    -0.545 OA
ATOM      9  O   UNL     1      87.006  74.804  73.314  1.00  0.00    -0.545 OA
ENDBRANCH   1   7
TORSDOF 1
ENDMDL
MODEL 4
REMARK VINA RESULT:    -4.188      2.324      3.057
REMARK INTER + INTRA:          -4.454
REMARK INTER:                  -4.435
REMARK INTRA:                  -0.019
REMARK UNBOUND:                -0.021
REMARK SMILES O=C([O-])c1cccnc1
REMARK SMILES IDX 4 1 5 2 9 3 6 4 8 5 7 6 2 7 1 8 3 9
REMARK H PARENT
REMARK Flexibility Score: inf
ROOT
ATOM      1  C   UNL     1      88.059  75.752  71.204  1.00  0.00     0.016 A 
ATOM      2  C   UNL     1      88.201  75.913  69.816  1.00  0.00     0.013 A 
ATOM      3  C   UNL     1      88.530  74.564  71.790  1.00  0.00     0.120 A 
ATOM      4  C   UNL     1      88.800  74.910  69.051  1.00  0.00     0.021 A 
ATOM      5  N   UNL     1      89.110  73.603  71.022  1.00  0.00    -0.264 NA
ATOM      6  C   UNL     1      89.253  73.750  69.679  1.00  0.00     0.111 A 
ENDROOT
BRANCH   1   7
ATOM      7  C   UNL     1      87.426  76.806  72.024  1.00  0.00     0.073 C 
ATOM      8  O   UNL     1      86.513  76.520  72.844  1.00  0.00    -0.545 OA
ATOM      9  O   UNL     1      87.832  78.131  71.903  1.00  0.00    -0.545 OA
ENDBRANCH   1   7
TORSDOF 1
ENDMDL
MODEL 5
REMARK VINA RESULT:    -4.188      3.337      4.620
REMARK INTER + INTRA:          -4.454
REMARK INTER:                  -4.436
REMARK INTRA:                  -0.017
REMARK UNBOUND:                -0.021
REMARK SMILES O=C([O-])c1cccnc1
REMARK SMILES IDX 4 1 5 2 9 3 6 4 8 5 7 6 2 7 1 8 3 9
REMARK H PARENT
REMARK Flexibility Score: inf
ROOT
ATOM      1  C   UNL     1      87.129  75.774  72.459  1.00  0.00     0.016 A 
ATOM      2  C   UNL     1      85.919  75.885  73.163  1.00  0.00     0.013 A 
ATOM      3  C   UNL     1      87.934  74.644  72.687  1.00  0.00     0.120 A 
ATOM      4  C   UNL     1      85.537  74.888  74.062  1.00  0.00     0.021 A 
ATOM      5  N   UNL     1      87.538  73.687  73.568  1.00  0.00    -0.264 NA
ATOM      6  C   UNL     1      86.368  73.784  74.254  1.00  0.00     0.111 A 
ENDROOT
BRANCH   1   7
ATOM      7  C   UNL     1      87.544  76.824  71.504  1.00  0.00     0.073 C 
ATOM      8  O   UNL     1      87.671  76.562  70.278  1.00  0.00    -0.545 OA
ATOM      9  O   UNL     1      87.799  78.117  71.947  1.00  0.00    -0.545 OA
ENDBRANCH   1   7
TORSDOF 1
ENDMDL
MODEL 6
REMARK VINA RESULT:    -4.145      0.989      1.630
REMARK INTER + INTRA:          -4.409
REMARK INTER:                  -4.387
REMARK INTRA:                  -0.021
REMARK UNBOUND:                -0.021
REMARK SMILES O=C([O-])c1cccnc1
REMARK SMILES IDX 4 1 5 2 9 3 6 4 8 5 7 6 2 7 1 8 3 9
REMARK H PARENT
REMARK Flexibility Score: inf
ROOT
ATOM      1  C   UNL     1      89.041  74.646  71.467  1.00  0.00     0.016 A 
ATOM      2  C   UNL     1      88.139  75.717  71.356  1.00  0.00     0.013 A 
ATOM      3  C   UNL     1      89.927  74.405  70.403  1.00  0.00     0.120 A 
ATOM      4  C   UNL     1      88.137  76.515  70.210  1.00  0.00     0.021 A 
ATOM      5  N   UNL     1      89.904  75.197  69.299  1.00  0.00    -0.264 NA
ATOM      6  C   UNL     1      89.036  76.237  69.181  1.00  0.00     0.111 A 
ENDROOT
BRANCH   1   7
ATOM      7  C   UNL     1      89.053  73.794  72.676  1.00  0.00     0.073 C 
ATOM      8  O   UNL     1      90.122  73.258  73.072  1.00  0.00    -0.545 OA
ATOM      9  O   UNL     1      87.882  73.574  73.393  1.00  0.00    -0.545 OA
ENDBRANCH   1   7
TORSDOF 1
ENDMDL
MODEL 7
REMARK VINA RESULT:    -4.064      1.541      2.597
REMARK INTER + INTRA:          -4.322
REMARK INTER:                  -4.299
REMARK INTRA:                  -0.022
REMARK UNBOUND:                -0.021
REMARK SMILES O=C([O-])c1cccnc1
REMARK SMILES IDX 4 1 5 2 9 3 6 4 8 5 7 6 2 7 1 8 3 9
REMARK H PARENT
REMARK Flexibility Score: inf
ROOT
ATOM      1  C   UNL     1      89.099  75.174  71.957  1.00  0.00     0.016 A 
ATOM      2  C   UNL     1      89.330  76.039  73.038  1.00  0.00     0.013 A 
ATOM      3  C   UNL     1      88.257  75.611  70.919  1.00  0.00     0.120 A 
ATOM      4  C   UNL     1      88.733  77.301  73.066  1.00  0.00     0.021 A 
ATOM      5  N   UNL     1      87.689  76.845  70.971  1.00  0.00    -0.264 NA
ATOM      6  C   UNL     1      87.906  77.691  72.012  1.00  0.00     0.111 A 
ENDROOT
BRANCH   1   7
ATOM      7  C   UNL     1      89.725  73.835  71.916  1.00  0.00     0.073 C 
ATOM      8  O   UNL     1      90.059  73.251  72.981  1.00  0.00    -0.545 OA
ATOM      9  O   UNL     1      89.952  73.201  70.699  1.00  0.00    -0.545 OA
ENDBRANCH   1   7
TORSDOF 1
ENDMDL
MODEL 8
REMARK VINA RESULT:    -4.021      2.352      3.333
REMARK INTER + INTRA:          -4.277
REMARK INTER:                  -4.255
REMARK INTRA:                  -0.021
REMARK UNBOUND:                -0.021
REMARK SMILES O=C([O-])c1cccnc1
REMARK SMILES IDX 4 1 5 2 9 3 6 4 8 5 7 6 2 7 1 8 3 9
REMARK H PARENT
REMARK Flexibility Score: inf
ROOT
ATOM      1  C   UNL     1      89.139  75.718  71.294  1.00  0.00     0.016 A 
ATOM      2  C   UNL     1      88.958  74.665  72.206  1.00  0.00     0.013 A 
ATOM      3  C   UNL     1      88.157  76.722  71.228  1.00  0.00     0.120 A 
ATOM      4  C   UNL     1      87.825  74.631  73.021  1.00  0.00     0.021 A 
ATOM      5  N   UNL     1      87.063  76.665  72.033  1.00  0.00    -0.264 NA
ATOM      6  C   UNL     1      86.878  75.651  72.919  1.00  0.00     0.111 A 
ENDROOT
BRANCH   1   7
ATOM      7  C   UNL     1      90.335  75.765  70.426  1.00  0.00     0.073 C 
ATOM      8  O   UNL     1      90.854  74.702  69.991  1.00  0.00    -0.545 OA
ATOM      9  O   UNL     1      90.903  76.985  70.075  1.00  0.00    -0.545 OA
ENDBRANCH   1   7
TORSDOF 1
ENDMDL
MODEL 9
REMARK VINA RESULT:    -3.991      2.777      3.386
REMARK INTER + INTRA:          -4.245
REMARK INTER:                  -4.228
REMARK INTRA:                  -0.017
REMARK UNBOUND:                -0.021
REMARK SMILES O=C([O-])c1cccnc1
REMARK SMILES IDX 4 1 5 2 9 3 6 4 8 5 7 6 2 7 1 8 3 9
REMARK H PARENT
REMARK Flexibility Score: inf
ROOT
ATOM      1  C   UNL     1      88.334  74.377  72.912  1.00  0.00     0.016 A 
ATOM      2  C   UNL     1      88.196  75.705  72.481  1.00  0.00     0.013 A 
ATOM      3  C   UNL     1      87.267  73.786  73.612  1.00  0.00     0.120 A 
ATOM      4  C   UNL     1      87.020  76.410  72.746  1.00  0.00     0.021 A 
ATOM      5  N   UNL     1      86.133  74.494  73.857  1.00  0.00    -0.264 NA
ATOM      6  C   UNL     1      85.988  75.781  73.444  1.00  0.00     0.111 A 
ENDROOT
BRANCH   1   7
ATOM      7  C   UNL     1      89.575  73.621  72.637  1.00  0.00     0.073 C 
ATOM      8  O   UNL     1      89.869  73.278  71.461  1.00  0.00    -0.545 OA
ATOM      9  O   UNL     1      90.436  73.279  73.674  1.00  0.00    -0.545 OA
ENDBRANCH   1   7
TORSDOF 1
ENDMDL
