MODEL 1
REMARK VINA RESULT:     1.935      0.000      0.000
REMARK INTER + INTRA:           2.901
REMARK INTER:                   3.405
REMARK INTRA:                  -0.504
REMARK UNBOUND:                -0.504
REMARK SMILES CCCCCCCCCCCCCCC(=O)[O-]
REMARK SMILES IDX 9 1 10 2 11 3 12 4 13 5 14 6 15 7 16 8 17 9 8 10 7 11 6 12
REMARK SMILES IDX 5 13 4 14 3 15 2 16 1 17
REMARK H PARENT
REMARK Flexibility Score: inf
ROOT
ATOM      1  C   UNL     1      58.680  -4.679  -0.520  1.00  0.00     0.000 C 
ENDROOT
BRANCH   1   2
ATOM      2  C   UNL     1      58.628  -6.214  -0.413  1.00  0.00     0.000 C 
BRANCH   2   3
ATOM      3  C   UNL     1      59.111  -6.733   0.955  1.00  0.00     0.000 C 
BRANCH   3   4
ATOM      4  C   UNL     1      57.995  -7.122   1.942  1.00  0.00     0.000 C 
BRANCH   4   5
ATOM      5  C   UNL     1      58.378  -7.057   3.433  1.00  0.00     0.006 C 
BRANCH   5   6
ATOM      6  C   UNL     1      57.979  -5.739   4.123  1.00  0.00     0.053 C 
BRANCH   6   7
ATOM      7  C   UNL     1      57.874  -5.881   5.612  1.00  0.00     0.041 C 
ATOM      8  O   UNL     1      58.047  -4.883   6.359  1.00  0.00    -0.550 OA
ATOM      9  O   UNL     1      57.622  -7.125   6.177  1.00  0.00    -0.550 OA
ENDBRANCH   6   7
ENDBRANCH   5   6
ENDBRANCH   4   5
ENDBRANCH   3   4
ENDBRANCH   2   3
ENDBRANCH   1   2
BRANCH   1  10
ATOM     10  C   UNL     1      59.119  -4.203  -1.916  1.00  0.00     0.000 C 
BRANCH  10  11
ATOM     11  C   UNL     1      59.119  -5.339  -2.953  1.00  0.00    -0.000 C 
BRANCH  11  12
ATOM     12  C   UNL     1      59.001  -4.826  -4.399  1.00  0.00    -0.000 C 
BRANCH  12  13
ATOM     13  C   UNL     1      59.056  -3.293  -4.555  1.00  0.00    -0.000 C 
BRANCH  13  14
ATOM     14  C   UNL     1      58.376  -2.737  -5.823  1.00  0.00    -0.000 C 
BRANCH  14  15
ATOM     15  C   UNL     1      57.954  -1.259  -5.736  1.00  0.00    -0.000 C 
BRANCH  15  16
ATOM     16  C   UNL     1      58.401  -0.439  -6.955  1.00  0.00    -0.003 C 
ATOM     17  C   UNL     1      57.735   0.934  -6.967  1.00  0.00     0.004 C 
ENDBRANCH  15  16
ENDBRANCH  14  15
ENDBRANCH  13  14
ENDBRANCH  12  13
ENDBRANCH  11  12
ENDBRANCH  10  11
ENDBRANCH   1  10
TORSDOF 13
ENDMDL
MODEL 2
REMARK VINA RESULT:     3.903      3.647      5.780
REMARK INTER + INTRA:           6.366
REMARK INTER:                   6.874
REMARK INTRA:                  -0.508
REMARK UNBOUND:                -0.504
REMARK SMILES CCCCCCCCCCCCCCC(=O)[O-]
REMARK SMILES IDX 9 1 10 2 11 3 12 4 13 5 14 6 15 7 16 8 17 9 8 10 7 11 6 12
REMARK SMILES IDX 5 13 4 14 3 15 2 16 1 17
REMARK H PARENT
REMARK Flexibility Score: inf
ROOT
ATOM      1  C   UNL     1      57.801  -2.332  -5.204  1.00  0.00     0.000 C 
ENDROOT
BRANCH   1   2
ATOM      2  C   UNL     1      58.959  -3.337  -5.068  1.00  0.00     0.000 C 
BRANCH   2   3
ATOM      3  C   UNL     1      58.526  -4.662  -4.414  1.00  0.00     0.000 C 
BRANCH   3   4
ATOM      4  C   UNL     1      59.108  -4.925  -3.012  1.00  0.00     0.000 C 
BRANCH   4   5
ATOM      5  C   UNL     1      58.256  -5.829  -2.100  1.00  0.00     0.006 C 
BRANCH   5   6
ATOM      6  C   UNL     1      59.037  -6.444  -0.924  1.00  0.00     0.053 C 
BRANCH   6   7
ATOM      7  C   UNL     1      58.590  -5.908   0.403  1.00  0.00     0.041 C 
ATOM      8  O   UNL     1      59.105  -6.338   1.467  1.00  0.00    -0.550 OA
ATOM      9  O   UNL     1      57.578  -4.958   0.465  1.00  0.00    -0.550 OA
ENDBRANCH   6   7
ENDBRANCH   5   6
ENDBRANCH   4   5
ENDBRANCH   3   4
ENDBRANCH   2   3
ENDBRANCH   1   2
BRANCH   1  10
ATOM     10  C   UNL     1      58.045  -1.303  -6.321  1.00  0.00     0.000 C 
BRANCH  10  11
ATOM     11  C   UNL     1      56.808  -0.433  -6.601  1.00  0.00    -0.000 C 
BRANCH  11  12
ATOM     12  C   UNL     1      55.953  -0.190  -5.344  1.00  0.00    -0.000 C 
BRANCH  12  13
ATOM     13  C   UNL     1      54.599  -0.928  -5.321  1.00  0.00    -0.000 C 
BRANCH  13  14
ATOM     14  C   UNL     1      53.889  -0.955  -3.953  1.00  0.00    -0.000 C 
BRANCH  14  15
ATOM     15  C   UNL     1      52.368  -1.186  -4.017  1.00  0.00    -0.000 C 
BRANCH  15  16
ATOM     16  C   UNL     1      51.972  -2.266  -5.035  1.00  0.00    -0.003 C 
ATOM     17  C   UNL     1      50.868  -1.768  -5.964  1.00  0.00     0.004 C 
ENDBRANCH  15  16
ENDBRANCH  14  15
ENDBRANCH  13  14
ENDBRANCH  12  13
ENDBRANCH  11  12
ENDBRANCH  10  11
ENDBRANCH   1  10
TORSDOF 13
ENDMDL
