MODEL 1
REMARK VINA RESULT:    -3.900      0.000      0.000
REMARK INTER + INTRA:          -4.715
REMARK INTER:                  -4.469
REMARK INTRA:                  -0.246
REMARK UNBOUND:                -0.246
REMARK SMILES COC(=O)c1ccccc1O
REMARK SMILES IDX 5 1 6 2 7 3 8 4 9 5 10 6 3 7 4 8 2 9 1 10 11 11
REMARK H PARENT 11 12
REMARK Flexibility Score: inf
ROOT
ATOM      1  C   UNL     1     104.691 107.254 103.664  1.00  0.00     0.101 A 
ATOM      2  C   UNL     1     104.130 106.042 103.217  1.00  0.00     0.019 A 
ATOM      3  C   UNL     1     103.760 105.048 104.126  1.00  0.00     0.001 A 
ATOM      4  C   UNL     1     103.946 105.246 105.494  1.00  0.00     0.004 A 
ATOM      5  C   UNL     1     104.501 106.440 105.957  1.00  0.00     0.047 A 
ATOM      6  C   UNL     1     104.876 107.447 105.054  1.00  0.00     0.130 A 
ENDROOT
BRANCH   1   7
ATOM      7  C   UNL     1     105.071 108.288 102.668  1.00  0.00     0.341 C 
ATOM      8  O   UNL     1     104.377 109.333 102.529  1.00  0.00    -0.246 OA
BRANCH   7   9
ATOM      9  O   UNL     1     106.209 108.102 101.875  1.00  0.00    -0.465 OA
ATOM     10  C   UNL     1     107.399 107.498 102.368  1.00  0.00     0.282 C 
ENDBRANCH   7   9
ENDBRANCH   1   7
BRANCH   6  11
ATOM     11  O   UNL     1     105.429 108.631 105.544  1.00  0.00    -0.507 OA
ATOM     12  H   UNL     1     105.478 109.470 104.977  1.00  0.00     0.293 HD
ENDBRANCH   6  11
TORSDOF 3
ENDMDL
MODEL 2
REMARK VINA RESULT:    -3.891      2.784      3.264
REMARK INTER + INTRA:          -4.705
REMARK INTER:                  -4.428
REMARK INTRA:                  -0.277
REMARK UNBOUND:                -0.246
REMARK SMILES COC(=O)c1ccccc1O
REMARK SMILES IDX 5 1 6 2 7 3 8 4 9 5 10 6 3 7 4 8 2 9 1 10 11 11
REMARK H PARENT 11 12
REMARK Flexibility Score: inf
ROOT
ATOM      1  C   UNL     1     104.809 104.725 103.673  1.00  0.00     0.101 A 
ATOM      2  C   UNL     1     106.041 104.194 103.247  1.00  0.00     0.019 A 
ATOM      3  C   UNL     1     107.016 103.819 104.175  1.00  0.00     0.001 A 
ATOM      4  C   UNL     1     106.777 103.968 105.541  1.00  0.00     0.004 A 
ATOM      5  C   UNL     1     105.562 104.493 105.983  1.00  0.00     0.047 A 
ATOM      6  C   UNL     1     104.574 104.874 105.062  1.00  0.00     0.130 A 
ENDROOT
BRANCH   1   7
ATOM      7  C   UNL     1     103.796 105.113 102.658  1.00  0.00     0.341 C 
ATOM      8  O   UNL     1     102.754 104.423 102.494  1.00  0.00    -0.246 OA
BRANCH   7   9
ATOM      9  O   UNL     1     104.002 106.255 101.875  1.00  0.00    -0.465 OA
ATOM     10  C   UNL     1     104.417 107.500 102.425  1.00  0.00     0.282 C 
ENDBRANCH   7   9
ENDBRANCH   1   7
BRANCH   6  11
ATOM     11  O   UNL     1     103.368 105.396 105.530  1.00  0.00    -0.507 OA
ATOM     12  H   UNL     1     102.547 104.815 105.651  1.00  0.00     0.293 HD
ENDBRANCH   6  11
TORSDOF 3
ENDMDL
MODEL 3
REMARK VINA RESULT:    -3.863      2.387      3.324
REMARK INTER + INTRA:          -4.673
REMARK INTER:                  -4.361
REMARK INTRA:                  -0.312
REMARK UNBOUND:                -0.246
REMARK SMILES COC(=O)c1ccccc1O
REMARK SMILES IDX 5 1 6 2 7 3 8 4 9 5 10 6 3 7 4 8 2 9 1 10 11 11
REMARK H PARENT 11 12
REMARK Flexibility Score: inf
ROOT
ATOM      1  C   UNL     1     104.310 105.842 103.740  1.00  0.00     0.101 A 
ATOM      2  C   UNL     1     104.427 105.618 105.125  1.00  0.00     0.019 A 
ATOM      3  C   UNL     1     104.748 106.665 105.993  1.00  0.00     0.001 A 
ATOM      4  C   UNL     1     104.958 107.950 105.492  1.00  0.00     0.004 A 
ATOM      5  C   UNL     1     104.846 108.192 104.123  1.00  0.00     0.047 A 
ATOM      6  C   UNL     1     104.524 107.150 103.240  1.00  0.00     0.130 A 
ENDROOT
BRANCH   1   7
ATOM      7  C   UNL     1     103.967 104.705 102.848  1.00  0.00     0.341 C 
ATOM      8  O   UNL     1     102.851 104.126 102.946  1.00  0.00    -0.246 OA
BRANCH   7   9
ATOM      9  O   UNL     1     104.891 104.271 101.891  1.00  0.00    -0.465 OA
ATOM     10  C   UNL     1     106.241 103.955 102.213  1.00  0.00     0.282 C 
ENDBRANCH   7   9
ENDBRANCH   1   7
BRANCH   6  11
ATOM     11  O   UNL     1     104.419 107.419 101.875  1.00  0.00    -0.507 OA
ATOM     12  H   UNL     1     103.643 107.073 101.323  1.00  0.00     0.293 HD
ENDBRANCH   6  11
TORSDOF 3
ENDMDL
MODEL 4
REMARK VINA RESULT:    -3.863      3.062      3.930
REMARK INTER + INTRA:          -4.673
REMARK INTER:                  -4.332
REMARK INTRA:                  -0.341
REMARK UNBOUND:                -0.246
REMARK SMILES COC(=O)c1ccccc1O
REMARK SMILES IDX 5 1 6 2 7 3 8 4 9 5 10 6 3 7 4 8 2 9 1 10 11 11
REMARK H PARENT 11 12
REMARK Flexibility Score: inf
ROOT
ATOM      1  C   UNL     1     106.046 104.261 103.759  1.00  0.00     0.101 A 
ATOM      2  C   UNL     1     106.245 104.280 105.153  1.00  0.00     0.019 A 
ATOM      3  C   UNL     1     105.196 104.597 106.019  1.00  0.00     0.001 A 
ATOM      4  C   UNL     1     103.934 104.901 105.509  1.00  0.00     0.004 A 
ATOM      5  C   UNL     1     103.717 104.888 104.131  1.00  0.00     0.047 A 
ATOM      6  C   UNL     1     104.762 104.571 103.249  1.00  0.00     0.130 A 
ENDROOT
BRANCH   1   7
ATOM      7  C   UNL     1     107.185 103.920 102.869  1.00  0.00     0.341 C 
ATOM      8  O   UNL     1     107.797 102.825 103.000  1.00  0.00    -0.246 OA
BRANCH   7   9
ATOM      9  O   UNL     1     107.583 104.821 101.875  1.00  0.00    -0.465 OA
ATOM     10  C   UNL     1     108.139 106.097 102.172  1.00  0.00     0.282 C 
ENDBRANCH   7   9
ENDBRANCH   1   7
BRANCH   6  11
ATOM     11  O   UNL     1     104.518 104.565 101.875  1.00  0.00    -0.507 OA
ATOM     12  H   UNL     1     105.266 104.686 101.201  1.00  0.00     0.293 HD
ENDBRANCH   6  11
TORSDOF 3
ENDMDL
MODEL 5
REMARK VINA RESULT:    -3.859      1.598      2.791
REMARK INTER + INTRA:          -4.668
REMARK INTER:                  -4.352
REMARK INTRA:                  -0.316
REMARK UNBOUND:                -0.246
REMARK SMILES COC(=O)c1ccccc1O
REMARK SMILES IDX 5 1 6 2 7 3 8 4 9 5 10 6 3 7 4 8 2 9 1 10 11 11
REMARK H PARENT 11 12
REMARK Flexibility Score: inf
ROOT
ATOM      1  C   UNL     1     105.865 107.644 103.617  1.00  0.00     0.101 A 
ATOM      2  C   UNL     1     107.083 107.227 103.046  1.00  0.00     0.019 A 
ATOM      3  C   UNL     1     108.182 106.920 103.851  1.00  0.00     0.001 A 
ATOM      4  C   UNL     1     108.084 107.024 105.239  1.00  0.00     0.004 A 
ATOM      5  C   UNL     1     106.886 107.436 105.824  1.00  0.00     0.047 A 
ATOM      6  C   UNL     1     105.774 107.748 105.027  1.00  0.00     0.130 A 
ENDROOT
BRANCH   1   7
ATOM      7  C   UNL     1     104.718 107.961 102.729  1.00  0.00     0.341 C 
ATOM      8  O   UNL     1     104.199 109.111 102.736  1.00  0.00    -0.246 OA
BRANCH   7   9
ATOM      9  O   UNL     1     104.208 106.976 101.876  1.00  0.00    -0.465 OA
ATOM     10  C   UNL     1     103.777 105.703 102.342  1.00  0.00     0.282 C 
ENDBRANCH   7   9
ENDBRANCH   1   7
BRANCH   6  11
ATOM     11  O   UNL     1     104.588 108.157 105.637  1.00  0.00    -0.507 OA
ATOM     12  H   UNL     1     104.570 108.912 106.312  1.00  0.00     0.293 HD
ENDBRANCH   6  11
TORSDOF 3
ENDMDL
MODEL 6
REMARK VINA RESULT:    -3.855      1.738      3.226
REMARK INTER + INTRA:          -4.664
REMARK INTER:                  -4.314
REMARK INTRA:                  -0.350
REMARK UNBOUND:                -0.246
REMARK SMILES COC(=O)c1ccccc1O
REMARK SMILES IDX 5 1 6 2 7 3 8 4 9 5 10 6 3 7 4 8 2 9 1 10 11 11
REMARK H PARENT 11 12
REMARK Flexibility Score: inf
ROOT
ATOM      1  C   UNL     1     105.933 107.743 103.770  1.00  0.00     0.101 A 
ATOM      2  C   UNL     1     105.752 107.762 105.166  1.00  0.00     0.019 A 
ATOM      3  C   UNL     1     106.807 107.447 106.027  1.00  0.00     0.001 A 
ATOM      4  C   UNL     1     108.056 107.108 105.508  1.00  0.00     0.004 A 
ATOM      5  C   UNL     1     108.255 107.084 104.128  1.00  0.00     0.047 A 
ATOM      6  C   UNL     1     107.205 107.398 103.251  1.00  0.00     0.130 A 
ENDROOT
BRANCH   1   7
ATOM      7  C   UNL     1     104.789 108.083 102.886  1.00  0.00     0.341 C 
ATOM      8  O   UNL     1     104.159 109.165 103.038  1.00  0.00    -0.246 OA
BRANCH   7   9
ATOM      9  O   UNL     1     104.406 107.195 101.875  1.00  0.00    -0.465 OA
ATOM     10  C   UNL     1     104.032 105.847 102.136  1.00  0.00     0.282 C 
ENDBRANCH   7   9
ENDBRANCH   1   7
BRANCH   6  11
ATOM     11  O   UNL     1     107.430 107.366 101.875  1.00  0.00    -0.507 OA
ATOM     12  H   UNL     1     107.085 106.609 101.296  1.00  0.00     0.293 HD
ENDBRANCH   6  11
TORSDOF 3
ENDMDL
MODEL 7
REMARK VINA RESULT:    -3.845      2.629      3.191
REMARK INTER + INTRA:          -4.653
REMARK INTER:                  -4.331
REMARK INTRA:                  -0.322
REMARK UNBOUND:                -0.246
REMARK SMILES COC(=O)c1ccccc1O
REMARK SMILES IDX 5 1 6 2 7 3 8 4 9 5 10 6 3 7 4 8 2 9 1 10 11 11
REMARK H PARENT 11 12
REMARK Flexibility Score: inf
ROOT
ATOM      1  C   UNL     1     107.690 106.156 103.683  1.00  0.00     0.101 A 
ATOM      2  C   UNL     1     107.337 104.925 103.098  1.00  0.00     0.019 A 
ATOM      3  C   UNL     1     107.021 103.820 103.893  1.00  0.00     0.001 A 
ATOM      4  C   UNL     1     107.054 103.927 105.284  1.00  0.00     0.004 A 
ATOM      5  C   UNL     1     107.402 105.138 105.883  1.00  0.00     0.047 A 
ATOM      6  C   UNL     1     107.721 106.256 105.095  1.00  0.00     0.130 A 
ENDROOT
BRANCH   1   7
ATOM      7  C   UNL     1     108.019 107.308 102.806  1.00  0.00     0.341 C 
ATOM      8  O   UNL     1     109.140 107.881 102.890  1.00  0.00    -0.246 OA
BRANCH   7   9
ATOM      9  O   UNL     1     107.076 107.764 101.877  1.00  0.00    -0.465 OA
ATOM     10  C   UNL     1     105.775 108.199 102.252  1.00  0.00     0.282 C 
ENDBRANCH   7   9
ENDBRANCH   1   7
BRANCH   6  11
ATOM     11  O   UNL     1     108.065 107.455 105.720  1.00  0.00    -0.507 OA
ATOM     12  H   UNL     1     109.023 107.784 105.750  1.00  0.00     0.293 HD
ENDBRANCH   6  11
TORSDOF 3
ENDMDL
MODEL 8
REMARK VINA RESULT:    -3.804      2.304      4.056
REMARK INTER + INTRA:          -4.606
REMARK INTER:                  -4.291
REMARK INTRA:                  -0.315
REMARK UNBOUND:                -0.246
REMARK SMILES COC(=O)c1ccccc1O
REMARK SMILES IDX 5 1 6 2 7 3 8 4 9 5 10 6 3 7 4 8 2 9 1 10 11 11
REMARK H PARENT 11 12
REMARK Flexibility Score: inf
ROOT
ATOM      1  C   UNL     1     105.188 105.831 102.535  1.00  0.00     0.101 A 
ATOM      2  C   UNL     1     106.374 105.073 102.560  1.00  0.00     0.019 A 
ATOM      3  C   UNL     1     107.614 105.679 102.336  1.00  0.00     0.001 A 
ATOM      4  C   UNL     1     107.688 107.048 102.083  1.00  0.00     0.004 A 
ATOM      5  C   UNL     1     106.524 107.816 102.054  1.00  0.00     0.047 A 
ATOM      6  C   UNL     1     105.272 107.221 102.277  1.00  0.00     0.130 A 
ENDROOT
BRANCH   1   7
ATOM      7  C   UNL     1     103.889 105.153 102.778  1.00  0.00     0.341 C 
ATOM      8  O   UNL     1     103.009 105.109 101.875  1.00  0.00    -0.246 OA
BRANCH   7   9
ATOM      9  O   UNL     1     103.638 104.559 104.020  1.00  0.00    -0.465 OA
ATOM     10  C   UNL     1     103.773 105.261 105.250  1.00  0.00     0.282 C 
ENDBRANCH   7   9
ENDBRANCH   1   7
BRANCH   6  11
ATOM     11  O   UNL     1     104.123 108.012 102.242  1.00  0.00    -0.507 OA
ATOM     12  H   UNL     1     103.552 108.084 101.409  1.00  0.00     0.293 HD
ENDBRANCH   6  11
TORSDOF 3
ENDMDL
MODEL 9
REMARK VINA RESULT:    -3.458      2.724      3.198
REMARK INTER + INTRA:          -4.209
REMARK INTER:                  -4.004
REMARK INTRA:                  -0.205
REMARK UNBOUND:                -0.246
REMARK SMILES COC(=O)c1ccccc1O
REMARK SMILES IDX 5 1 6 2 7 3 8 4 9 5 10 6 3 7 4 8 2 9 1 10 11 11
REMARK H PARENT 11 12
REMARK Flexibility Score: inf
ROOT
ATOM      1  C   UNL     1     107.240 107.401 103.680  1.00  0.00     0.101 A 
ATOM      2  C   UNL     1     106.000 107.876 103.212  1.00  0.00     0.019 A 
ATOM      3  C   UNL     1     104.960 108.155 104.103  1.00  0.00     0.001 A 
ATOM      4  C   UNL     1     105.142 107.965 105.473  1.00  0.00     0.004 A 
ATOM      5  C   UNL     1     106.364 107.495 105.956  1.00  0.00     0.047 A 
ATOM      6  C   UNL     1     107.416 107.210 105.072  1.00  0.00     0.130 A 
ENDROOT
BRANCH   1   7
ATOM      7  C   UNL     1     108.322 107.115 102.703  1.00  0.00     0.341 C 
ATOM      8  O   UNL     1     109.324 107.876 102.613  1.00  0.00    -0.246 OA
BRANCH   7   9
ATOM      9  O   UNL     1     108.228 105.991 101.875  1.00  0.00    -0.465 OA
ATOM     10  C   UNL     1     107.516 104.817 102.248  1.00  0.00     0.282 C 
ENDBRANCH   7   9
ENDBRANCH   1   7
BRANCH   6  11
ATOM     11  O   UNL     1     108.628 106.741 105.581  1.00  0.00    -0.507 OA
ATOM     12  H   UNL     1     109.492 106.824 105.059  1.00  0.00     0.293 HD
ENDBRANCH   6  11
TORSDOF 3
ENDMDL
