MODEL 1
REMARK VINA RESULT:    -4.047      0.000      0.000
REMARK INTER + INTRA:          -6.948
REMARK INTER:                  -6.176
REMARK INTRA:                  -0.772
REMARK UNBOUND:                -0.772
REMARK SMILES CCCCCCCCCCC(=O)[O-]
REMARK SMILES IDX 7 1 8 2 9 3 10 4 11 5 12 6 13 7 6 8 5 9 4 10 3 11 2 12 1 13
REMARK H PARENT
REMARK Flexibility Score: inf
ROOT
ATOM      1  C   UNL     1      -5.412  -2.794   6.792  1.00  0.00     0.000 C 
ENDROOT
BRANCH   1   2
ATOM      2  C   UNL     1      -5.520  -3.759   5.595  1.00  0.00     0.000 C 
BRANCH   2   3
ATOM      3  C   UNL     1      -6.423  -3.271   4.447  1.00  0.00     0.006 C 
BRANCH   3   4
ATOM      4  C   UNL     1      -6.787  -1.780   4.520  1.00  0.00     0.053 C 
BRANCH   4   5
ATOM      5  C   UNL     1      -7.178  -1.233   3.181  1.00  0.00     0.041 C 
ATOM      6  O   UNL     1      -6.800  -0.085   2.831  1.00  0.00    -0.550 OA
ATOM      7  O   UNL     1      -7.932  -2.006   2.307  1.00  0.00    -0.550 OA
ENDBRANCH   4   5
ENDBRANCH   3   4
ENDBRANCH   2   3
ENDBRANCH   1   2
BRANCH   1   8
ATOM      8  C   UNL     1      -3.962  -2.403   7.147  1.00  0.00     0.000 C 
BRANCH   8   9
ATOM      9  C   UNL     1      -3.846  -1.819   8.566  1.00  0.00    -0.000 C 
BRANCH   9  10
ATOM     10  C   UNL     1      -3.537  -0.313   8.561  1.00  0.00    -0.000 C 
BRANCH  10  11
ATOM     11  C   UNL     1      -3.300   0.232   7.141  1.00  0.00    -0.000 C 
BRANCH  11  12
ATOM     12  C   UNL     1      -4.151   1.476   6.839  1.00  0.00    -0.003 C 
ATOM     13  C   UNL     1      -5.583   1.131   6.429  1.00  0.00     0.004 C 
ENDBRANCH  11  12
ENDBRANCH  10  11
ENDBRANCH   9  10
ENDBRANCH   8   9
ENDBRANCH   1   8
TORSDOF 9
ENDMDL
MODEL 2
REMARK VINA RESULT:    -4.041      2.758      5.152
REMARK INTER + INTRA:          -6.939
REMARK INTER:                  -6.080
REMARK INTRA:                  -0.859
REMARK UNBOUND:                -0.772
REMARK SMILES CCCCCCCCCCC(=O)[O-]
REMARK SMILES IDX 7 1 8 2 9 3 10 4 11 5 12 6 13 7 6 8 5 9 4 10 3 11 2 12 1 13
REMARK H PARENT
REMARK Flexibility Score: inf
ROOT
ATOM      1  C   UNL     1      -4.080  -2.653   7.087  1.00  0.00     0.000 C 
ENDROOT
BRANCH   1   2
ATOM      2  C   UNL     1      -4.158  -1.270   7.762  1.00  0.00     0.000 C 
BRANCH   2   3
ATOM      3  C   UNL     1      -3.498  -0.124   6.973  1.00  0.00     0.006 C 
BRANCH   3   4
ATOM      4  C   UNL     1      -2.750   0.896   7.847  1.00  0.00     0.053 C 
BRANCH   4   5
ATOM      5  C   UNL     1      -3.314   2.277   7.703  1.00  0.00     0.041 C 
ATOM      6  O   UNL     1      -4.007   2.575   6.695  1.00  0.00    -0.550 OA
ATOM      7  O   UNL     1      -3.102   3.223   8.697  1.00  0.00    -0.550 OA
ENDBRANCH   4   5
ENDBRANCH   3   4
ENDBRANCH   2   3
ENDBRANCH   1   2
BRANCH   1   8
ATOM      8  C   UNL     1      -5.445  -3.189   6.606  1.00  0.00     0.000 C 
BRANCH   8   9
ATOM      9  C   UNL     1      -5.386  -3.726   5.165  1.00  0.00    -0.000 C 
BRANCH   9  10
ATOM     10  C   UNL     1      -6.517  -3.173   4.283  1.00  0.00    -0.000 C 
BRANCH  10  11
ATOM     11  C   UNL     1      -7.190  -1.935   4.900  1.00  0.00    -0.000 C 
BRANCH  11  12
ATOM     12  C   UNL     1      -6.744  -0.627   4.228  1.00  0.00    -0.003 C 
ATOM     13  C   UNL     1      -6.744   0.564   5.187  1.00  0.00     0.004 C 
ENDBRANCH  11  12
ENDBRANCH  10  11
ENDBRANCH   9  10
ENDBRANCH   8   9
ENDBRANCH   1   8
TORSDOF 9
ENDMDL
MODEL 3
REMARK VINA RESULT:    -4.019      0.684      3.207
REMARK INTER + INTRA:          -6.905
REMARK INTER:                  -5.965
REMARK INTRA:                  -0.940
REMARK UNBOUND:                -0.772
REMARK SMILES CCCCCCCCCCC(=O)[O-]
REMARK SMILES IDX 7 1 8 2 9 3 10 4 11 5 12 6 13 7 6 8 5 9 4 10 3 11 2 12 1 13
REMARK H PARENT
REMARK Flexibility Score: inf
ROOT
ATOM      1  C   UNL     1      -4.281   1.477   6.878  1.00  0.00     0.000 C 
ENDROOT
BRANCH   1   2
ATOM      2  C   UNL     1      -5.760   1.069   6.728  1.00  0.00     0.000 C 
BRANCH   2   3
ATOM      3  C   UNL     1      -6.253   0.942   5.274  1.00  0.00     0.006 C 
BRANCH   3   4
ATOM      4  C   UNL     1      -6.782  -0.454   4.906  1.00  0.00     0.053 C 
BRANCH   4   5
ATOM      5  C   UNL     1      -7.047  -0.583   3.437  1.00  0.00     0.041 C 
ATOM      6  O   UNL     1      -6.850   0.396   2.671  1.00  0.00    -0.550 OA
ATOM      7  O   UNL     1      -7.480  -1.793   2.911  1.00  0.00    -0.550 OA
ENDBRANCH   4   5
ENDBRANCH   3   4
ENDBRANCH   2   3
ENDBRANCH   1   2
BRANCH   1   8
ATOM      8  C   UNL     1      -3.327   0.285   7.109  1.00  0.00     0.000 C 
BRANCH   8   9
ATOM      9  C   UNL     1      -3.547  -0.380   8.479  1.00  0.00    -0.000 C 
BRANCH   9  10
ATOM     10  C   UNL     1      -3.838  -1.885   8.365  1.00  0.00    -0.000 C 
BRANCH  10  11
ATOM     11  C   UNL     1      -3.968  -2.348   6.903  1.00  0.00    -0.000 C 
BRANCH  11  12
ATOM     12  C   UNL     1      -5.261  -3.137   6.649  1.00  0.00    -0.003 C 
ATOM     13  C   UNL     1      -5.296  -3.793   5.268  1.00  0.00     0.004 C 
ENDBRANCH  11  12
ENDBRANCH  10  11
ENDBRANCH   9  10
ENDBRANCH   8   9
ENDBRANCH   1   8
TORSDOF 9
ENDMDL
MODEL 4
REMARK VINA RESULT:    -3.911      1.416      2.615
REMARK INTER + INTRA:          -6.740
REMARK INTER:                  -5.584
REMARK INTRA:                  -1.157
REMARK UNBOUND:                -0.772
REMARK SMILES CCCCCCCCCCC(=O)[O-]
REMARK SMILES IDX 7 1 8 2 9 3 10 4 11 5 12 6 13 7 6 8 5 9 4 10 3 11 2 12 1 13
REMARK H PARENT
REMARK Flexibility Score: inf
ROOT
ATOM      1  C   UNL     1      -4.190  -2.007   8.454  1.00  0.00     0.000 C 
ENDROOT
BRANCH   1   2
ATOM      2  C   UNL     1      -4.044  -2.688   7.080  1.00  0.00     0.000 C 
BRANCH   2   3
ATOM      3  C   UNL     1      -5.296  -3.442   6.592  1.00  0.00     0.006 C 
BRANCH   3   4
ATOM      4  C   UNL     1      -5.299  -3.754   5.087  1.00  0.00     0.053 C 
BRANCH   4   5
ATOM      5  C   UNL     1      -6.684  -3.737   4.515  1.00  0.00     0.041 C 
ATOM      6  O   UNL     1      -7.033  -2.815   3.731  1.00  0.00    -0.550 OA
ATOM      7  O   UNL     1      -7.576  -4.756   4.820  1.00  0.00    -0.550 OA
ENDBRANCH   4   5
ENDBRANCH   3   4
ENDBRANCH   2   3
ENDBRANCH   1   2
BRANCH   1   8
ATOM      8  C   UNL     1      -3.600  -0.581   8.507  1.00  0.00     0.000 C 
BRANCH   8   9
ATOM      9  C   UNL     1      -3.557   0.084   7.120  1.00  0.00    -0.000 C 
BRANCH   9  10
ATOM     10  C   UNL     1      -4.326   1.415   7.080  1.00  0.00    -0.000 C 
BRANCH  10  11
ATOM     11  C   UNL     1      -5.397   1.440   5.976  1.00  0.00    -0.000 C 
BRANCH  11  12
ATOM     12  C   UNL     1      -5.945   0.040   5.656  1.00  0.00    -0.003 C 
ATOM     13  C   UNL     1      -7.242  -0.275   6.401  1.00  0.00     0.004 C 
ENDBRANCH  11  12
ENDBRANCH  10  11
ENDBRANCH   9  10
ENDBRANCH   8   9
ENDBRANCH   1   8
TORSDOF 9
ENDMDL
MODEL 5
REMARK VINA RESULT:    -3.898      3.410      5.960
REMARK INTER + INTRA:          -6.721
REMARK INTER:                  -6.294
REMARK INTRA:                  -0.428
REMARK UNBOUND:                -0.772
REMARK SMILES CCCCCCCCCCC(=O)[O-]
REMARK SMILES IDX 7 1 8 2 9 3 10 4 11 5 12 6 13 7 6 8 5 9 4 10 3 11 2 12 1 13
REMARK H PARENT
REMARK Flexibility Score: inf
ROOT
ATOM      1  C   UNL     1      -3.870  -0.662   8.622  1.00  0.00     0.000 C 
ENDROOT
BRANCH   1   2
ATOM      2  C   UNL     1      -3.338   0.051   7.363  1.00  0.00     0.000 C 
BRANCH   2   3
ATOM      3  C   UNL     1      -2.433   1.266   7.640  1.00  0.00     0.006 C 
BRANCH   3   4
ATOM      4  C   UNL     1      -2.577   1.854   9.053  1.00  0.00     0.053 C 
BRANCH   4   5
ATOM      5  C   UNL     1      -3.510   3.026   9.079  1.00  0.00     0.041 C 
ATOM      6  O   UNL     1      -3.062   4.194   8.935  1.00  0.00    -0.550 OA
ATOM      7  O   UNL     1      -4.876   2.826   9.228  1.00  0.00    -0.550 OA
ENDBRANCH   4   5
ENDBRANCH   3   4
ENDBRANCH   2   3
ENDBRANCH   1   2
BRANCH   1   8
ATOM      8  C   UNL     1      -4.148  -2.166   8.413  1.00  0.00     0.000 C 
BRANCH   8   9
ATOM      9  C   UNL     1      -4.019  -2.584   6.938  1.00  0.00    -0.000 C 
BRANCH   9  10
ATOM     10  C   UNL     1      -5.383  -2.731   6.245  1.00  0.00    -0.000 C 
BRANCH  10  11
ATOM     11  C   UNL     1      -5.410  -3.902   5.246  1.00  0.00    -0.000 C 
BRANCH  11  12
ATOM     12  C   UNL     1      -6.805  -4.130   4.645  1.00  0.00    -0.003 C 
ATOM     13  C   UNL     1      -7.297  -2.943   3.817  1.00  0.00     0.004 C 
ENDBRANCH  11  12
ENDBRANCH  10  11
ENDBRANCH   9  10
ENDBRANCH   8   9
ENDBRANCH   1   8
TORSDOF 9
ENDMDL
MODEL 6
REMARK VINA RESULT:    -3.889      0.904      1.508
REMARK INTER + INTRA:          -6.707
REMARK INTER:                  -6.131
REMARK INTRA:                  -0.576
REMARK UNBOUND:                -0.772
REMARK SMILES CCCCCCCCCCC(=O)[O-]
REMARK SMILES IDX 7 1 8 2 9 3 10 4 11 5 12 6 13 7 6 8 5 9 4 10 3 11 2 12 1 13
REMARK H PARENT
REMARK Flexibility Score: inf
ROOT
ATOM      1  C   UNL     1      -5.128  -3.701   5.339  1.00  0.00     0.000 C 
ENDROOT
BRANCH   1   2
ATOM      2  C   UNL     1      -6.437  -3.777   4.529  1.00  0.00     0.000 C 
BRANCH   2   3
ATOM      3  C   UNL     1      -7.346  -2.539   4.647  1.00  0.00     0.006 C 
BRANCH   3   4
ATOM      4  C   UNL     1      -6.664  -1.216   4.264  1.00  0.00     0.053 C 
BRANCH   4   5
ATOM      5  C   UNL     1      -7.136  -0.707   2.936  1.00  0.00     0.041 C 
ATOM      6  O   UNL     1      -6.962   0.500   2.623  1.00  0.00    -0.550 OA
ATOM      7  O   UNL     1      -7.736  -1.574   2.032  1.00  0.00    -0.550 OA
ENDBRANCH   4   5
ENDBRANCH   3   4
ENDBRANCH   2   3
ENDBRANCH   1   2
BRANCH   1   8
ATOM      8  C   UNL     1      -5.315  -3.172   6.777  1.00  0.00     0.000 C 
BRANCH   8   9
ATOM      9  C   UNL     1      -4.087  -2.392   7.276  1.00  0.00    -0.000 C 
BRANCH   9  10
ATOM     10  C   UNL     1      -4.445  -0.982   7.773  1.00  0.00    -0.000 C 
BRANCH  10  11
ATOM     11  C   UNL     1      -4.017   0.115   6.783  1.00  0.00    -0.000 C 
BRANCH  11  12
ATOM     12  C   UNL     1      -3.664   1.436   7.484  1.00  0.00    -0.003 C 
ATOM     13  C   UNL     1      -2.297   1.400   8.166  1.00  0.00     0.004 C 
ENDBRANCH  11  12
ENDBRANCH  10  11
ENDBRANCH   9  10
ENDBRANCH   8   9
ENDBRANCH   1   8
TORSDOF 9
ENDMDL
MODEL 7
REMARK VINA RESULT:    -3.726      3.218      5.822
REMARK INTER + INTRA:          -6.458
REMARK INTER:                  -5.685
REMARK INTRA:                  -0.773
REMARK UNBOUND:                -0.772
REMARK SMILES CCCCCCCCCCC(=O)[O-]
REMARK SMILES IDX 7 1 8 2 9 3 10 4 11 5 12 6 13 7 6 8 5 9 4 10 3 11 2 12 1 13
REMARK H PARENT
REMARK Flexibility Score: inf
ROOT
ATOM      1  C   UNL     1      -6.888   0.543   4.190  1.00  0.00     0.000 C 
ENDROOT
BRANCH   1   2
ATOM      2  C   UNL     1      -6.261   0.149   5.542  1.00  0.00     0.000 C 
BRANCH   2   3
ATOM      3  C   UNL     1      -5.202   1.131   6.077  1.00  0.00     0.006 C 
BRANCH   3   4
ATOM      4  C   UNL     1      -4.054   0.463   6.850  1.00  0.00     0.053 C 
BRANCH   4   5
ATOM      5  C   UNL     1      -3.253   1.458   7.634  1.00  0.00     0.041 C 
ATOM      6  O   UNL     1      -2.038   1.239   7.881  1.00  0.00    -0.550 OA
ATOM      7  O   UNL     1      -3.840   2.641   8.062  1.00  0.00    -0.550 OA
ENDBRANCH   4   5
ENDBRANCH   3   4
ENDBRANCH   2   3
ENDBRANCH   1   2
BRANCH   1   8
ATOM      8  C   UNL     1      -7.271  -0.664   3.307  1.00  0.00     0.000 C 
BRANCH   8   9
ATOM      9  C   UNL     1      -7.940  -1.790   4.116  1.00  0.00    -0.000 C 
BRANCH   9  10
ATOM     10  C   UNL     1      -7.438  -3.185   3.712  1.00  0.00    -0.000 C 
BRANCH  10  11
ATOM     11  C   UNL     1      -6.869  -3.972   4.906  1.00  0.00    -0.000 C 
BRANCH  11  12
ATOM     12  C   UNL     1      -5.343  -3.840   5.025  1.00  0.00    -0.003 C 
ATOM     13  C   UNL     1      -4.906  -3.141   6.312  1.00  0.00     0.004 C 
ENDBRANCH  11  12
ENDBRANCH  10  11
ENDBRANCH   9  10
ENDBRANCH   8   9
ENDBRANCH   1   8
TORSDOF 9
ENDMDL
MODEL 8
REMARK VINA RESULT:    -3.669      2.083      4.042
REMARK INTER + INTRA:          -6.372
REMARK INTER:                  -5.484
REMARK INTRA:                  -0.887
REMARK UNBOUND:                -0.772
REMARK SMILES CCCCCCCCCCC(=O)[O-]
REMARK SMILES IDX 7 1 8 2 9 3 10 4 11 5 12 6 13 7 6 8 5 9 4 10 3 11 2 12 1 13
REMARK H PARENT
REMARK Flexibility Score: inf
ROOT
ATOM      1  C   UNL     1      -3.234   0.251   7.299  1.00  0.00     0.000 C 
ENDROOT
BRANCH   1   2
ATOM      2  C   UNL     1      -3.864  -1.003   7.937  1.00  0.00     0.000 C 
BRANCH   2   3
ATOM      3  C   UNL     1      -4.074  -2.186   6.972  1.00  0.00     0.006 C 
BRANCH   3   4
ATOM      4  C   UNL     1      -5.507  -2.316   6.434  1.00  0.00     0.053 C 
BRANCH   4   5
ATOM      5  C   UNL     1      -5.740  -3.641   5.775  1.00  0.00     0.041 C 
ATOM      6  O   UNL     1      -5.246  -3.880   4.642  1.00  0.00    -0.550 OA
ATOM      7  O   UNL     1      -6.473  -4.624   6.428  1.00  0.00    -0.550 OA
ENDBRANCH   4   5
ENDBRANCH   3   4
ENDBRANCH   2   3
ENDBRANCH   1   2
BRANCH   1   8
ATOM      8  C   UNL     1      -4.194   1.458   7.220  1.00  0.00     0.000 C 
BRANCH   8   9
ATOM      9  C   UNL     1      -5.153   1.362   6.021  1.00  0.00    -0.000 C 
BRANCH   9  10
ATOM     10  C   UNL     1      -6.629   1.484   6.435  1.00  0.00    -0.000 C 
BRANCH  10  11
ATOM     11  C   UNL     1      -7.591   1.107   5.294  1.00  0.00    -0.000 C 
BRANCH  11  12
ATOM     12  C   UNL     1      -6.859   0.856   3.967  1.00  0.00    -0.003 C 
ATOM     13  C   UNL     1      -7.033  -0.574   3.454  1.00  0.00     0.004 C 
ENDBRANCH  11  12
ENDBRANCH  10  11
ENDBRANCH   9  10
ENDBRANCH   8   9
ENDBRANCH   1   8
TORSDOF 9
ENDMDL
MODEL 9
REMARK VINA RESULT:    -3.650     11.243     13.308
REMARK INTER + INTRA:          -6.342
REMARK INTER:                  -5.441
REMARK INTRA:                  -0.901
REMARK UNBOUND:                -0.772
REMARK SMILES CCCCCCCCCCC(=O)[O-]
REMARK SMILES IDX 7 1 8 2 9 3 10 4 11 5 12 6 13 7 6 8 5 9 4 10 3 11 2 12 1 13
REMARK H PARENT
REMARK Flexibility Score: inf
ROOT
ATOM      1  C   UNL     1      -5.062   0.176  -4.549  1.00  0.00     0.000 C 
ENDROOT
BRANCH   1   2
ATOM      2  C   UNL     1      -5.270  -1.112  -5.369  1.00  0.00     0.000 C 
BRANCH   2   3
ATOM      3  C   UNL     1      -4.149  -1.429  -6.377  1.00  0.00     0.006 C 
BRANCH   3   4
ATOM      4  C   UNL     1      -3.585  -0.197  -7.102  1.00  0.00     0.053 C 
BRANCH   4   5
ATOM      5  C   UNL     1      -2.295  -0.501  -7.801  1.00  0.00     0.041 C 
ATOM      6  O   UNL     1      -2.040  -1.676  -8.176  1.00  0.00    -0.550 OA
ATOM      7  O   UNL     1      -1.391   0.518  -8.068  1.00  0.00    -0.550 OA
ENDBRANCH   4   5
ENDBRANCH   3   4
ENDBRANCH   2   3
ENDBRANCH   1   2
BRANCH   1   8
ATOM      8  C   UNL     1      -6.377   0.883  -4.157  1.00  0.00     0.000 C 
BRANCH   8   9
ATOM      9  C   UNL     1      -7.494   0.650  -5.189  1.00  0.00    -0.000 C 
BRANCH   9  10
ATOM     10  C   UNL     1      -7.570   1.769  -6.241  1.00  0.00    -0.000 C 
BRANCH  10  11
ATOM     11  C   UNL     1      -7.011   1.328  -7.605  1.00  0.00    -0.000 C 
BRANCH  11  12
ATOM     12  C   UNL     1      -6.569   2.518  -8.472  1.00  0.00    -0.003 C 
ATOM     13  C   UNL     1      -5.337   2.208  -9.321  1.00  0.00     0.004 C 
ENDBRANCH  11  12
ENDBRANCH  10  11
ENDBRANCH   9  10
ENDBRANCH   8   9
ENDBRANCH   1   8
TORSDOF 9
ENDMDL
