MODEL 1
REMARK VINA RESULT:    -4.719      0.000      0.000
REMARK INTER + INTRA:          -6.938
REMARK INTER:                  -6.649
REMARK INTRA:                  -0.289
REMARK UNBOUND:                -0.289
REMARK SMILES CCCCCCCCC(=O)[O-]
REMARK SMILES IDX 6 1 7 2 8 3 9 4 10 5 11 6 5 7 4 8 3 9 2 10 1 11
REMARK H PARENT
REMARK Flexibility Score: inf
ROOT
ATOM      1  C   UNL     1       3.135 -29.070   3.079  1.00  0.00     0.000 C 
ENDROOT
BRANCH   1   2
ATOM      2  C   UNL     1       3.791 -29.811   4.261  1.00  0.00     0.006 C 
BRANCH   2   3
ATOM      3  C   UNL     1       3.099 -29.590   5.616  1.00  0.00     0.053 C 
BRANCH   3   4
ATOM      4  C   UNL     1       2.180 -30.719   5.968  1.00  0.00     0.041 C 
ATOM      5  O   UNL     1       2.554 -31.912   5.817  1.00  0.00    -0.550 OA
ATOM      6  O   UNL     1       0.897 -30.453   6.430  1.00  0.00    -0.550 OA
ENDBRANCH   3   4
ENDBRANCH   2   3
ENDBRANCH   1   2
BRANCH   1   7
ATOM      7  C   UNL     1       3.798 -29.308   1.710  1.00  0.00     0.000 C 
BRANCH   7   8
ATOM      8  C   UNL     1       3.149 -28.496   0.580  1.00  0.00    -0.000 C 
BRANCH   8   9
ATOM      9  C   UNL     1       1.712 -28.102   0.942  1.00  0.00    -0.000 C 
BRANCH   9  10
ATOM     10  C   UNL     1       1.186 -27.013  -0.001  1.00  0.00    -0.003 C 
ATOM     11  C   UNL     1       2.007 -26.954  -1.286  1.00  0.00     0.004 C 
ENDBRANCH   9  10
ENDBRANCH   8   9
ENDBRANCH   7   8
ENDBRANCH   1   7
TORSDOF 7
ENDMDL
MODEL 2
REMARK VINA RESULT:    -4.637      4.826      7.265
REMARK INTER + INTRA:          -6.823
REMARK INTER:                  -6.584
REMARK INTRA:                  -0.240
REMARK UNBOUND:                -0.289
REMARK SMILES CCCCCCCCC(=O)[O-]
REMARK SMILES IDX 6 1 7 2 8 3 9 4 10 5 11 6 5 7 4 8 3 9 2 10 1 11
REMARK H PARENT
REMARK Flexibility Score: inf
ROOT
ATOM      1  C   UNL     1      -0.862 -26.838   0.182  1.00  0.00     0.000 C 
ENDROOT
BRANCH   1   2
ATOM      2  C   UNL     1      -2.009 -25.882  -0.205  1.00  0.00     0.006 C 
BRANCH   2   3
ATOM      3  C   UNL     1      -1.549 -24.510  -0.722  1.00  0.00     0.053 C 
BRANCH   3   4
ATOM      4  C   UNL     1      -1.882 -23.409   0.239  1.00  0.00     0.041 C 
ATOM      5  O   UNL     1      -3.036 -23.329   0.736  1.00  0.00    -0.550 OA
ATOM      6  O   UNL     1      -0.928 -22.451   0.557  1.00  0.00    -0.550 OA
ENDBRANCH   3   4
ENDBRANCH   2   3
ENDBRANCH   1   2
BRANCH   1   7
ATOM      7  C   UNL     1       0.518 -26.465  -0.388  1.00  0.00     0.000 C 
BRANCH   7   8
ATOM      8  C   UNL     1       1.543 -27.602  -0.268  1.00  0.00    -0.000 C 
BRANCH   8   9
ATOM      9  C   UNL     1       1.750 -28.003   1.197  1.00  0.00    -0.000 C 
BRANCH   9  10
ATOM     10  C   UNL     1       3.076 -28.751   1.380  1.00  0.00    -0.003 C 
ATOM     11  C   UNL     1       3.304 -29.117   2.844  1.00  0.00     0.004 C 
ENDBRANCH   9  10
ENDBRANCH   8   9
ENDBRANCH   7   8
ENDBRANCH   1   7
TORSDOF 7
ENDMDL
MODEL 3
REMARK VINA RESULT:    -4.576      1.076      1.379
REMARK INTER + INTRA:          -6.737
REMARK INTER:                  -6.483
REMARK INTRA:                  -0.255
REMARK UNBOUND:                -0.289
REMARK SMILES CCCCCCCCC(=O)[O-]
REMARK SMILES IDX 6 1 7 2 8 3 9 4 10 5 11 6 5 7 4 8 3 9 2 10 1 11
REMARK H PARENT
REMARK Flexibility Score: inf
ROOT
ATOM      1  C   UNL     1       2.989 -29.792   2.697  1.00  0.00     0.000 C 
ENDROOT
BRANCH   1   2
ATOM      2  C   UNL     1       3.513 -29.621   4.137  1.00  0.00     0.006 C 
BRANCH   2   3
ATOM      3  C   UNL     1       3.000 -30.674   5.132  1.00  0.00     0.053 C 
BRANCH   3   4
ATOM      4  C   UNL     1       2.064 -30.083   6.142  1.00  0.00     0.041 C 
ATOM      5  O   UNL     1       0.976 -30.656   6.410  1.00  0.00    -0.550 OA
ATOM      6  O   UNL     1       2.380 -28.881   6.763  1.00  0.00    -0.550 OA
ENDBRANCH   3   4
ENDBRANCH   2   3
ENDBRANCH   1   2
BRANCH   1   7
ATOM      7  C   UNL     1       2.882 -28.490   1.882  1.00  0.00     0.000 C 
BRANCH   7   8
ATOM      8  C   UNL     1       3.124 -28.702   0.381  1.00  0.00    -0.000 C 
BRANCH   8   9
ATOM      9  C   UNL     1       2.150 -27.864  -0.456  1.00  0.00    -0.000 C 
BRANCH   9  10
ATOM     10  C   UNL     1       0.951 -27.411   0.385  1.00  0.00    -0.003 C 
ATOM     11  C   UNL     1       0.059 -26.452  -0.399  1.00  0.00     0.004 C 
ENDBRANCH   9  10
ENDBRANCH   8   9
ENDBRANCH   7   8
ENDBRANCH   1   7
TORSDOF 7
ENDMDL
MODEL 4
REMARK VINA RESULT:    -4.551      4.395      6.341
REMARK INTER + INTRA:          -6.702
REMARK INTER:                  -6.471
REMARK INTRA:                  -0.231
REMARK UNBOUND:                -0.289
REMARK SMILES CCCCCCCCC(=O)[O-]
REMARK SMILES IDX 6 1 7 2 8 3 9 4 10 5 11 6 5 7 4 8 3 9 2 10 1 11
REMARK H PARENT
REMARK Flexibility Score: inf
ROOT
ATOM      1  C   UNL     1      -0.560 -26.104  -0.336  1.00  0.00     0.000 C 
ENDROOT
BRANCH   1   2
ATOM      2  C   UNL     1       0.846 -26.736  -0.353  1.00  0.00     0.006 C 
BRANCH   2   3
ATOM      3  C   UNL     1       1.140 -27.670   0.831  1.00  0.00     0.053 C 
BRANCH   3   4
ATOM      4  C   UNL     1       2.535 -28.215   0.783  1.00  0.00     0.041 C 
ATOM      5  O   UNL     1       3.114 -28.379  -0.323  1.00  0.00    -0.550 OA
ATOM      6  O   UNL     1       3.183 -28.571   1.959  1.00  0.00    -0.550 OA
ENDBRANCH   3   4
ENDBRANCH   2   3
ENDBRANCH   1   2
BRANCH   1   7
ATOM      7  C   UNL     1      -0.938 -25.316  -1.603  1.00  0.00     0.000 C 
BRANCH   7   8
ATOM      8  C   UNL     1      -2.224 -24.494  -1.438  1.00  0.00    -0.000 C 
BRANCH   8   9
ATOM      9  C   UNL     1      -2.342 -23.937  -0.014  1.00  0.00    -0.000 C 
BRANCH   9  10
ATOM     10  C   UNL     1      -3.706 -24.275   0.598  1.00  0.00    -0.003 C 
ATOM     11  C   UNL     1      -4.227 -23.124   1.453  1.00  0.00     0.004 C 
ENDBRANCH   9  10
ENDBRANCH   8   9
ENDBRANCH   7   8
ENDBRANCH   1   7
TORSDOF 7
ENDMDL
MODEL 5
REMARK VINA RESULT:    -4.510      5.445      7.884
REMARK INTER + INTRA:          -6.644
REMARK INTER:                  -6.465
REMARK INTRA:                  -0.180
REMARK UNBOUND:                -0.289
REMARK SMILES CCCCCCCCC(=O)[O-]
REMARK SMILES IDX 6 1 7 2 8 3 9 4 10 5 11 6 5 7 4 8 3 9 2 10 1 11
REMARK H PARENT
REMARK Flexibility Score: inf
ROOT
ATOM      1  C   UNL     1      -1.413 -25.071  -1.480  1.00  0.00     0.000 C 
ENDROOT
BRANCH   1   2
ATOM      2  C   UNL     1      -2.765 -24.425  -1.116  1.00  0.00     0.006 C 
BRANCH   2   3
ATOM      3  C   UNL     1      -2.812 -23.788   0.282  1.00  0.00     0.053 C 
BRANCH   3   4
ATOM      4  C   UNL     1      -4.198 -23.790   0.853  1.00  0.00     0.041 C 
ATOM      5  O   UNL     1      -5.009 -24.703   0.545  1.00  0.00    -0.550 OA
ATOM      6  O   UNL     1      -4.604 -22.764   1.697  1.00  0.00    -0.550 OA
ENDBRANCH   3   4
ENDBRANCH   2   3
ENDBRANCH   1   2
BRANCH   1   7
ATOM      7  C   UNL     1      -0.589 -25.577  -0.282  1.00  0.00     0.000 C 
BRANCH   7   8
ATOM      8  C   UNL     1       0.538 -26.536  -0.693  1.00  0.00    -0.000 C 
BRANCH   8   9
ATOM      9  C   UNL     1       0.849 -27.532   0.430  1.00  0.00    -0.000 C 
BRANCH   9  10
ATOM     10  C   UNL     1       2.258 -28.116   0.274  1.00  0.00    -0.003 C 
ATOM     11  C   UNL     1       2.844 -28.510   1.626  1.00  0.00     0.004 C 
ENDBRANCH   9  10
ENDBRANCH   8   9
ENDBRANCH   7   8
ENDBRANCH   1   7
TORSDOF 7
ENDMDL
MODEL 6
REMARK VINA RESULT:    -4.460      4.876      7.159
REMARK INTER + INTRA:          -6.574
REMARK INTER:                  -6.388
REMARK INTRA:                  -0.186
REMARK UNBOUND:                -0.289
REMARK SMILES CCCCCCCCC(=O)[O-]
REMARK SMILES IDX 6 1 7 2 8 3 9 4 10 5 11 6 5 7 4 8 3 9 2 10 1 11
REMARK H PARENT
REMARK Flexibility Score: inf
ROOT
ATOM      1  C   UNL     1       0.135 -27.003  -0.053  1.00  0.00     0.000 C 
ENDROOT
BRANCH   1   2
ATOM      2  C   UNL     1      -0.658 -25.729  -0.407  1.00  0.00     0.006 C 
BRANCH   2   3
ATOM      3  C   UNL     1      -2.152 -25.787  -0.049  1.00  0.00     0.053 C 
BRANCH   3   4
ATOM      4  C   UNL     1      -2.860 -24.511  -0.388  1.00  0.00     0.041 C 
ATOM      5  O   UNL     1      -3.049 -24.191  -1.591  1.00  0.00    -0.550 OA
ATOM      6  O   UNL     1      -3.282 -23.659   0.625  1.00  0.00    -0.550 OA
ENDBRANCH   3   4
ENDBRANCH   2   3
ENDBRANCH   1   2
BRANCH   1   7
ATOM      7  C   UNL     1       1.534 -27.098  -0.687  1.00  0.00     0.000 C 
BRANCH   7   8
ATOM      8  C   UNL     1       2.379 -28.242  -0.108  1.00  0.00    -0.000 C 
BRANCH   8   9
ATOM      9  C   UNL     1       2.298 -28.264   1.423  1.00  0.00    -0.000 C 
BRANCH   9  10
ATOM     10  C   UNL     1       3.009 -29.497   1.994  1.00  0.00    -0.003 C 
ATOM     11  C   UNL     1       3.412 -29.276   3.449  1.00  0.00     0.004 C 
ENDBRANCH   9  10
ENDBRANCH   8   9
ENDBRANCH   7   8
ENDBRANCH   1   7
TORSDOF 7
ENDMDL
MODEL 7
REMARK VINA RESULT:    -4.445      4.654      7.047
REMARK INTER + INTRA:          -6.553
REMARK INTER:                  -6.335
REMARK INTRA:                  -0.218
REMARK UNBOUND:                -0.289
REMARK SMILES CCCCCCCCC(=O)[O-]
REMARK SMILES IDX 6 1 7 2 8 3 9 4 10 5 11 6 5 7 4 8 3 9 2 10 1 11
REMARK H PARENT
REMARK Flexibility Score: inf
ROOT
ATOM      1  C   UNL     1       0.557 -27.364  -0.386  1.00  0.00     0.000 C 
ENDROOT
BRANCH   1   2
ATOM      2  C   UNL     1      -0.485 -26.300   0.013  1.00  0.00     0.006 C 
BRANCH   2   3
ATOM      3  C   UNL     1      -1.009 -25.450  -1.156  1.00  0.00     0.053 C 
BRANCH   3   4
ATOM      4  C   UNL     1      -1.915 -24.352  -0.689  1.00  0.00     0.041 C 
ATOM      5  O   UNL     1      -3.131 -24.353  -1.014  1.00  0.00    -0.550 OA
ATOM      6  O   UNL     1      -1.407 -23.309   0.076  1.00  0.00    -0.550 OA
ENDBRANCH   3   4
ENDBRANCH   2   3
ENDBRANCH   1   2
BRANCH   1   7
ATOM      7  C   UNL     1       1.605 -27.689   0.694  1.00  0.00     0.000 C 
BRANCH   7   8
ATOM      8  C   UNL     1       2.878 -28.327   0.121  1.00  0.00    -0.000 C 
BRANCH   8   9
ATOM      9  C   UNL     1       3.645 -29.093   1.206  1.00  0.00    -0.000 C 
BRANCH   9  10
ATOM     10  C   UNL     1       3.003 -28.887   2.583  1.00  0.00    -0.003 C 
ATOM     11  C   UNL     1       3.828 -29.553   3.681  1.00  0.00     0.004 C 
ENDBRANCH   9  10
ENDBRANCH   8   9
ENDBRANCH   7   8
ENDBRANCH   1   7
TORSDOF 7
ENDMDL
MODEL 8
REMARK VINA RESULT:    -4.364      3.883      5.666
REMARK INTER + INTRA:          -6.438
REMARK INTER:                  -6.213
REMARK INTRA:                  -0.225
REMARK UNBOUND:                -0.289
REMARK SMILES CCCCCCCCC(=O)[O-]
REMARK SMILES IDX 6 1 7 2 8 3 9 4 10 5 11 6 5 7 4 8 3 9 2 10 1 11
REMARK H PARENT
REMARK Flexibility Score: inf
ROOT
ATOM      1  C   UNL     1      -0.091 -27.079   0.104  1.00  0.00     0.000 C 
ENDROOT
BRANCH   1   2
ATOM      2  C   UNL     1       1.333 -27.644  -0.076  1.00  0.00     0.006 C 
BRANCH   2   3
ATOM      3  C   UNL     1       1.999 -28.122   1.224  1.00  0.00     0.053 C 
BRANCH   3   4
ATOM      4  C   UNL     1       3.333 -28.755   0.972  1.00  0.00     0.041 C 
ATOM      5  O   UNL     1       3.945 -29.338   1.905  1.00  0.00    -0.550 OA
ATOM      6  O   UNL     1       3.916 -28.671  -0.287  1.00  0.00    -0.550 OA
ENDBRANCH   3   4
ENDBRANCH   2   3
ENDBRANCH   1   2
BRANCH   1   7
ATOM      7  C   UNL     1      -0.447 -25.901  -0.820  1.00  0.00     0.000 C 
BRANCH   7   8
ATOM      8  C   UNL     1      -1.916 -25.470  -0.704  1.00  0.00    -0.000 C 
BRANCH   8   9
ATOM      9  C   UNL     1      -2.060 -23.953  -0.873  1.00  0.00    -0.000 C 
BRANCH   9  10
ATOM     10  C   UNL     1      -2.119 -23.251   0.489  1.00  0.00    -0.003 C 
ATOM     11  C   UNL     1      -0.919 -22.330   0.686  1.00  0.00     0.004 C 
ENDBRANCH   9  10
ENDBRANCH   8   9
ENDBRANCH   7   8
ENDBRANCH   1   7
TORSDOF 7
ENDMDL
MODEL 9
REMARK VINA RESULT:    -4.312      3.757      6.132
REMARK INTER + INTRA:          -6.365
REMARK INTER:                  -6.095
REMARK INTRA:                  -0.270
REMARK UNBOUND:                -0.289
REMARK SMILES CCCCCCCCC(=O)[O-]
REMARK SMILES IDX 6 1 7 2 8 3 9 4 10 5 11 6 5 7 4 8 3 9 2 10 1 11
REMARK H PARENT
REMARK Flexibility Score: inf
ROOT
ATOM      1  C   UNL     1       2.794 -29.129   2.251  1.00  0.00     0.000 C 
ENDROOT
BRANCH   1   2
ATOM      2  C   UNL     1       2.640 -28.455   0.873  1.00  0.00     0.006 C 
BRANCH   2   3
ATOM      3  C   UNL     1       1.349 -27.638   0.703  1.00  0.00     0.053 C 
BRANCH   3   4
ATOM      4  C   UNL     1       1.291 -26.949  -0.626  1.00  0.00     0.041 C 
ATOM      5  O   UNL     1       2.290 -26.966  -1.392  1.00  0.00    -0.550 OA
ATOM      6  O   UNL     1       0.146 -26.260  -1.003  1.00  0.00    -0.550 OA
ENDBRANCH   3   4
ENDBRANCH   2   3
ENDBRANCH   1   2
BRANCH   1   7
ATOM      7  C   UNL     1       4.227 -29.564   2.607  1.00  0.00     0.000 C 
BRANCH   7   8
ATOM      8  C   UNL     1       4.386 -29.952   4.085  1.00  0.00    -0.000 C 
BRANCH   8   9
ATOM      9  C   UNL     1       3.179 -29.485   4.908  1.00  0.00    -0.000 C 
BRANCH   9  10
ATOM     10  C   UNL     1       2.810 -30.520   5.978  1.00  0.00    -0.003 C 
ATOM     11  C   UNL     1       1.356 -30.364   6.415  1.00  0.00     0.004 C 
ENDBRANCH   9  10
ENDBRANCH   8   9
ENDBRANCH   7   8
ENDBRANCH   1   7
TORSDOF 7
ENDMDL
