MODEL 1
REMARK VINA RESULT:    -1.228      0.000      0.000
REMARK INTER + INTRA:          -1.803
REMARK INTER:                  -1.731
REMARK INTRA:                  -0.072
REMARK UNBOUND:                -0.072
REMARK SMILES CCCCCCCCC(=O)[O-]
REMARK SMILES IDX 6 1 7 2 8 3 9 4 10 5 11 6 5 7 4 8 3 9 2 10 1 11
REMARK H PARENT
REMARK Flexibility Score: inf
ROOT
ATOM      1  C   UNL     1      15.906  -7.466  28.071  1.00  0.00     0.000 C 
ENDROOT
BRANCH   1   2
ATOM      2  C   UNL     1      16.049  -7.628  29.596  1.00  0.00     0.006 C 
BRANCH   2   3
ATOM      3  C   UNL     1      17.454  -8.046  30.057  1.00  0.00     0.053 C 
BRANCH   3   4
ATOM      4  C   UNL     1      17.610  -9.535  30.104  1.00  0.00     0.041 C 
ATOM      5  O   UNL     1      18.756 -10.053  30.125  1.00  0.00    -0.550 OA
ATOM      6  O   UNL     1      16.486 -10.351  30.092  1.00  0.00    -0.550 OA
ENDBRANCH   3   4
ENDBRANCH   2   3
ENDBRANCH   1   2
BRANCH   1   7
ATOM      7  C   UNL     1      16.952  -8.269  27.285  1.00  0.00     0.000 C 
BRANCH   7   8
ATOM      8  C   UNL     1      16.298  -9.054  26.141  1.00  0.00    -0.000 C 
BRANCH   8   9
ATOM      9  C   UNL     1      16.822  -8.583  24.780  1.00  0.00    -0.000 C 
BRANCH   9  10
ATOM     10  C   UNL     1      18.125  -7.789  24.937  1.00  0.00    -0.003 C 
ATOM     11  C   UNL     1      19.148  -8.194  23.879  1.00  0.00     0.004 C 
ENDBRANCH   9  10
ENDBRANCH   8   9
ENDBRANCH   7   8
ENDBRANCH   1   7
TORSDOF 7
ENDMDL
MODEL 2
REMARK VINA RESULT:    -0.836      3.035      5.061
REMARK INTER + INTRA:          -1.250
REMARK INTER:                  -0.939
REMARK INTRA:                  -0.311
REMARK UNBOUND:                -0.072
REMARK SMILES CCCCCCCCC(=O)[O-]
REMARK SMILES IDX 6 1 7 2 8 3 9 4 10 5 11 6 5 7 4 8 3 9 2 10 1 11
REMARK H PARENT
REMARK Flexibility Score: inf
ROOT
ATOM      1  C   UNL     1      15.883  -8.924  26.955  1.00  0.00     0.000 C 
ENDROOT
BRANCH   1   2
ATOM      2  C   UNL     1      16.561  -8.667  25.596  1.00  0.00     0.006 C 
BRANCH   2   3
ATOM      3  C   UNL     1      18.096  -8.624  25.655  1.00  0.00     0.053 C 
BRANCH   3   4
ATOM      4  C   UNL     1      18.681  -7.875  24.497  1.00  0.00     0.041 C 
ATOM      5  O   UNL     1      18.440  -6.649  24.348  1.00  0.00    -0.550 OA
ATOM      6  O   UNL     1      19.468  -8.541  23.565  1.00  0.00    -0.550 OA
ENDBRANCH   3   4
ENDBRANCH   2   3
ENDBRANCH   1   2
BRANCH   1   7
ATOM      7  C   UNL     1      16.051  -7.754  27.935  1.00  0.00     0.000 C 
BRANCH   7   8
ATOM      8  C   UNL     1      15.933  -8.232  29.387  1.00  0.00    -0.000 C 
BRANCH   8   9
ATOM      9  C   UNL     1      16.434  -9.673  29.535  1.00  0.00    -0.000 C 
BRANCH   9  10
ATOM     10  C   UNL     1      17.891  -9.703  30.014  1.00  0.00    -0.003 C 
ATOM     11  C   UNL     1      18.464  -8.293  30.125  1.00  0.00     0.004 C 
ENDBRANCH   9  10
ENDBRANCH   8   9
ENDBRANCH   7   8
ENDBRANCH   1   7
TORSDOF 7
ENDMDL
MODEL 3
REMARK VINA RESULT:    -0.229      1.588      2.017
REMARK INTER + INTRA:          -0.394
REMARK INTER:                  -0.554
REMARK INTRA:                   0.160
REMARK UNBOUND:                -0.072
REMARK SMILES CCCCCCCCC(=O)[O-]
REMARK SMILES IDX 6 1 7 2 8 3 9 4 10 5 11 6 5 7 4 8 3 9 2 10 1 11
REMARK H PARENT
REMARK Flexibility Score: inf
ROOT
ATOM      1  C   UNL     1      16.562  -9.373  27.541  1.00  0.00     0.000 C 
ENDROOT
BRANCH   1   2
ATOM      2  C   UNL     1      15.879  -9.874  28.828  1.00  0.00     0.006 C 
BRANCH   2   3
ATOM      3  C   UNL     1      16.508  -9.340  30.125  1.00  0.00     0.053 C 
BRANCH   3   4
ATOM      4  C   UNL     1      17.294  -8.087  29.893  1.00  0.00     0.041 C 
ATOM      5  O   UNL     1      16.756  -6.961  30.058  1.00  0.00    -0.550 OA
ATOM      6  O   UNL     1      18.613  -8.164  29.464  1.00  0.00    -0.550 OA
ENDBRANCH   3   4
ENDBRANCH   2   3
ENDBRANCH   1   2
BRANCH   1   7
ATOM      7  C   UNL     1      15.935  -8.081  26.998  1.00  0.00     0.000 C 
BRANCH   7   8
ATOM      8  C   UNL     1      16.230  -7.913  25.503  1.00  0.00    -0.000 C 
BRANCH   8   9
ATOM      9  C   UNL     1      17.225  -8.972  25.016  1.00  0.00    -0.000 C 
BRANCH   9  10
ATOM     10  C   UNL     1      18.363  -8.329  24.212  1.00  0.00    -0.003 C 
ATOM     11  C   UNL     1      18.675  -6.926  24.725  1.00  0.00     0.004 C 
ENDBRANCH   9  10
ENDBRANCH   8   9
ENDBRANCH   7   8
ENDBRANCH   1   7
TORSDOF 7
ENDMDL
