MODEL 1
REMARK VINA RESULT:    -3.633      0.000      0.000
REMARK INTER + INTRA:          -4.295
REMARK INTER:                  -4.164
REMARK INTRA:                  -0.130
REMARK UNBOUND:                -0.130
REMARK SMILES COc1cc(C(C)=O)ccc1O
REMARK SMILES IDX 5 1 4 2 3 3 11 4 10 5 9 6 6 7 7 8 8 9 2 10 1 11 12 12
REMARK H PARENT 12 13
REMARK Flexibility Score: inf
ROOT
ATOM      1  C   UNL     1      27.645  40.288  19.908  1.00  0.00     0.021 A 
ATOM      2  C   UNL     1      27.652  40.593  21.284  1.00  0.00     0.062 A 
ATOM      3  C   UNL     1      27.272  41.870  21.745  1.00  0.00     0.161 A 
ATOM      4  C   UNL     1      26.883  42.848  20.814  1.00  0.00     0.157 A 
ATOM      5  C   UNL     1      26.874  42.550  19.450  1.00  0.00     0.051 A 
ATOM      6  C   UNL     1      27.251  41.285  18.997  1.00  0.00     0.016 A 
ENDROOT
BRANCH   1   7
ATOM      7  C   UNL     1      28.049  38.933  19.443  1.00  0.00     0.159 C 
ATOM      8  C   UNL     1      28.817  38.728  18.171  1.00  0.00     0.093 C 
ATOM      9  O   UNL     1      27.746  37.919  20.128  1.00  0.00    -0.295 OA
ENDBRANCH   1   7
BRANCH   3  10
ATOM     10  O   UNL     1      27.271  42.197  23.110  1.00  0.00    -0.493 OA
ATOM     11  C   UNL     1      28.412  42.641  23.837  1.00  0.00     0.278 C 
ENDBRANCH   3  10
BRANCH   4  12
ATOM     12  O   UNL     1      26.500  44.125  21.227  1.00  0.00    -0.504 OA
ATOM     13  H   UNL     1      25.876  44.704  20.678  1.00  0.00     0.293 HD
ENDBRANCH   4  12
TORSDOF 3
ENDMDL
MODEL 2
REMARK VINA RESULT:    -3.632      1.834      4.606
REMARK INTER + INTRA:          -4.293
REMARK INTER:                  -4.184
REMARK INTRA:                  -0.110
REMARK UNBOUND:                -0.130
REMARK SMILES COc1cc(C(C)=O)ccc1O
REMARK SMILES IDX 5 1 4 2 3 3 11 4 10 5 9 6 6 7 7 8 8 9 2 10 1 11 12 12
REMARK H PARENT 12 13
REMARK Flexibility Score: inf
ROOT
ATOM      1  C   UNL     1      27.858  41.988  20.703  1.00  0.00     0.021 A 
ATOM      2  C   UNL     1      28.389  40.934  19.934  1.00  0.00     0.062 A 
ATOM      3  C   UNL     1      27.606  39.806  19.610  1.00  0.00     0.161 A 
ATOM      4  C   UNL     1      26.278  39.740  20.064  1.00  0.00     0.157 A 
ATOM      5  C   UNL     1      25.747  40.783  20.826  1.00  0.00     0.051 A 
ATOM      6  C   UNL     1      26.524  41.897  21.144  1.00  0.00     0.016 A 
ENDROOT
BRANCH   1   7
ATOM      7  C   UNL     1      28.701  43.169  21.033  1.00  0.00     0.159 C 
ATOM      8  C   UNL     1      29.073  43.508  22.445  1.00  0.00     0.093 C 
ATOM      9  O   UNL     1      29.124  43.914  20.108  1.00  0.00    -0.295 OA
ENDBRANCH   1   7
BRANCH   3  10
ATOM     10  O   UNL     1      28.114  38.744  18.846  1.00  0.00    -0.493 OA
ATOM     11  C   UNL     1      28.766  38.889  17.589  1.00  0.00     0.278 C 
ENDBRANCH   3  10
BRANCH   4  12
ATOM     12  O   UNL     1      25.468  38.643  19.768  1.00  0.00    -0.504 OA
ATOM     13  H   UNL     1      24.672  38.713  19.145  1.00  0.00     0.293 HD
ENDBRANCH   4  12
TORSDOF 3
ENDMDL
MODEL 3
REMARK VINA RESULT:    -3.619      1.388      4.419
REMARK INTER + INTRA:          -4.278
REMARK INTER:                  -4.184
REMARK INTRA:                  -0.094
REMARK UNBOUND:                -0.130
REMARK SMILES COc1cc(C(C)=O)ccc1O
REMARK SMILES IDX 5 1 4 2 3 3 11 4 10 5 9 6 6 7 7 8 8 9 2 10 1 11 12 12
REMARK H PARENT 12 13
REMARK Flexibility Score: inf
ROOT
ATOM      1  C   UNL     1      27.385  42.094  21.422  1.00  0.00     0.021 A 
ATOM      2  C   UNL     1      27.371  40.690  21.531  1.00  0.00     0.062 A 
ATOM      3  C   UNL     1      27.236  39.875  20.389  1.00  0.00     0.161 A 
ATOM      4  C   UNL     1      27.112  40.479  19.126  1.00  0.00     0.157 A 
ATOM      5  C   UNL     1      27.125  41.870  19.013  1.00  0.00     0.051 A 
ATOM      6  C   UNL     1      27.260  42.674  20.146  1.00  0.00     0.016 A 
ENDROOT
BRANCH   1   7
ATOM      7  C   UNL     1      27.530  42.935  22.641  1.00  0.00     0.159 C 
ATOM      8  C   UNL     1      28.167  42.413  23.895  1.00  0.00     0.093 C 
ATOM      9  O   UNL     1      27.112  44.125  22.635  1.00  0.00    -0.295 OA
ENDBRANCH   1   7
BRANCH   3  10
ATOM     10  O   UNL     1      27.219  38.474  20.472  1.00  0.00    -0.493 OA
ATOM     11  C   UNL     1      26.042  37.684  20.601  1.00  0.00     0.278 C 
ENDBRANCH   3  10
BRANCH   4  12
ATOM     12  O   UNL     1      26.975  39.711  17.969  1.00  0.00    -0.504 OA
ATOM     13  H   UNL     1      26.157  39.141  17.794  1.00  0.00     0.293 HD
ENDBRANCH   4  12
TORSDOF 3
ENDMDL
MODEL 4
REMARK VINA RESULT:    -3.616      2.026      4.552
REMARK INTER + INTRA:          -4.275
REMARK INTER:                  -4.148
REMARK INTRA:                  -0.127
REMARK UNBOUND:                -0.130
REMARK SMILES COc1cc(C(C)=O)ccc1O
REMARK SMILES IDX 5 1 4 2 3 3 11 4 10 5 9 6 6 7 7 8 8 9 2 10 1 11 12 12
REMARK H PARENT 12 13
REMARK Flexibility Score: inf
ROOT
ATOM      1  C   UNL     1      27.291  43.192  22.393  1.00  0.00     0.021 A 
ATOM      2  C   UNL     1      26.715  41.974  21.983  1.00  0.00     0.062 A 
ATOM      3  C   UNL     1      26.556  41.671  20.614  1.00  0.00     0.161 A 
ATOM      4  C   UNL     1      26.979  42.603  19.652  1.00  0.00     0.157 A 
ATOM      5  C   UNL     1      27.550  43.812  20.054  1.00  0.00     0.051 A 
ATOM      6  C   UNL     1      27.707  44.108  21.408  1.00  0.00     0.016 A 
ENDROOT
BRANCH   1   7
ATOM      7  C   UNL     1      27.450  43.491  23.842  1.00  0.00     0.159 C 
ATOM      8  C   UNL     1      28.696  44.123  24.389  1.00  0.00     0.093 C 
ATOM      9  O   UNL     1      26.520  43.212  24.645  1.00  0.00    -0.295 OA
ENDBRANCH   1   7
BRANCH   3  10
ATOM     10  O   UNL     1      25.986  40.464  20.182  1.00  0.00    -0.493 OA
ATOM     11  C   UNL     1      26.592  39.184  20.326  1.00  0.00     0.278 C 
ENDBRANCH   3  10
BRANCH   4  12
ATOM     12  O   UNL     1      26.840  42.345  18.288  1.00  0.00    -0.504 OA
ATOM     13  H   UNL     1      26.398  43.003  17.656  1.00  0.00     0.293 HD
ENDBRANCH   4  12
TORSDOF 3
ENDMDL
MODEL 5
REMARK VINA RESULT:    -3.552      1.689      4.675
REMARK INTER + INTRA:          -4.202
REMARK INTER:                  -4.093
REMARK INTRA:                  -0.109
REMARK UNBOUND:                -0.130
REMARK SMILES COc1cc(C(C)=O)ccc1O
REMARK SMILES IDX 5 1 4 2 3 3 11 4 10 5 9 6 6 7 7 8 8 9 2 10 1 11 12 12
REMARK H PARENT 12 13
REMARK Flexibility Score: inf
ROOT
ATOM      1  C   UNL     1      27.388  41.920  20.212  1.00  0.00     0.021 A 
ATOM      2  C   UNL     1      26.430  40.931  19.919  1.00  0.00     0.062 A 
ATOM      3  C   UNL     1      26.811  39.588  19.716  1.00  0.00     0.161 A 
ATOM      4  C   UNL     1      28.169  39.240  19.808  1.00  0.00     0.157 A 
ATOM      5  C   UNL     1      29.123  40.217  20.099  1.00  0.00     0.051 A 
ATOM      6  C   UNL     1      28.742  41.544  20.299  1.00  0.00     0.016 A 
ENDROOT
BRANCH   1   7
ATOM      7  C   UNL     1      26.964  43.331  20.423  1.00  0.00     0.159 C 
ATOM      8  C   UNL     1      26.274  44.121  19.351  1.00  0.00     0.093 C 
ATOM      9  O   UNL     1      27.182  43.891  21.532  1.00  0.00    -0.295 OA
ENDBRANCH   1   7
BRANCH   3  10
ATOM     10  O   UNL     1      25.874  38.585  19.423  1.00  0.00    -0.493 OA
ATOM     11  C   UNL     1      25.146  37.848  20.399  1.00  0.00     0.278 C 
ENDBRANCH   3  10
BRANCH   4  12
ATOM     12  O   UNL     1      28.591  37.924  19.614  1.00  0.00    -0.504 OA
ATOM     13  H   UNL     1      29.394  37.539  20.096  1.00  0.00     0.293 HD
ENDBRANCH   4  12
TORSDOF 3
ENDMDL
MODEL 6
REMARK VINA RESULT:    -3.510      1.827      2.417
REMARK INTER + INTRA:          -4.153
REMARK INTER:                  -4.049
REMARK INTRA:                  -0.104
REMARK UNBOUND:                -0.130
REMARK SMILES COc1cc(C(C)=O)ccc1O
REMARK SMILES IDX 5 1 4 2 3 3 11 4 10 5 9 6 6 7 7 8 8 9 2 10 1 11 12 12
REMARK H PARENT 12 13
REMARK Flexibility Score: inf
ROOT
ATOM      1  C   UNL     1      27.742  39.425  19.108  1.00  0.00     0.021 A 
ATOM      2  C   UNL     1      28.141  40.746  19.388  1.00  0.00     0.062 A 
ATOM      3  C   UNL     1      27.362  41.579  20.218  1.00  0.00     0.161 A 
ATOM      4  C   UNL     1      26.171  41.077  20.769  1.00  0.00     0.157 A 
ATOM      5  C   UNL     1      25.772  39.768  20.495  1.00  0.00     0.051 A 
ATOM      6  C   UNL     1      26.545  38.946  19.674  1.00  0.00     0.016 A 
ENDROOT
BRANCH   1   7
ATOM      7  C   UNL     1      28.579  38.562  18.231  1.00  0.00     0.159 C 
ATOM      8  C   UNL     1      28.803  38.883  16.783  1.00  0.00     0.093 C 
ATOM      9  O   UNL     1      29.125  37.529  18.705  1.00  0.00    -0.295 OA
ENDBRANCH   1   7
BRANCH   3  10
ATOM     10  O   UNL     1      27.740  42.899  20.510  1.00  0.00    -0.493 OA
ATOM     11  C   UNL     1      27.907  43.927  19.540  1.00  0.00     0.278 C 
ENDBRANCH   3  10
BRANCH   4  12
ATOM     12  O   UNL     1      25.370  41.867  21.595  1.00  0.00    -0.504 OA
ATOM     13  H   UNL     1      25.752  42.402  22.365  1.00  0.00     0.293 HD
ENDBRANCH   4  12
TORSDOF 3
ENDMDL
MODEL 7
REMARK VINA RESULT:    -3.412     14.717     16.216
REMARK INTER + INTRA:          -4.041
REMARK INTER:                  -3.940
REMARK INTRA:                  -0.101
REMARK UNBOUND:                -0.130
REMARK SMILES COc1cc(C(C)=O)ccc1O
REMARK SMILES IDX 5 1 4 2 3 3 11 4 10 5 9 6 6 7 7 8 8 9 2 10 1 11 12 12
REMARK H PARENT 12 13
REMARK Flexibility Score: inf
ROOT
ATOM      1  C   UNL     1      26.980  25.703  27.165  1.00  0.00     0.021 A 
ATOM      2  C   UNL     1      27.694  26.887  27.433  1.00  0.00     0.062 A 
ATOM      3  C   UNL     1      27.208  27.834  28.358  1.00  0.00     0.161 A 
ATOM      4  C   UNL     1      25.993  27.586  29.018  1.00  0.00     0.157 A 
ATOM      5  C   UNL     1      25.282  26.414  28.757  1.00  0.00     0.051 A 
ATOM      6  C   UNL     1      25.766  25.479  27.841  1.00  0.00     0.016 A 
ENDROOT
BRANCH   1   7
ATOM      7  C   UNL     1      27.512  24.717  26.186  1.00  0.00     0.159 C 
ATOM      8  C   UNL     1      26.800  24.410  24.902  1.00  0.00     0.093 C 
ATOM      9  O   UNL     1      28.593  24.114  26.427  1.00  0.00    -0.295 OA
ENDBRANCH   1   7
BRANCH   3  10
ATOM     10  O   UNL     1      27.902  29.021  28.641  1.00  0.00    -0.493 OA
ATOM     11  C   UNL     1      28.792  29.673  27.740  1.00  0.00     0.278 C 
ENDBRANCH   3  10
BRANCH   4  12
ATOM     12  O   UNL     1      25.475  28.496  29.941  1.00  0.00    -0.504 OA
ATOM     13  H   UNL     1      25.073  29.382  29.658  1.00  0.00     0.293 HD
ENDBRANCH   4  12
TORSDOF 3
ENDMDL
MODEL 8
REMARK VINA RESULT:    -3.383     13.259     14.999
REMARK INTER + INTRA:          -4.007
REMARK INTER:                  -3.912
REMARK INTRA:                  -0.096
REMARK UNBOUND:                -0.130
REMARK SMILES COc1cc(C(C)=O)ccc1O
REMARK SMILES IDX 5 1 4 2 3 3 11 4 10 5 9 6 6 7 7 8 8 9 2 10 1 11 12 12
REMARK H PARENT 12 13
REMARK Flexibility Score: inf
ROOT
ATOM      1  C   UNL     1      27.968  26.619  26.921  1.00  0.00     0.021 A 
ATOM      2  C   UNL     1      27.907  27.547  25.863  1.00  0.00     0.062 A 
ATOM      3  C   UNL     1      28.290  28.891  26.053  1.00  0.00     0.161 A 
ATOM      4  C   UNL     1      28.737  29.304  27.320  1.00  0.00     0.157 A 
ATOM      5  C   UNL     1      28.800  28.388  28.371  1.00  0.00     0.051 A 
ATOM      6  C   UNL     1      28.421  27.058  28.179  1.00  0.00     0.016 A 
ENDROOT
BRANCH   1   7
ATOM      7  C   UNL     1      27.561  25.205  26.697  1.00  0.00     0.159 C 
ATOM      8  C   UNL     1      27.143  24.704  25.347  1.00  0.00     0.093 C 
ATOM      9  O   UNL     1      27.563  24.393  27.661  1.00  0.00    -0.295 OA
ENDBRANCH   1   7
BRANCH   3  10
ATOM     10  O   UNL     1      28.237  29.833  25.014  1.00  0.00    -0.493 OA
ATOM     11  C   UNL     1      27.226  29.879  24.013  1.00  0.00     0.278 C 
ENDBRANCH   3  10
BRANCH   4  12
ATOM     12  O   UNL     1      29.125  30.624  27.553  1.00  0.00    -0.504 OA
ATOM     13  H   UNL     1      29.003  31.352  26.860  1.00  0.00     0.293 HD
ENDBRANCH   4  12
TORSDOF 3
ENDMDL
MODEL 9
REMARK VINA RESULT:    -3.314     13.371     15.442
REMARK INTER + INTRA:          -3.929
REMARK INTER:                  -3.828
REMARK INTRA:                  -0.101
REMARK UNBOUND:                -0.130
REMARK SMILES COc1cc(C(C)=O)ccc1O
REMARK SMILES IDX 5 1 4 2 3 3 11 4 10 5 9 6 6 7 7 8 8 9 2 10 1 11 12 12
REMARK H PARENT 12 13
REMARK Flexibility Score: inf
ROOT
ATOM      1  C   UNL     1      28.378  28.743  26.472  1.00  0.00     0.021 A 
ATOM      2  C   UNL     1      27.623  27.588  26.192  1.00  0.00     0.062 A 
ATOM      3  C   UNL     1      27.612  26.495  27.083  1.00  0.00     0.161 A 
ATOM      4  C   UNL     1      28.367  26.566  28.266  1.00  0.00     0.157 A 
ATOM      5  C   UNL     1      29.117  27.710  28.548  1.00  0.00     0.051 A 
ATOM      6  C   UNL     1      29.125  28.790  27.664  1.00  0.00     0.016 A 
ENDROOT
BRANCH   1   7
ATOM      7  C   UNL     1      28.375  29.886  25.518  1.00  0.00     0.159 C 
ATOM      8  C   UNL     1      27.541  29.876  24.272  1.00  0.00     0.093 C 
ATOM      9  O   UNL     1      29.087  30.899  25.752  1.00  0.00    -0.295 OA
ENDBRANCH   1   7
BRANCH   3  10
ATOM     10  O   UNL     1      26.868  25.333  26.826  1.00  0.00    -0.493 OA
ATOM     11  C   UNL     1      26.886  24.616  25.596  1.00  0.00     0.278 C 
ENDBRANCH   3  10
BRANCH   4  12
ATOM     12  O   UNL     1      28.385  25.508  29.176  1.00  0.00    -0.504 OA
ATOM     13  H   UNL     1      27.549  24.991  29.418  1.00  0.00     0.293 HD
ENDBRANCH   4  12
TORSDOF 3
ENDMDL
