MODEL 1
REMARK VINA RESULT:    -4.587      0.000      0.000
REMARK INTER + INTRA:         -14.008
REMARK INTER:                 -11.560
REMARK INTRA:                  -2.448
REMARK UNBOUND:                -2.448
REMARK SMILES CCCCCCCCCCCCCCCCCCCCCCCCCCCC(=O)[O-]
REMARK SMILES IDX 15 1 16 2 17 3 18 4 19 5 20 6 21 7 22 8 23 9 24 10 25 11
REMARK SMILES IDX 26 12 27 13 28 14 29 15 30 16 14 17 13 18 12 19 11 20 10 21
REMARK SMILES IDX 9 22 8 23 7 24 6 25 5 26 4 27 3 28 2 29 1 30
REMARK H PARENT
REMARK Flexibility Score: inf
ROOT
ATOM      1  C   UNL     1      45.400  66.283  50.979  1.00  0.00     0.000 C 
ENDROOT
BRANCH   1   2
ATOM      2  C   UNL     1      44.972  65.102  51.862  1.00  0.00     0.000 C 
BRANCH   2   3
ATOM      3  C   UNL     1      43.936  65.547  52.905  1.00  0.00     0.000 C 
BRANCH   3   4
ATOM      4  C   UNL     1      43.614  64.451  53.940  1.00  0.00     0.000 C 
BRANCH   4   5
ATOM      5  C   UNL     1      43.068  64.961  55.286  1.00  0.00     0.000 C 
BRANCH   5   6
ATOM      6  C   UNL     1      41.714  65.677  55.151  1.00  0.00     0.000 C 
BRANCH   6   7
ATOM      7  C   UNL     1      40.571  64.938  55.869  1.00  0.00     0.000 C 
BRANCH   7   8
ATOM      8  C   UNL     1      39.315  64.675  55.012  1.00  0.00     0.000 C 
BRANCH   8   9
ATOM      9  C   UNL     1      37.977  65.037  55.685  1.00  0.00     0.000 C 
BRANCH   9  10
ATOM     10  C   UNL     1      36.786  64.146  55.284  1.00  0.00     0.000 C 
BRANCH  10  11
ATOM     11  C   UNL     1      36.279  63.194  56.388  1.00  0.00     0.000 C 
BRANCH  11  12
ATOM     12  C   UNL     1      37.339  62.233  56.955  1.00  0.00     0.006 C 
BRANCH  12  13
ATOM     13  C   UNL     1      37.896  61.270  55.899  1.00  0.00     0.053 C 
BRANCH  13  14
ATOM     14  C   UNL     1      37.054  60.036  55.826  1.00  0.00     0.041 C 
ATOM     15  O   UNL     1      37.187  59.234  54.864  1.00  0.00    -0.550 OA
ATOM     16  O   UNL     1      36.085  59.796  56.791  1.00  0.00    -0.550 OA
ENDBRANCH  13  14
ENDBRANCH  12  13
ENDBRANCH  11  12
ENDBRANCH  10  11
ENDBRANCH   9  10
ENDBRANCH   8   9
ENDBRANCH   7   8
ENDBRANCH   6   7
ENDBRANCH   5   6
ENDBRANCH   4   5
ENDBRANCH   3   4
ENDBRANCH   2   3
ENDBRANCH   1   2
BRANCH   1  17
ATOM     17  C   UNL     1      44.460  66.510  49.780  1.00  0.00     0.000 C 
BRANCH  17  18
ATOM     18  C   UNL     1      43.663  67.827  49.821  1.00  0.00     0.000 C 
BRANCH  18  19
ATOM     19  C   UNL     1      42.484  67.847  48.836  1.00  0.00     0.000 C 
BRANCH  19  20
ATOM     20  C   UNL     1      41.143  67.839  49.584  1.00  0.00     0.000 C 
BRANCH  20  21
ATOM     21  C   UNL     1      39.934  67.792  48.635  1.00  0.00     0.000 C 
BRANCH  21  22
ATOM     22  C   UNL     1      40.178  66.887  47.414  1.00  0.00    -0.000 C 
BRANCH  22  23
ATOM     23  C   UNL     1      39.950  65.398  47.722  1.00  0.00    -0.000 C 
BRANCH  23  24
ATOM     24  C   UNL     1      40.798  64.419  46.887  1.00  0.00    -0.000 C 
BRANCH  24  25
ATOM     25  C   UNL     1      41.443  65.060  45.639  1.00  0.00    -0.000 C 
BRANCH  25  26
ATOM     26  C   UNL     1      42.913  64.644  45.461  1.00  0.00    -0.000 C 
BRANCH  26  27
ATOM     27  C   UNL     1      43.885  65.602  46.182  1.00  0.00    -0.000 C 
BRANCH  27  28
ATOM     28  C   UNL     1      43.872  67.037  45.622  1.00  0.00    -0.000 C 
BRANCH  28  29
ATOM     29  C   UNL     1      44.262  67.150  44.139  1.00  0.00    -0.003 C 
ATOM     30  C   UNL     1      45.706  66.727  43.870  1.00  0.00     0.004 C 
ENDBRANCH  28  29
ENDBRANCH  27  28
ENDBRANCH  26  27
ENDBRANCH  25  26
ENDBRANCH  24  25
ENDBRANCH  23  24
ENDBRANCH  22  23
ENDBRANCH  21  22
ENDBRANCH  20  21
ENDBRANCH  19  20
ENDBRANCH  18  19
ENDBRANCH  17  18
ENDBRANCH   1  17
TORSDOF 26
ENDMDL
MODEL 2
REMARK VINA RESULT:    -4.437      3.367     10.068
REMARK INTER + INTRA:         -13.628
REMARK INTER:                 -11.233
REMARK INTRA:                  -2.395
REMARK UNBOUND:                -2.448
REMARK SMILES CCCCCCCCCCCCCCCCCCCCCCCCCCCC(=O)[O-]
REMARK SMILES IDX 15 1 16 2 17 3 18 4 19 5 20 6 21 7 22 8 23 9 24 10 25 11
REMARK SMILES IDX 26 12 27 13 28 14 29 15 30 16 14 17 13 18 12 19 11 20 10 21
REMARK SMILES IDX 9 22 8 23 7 24 6 25 5 26 4 27 3 28 2 29 1 30
REMARK H PARENT
REMARK Flexibility Score: inf
ROOT
ATOM      1  C   UNL     1      42.819  65.283  54.212  1.00  0.00     0.000 C 
ENDROOT
BRANCH   1   2
ATOM      2  C   UNL     1      43.446  66.132  53.097  1.00  0.00     0.000 C 
BRANCH   2   3
ATOM      3  C   UNL     1      44.548  65.349  52.367  1.00  0.00     0.000 C 
BRANCH   3   4
ATOM      4  C   UNL     1      45.225  66.164  51.247  1.00  0.00     0.000 C 
BRANCH   4   5
ATOM      5  C   UNL     1      44.519  67.482  50.879  1.00  0.00     0.000 C 
BRANCH   5   6
ATOM      6  C   UNL     1      43.823  67.427  49.510  1.00  0.00     0.000 C 
BRANCH   6   7
ATOM      7  C   UNL     1      44.362  66.302  48.608  1.00  0.00     0.000 C 
BRANCH   7   8
ATOM      8  C   UNL     1      44.130  66.500  47.096  1.00  0.00     0.000 C 
BRANCH   8   9
ATOM      9  C   UNL     1      43.759  65.222  46.319  1.00  0.00     0.000 C 
BRANCH   9  10
ATOM     10  C   UNL     1      42.329  65.204  45.744  1.00  0.00     0.000 C 
BRANCH  10  11
ATOM     11  C   UNL     1      41.297  64.421  46.582  1.00  0.00     0.000 C 
BRANCH  11  12
ATOM     12  C   UNL     1      40.259  65.290  47.313  1.00  0.00     0.006 C 
BRANCH  12  13
ATOM     13  C   UNL     1      40.387  66.781  46.977  1.00  0.00     0.053 C 
BRANCH  13  14
ATOM     14  C   UNL     1      39.601  67.603  47.949  1.00  0.00     0.041 C 
ATOM     15  O   UNL     1      38.395  67.881  47.713  1.00  0.00    -0.550 OA
ATOM     16  O   UNL     1      40.212  68.106  49.088  1.00  0.00    -0.550 OA
ENDBRANCH  13  14
ENDBRANCH  12  13
ENDBRANCH  11  12
ENDBRANCH  10  11
ENDBRANCH   9  10
ENDBRANCH   8   9
ENDBRANCH   7   8
ENDBRANCH   6   7
ENDBRANCH   5   6
ENDBRANCH   4   5
ENDBRANCH   3   4
ENDBRANCH   2   3
ENDBRANCH   1   2
BRANCH   1  17
ATOM     17  C   UNL     1      43.708  64.100  54.642  1.00  0.00     0.000 C 
BRANCH  17  18
ATOM     18  C   UNL     1      43.768  63.852  56.160  1.00  0.00     0.000 C 
BRANCH  18  19
ATOM     19  C   UNL     1      43.114  64.976  56.978  1.00  0.00     0.000 C 
BRANCH  19  20
ATOM     20  C   UNL     1      41.869  64.464  57.719  1.00  0.00     0.000 C 
BRANCH  20  21
ATOM     21  C   UNL     1      40.700  65.461  57.673  1.00  0.00     0.000 C 
BRANCH  21  22
ATOM     22  C   UNL     1      39.938  65.415  56.338  1.00  0.00    -0.000 C 
BRANCH  22  23
ATOM     23  C   UNL     1      39.023  64.184  56.216  1.00  0.00    -0.000 C 
BRANCH  23  24
ATOM     24  C   UNL     1      37.976  64.033  57.336  1.00  0.00    -0.000 C 
BRANCH  24  25
ATOM     25  C   UNL     1      36.548  63.749  56.823  1.00  0.00    -0.000 C 
BRANCH  25  26
ATOM     26  C   UNL     1      36.448  63.835  55.291  1.00  0.00    -0.000 C 
BRANCH  26  27
ATOM     27  C   UNL     1      35.831  65.170  54.817  1.00  0.00    -0.000 C 
BRANCH  27  28
ATOM     28  C   UNL     1      34.519  65.535  55.536  1.00  0.00    -0.000 C 
BRANCH  28  29
ATOM     29  C   UNL     1      34.544  66.884  56.273  1.00  0.00    -0.003 C 
ATOM     30  C   UNL     1      33.203  67.232  56.920  1.00  0.00     0.004 C 
ENDBRANCH  28  29
ENDBRANCH  27  28
ENDBRANCH  26  27
ENDBRANCH  25  26
ENDBRANCH  24  25
ENDBRANCH  23  24
ENDBRANCH  22  23
ENDBRANCH  21  22
ENDBRANCH  20  21
ENDBRANCH  19  20
ENDBRANCH  18  19
ENDBRANCH  17  18
ENDBRANCH   1  17
TORSDOF 26
ENDMDL
MODEL 3
REMARK VINA RESULT:    -4.386      1.488      2.225
REMARK INTER + INTRA:         -13.501
REMARK INTER:                 -11.444
REMARK INTRA:                  -2.057
REMARK UNBOUND:                -2.448
REMARK SMILES CCCCCCCCCCCCCCCCCCCCCCCCCCCC(=O)[O-]
REMARK SMILES IDX 15 1 16 2 17 3 18 4 19 5 20 6 21 7 22 8 23 9 24 10 25 11
REMARK SMILES IDX 26 12 27 13 28 14 29 15 30 16 14 17 13 18 12 19 11 20 10 21
REMARK SMILES IDX 9 22 8 23 7 24 6 25 5 26 4 27 3 28 2 29 1 30
REMARK H PARENT
REMARK Flexibility Score: inf
ROOT
ATOM      1  C   UNL     1      45.333  65.753  50.345  1.00  0.00     0.000 C 
ENDROOT
BRANCH   1   2
ATOM      2  C   UNL     1      45.185  65.185  51.764  1.00  0.00     0.000 C 
BRANCH   2   3
ATOM      3  C   UNL     1      44.041  65.881  52.515  1.00  0.00     0.000 C 
BRANCH   3   4
ATOM      4  C   UNL     1      43.458  65.022  53.654  1.00  0.00     0.000 C 
BRANCH   4   5
ATOM      5  C   UNL     1      42.377  65.712  54.507  1.00  0.00     0.000 C 
BRANCH   5   6
ATOM      6  C   UNL     1      40.999  65.041  54.385  1.00  0.00     0.000 C 
BRANCH   6   7
ATOM      7  C   UNL     1      40.243  64.976  55.724  1.00  0.00     0.000 C 
BRANCH   7   8
ATOM      8  C   UNL     1      39.029  64.025  55.751  1.00  0.00     0.000 C 
BRANCH   8   9
ATOM      9  C   UNL     1      37.704  64.644  55.265  1.00  0.00     0.000 C 
BRANCH   9  10
ATOM     10  C   UNL     1      36.466  63.740  55.429  1.00  0.00     0.000 C 
BRANCH  10  11
ATOM     11  C   UNL     1      36.502  62.797  56.649  1.00  0.00     0.000 C 
BRANCH  11  12
ATOM     12  C   UNL     1      36.257  61.311  56.331  1.00  0.00     0.006 C 
BRANCH  12  13
ATOM     13  C   UNL     1      37.523  60.589  55.853  1.00  0.00     0.053 C 
BRANCH  13  14
ATOM     14  C   UNL     1      37.274  59.117  55.746  1.00  0.00     0.041 C 
ATOM     15  O   UNL     1      37.022  58.597  54.627  1.00  0.00    -0.550 OA
ATOM     16  O   UNL     1      37.266  58.329  56.888  1.00  0.00    -0.550 OA
ENDBRANCH  13  14
ENDBRANCH  12  13
ENDBRANCH  11  12
ENDBRANCH  10  11
ENDBRANCH   9  10
ENDBRANCH   8   9
ENDBRANCH   7   8
ENDBRANCH   6   7
ENDBRANCH   5   6
ENDBRANCH   4   5
ENDBRANCH   3   4
ENDBRANCH   2   3
ENDBRANCH   1   2
BRANCH   1  17
ATOM     17  C   UNL     1      44.370  66.920  50.060  1.00  0.00     0.000 C 
BRANCH  17  18
ATOM     18  C   UNL     1      43.916  67.043  48.594  1.00  0.00     0.000 C 
BRANCH  18  19
ATOM     19  C   UNL     1      42.493  67.606  48.452  1.00  0.00     0.000 C 
BRANCH  19  20
ATOM     20  C   UNL     1      41.538  66.546  47.880  1.00  0.00     0.000 C 
BRANCH  20  21
ATOM     21  C   UNL     1      41.173  66.809  46.410  1.00  0.00     0.000 C 
BRANCH  21  22
ATOM     22  C   UNL     1      41.416  65.581  45.514  1.00  0.00    -0.000 C 
BRANCH  22  23
ATOM     23  C   UNL     1      42.485  64.632  46.082  1.00  0.00    -0.000 C 
BRANCH  23  24
ATOM     24  C   UNL     1      43.915  64.870  45.561  1.00  0.00    -0.000 C 
BRANCH  24  25
ATOM     25  C   UNL     1      44.005  65.940  44.452  1.00  0.00    -0.000 C 
BRANCH  25  26
ATOM     26  C   UNL     1      45.184  65.694  43.495  1.00  0.00    -0.000 C 
BRANCH  26  27
ATOM     27  C   UNL     1      44.801  65.937  42.018  1.00  0.00    -0.000 C 
BRANCH  27  28
ATOM     28  C   UNL     1      43.465  65.289  41.610  1.00  0.00    -0.000 C 
BRANCH  28  29
ATOM     29  C   UNL     1      42.463  66.247  40.945  1.00  0.00    -0.003 C 
ATOM     30  C   UNL     1      41.670  67.074  41.957  1.00  0.00     0.004 C 
ENDBRANCH  28  29
ENDBRANCH  27  28
ENDBRANCH  26  27
ENDBRANCH  25  26
ENDBRANCH  24  25
ENDBRANCH  23  24
ENDBRANCH  22  23
ENDBRANCH  21  22
ENDBRANCH  20  21
ENDBRANCH  19  20
ENDBRANCH  18  19
ENDBRANCH  17  18
ENDBRANCH   1  17
TORSDOF 26
ENDMDL
MODEL 4
REMARK VINA RESULT:    -4.353      8.252     12.238
REMARK INTER + INTRA:         -13.417
REMARK INTER:                 -11.713
REMARK INTRA:                  -1.705
REMARK UNBOUND:                -2.448
REMARK SMILES CCCCCCCCCCCCCCCCCCCCCCCCCCCC(=O)[O-]
REMARK SMILES IDX 15 1 16 2 17 3 18 4 19 5 20 6 21 7 22 8 23 9 24 10 25 11
REMARK SMILES IDX 26 12 27 13 28 14 29 15 30 16 14 17 13 18 12 19 11 20 10 21
REMARK SMILES IDX 9 22 8 23 7 24 6 25 5 26 4 27 3 28 2 29 1 30
REMARK H PARENT
REMARK Flexibility Score: inf
ROOT
ATOM      1  C   UNL     1      37.063  59.393  55.544  1.00  0.00     0.000 C 
ENDROOT
BRANCH   1   2
ATOM      2  C   UNL     1      37.249  57.870  55.500  1.00  0.00     0.000 C 
BRANCH   2   3
ATOM      3  C   UNL     1      37.850  57.353  56.816  1.00  0.00     0.000 C 
BRANCH   3   4
ATOM      4  C   UNL     1      37.213  56.034  57.293  1.00  0.00     0.000 C 
BRANCH   4   5
ATOM      5  C   UNL     1      36.300  55.338  56.266  1.00  0.00     0.000 C 
BRANCH   5   6
ATOM      6  C   UNL     1      35.213  54.470  56.921  1.00  0.00     0.000 C 
BRANCH   6   7
ATOM      7  C   UNL     1      34.233  53.865  55.900  1.00  0.00     0.000 C 
BRANCH   7   8
ATOM      8  C   UNL     1      33.016  53.137  56.505  1.00  0.00     0.000 C 
BRANCH   8   9
ATOM      9  C   UNL     1      32.512  51.925  55.699  1.00  0.00     0.000 C 
BRANCH   9  10
ATOM     10  C   UNL     1      33.604  51.159  54.926  1.00  0.00     0.000 C 
BRANCH  10  11
ATOM     11  C   UNL     1      33.163  50.587  53.563  1.00  0.00     0.000 C 
BRANCH  11  12
ATOM     12  C   UNL     1      32.420  51.579  52.651  1.00  0.00     0.006 C 
BRANCH  12  13
ATOM     13  C   UNL     1      33.225  51.955  51.401  1.00  0.00     0.053 C 
BRANCH  13  14
ATOM     14  C   UNL     1      32.771  51.147  50.226  1.00  0.00     0.041 C 
ATOM     15  O   UNL     1      31.702  50.484  50.288  1.00  0.00    -0.550 OA
ATOM     16  O   UNL     1      33.555  51.083  49.082  1.00  0.00    -0.550 OA
ENDBRANCH  13  14
ENDBRANCH  12  13
ENDBRANCH  11  12
ENDBRANCH  10  11
ENDBRANCH   9  10
ENDBRANCH   8   9
ENDBRANCH   7   8
ENDBRANCH   6   7
ENDBRANCH   5   6
ENDBRANCH   4   5
ENDBRANCH   3   4
ENDBRANCH   2   3
ENDBRANCH   1   2
BRANCH   1  17
ATOM     17  C   UNL     1      36.357  59.877  56.825  1.00  0.00     0.000 C 
BRANCH  17  18
ATOM     18  C   UNL     1      36.227  61.405  56.956  1.00  0.00     0.000 C 
BRANCH  18  19
ATOM     19  C   UNL     1      37.075  62.170  55.928  1.00  0.00     0.000 C 
BRANCH  19  20
ATOM     20  C   UNL     1      36.274  63.324  55.305  1.00  0.00     0.000 C 
BRANCH  20  21
ATOM     21  C   UNL     1      37.013  64.670  55.386  1.00  0.00     0.000 C 
BRANCH  21  22
ATOM     22  C   UNL     1      36.049  65.869  55.430  1.00  0.00    -0.000 C 
BRANCH  22  23
ATOM     23  C   UNL     1      34.821  65.614  56.320  1.00  0.00    -0.000 C 
BRANCH  23  24
ATOM     24  C   UNL     1      34.150  66.880  56.887  1.00  0.00    -0.000 C 
BRANCH  24  25
ATOM     25  C   UNL     1      32.872  67.301  56.129  1.00  0.00    -0.000 C 
BRANCH  25  26
ATOM     26  C   UNL     1      32.421  66.244  55.107  1.00  0.00    -0.000 C 
BRANCH  26  27
ATOM     27  C   UNL     1      31.490  66.834  54.026  1.00  0.00    -0.000 C 
BRANCH  27  28
ATOM     28  C   UNL     1      32.071  68.069  53.314  1.00  0.00    -0.000 C 
BRANCH  28  29
ATOM     29  C   UNL     1      32.925  67.753  52.074  1.00  0.00    -0.003 C 
ATOM     30  C   UNL     1      34.244  67.063  52.422  1.00  0.00     0.004 C 
ENDBRANCH  28  29
ENDBRANCH  27  28
ENDBRANCH  26  27
ENDBRANCH  25  26
ENDBRANCH  24  25
ENDBRANCH  23  24
ENDBRANCH  22  23
ENDBRANCH  21  22
ENDBRANCH  20  21
ENDBRANCH  19  20
ENDBRANCH  18  19
ENDBRANCH  17  18
ENDBRANCH   1  17
TORSDOF 26
ENDMDL
MODEL 5
REMARK VINA RESULT:    -4.298      4.334     10.764
REMARK INTER + INTRA:         -13.279
REMARK INTER:                 -11.109
REMARK INTRA:                  -2.170
REMARK UNBOUND:                -2.448
REMARK SMILES CCCCCCCCCCCCCCCCCCCCCCCCCCCC(=O)[O-]
REMARK SMILES IDX 15 1 16 2 17 3 18 4 19 5 20 6 21 7 22 8 23 9 24 10 25 11
REMARK SMILES IDX 26 12 27 13 28 14 29 15 30 16 14 17 13 18 12 19 11 20 10 21
REMARK SMILES IDX 9 22 8 23 7 24 6 25 5 26 4 27 3 28 2 29 1 30
REMARK H PARENT
REMARK Flexibility Score: inf
ROOT
ATOM      1  C   UNL     1      45.375  65.886  50.425  1.00  0.00     0.000 C 
ENDROOT
BRANCH   1   2
ATOM      2  C   UNL     1      44.411  67.053  50.173  1.00  0.00     0.000 C 
BRANCH   2   3
ATOM      3  C   UNL     1      43.761  66.938  48.786  1.00  0.00     0.000 C 
BRANCH   3   4
ATOM      4  C   UNL     1      42.603  67.934  48.579  1.00  0.00     0.000 C 
BRANCH   4   5
ATOM      5  C   UNL     1      41.202  67.386  48.908  1.00  0.00     0.000 C 
BRANCH   5   6
ATOM      6  C   UNL     1      40.311  67.232  47.665  1.00  0.00     0.000 C 
BRANCH   6   7
ATOM      7  C   UNL     1      41.118  67.019  46.372  1.00  0.00     0.000 C 
BRANCH   7   8
ATOM      8  C   UNL     1      41.140  65.572  45.839  1.00  0.00     0.000 C 
BRANCH   8   9
ATOM      9  C   UNL     1      42.330  64.719  46.318  1.00  0.00     0.000 C 
BRANCH   9  10
ATOM     10  C   UNL     1      43.459  64.541  45.284  1.00  0.00     0.000 C 
BRANCH  10  11
ATOM     11  C   UNL     1      44.273  65.815  44.978  1.00  0.00     0.000 C 
BRANCH  11  12
ATOM     12  C   UNL     1      44.405  66.161  43.484  1.00  0.00     0.006 C 
BRANCH  12  13
ATOM     13  C   UNL     1      43.474  67.301  43.051  1.00  0.00     0.053 C 
BRANCH  13  14
ATOM     14  C   UNL     1      42.187  66.750  42.524  1.00  0.00     0.041 C 
ATOM     15  O   UNL     1      42.140  65.578  42.065  1.00  0.00    -0.550 OA
ATOM     16  O   UNL     1      41.052  67.548  42.491  1.00  0.00    -0.550 OA
ENDBRANCH  13  14
ENDBRANCH  12  13
ENDBRANCH  11  12
ENDBRANCH  10  11
ENDBRANCH   9  10
ENDBRANCH   8   9
ENDBRANCH   7   8
ENDBRANCH   6   7
ENDBRANCH   5   6
ENDBRANCH   4   5
ENDBRANCH   3   4
ENDBRANCH   2   3
ENDBRANCH   1   2
BRANCH   1  17
ATOM     17  C   UNL     1      45.151  65.201  51.786  1.00  0.00     0.000 C 
BRANCH  17  18
ATOM     18  C   UNL     1      44.052  65.835  52.658  1.00  0.00     0.000 C 
BRANCH  18  19
ATOM     19  C   UNL     1      43.497  64.872  53.719  1.00  0.00     0.000 C 
BRANCH  19  20
ATOM     20  C   UNL     1      42.541  65.600  54.676  1.00  0.00     0.000 C 
BRANCH  20  21
ATOM     21  C   UNL     1      42.414  64.896  56.037  1.00  0.00     0.000 C 
BRANCH  21  22
ATOM     22  C   UNL     1      41.088  65.220  56.746  1.00  0.00    -0.000 C 
BRANCH  22  23
ATOM     23  C   UNL     1      39.885  65.228  55.787  1.00  0.00    -0.000 C 
BRANCH  23  24
ATOM     24  C   UNL     1      39.071  63.921  55.747  1.00  0.00    -0.000 C 
BRANCH  24  25
ATOM     25  C   UNL     1      37.774  63.968  56.584  1.00  0.00    -0.000 C 
BRANCH  25  26
ATOM     26  C   UNL     1      36.550  63.471  55.797  1.00  0.00    -0.000 C 
BRANCH  26  27
ATOM     27  C   UNL     1      36.148  64.442  54.664  1.00  0.00    -0.000 C 
BRANCH  27  28
ATOM     28  C   UNL     1      35.143  65.523  55.103  1.00  0.00    -0.000 C 
BRANCH  28  29
ATOM     29  C   UNL     1      34.940  66.660  54.087  1.00  0.00    -0.003 C 
ATOM     30  C   UNL     1      33.508  67.195  54.075  1.00  0.00     0.004 C 
ENDBRANCH  28  29
ENDBRANCH  27  28
ENDBRANCH  26  27
ENDBRANCH  25  26
ENDBRANCH  24  25
ENDBRANCH  23  24
ENDBRANCH  22  23
ENDBRANCH  21  22
ENDBRANCH  20  21
ENDBRANCH  19  20
ENDBRANCH  18  19
ENDBRANCH  17  18
ENDBRANCH   1  17
TORSDOF 26
ENDMDL
MODEL 6
REMARK VINA RESULT:    -4.286      3.134      6.707
REMARK INTER + INTRA:         -13.247
REMARK INTER:                 -11.628
REMARK INTRA:                  -1.619
REMARK UNBOUND:                -2.448
REMARK SMILES CCCCCCCCCCCCCCCCCCCCCCCCCCCC(=O)[O-]
REMARK SMILES IDX 15 1 16 2 17 3 18 4 19 5 20 6 21 7 22 8 23 9 24 10 25 11
REMARK SMILES IDX 26 12 27 13 28 14 29 15 30 16 14 17 13 18 12 19 11 20 10 21
REMARK SMILES IDX 9 22 8 23 7 24 6 25 5 26 4 27 3 28 2 29 1 30
REMARK H PARENT
REMARK Flexibility Score: inf
ROOT
ATOM      1  C   UNL     1      39.114  64.297  55.506  1.00  0.00     0.000 C 
ENDROOT
BRANCH   1   2
ATOM      2  C   UNL     1      37.767  65.033  55.490  1.00  0.00     0.000 C 
BRANCH   2   3
ATOM      3  C   UNL     1      36.604  64.051  55.696  1.00  0.00     0.000 C 
BRANCH   3   4
ATOM      4  C   UNL     1      37.069  62.589  55.842  1.00  0.00     0.000 C 
BRANCH   4   5
ATOM      5  C   UNL     1      36.440  61.815  57.016  1.00  0.00     0.000 C 
BRANCH   5   6
ATOM      6  C   UNL     1      36.157  60.342  56.679  1.00  0.00     0.000 C 
BRANCH   6   7
ATOM      7  C   UNL     1      37.006  59.821  55.506  1.00  0.00     0.000 C 
BRANCH   7   8
ATOM      8  C   UNL     1      37.218  58.293  55.474  1.00  0.00     0.000 C 
BRANCH   8   9
ATOM      9  C   UNL     1      37.770  57.683  56.777  1.00  0.00     0.000 C 
BRANCH   9  10
ATOM     10  C   UNL     1      36.822  56.692  57.481  1.00  0.00     0.000 C 
BRANCH  10  11
ATOM     11  C   UNL     1      36.928  55.230  57.000  1.00  0.00     0.000 C 
BRANCH  11  12
ATOM     12  C   UNL     1      35.780  54.761  56.088  1.00  0.00     0.006 C 
BRANCH  12  13
ATOM     13  C   UNL     1      34.697  53.983  56.846  1.00  0.00     0.053 C 
BRANCH  13  14
ATOM     14  C   UNL     1      33.551  53.666  55.938  1.00  0.00     0.041 C 
ATOM     15  O   UNL     1      32.378  53.990  56.261  1.00  0.00    -0.550 OA
ATOM     16  O   UNL     1      33.772  52.966  54.760  1.00  0.00    -0.550 OA
ENDBRANCH  13  14
ENDBRANCH  12  13
ENDBRANCH  11  12
ENDBRANCH  10  11
ENDBRANCH   9  10
ENDBRANCH   8   9
ENDBRANCH   7   8
ENDBRANCH   6   7
ENDBRANCH   5   6
ENDBRANCH   4   5
ENDBRANCH   3   4
ENDBRANCH   2   3
ENDBRANCH   1   2
BRANCH   1  17
ATOM     17  C   UNL     1      40.152  64.962  56.429  1.00  0.00     0.000 C 
BRANCH  17  18
ATOM     18  C   UNL     1      41.447  65.414  55.729  1.00  0.00     0.000 C 
BRANCH  18  19
ATOM     19  C   UNL     1      41.576  64.872  54.297  1.00  0.00     0.000 C 
BRANCH  19  20
ATOM     20  C   UNL     1      42.937  65.243  53.690  1.00  0.00     0.000 C 
BRANCH  20  21
ATOM     21  C   UNL     1      43.004  66.710  53.235  1.00  0.00     0.000 C 
BRANCH  21  22
ATOM     22  C   UNL     1      44.231  66.998  52.352  1.00  0.00    -0.000 C 
BRANCH  22  23
ATOM     23  C   UNL     1      44.921  65.716  51.855  1.00  0.00    -0.000 C 
BRANCH  23  24
ATOM     24  C   UNL     1      45.246  65.689  50.349  1.00  0.00    -0.000 C 
BRANCH  24  25
ATOM     25  C   UNL     1      44.791  66.954  49.590  1.00  0.00    -0.000 C 
BRANCH  25  26
ATOM     26  C   UNL     1      43.991  66.620  48.320  1.00  0.00    -0.000 C 
BRANCH  26  27
ATOM     27  C   UNL     1      42.511  67.050  48.429  1.00  0.00    -0.000 C 
BRANCH  27  28
ATOM     28  C   UNL     1      41.735  66.939  47.104  1.00  0.00    -0.000 C 
BRANCH  28  29
ATOM     29  C   UNL     1      40.699  65.804  47.060  1.00  0.00    -0.003 C 
ATOM     30  C   UNL     1      41.275  64.495  46.518  1.00  0.00     0.004 C 
ENDBRANCH  28  29
ENDBRANCH  27  28
ENDBRANCH  26  27
ENDBRANCH  25  26
ENDBRANCH  24  25
ENDBRANCH  23  24
ENDBRANCH  22  23
ENDBRANCH  21  22
ENDBRANCH  20  21
ENDBRANCH  19  20
ENDBRANCH  18  19
ENDBRANCH  17  18
ENDBRANCH   1  17
TORSDOF 26
ENDMDL
MODEL 7
REMARK VINA RESULT:    -4.276      1.950      3.219
REMARK INTER + INTRA:         -13.222
REMARK INTER:                 -10.920
REMARK INTRA:                  -2.302
REMARK UNBOUND:                -2.448
REMARK SMILES CCCCCCCCCCCCCCCCCCCCCCCCCCCC(=O)[O-]
REMARK SMILES IDX 15 1 16 2 17 3 18 4 19 5 20 6 21 7 22 8 23 9 24 10 25 11
REMARK SMILES IDX 26 12 27 13 28 14 29 15 30 16 14 17 13 18 12 19 11 20 10 21
REMARK SMILES IDX 9 22 8 23 7 24 6 25 5 26 4 27 3 28 2 29 1 30
REMARK H PARENT
REMARK Flexibility Score: inf
ROOT
ATOM      1  C   UNL     1      43.308  67.576  49.537  1.00  0.00     0.000 C 
ENDROOT
BRANCH   1   2
ATOM      2  C   UNL     1      44.332  67.445  50.673  1.00  0.00     0.000 C 
BRANCH   2   3
ATOM      3  C   UNL     1      45.134  66.142  50.540  1.00  0.00     0.000 C 
BRANCH   3   4
ATOM      4  C   UNL     1      45.037  65.245  51.789  1.00  0.00     0.000 C 
BRANCH   4   5
ATOM      5  C   UNL     1      43.966  65.662  52.813  1.00  0.00     0.000 C 
BRANCH   5   6
ATOM      6  C   UNL     1      43.684  64.573  53.862  1.00  0.00     0.000 C 
BRANCH   6   7
ATOM      7  C   UNL     1      42.500  64.919  54.783  1.00  0.00     0.000 C 
BRANCH   7   8
ATOM      8  C   UNL     1      41.148  65.125  54.070  1.00  0.00     0.000 C 
BRANCH   8   9
ATOM      9  C   UNL     1      39.923  64.572  54.822  1.00  0.00     0.000 C 
BRANCH   9  10
ATOM     10  C   UNL     1      39.669  65.205  56.204  1.00  0.00     0.000 C 
BRANCH  10  11
ATOM     11  C   UNL     1      39.207  64.222  57.300  1.00  0.00     0.000 C 
BRANCH  11  12
ATOM     12  C   UNL     1      39.115  62.751  56.856  1.00  0.00     0.006 C 
BRANCH  12  13
ATOM     13  C   UNL     1      37.756  62.117  57.178  1.00  0.00     0.053 C 
BRANCH  13  14
ATOM     14  C   UNL     1      37.119  61.590  55.930  1.00  0.00     0.041 C 
ATOM     15  O   UNL     1      36.236  62.263  55.336  1.00  0.00    -0.550 OA
ATOM     16  O   UNL     1      37.462  60.332  55.453  1.00  0.00    -0.550 OA
ENDBRANCH  13  14
ENDBRANCH  12  13
ENDBRANCH  11  12
ENDBRANCH  10  11
ENDBRANCH   9  10
ENDBRANCH   8   9
ENDBRANCH   7   8
ENDBRANCH   6   7
ENDBRANCH   5   6
ENDBRANCH   4   5
ENDBRANCH   3   4
ENDBRANCH   2   3
ENDBRANCH   1   2
BRANCH   1  17
ATOM     17  C   UNL     1      41.876  67.836  50.043  1.00  0.00     0.000 C 
BRANCH  17  18
ATOM     18  C   UNL     1      40.779  67.732  48.968  1.00  0.00     0.000 C 
BRANCH  18  19
ATOM     19  C   UNL     1      41.343  67.560  47.549  1.00  0.00     0.000 C 
BRANCH  19  20
ATOM     20  C   UNL     1      40.672  66.380  46.830  1.00  0.00     0.000 C 
BRANCH  20  21
ATOM     21  C   UNL     1      41.524  65.101  46.866  1.00  0.00     0.000 C 
BRANCH  21  22
ATOM     22  C   UNL     1      43.002  65.368  46.530  1.00  0.00    -0.000 C 
BRANCH  22  23
ATOM     23  C   UNL     1      43.485  64.580  45.301  1.00  0.00    -0.000 C 
BRANCH  23  24
ATOM     24  C   UNL     1      43.850  65.438  44.075  1.00  0.00    -0.000 C 
BRANCH  24  25
ATOM     25  C   UNL     1      42.702  66.346  43.584  1.00  0.00    -0.000 C 
BRANCH  25  26
ATOM     26  C   UNL     1      42.132  65.889  42.230  1.00  0.00    -0.000 C 
BRANCH  26  27
ATOM     27  C   UNL     1      43.208  65.854  41.123  1.00  0.00    -0.000 C 
BRANCH  27  28
ATOM     28  C   UNL     1      43.326  64.490  40.418  1.00  0.00    -0.000 C 
BRANCH  28  29
ATOM     29  C   UNL     1      44.762  63.957  40.287  1.00  0.00    -0.003 C 
ATOM     30  C   UNL     1      45.800  64.884  40.921  1.00  0.00     0.004 C 
ENDBRANCH  28  29
ENDBRANCH  27  28
ENDBRANCH  26  27
ENDBRANCH  25  26
ENDBRANCH  24  25
ENDBRANCH  23  24
ENDBRANCH  22  23
ENDBRANCH  21  22
ENDBRANCH  20  21
ENDBRANCH  19  20
ENDBRANCH  18  19
ENDBRANCH  17  18
ENDBRANCH   1  17
TORSDOF 26
ENDMDL
MODEL 8
REMARK VINA RESULT:    -4.259      2.230      3.636
REMARK INTER + INTRA:         -13.182
REMARK INTER:                 -10.602
REMARK INTRA:                  -2.579
REMARK UNBOUND:                -2.448
REMARK SMILES CCCCCCCCCCCCCCCCCCCCCCCCCCCC(=O)[O-]
REMARK SMILES IDX 15 1 16 2 17 3 18 4 19 5 20 6 21 7 22 8 23 9 24 10 25 11
REMARK SMILES IDX 26 12 27 13 28 14 29 15 30 16 14 17 13 18 12 19 11 20 10 21
REMARK SMILES IDX 9 22 8 23 7 24 6 25 5 26 4 27 3 28 2 29 1 30
REMARK H PARENT
REMARK Flexibility Score: inf
ROOT
ATOM      1  C   UNL     1      44.067  67.000  49.438  1.00  0.00     0.000 C 
ENDROOT
BRANCH   1   2
ATOM      2  C   UNL     1      45.063  66.810  50.591  1.00  0.00     0.000 C 
BRANCH   2   3
ATOM      3  C   UNL     1      45.165  65.330  50.988  1.00  0.00     0.000 C 
BRANCH   3   4
ATOM      4  C   UNL     1      44.765  65.070  52.454  1.00  0.00     0.000 C 
BRANCH   4   5
ATOM      5  C   UNL     1      43.578  65.907  52.966  1.00  0.00     0.000 C 
BRANCH   5   6
ATOM      6  C   UNL     1      42.897  65.288  54.199  1.00  0.00     0.000 C 
BRANCH   6   7
ATOM      7  C   UNL     1      43.616  64.027  54.711  1.00  0.00     0.000 C 
BRANCH   7   8
ATOM      8  C   UNL     1      43.783  63.939  56.241  1.00  0.00     0.000 C 
BRANCH   8   9
ATOM      9  C   UNL     1      42.746  64.733  57.059  1.00  0.00     0.000 C 
BRANCH   9  10
ATOM     10  C   UNL     1      41.699  63.871  57.792  1.00  0.00     0.000 C 
BRANCH  10  11
ATOM     11  C   UNL     1      40.231  64.275  57.546  1.00  0.00     0.000 C 
BRANCH  11  12
ATOM     12  C   UNL     1      40.015  65.273  56.394  1.00  0.00     0.006 C 
BRANCH  12  13
ATOM     13  C   UNL     1      39.206  64.679  55.235  1.00  0.00     0.053 C 
BRANCH  13  14
ATOM     14  C   UNL     1      37.743  64.712  55.550  1.00  0.00     0.041 C 
ATOM     15  O   UNL     1      37.102  63.638  55.695  1.00  0.00    -0.550 OA
ATOM     16  O   UNL     1      37.077  65.927  55.631  1.00  0.00    -0.550 OA
ENDBRANCH  13  14
ENDBRANCH  12  13
ENDBRANCH  11  12
ENDBRANCH  10  11
ENDBRANCH   9  10
ENDBRANCH   8   9
ENDBRANCH   7   8
ENDBRANCH   6   7
ENDBRANCH   5   6
ENDBRANCH   4   5
ENDBRANCH   3   4
ENDBRANCH   2   3
ENDBRANCH   1   2
BRANCH   1  17
ATOM     17  C   UNL     1      42.846  67.852  49.832  1.00  0.00     0.000 C 
BRANCH  17  18
ATOM     18  C   UNL     1      41.843  68.113  48.693  1.00  0.00     0.000 C 
BRANCH  18  19
ATOM     19  C   UNL     1      40.494  67.409  48.909  1.00  0.00     0.000 C 
BRANCH  19  20
ATOM     20  C   UNL     1      40.117  66.557  47.688  1.00  0.00     0.000 C 
BRANCH  20  21
ATOM     21  C   UNL     1      40.894  66.956  46.423  1.00  0.00     0.000 C 
BRANCH  21  22
ATOM     22  C   UNL     1      41.351  65.738  45.602  1.00  0.00    -0.000 C 
BRANCH  22  23
ATOM     23  C   UNL     1      42.327  64.833  46.374  1.00  0.00    -0.000 C 
BRANCH  23  24
ATOM     24  C   UNL     1      43.819  65.175  46.195  1.00  0.00    -0.000 C 
BRANCH  24  25
ATOM     25  C   UNL     1      44.081  66.309  45.180  1.00  0.00    -0.000 C 
BRANCH  25  26
ATOM     26  C   UNL     1      44.694  65.791  43.868  1.00  0.00    -0.000 C 
BRANCH  26  27
ATOM     27  C   UNL     1      43.627  65.229  42.904  1.00  0.00    -0.000 C 
BRANCH  27  28
ATOM     28  C   UNL     1      43.789  65.714  41.451  1.00  0.00    -0.000 C 
BRANCH  28  29
ATOM     29  C   UNL     1      43.067  64.851  40.402  1.00  0.00    -0.003 C 
ATOM     30  C   UNL     1      41.983  65.619  39.646  1.00  0.00     0.004 C 
ENDBRANCH  28  29
ENDBRANCH  27  28
ENDBRANCH  26  27
ENDBRANCH  25  26
ENDBRANCH  24  25
ENDBRANCH  23  24
ENDBRANCH  22  23
ENDBRANCH  21  22
ENDBRANCH  20  21
ENDBRANCH  19  20
ENDBRANCH  18  19
ENDBRANCH  17  18
ENDBRANCH   1  17
TORSDOF 26
ENDMDL
MODEL 9
REMARK VINA RESULT:    -4.211      5.653     12.327
REMARK INTER + INTRA:         -13.059
REMARK INTER:                 -10.340
REMARK INTRA:                  -2.719
REMARK UNBOUND:                -2.448
REMARK SMILES CCCCCCCCCCCCCCCCCCCCCCCCCCCC(=O)[O-]
REMARK SMILES IDX 15 1 16 2 17 3 18 4 19 5 20 6 21 7 22 8 23 9 24 10 25 11
REMARK SMILES IDX 26 12 27 13 28 14 29 15 30 16 14 17 13 18 12 19 11 20 10 21
REMARK SMILES IDX 9 22 8 23 7 24 6 25 5 26 4 27 3 28 2 29 1 30
REMARK H PARENT
REMARK Flexibility Score: inf
ROOT
ATOM      1  C   UNL     1      41.923  64.825  45.978  1.00  0.00     0.000 C 
ENDROOT
BRANCH   1   2
ATOM      2  C   UNL     1      43.266  64.362  45.397  1.00  0.00     0.000 C 
BRANCH   2   3
ATOM      3  C   UNL     1      44.273  65.521  45.356  1.00  0.00     0.000 C 
BRANCH   3   4
ATOM      4  C   UNL     1      44.666  65.928  43.923  1.00  0.00     0.000 C 
BRANCH   4   5
ATOM      5  C   UNL     1      44.651  67.442  43.645  1.00  0.00     0.000 C 
BRANCH   5   6
ATOM      6  C   UNL     1      43.758  67.823  42.452  1.00  0.00     0.000 C 
BRANCH   6   7
ATOM      7  C   UNL     1      43.062  66.609  41.812  1.00  0.00     0.000 C 
BRANCH   7   8
ATOM      8  C   UNL     1      43.154  66.532  40.274  1.00  0.00     0.000 C 
BRANCH   8   9
ATOM      9  C   UNL     1      44.584  66.584  39.702  1.00  0.00     0.000 C 
BRANCH   9  10
ATOM     10  C   UNL     1      45.100  65.251  39.124  1.00  0.00     0.000 C 
BRANCH  10  11
ATOM     11  C   UNL     1      45.128  64.073  40.120  1.00  0.00     0.000 C 
BRANCH  11  12
ATOM     12  C   UNL     1      44.111  62.955  39.834  1.00  0.00     0.006 C 
BRANCH  12  13
ATOM     13  C   UNL     1      43.535  63.022  38.414  1.00  0.00     0.053 C 
BRANCH  13  14
ATOM     14  C   UNL     1      42.043  63.114  38.461  1.00  0.00     0.041 C 
ATOM     15  O   UNL     1      41.350  62.080  38.654  1.00  0.00    -0.550 OA
ATOM     16  O   UNL     1      41.414  64.331  38.239  1.00  0.00    -0.550 OA
ENDBRANCH  13  14
ENDBRANCH  12  13
ENDBRANCH  11  12
ENDBRANCH  10  11
ENDBRANCH   9  10
ENDBRANCH   8   9
ENDBRANCH   7   8
ENDBRANCH   6   7
ENDBRANCH   5   6
ENDBRANCH   4   5
ENDBRANCH   3   4
ENDBRANCH   2   3
ENDBRANCH   1   2
BRANCH   1  17
ATOM     17  C   UNL     1      41.468  66.191  45.431  1.00  0.00     0.000 C 
BRANCH  17  18
ATOM     18  C   UNL     1      40.921  67.165  46.490  1.00  0.00     0.000 C 
BRANCH  18  19
ATOM     19  C   UNL     1      41.460  66.882  47.901  1.00  0.00     0.000 C 
BRANCH  19  20
ATOM     20  C   UNL     1      42.823  67.557  48.113  1.00  0.00     0.000 C 
BRANCH  20  21
ATOM     21  C   UNL     1      43.881  66.593  48.675  1.00  0.00     0.000 C 
BRANCH  21  22
ATOM     22  C   UNL     1      44.311  66.958  50.106  1.00  0.00    -0.000 C 
BRANCH  22  23
ATOM     23  C   UNL     1      45.199  65.882  50.754  1.00  0.00    -0.000 C 
BRANCH  23  24
ATOM     24  C   UNL     1      44.684  65.329  52.096  1.00  0.00    -0.000 C 
BRANCH  24  25
ATOM     25  C   UNL     1      43.677  66.258  52.809  1.00  0.00    -0.000 C 
BRANCH  25  26
ATOM     26  C   UNL     1      42.858  65.521  53.882  1.00  0.00    -0.000 C 
BRANCH  26  27
ATOM     27  C   UNL     1      43.609  64.299  54.456  1.00  0.00    -0.000 C 
BRANCH  27  28
ATOM     28  C   UNL     1      43.620  64.245  55.994  1.00  0.00    -0.000 C 
BRANCH  28  29
ATOM     29  C   UNL     1      44.232  62.965  56.588  1.00  0.00    -0.003 C 
ATOM     30  C   UNL     1      43.588  62.560  57.915  1.00  0.00     0.004 C 
ENDBRANCH  28  29
ENDBRANCH  27  28
ENDBRANCH  26  27
ENDBRANCH  25  26
ENDBRANCH  24  25
ENDBRANCH  23  24
ENDBRANCH  22  23
ENDBRANCH  21  22
ENDBRANCH  20  21
ENDBRANCH  19  20
ENDBRANCH  18  19
ENDBRANCH  17  18
ENDBRANCH   1  17
TORSDOF 26
ENDMDL
