MODEL 1
REMARK VINA RESULT:    -3.561      0.000      0.000
REMARK INTER + INTRA:          -7.229
REMARK INTER:                  -6.059
REMARK INTRA:                  -1.169
REMARK UNBOUND:                -1.169
REMARK SMILES CCCCCCCCCCCCCC(=O)[O-]
REMARK SMILES IDX 8 1 9 2 10 3 11 4 12 5 13 6 14 7 15 8 16 9 7 10 6 11 5 12
REMARK SMILES IDX 4 13 3 14 2 15 1 16
REMARK H PARENT
REMARK Flexibility Score: inf
ROOT
ATOM      1  C   UNL     1      62.976  42.682  19.332  1.00  0.00     0.000 C 
ENDROOT
BRANCH   1   2
ATOM      2  C   UNL     1      62.593  44.068  18.799  1.00  0.00     0.000 C 
BRANCH   2   3
ATOM      3  C   UNL     1      61.067  44.218  18.704  1.00  0.00     0.000 C 
BRANCH   3   4
ATOM      4  C   UNL     1      60.603  44.793  17.353  1.00  0.00     0.000 C 
BRANCH   4   5
ATOM      5  C   UNL     1      59.094  45.089  17.253  1.00  0.00     0.006 C 
BRANCH   5   6
ATOM      6  C   UNL     1      58.338  44.222  16.234  1.00  0.00     0.053 C 
BRANCH   6   7
ATOM      7  C   UNL     1      57.279  44.998  15.513  1.00  0.00     0.041 C 
ATOM      8  O   UNL     1      56.124  44.517  15.374  1.00  0.00    -0.550 OA
ATOM      9  O   UNL     1      57.578  46.239  14.964  1.00  0.00    -0.550 OA
ENDBRANCH   6   7
ENDBRANCH   5   6
ENDBRANCH   4   5
ENDBRANCH   3   4
ENDBRANCH   2   3
ENDBRANCH   1   2
BRANCH   1  10
ATOM     10  C   UNL     1      64.078  42.048  18.470  1.00  0.00     0.000 C 
BRANCH  10  11
ATOM     11  C   UNL     1      63.679  40.668  17.923  1.00  0.00    -0.000 C 
BRANCH  11  12
ATOM     12  C   UNL     1      63.895  40.549  16.404  1.00  0.00    -0.000 C 
BRANCH  12  13
ATOM     13  C   UNL     1      64.611  41.774  15.813  1.00  0.00    -0.000 C 
BRANCH  13  14
ATOM     14  C   UNL     1      63.705  42.595  14.883  1.00  0.00    -0.000 C 
BRANCH  14  15
ATOM     15  C   UNL     1      63.700  44.074  15.290  1.00  0.00    -0.003 C 
ATOM     16  C   UNL     1      65.120  44.616  15.419  1.00  0.00     0.004 C 
ENDBRANCH  14  15
ENDBRANCH  13  14
ENDBRANCH  12  13
ENDBRANCH  11  12
ENDBRANCH  10  11
ENDBRANCH   1  10
TORSDOF 12
ENDMDL
MODEL 2
REMARK VINA RESULT:    -3.397      1.860      3.638
REMARK INTER + INTRA:          -6.950
REMARK INTER:                  -6.232
REMARK INTRA:                  -0.718
REMARK UNBOUND:                -1.169
REMARK SMILES CCCCCCCCCCCCCC(=O)[O-]
REMARK SMILES IDX 8 1 9 2 10 3 11 4 12 5 13 6 14 7 15 8 16 9 7 10 6 11 5 12
REMARK SMILES IDX 4 13 3 14 2 15 1 16
REMARK H PARENT
REMARK Flexibility Score: inf
ROOT
ATOM      1  C   UNL     1      59.856  44.633  18.287  1.00  0.00     0.000 C 
ENDROOT
BRANCH   1   2
ATOM      2  C   UNL     1      59.209  45.122  16.986  1.00  0.00     0.000 C 
BRANCH   2   3
ATOM      3  C   UNL     1      58.042  44.211  16.576  1.00  0.00     0.000 C 
BRANCH   3   4
ATOM      4  C   UNL     1      57.293  44.720  15.330  1.00  0.00     0.000 C 
BRANCH   4   5
ATOM      5  C   UNL     1      57.176  46.253  15.219  1.00  0.00     0.006 C 
BRANCH   5   6
ATOM      6  C   UNL     1      56.253  46.743  14.093  1.00  0.00     0.053 C 
BRANCH   6   7
ATOM      7  C   UNL     1      56.500  48.181  13.752  1.00  0.00     0.041 C 
ATOM      8  O   UNL     1      55.563  48.898  13.310  1.00  0.00    -0.550 OA
ATOM      9  O   UNL     1      57.772  48.721  13.890  1.00  0.00    -0.550 OA
ENDBRANCH   6   7
ENDBRANCH   5   6
ENDBRANCH   4   5
ENDBRANCH   3   4
ENDBRANCH   2   3
ENDBRANCH   1   2
BRANCH   1  10
ATOM     10  C   UNL     1      61.367  44.910  18.288  1.00  0.00     0.000 C 
BRANCH  10  11
ATOM     11  C   UNL     1      62.065  44.383  17.023  1.00  0.00    -0.000 C 
BRANCH  11  12
ATOM     12  C   UNL     1      63.214  45.294  16.559  1.00  0.00    -0.000 C 
BRANCH  12  13
ATOM     13  C   UNL     1      64.110  44.624  15.505  1.00  0.00    -0.000 C 
BRANCH  13  14
ATOM     14  C   UNL     1      63.533  43.292  15.001  1.00  0.00    -0.000 C 
BRANCH  14  15
ATOM     15  C   UNL     1      64.526  42.146  15.224  1.00  0.00    -0.003 C 
ATOM     16  C   UNL     1      64.007  41.160  16.266  1.00  0.00     0.004 C 
ENDBRANCH  14  15
ENDBRANCH  13  14
ENDBRANCH  12  13
ENDBRANCH  11  12
ENDBRANCH  10  11
ENDBRANCH   1  10
TORSDOF 12
ENDMDL
MODEL 3
REMARK VINA RESULT:    -3.360     11.548     14.012
REMARK INTER + INTRA:          -6.886
REMARK INTER:                  -5.898
REMARK INTRA:                  -0.988
REMARK UNBOUND:                -1.169
REMARK SMILES CCCCCCCCCCCCCC(=O)[O-]
REMARK SMILES IDX 8 1 9 2 10 3 11 4 12 5 13 6 14 7 15 8 16 9 7 10 6 11 5 12
REMARK SMILES IDX 4 13 3 14 2 15 1 16
REMARK H PARENT
REMARK Flexibility Score: inf
ROOT
ATOM      1  C   UNL     1      50.058  44.985  14.688  1.00  0.00     0.000 C 
ENDROOT
BRANCH   1   2
ATOM      2  C   UNL     1      49.625  46.450  14.819  1.00  0.00     0.000 C 
BRANCH   2   3
ATOM      3  C   UNL     1      50.841  47.388  14.768  1.00  0.00     0.000 C 
BRANCH   3   4
ATOM      4  C   UNL     1      51.875  46.973  13.705  1.00  0.00     0.000 C 
BRANCH   4   5
ATOM      5  C   UNL     1      52.009  47.939  12.511  1.00  0.00     0.006 C 
BRANCH   5   6
ATOM      6  C   UNL     1      51.714  49.410  12.843  1.00  0.00     0.053 C 
BRANCH   6   7
ATOM      7  C   UNL     1      50.454  49.890  12.190  1.00  0.00     0.041 C 
ATOM      8  O   UNL     1      50.396  50.011  10.938  1.00  0.00    -0.550 OA
ATOM      9  O   UNL     1      49.355  50.236  12.966  1.00  0.00    -0.550 OA
ENDBRANCH   6   7
ENDBRANCH   5   6
ENDBRANCH   4   5
ENDBRANCH   3   4
ENDBRANCH   2   3
ENDBRANCH   1   2
BRANCH   1  10
ATOM     10  C   UNL     1      49.127  44.063  15.491  1.00  0.00     0.000 C 
BRANCH  10  11
ATOM     11  C   UNL     1      47.775  44.721  15.808  1.00  0.00    -0.000 C 
BRANCH  11  12
ATOM     12  C   UNL     1      46.630  44.168  14.941  1.00  0.00    -0.000 C 
BRANCH  12  13
ATOM     13  C   UNL     1      46.948  42.782  14.359  1.00  0.00    -0.000 C 
BRANCH  13  14
ATOM     14  C   UNL     1      45.982  41.696  14.856  1.00  0.00    -0.000 C 
BRANCH  14  15
ATOM     15  C   UNL     1      46.684  40.741  15.829  1.00  0.00    -0.003 C 
ATOM     16  C   UNL     1      46.448  41.158  17.278  1.00  0.00     0.004 C 
ENDBRANCH  14  15
ENDBRANCH  13  14
ENDBRANCH  12  13
ENDBRANCH  11  12
ENDBRANCH  10  11
ENDBRANCH   1  10
TORSDOF 12
ENDMDL
MODEL 4
REMARK VINA RESULT:    -3.351      9.565     11.423
REMARK INTER + INTRA:          -6.872
REMARK INTER:                  -5.491
REMARK INTRA:                  -1.381
REMARK UNBOUND:                -1.169
REMARK SMILES CCCCCCCCCCCCCC(=O)[O-]
REMARK SMILES IDX 8 1 9 2 10 3 11 4 12 5 13 6 14 7 15 8 16 9 7 10 6 11 5 12
REMARK SMILES IDX 4 13 3 14 2 15 1 16
REMARK H PARENT
REMARK Flexibility Score: inf
ROOT
ATOM      1  C   UNL     1      56.413  36.583  16.786  1.00  0.00     0.000 C 
ENDROOT
BRANCH   1   2
ATOM      2  C   UNL     1      56.963  35.280  16.192  1.00  0.00     0.000 C 
BRANCH   2   3
ATOM      3  C   UNL     1      58.413  35.041  16.641  1.00  0.00     0.000 C 
BRANCH   3   4
ATOM      4  C   UNL     1      59.067  33.836  15.941  1.00  0.00     0.000 C 
BRANCH   4   5
ATOM      5  C   UNL     1      60.490  34.087  15.402  1.00  0.00     0.006 C 
BRANCH   5   6
ATOM      6  C   UNL     1      60.564  34.345  13.889  1.00  0.00     0.053 C 
BRANCH   6   7
ATOM      7  C   UNL     1      61.730  33.647  13.258  1.00  0.00     0.041 C 
ATOM      8  O   UNL     1      62.861  34.199  13.233  1.00  0.00    -0.550 OA
ATOM      9  O   UNL     1      61.559  32.401  12.668  1.00  0.00    -0.550 OA
ENDBRANCH   6   7
ENDBRANCH   5   6
ENDBRANCH   4   5
ENDBRANCH   3   4
ENDBRANCH   2   3
ENDBRANCH   1   2
BRANCH   1  10
ATOM     10  C   UNL     1      55.559  37.338  15.757  1.00  0.00     0.000 C 
BRANCH  10  11
ATOM     11  C   UNL     1      54.545  36.426  15.047  1.00  0.00    -0.000 C 
BRANCH  11  12
ATOM     12  C   UNL     1      54.228  36.895  13.616  1.00  0.00    -0.000 C 
BRANCH  12  13
ATOM     13  C   UNL     1      54.741  35.916  12.548  1.00  0.00    -0.000 C 
BRANCH  13  14
ATOM     14  C   UNL     1      56.180  36.222  12.108  1.00  0.00    -0.000 C 
BRANCH  14  15
ATOM     15  C   UNL     1      57.111  35.043  12.420  1.00  0.00    -0.003 C 
ATOM     16  C   UNL     1      56.315  33.799  12.802  1.00  0.00     0.004 C 
ENDBRANCH  14  15
ENDBRANCH  13  14
ENDBRANCH  12  13
ENDBRANCH  11  12
ENDBRANCH  10  11
ENDBRANCH   1  10
TORSDOF 12
ENDMDL
MODEL 5
REMARK VINA RESULT:    -3.351     11.997     14.683
REMARK INTER + INTRA:          -6.871
REMARK INTER:                  -5.702
REMARK INTRA:                  -1.169
REMARK UNBOUND:                -1.169
REMARK SMILES CCCCCCCCCCCCCC(=O)[O-]
REMARK SMILES IDX 8 1 9 2 10 3 11 4 12 5 13 6 14 7 15 8 16 9 7 10 6 11 5 12
REMARK SMILES IDX 4 13 3 14 2 15 1 16
REMARK H PARENT
REMARK Flexibility Score: inf
ROOT
ATOM      1  C   UNL     1      47.735  44.754  15.492  1.00  0.00     0.000 C 
ENDROOT
BRANCH   1   2
ATOM      2  C   UNL     1      49.004  43.955  15.168  1.00  0.00     0.000 C 
BRANCH   2   3
ATOM      3  C   UNL     1      50.262  44.807  15.392  1.00  0.00     0.000 C 
BRANCH   3   4
ATOM      4  C   UNL     1      50.496  45.838  14.272  1.00  0.00     0.000 C 
BRANCH   4   5
ATOM      5  C   UNL     1      50.557  47.306  14.738  1.00  0.00     0.006 C 
BRANCH   5   6
ATOM      6  C   UNL     1      49.458  48.209  14.155  1.00  0.00     0.053 C 
BRANCH   6   7
ATOM      7  C   UNL     1      50.018  49.250  13.235  1.00  0.00     0.041 C 
ATOM      8  O   UNL     1      49.493  50.393  13.177  1.00  0.00    -0.550 OA
ATOM      9  O   UNL     1      51.099  48.948  12.417  1.00  0.00    -0.550 OA
ENDBRANCH   6   7
ENDBRANCH   5   6
ENDBRANCH   4   5
ENDBRANCH   3   4
ENDBRANCH   2   3
ENDBRANCH   1   2
BRANCH   1  10
ATOM     10  C   UNL     1      46.502  44.119  14.831  1.00  0.00     0.000 C 
BRANCH  10  11
ATOM     11  C   UNL     1      45.275  44.109  15.757  1.00  0.00    -0.000 C 
BRANCH  11  12
ATOM     12  C   UNL     1      44.875  42.688  16.193  1.00  0.00    -0.000 C 
BRANCH  12  13
ATOM     13  C   UNL     1      45.358  41.611  15.209  1.00  0.00    -0.000 C 
BRANCH  13  14
ATOM     14  C   UNL     1      45.869  40.349  15.918  1.00  0.00    -0.000 C 
BRANCH  14  15
ATOM     15  C   UNL     1      46.539  40.703  17.251  1.00  0.00    -0.003 C 
ATOM     16  C   UNL     1      48.039  40.917  17.075  1.00  0.00     0.004 C 
ENDBRANCH  14  15
ENDBRANCH  13  14
ENDBRANCH  12  13
ENDBRANCH  11  12
ENDBRANCH  10  11
ENDBRANCH   1  10
TORSDOF 12
ENDMDL
MODEL 6
REMARK VINA RESULT:    -3.344     10.068     12.090
REMARK INTER + INTRA:          -6.859
REMARK INTER:                  -5.332
REMARK INTRA:                  -1.527
REMARK UNBOUND:                -1.169
REMARK SMILES CCCCCCCCCCCCCC(=O)[O-]
REMARK SMILES IDX 8 1 9 2 10 3 11 4 12 5 13 6 14 7 15 8 16 9 7 10 6 11 5 12
REMARK SMILES IDX 4 13 3 14 2 15 1 16
REMARK H PARENT
REMARK Flexibility Score: inf
ROOT
ATOM      1  C   UNL     1      57.825  31.962  12.690  1.00  0.00     0.000 C 
ENDROOT
BRANCH   1   2
ATOM      2  C   UNL     1      58.273  33.064  11.722  1.00  0.00     0.000 C 
BRANCH   2   3
ATOM      3  C   UNL     1      59.799  33.234  11.751  1.00  0.00     0.000 C 
BRANCH   3   4
ATOM      4  C   UNL     1      60.245  34.525  12.462  1.00  0.00     0.000 C 
BRANCH   4   5
ATOM      5  C   UNL     1      61.043  34.311  13.764  1.00  0.00     0.006 C 
BRANCH   5   6
ATOM      6  C   UNL     1      62.162  33.263  13.662  1.00  0.00     0.053 C 
BRANCH   6   7
ATOM      7  C   UNL     1      63.508  33.848  13.966  1.00  0.00     0.041 C 
ATOM      8  O   UNL     1      63.934  33.875  15.150  1.00  0.00    -0.550 OA
ATOM      9  O   UNL     1      64.276  34.393  12.946  1.00  0.00    -0.550 OA
ENDBRANCH   6   7
ENDBRANCH   5   6
ENDBRANCH   4   5
ENDBRANCH   3   4
ENDBRANCH   2   3
ENDBRANCH   1   2
BRANCH   1  10
ATOM     10  C   UNL     1      56.890  32.525  13.771  1.00  0.00     0.000 C 
BRANCH  10  11
ATOM     11  C   UNL     1      57.656  33.189  14.926  1.00  0.00    -0.000 C 
BRANCH  11  12
ATOM     12  C   UNL     1      57.352  34.692  15.051  1.00  0.00    -0.000 C 
BRANCH  12  13
ATOM     13  C   UNL     1      55.918  35.041  14.622  1.00  0.00    -0.000 C 
BRANCH  13  14
ATOM     14  C   UNL     1      55.812  36.443  14.003  1.00  0.00    -0.000 C 
BRANCH  14  15
ATOM     15  C   UNL     1      55.320  36.366  12.553  1.00  0.00    -0.003 C 
ATOM     16  C   UNL     1      56.480  36.488  11.570  1.00  0.00     0.004 C 
ENDBRANCH  14  15
ENDBRANCH  13  14
ENDBRANCH  12  13
ENDBRANCH  11  12
ENDBRANCH  10  11
ENDBRANCH   1  10
TORSDOF 12
ENDMDL
MODEL 7
REMARK VINA RESULT:    -3.328     11.359     13.356
REMARK INTER + INTRA:          -6.831
REMARK INTER:                  -5.863
REMARK INTRA:                  -0.968
REMARK UNBOUND:                -1.169
REMARK SMILES CCCCCCCCCCCCCC(=O)[O-]
REMARK SMILES IDX 8 1 9 2 10 3 11 4 12 5 13 6 14 7 15 8 16 9 7 10 6 11 5 12
REMARK SMILES IDX 4 13 3 14 2 15 1 16
REMARK H PARENT
REMARK Flexibility Score: inf
ROOT
ATOM      1  C   UNL     1      51.838  47.409  13.470  1.00  0.00     0.000 C 
ENDROOT
BRANCH   1   2
ATOM      2  C   UNL     1      51.820  48.395  14.644  1.00  0.00     0.000 C 
BRANCH   2   3
ATOM      3  C   UNL     1      51.194  49.734  14.226  1.00  0.00     0.000 C 
BRANCH   3   4
ATOM      4  C   UNL     1      50.368  49.632  12.930  1.00  0.00     0.000 C 
BRANCH   4   5
ATOM      5  C   UNL     1      50.094  50.974  12.223  1.00  0.00     0.006 C 
BRANCH   5   6
ATOM      6  C   UNL     1      50.609  51.052  10.778  1.00  0.00     0.053 C 
BRANCH   6   7
ATOM      7  C   UNL     1      51.970  50.443  10.635  1.00  0.00     0.041 C 
ATOM      8  O   UNL     1      52.127  49.393   9.957  1.00  0.00    -0.550 OA
ATOM      9  O   UNL     1      53.061  51.015  11.277  1.00  0.00    -0.550 OA
ENDBRANCH   6   7
ENDBRANCH   5   6
ENDBRANCH   4   5
ENDBRANCH   3   4
ENDBRANCH   2   3
ENDBRANCH   1   2
BRANCH   1  10
ATOM     10  C   UNL     1      50.975  46.175  13.775  1.00  0.00     0.000 C 
BRANCH  10  11
ATOM     11  C   UNL     1      51.214  45.622  15.189  1.00  0.00    -0.000 C 
BRANCH  11  12
ATOM     12  C   UNL     1      49.945  45.011  15.808  1.00  0.00    -0.000 C 
BRANCH  12  13
ATOM     13  C   UNL     1      48.662  45.715  15.337  1.00  0.00    -0.000 C 
BRANCH  13  14
ATOM     14  C   UNL     1      47.463  44.760  15.245  1.00  0.00    -0.000 C 
BRANCH  14  15
ATOM     15  C   UNL     1      47.930  43.315  15.031  1.00  0.00    -0.003 C 
ATOM     16  C   UNL     1      46.838  42.473  14.378  1.00  0.00     0.004 C 
ENDBRANCH  14  15
ENDBRANCH  13  14
ENDBRANCH  12  13
ENDBRANCH  11  12
ENDBRANCH  10  11
ENDBRANCH   1  10
TORSDOF 12
ENDMDL
MODEL 8
REMARK VINA RESULT:    -3.326      9.520     11.854
REMARK INTER + INTRA:          -6.829
REMARK INTER:                  -5.453
REMARK INTRA:                  -1.376
REMARK UNBOUND:                -1.169
REMARK SMILES CCCCCCCCCCCCCC(=O)[O-]
REMARK SMILES IDX 8 1 9 2 10 3 11 4 12 5 13 6 14 7 15 8 16 9 7 10 6 11 5 12
REMARK SMILES IDX 4 13 3 14 2 15 1 16
REMARK H PARENT
REMARK Flexibility Score: inf
ROOT
ATOM      1  C   UNL     1      56.866  35.233  12.619  1.00  0.00     0.000 C 
ENDROOT
BRANCH   1   2
ATOM      2  C   UNL     1      56.280  33.818  12.706  1.00  0.00     0.000 C 
BRANCH   2   3
ATOM      3  C   UNL     1      57.385  32.758  12.592  1.00  0.00     0.000 C 
BRANCH   3   4
ATOM      4  C   UNL     1      58.405  33.071  11.481  1.00  0.00     0.000 C 
BRANCH   4   5
ATOM      5  C   UNL     1      59.883  33.013  11.915  1.00  0.00     0.006 C 
BRANCH   5   6
ATOM      6  C   UNL     1      60.477  34.365  12.341  1.00  0.00     0.053 C 
BRANCH   6   7
ATOM      7  C   UNL     1      61.188  34.276  13.656  1.00  0.00     0.041 C 
ATOM      8  O   UNL     1      62.439  34.137  13.692  1.00  0.00    -0.550 OA
ATOM      9  O   UNL     1      60.466  34.312  14.842  1.00  0.00    -0.550 OA
ENDBRANCH   6   7
ENDBRANCH   5   6
ENDBRANCH   4   5
ENDBRANCH   3   4
ENDBRANCH   2   3
ENDBRANCH   1   2
BRANCH   1  10
ATOM     10  C   UNL     1      55.779  36.256  12.254  1.00  0.00     0.000 C 
BRANCH  10  11
ATOM     11  C   UNL     1      54.914  36.654  13.460  1.00  0.00    -0.000 C 
BRANCH  11  12
ATOM     12  C   UNL     1      55.747  36.906  14.729  1.00  0.00    -0.000 C 
BRANCH  12  13
ATOM     13  C   UNL     1      55.130  36.256  15.978  1.00  0.00    -0.000 C 
BRANCH  13  14
ATOM     14  C   UNL     1      55.786  34.913  16.330  1.00  0.00    -0.000 C 
BRANCH  14  15
ATOM     15  C   UNL     1      57.310  34.991  16.180  1.00  0.00    -0.003 C 
ATOM     16  C   UNL     1      57.963  35.509  17.458  1.00  0.00     0.004 C 
ENDBRANCH  14  15
ENDBRANCH  13  14
ENDBRANCH  12  13
ENDBRANCH  11  12
ENDBRANCH  10  11
ENDBRANCH   1  10
TORSDOF 12
ENDMDL
MODEL 9
REMARK VINA RESULT:    -3.286      6.747     10.143
REMARK INTER + INTRA:          -6.761
REMARK INTER:                  -5.089
REMARK INTRA:                  -1.671
REMARK UNBOUND:                -1.169
REMARK SMILES CCCCCCCCCCCCCC(=O)[O-]
REMARK SMILES IDX 8 1 9 2 10 3 11 4 12 5 13 6 14 7 15 8 16 9 7 10 6 11 5 12
REMARK SMILES IDX 4 13 3 14 2 15 1 16
REMARK H PARENT
REMARK Flexibility Score: inf
ROOT
ATOM      1  C   UNL     1      51.947  45.691  16.047  1.00  0.00     0.000 C 
ENDROOT
BRANCH   1   2
ATOM      2  C   UNL     1      51.214  45.759  14.702  1.00  0.00     0.000 C 
BRANCH   2   3
ATOM      3  C   UNL     1      50.256  46.958  14.657  1.00  0.00     0.000 C 
BRANCH   3   4
ATOM      4  C   UNL     1      50.852  48.176  13.926  1.00  0.00     0.000 C 
BRANCH   4   5
ATOM      5  C   UNL     1      51.748  47.838  12.719  1.00  0.00     0.006 C 
BRANCH   5   6
ATOM      6  C   UNL     1      52.449  49.050  12.084  1.00  0.00     0.053 C 
BRANCH   6   7
ATOM      7  C   UNL     1      51.705  49.567  10.891  1.00  0.00     0.041 C 
ATOM      8  O   UNL     1      50.489  49.878  10.989  1.00  0.00    -0.550 OA
ATOM      9  O   UNL     1      52.346  49.673   9.664  1.00  0.00    -0.550 OA
ENDBRANCH   6   7
ENDBRANCH   5   6
ENDBRANCH   4   5
ENDBRANCH   3   4
ENDBRANCH   2   3
ENDBRANCH   1   2
BRANCH   1  10
ATOM     10  C   UNL     1      53.453  45.935  15.866  1.00  0.00     0.000 C 
BRANCH  10  11
ATOM     11  C   UNL     1      53.844  47.405  16.092  1.00  0.00    -0.000 C 
BRANCH  11  12
ATOM     12  C   UNL     1      54.654  47.987  14.920  1.00  0.00    -0.000 C 
BRANCH  12  13
ATOM     13  C   UNL     1      55.249  46.897  14.014  1.00  0.00    -0.000 C 
BRANCH  13  14
ATOM     14  C   UNL     1      56.780  46.975  13.924  1.00  0.00    -0.000 C 
BRANCH  14  15
ATOM     15  C   UNL     1      57.435  46.359  15.166  1.00  0.00    -0.003 C 
ATOM     16  C   UNL     1      56.990  44.913  15.364  1.00  0.00     0.004 C 
ENDBRANCH  14  15
ENDBRANCH  13  14
ENDBRANCH  12  13
ENDBRANCH  11  12
ENDBRANCH  10  11
ENDBRANCH   1  10
TORSDOF 12
ENDMDL
