MODEL 1
REMARK VINA RESULT:    -4.416      0.000      0.000
REMARK INTER + INTRA:          -4.698
REMARK INTER:                  -4.674
REMARK INTRA:                  -0.023
REMARK UNBOUND:                -0.023
REMARK SMILES O=C([O-])c1cccnc1
REMARK SMILES IDX 4 1 5 2 9 3 6 4 8 5 7 6 2 7 1 8 3 9
REMARK H PARENT
REMARK Flexibility Score: inf
ROOT
ATOM      1  C   UNL     1       4.386  -2.233 -21.483  1.00  0.00     0.016 A 
ATOM      2  C   UNL     1       5.212  -2.982 -22.339  1.00  0.00     0.013 A 
ATOM      3  C   UNL     1       3.130  -2.760 -21.137  1.00  0.00     0.120 A 
ATOM      4  C   UNL     1       4.780  -4.218 -22.824  1.00  0.00     0.021 A 
ATOM      5  N   UNL     1       2.735  -3.966 -21.623  1.00  0.00    -0.264 NA
ATOM      6  C   UNL     1       3.525  -4.698 -22.451  1.00  0.00     0.111 A 
ENDROOT
BRANCH   1   7
ATOM      7  C   UNL     1       4.825  -0.921 -20.959  1.00  0.00     0.073 C 
ATOM      8  O   UNL     1       4.013  -0.167 -20.359  1.00  0.00    -0.545 OA
ATOM      9  O   UNL     1       6.140  -0.502 -21.122  1.00  0.00    -0.545 OA
ENDBRANCH   1   7
TORSDOF 1
ENDMDL
MODEL 2
REMARK VINA RESULT:    -4.407      2.673      3.409
REMARK INTER + INTRA:          -4.688
REMARK INTER:                  -4.672
REMARK INTRA:                  -0.016
REMARK UNBOUND:                -0.023
REMARK SMILES O=C([O-])c1cccnc1
REMARK SMILES IDX 4 1 5 2 9 3 6 4 8 5 7 6 2 7 1 8 3 9
REMARK H PARENT
REMARK Flexibility Score: inf
ROOT
ATOM      1  C   UNL     1       4.743  -3.666 -22.864  1.00  0.00     0.016 A 
ATOM      2  C   UNL     1       4.699  -2.478 -22.114  1.00  0.00     0.013 A 
ATOM      3  C   UNL     1       3.796  -4.667 -22.587  1.00  0.00     0.120 A 
ATOM      4  C   UNL     1       3.732  -2.313 -21.121  1.00  0.00     0.021 A 
ATOM      5  N   UNL     1       2.864  -4.479 -21.615  1.00  0.00    -0.264 NA
ATOM      6  C   UNL     1       2.813  -3.335 -20.883  1.00  0.00     0.111 A 
ENDROOT
BRANCH   1   7
ATOM      7  C   UNL     1       5.760  -3.862 -23.921  1.00  0.00     0.073 C 
ATOM      8  O   UNL     1       6.831  -4.475 -23.673  1.00  0.00    -0.545 OA
ATOM      9  O   UNL     1       5.546  -3.370 -25.203  1.00  0.00    -0.545 OA
ENDBRANCH   1   7
TORSDOF 1
ENDMDL
MODEL 3
REMARK VINA RESULT:    -4.384      3.061      3.964
REMARK INTER + INTRA:          -4.663
REMARK INTER:                  -4.640
REMARK INTRA:                  -0.023
REMARK UNBOUND:                -0.023
REMARK SMILES O=C([O-])c1cccnc1
REMARK SMILES IDX 4 1 5 2 9 3 6 4 8 5 7 6 2 7 1 8 3 9
REMARK H PARENT
REMARK Flexibility Score: inf
ROOT
ATOM      1  C   UNL     1       3.526  -3.779 -21.862  1.00  0.00     0.016 A 
ATOM      2  C   UNL     1       3.317  -2.584 -21.152  1.00  0.00     0.013 A 
ATOM      3  C   UNL     1       4.740  -3.944 -22.551  1.00  0.00     0.120 A 
ATOM      4  C   UNL     1       4.303  -1.595 -21.141  1.00  0.00     0.021 A 
ATOM      5  N   UNL     1       5.683  -2.964 -22.522  1.00  0.00    -0.264 NA
ATOM      6  C   UNL     1       5.491  -1.806 -21.839  1.00  0.00     0.111 A 
ENDROOT
BRANCH   1   7
ATOM      7  C   UNL     1       2.495  -4.839 -21.888  1.00  0.00     0.073 C 
ATOM      8  O   UNL     1       1.313  -4.591 -21.530  1.00  0.00    -0.545 OA
ATOM      9  O   UNL     1       2.817  -6.125 -22.307  1.00  0.00    -0.545 OA
ENDBRANCH   1   7
TORSDOF 1
ENDMDL
MODEL 4
REMARK VINA RESULT:    -4.362     11.920     12.967
REMARK INTER + INTRA:          -4.640
REMARK INTER:                  -4.617
REMARK INTRA:                  -0.023
REMARK UNBOUND:                -0.023
REMARK SMILES O=C([O-])c1cccnc1
REMARK SMILES IDX 4 1 5 2 9 3 6 4 8 5 7 6 2 7 1 8 3 9
REMARK H PARENT
REMARK Flexibility Score: inf
ROOT
ATOM      1  C   UNL     1       5.203  10.270 -23.007  1.00  0.00     0.016 A 
ATOM      2  C   UNL     1       4.616   9.246 -22.244  1.00  0.00     0.013 A 
ATOM      3  C   UNL     1       6.598  10.261 -23.176  1.00  0.00     0.120 A 
ATOM      4  C   UNL     1       5.414   8.252 -21.675  1.00  0.00     0.021 A 
ATOM      5  N   UNL     1       7.351   9.281 -22.611  1.00  0.00    -0.264 NA
ATOM      6  C   UNL     1       6.794   8.287 -21.871  1.00  0.00     0.111 A 
ENDROOT
BRANCH   1   7
ATOM      7  C   UNL     1       4.375  11.333 -23.618  1.00  0.00     0.073 C 
ATOM      8  O   UNL     1       4.874  12.131 -24.455  1.00  0.00    -0.545 OA
ATOM      9  O   UNL     1       3.034  11.466 -23.275  1.00  0.00    -0.545 OA
ENDBRANCH   1   7
TORSDOF 1
ENDMDL
MODEL 5
REMARK VINA RESULT:    -4.309     11.957     12.882
REMARK INTER + INTRA:          -4.585
REMARK INTER:                  -4.568
REMARK INTRA:                  -0.016
REMARK UNBOUND:                -0.023
REMARK SMILES O=C([O-])c1cccnc1
REMARK SMILES IDX 4 1 5 2 9 3 6 4 8 5 7 6 2 7 1 8 3 9
REMARK H PARENT
REMARK Flexibility Score: inf
ROOT
ATOM      1  C   UNL     1       4.668  10.094 -22.868  1.00  0.00     0.016 A 
ATOM      2  C   UNL     1       4.670   8.907 -22.115  1.00  0.00     0.013 A 
ATOM      3  C   UNL     1       5.902  10.624 -23.283  1.00  0.00     0.120 A 
ATOM      4  C   UNL     1       5.877   8.281 -21.797  1.00  0.00     0.021 A 
ATOM      5  N   UNL     1       7.063   9.993 -22.960  1.00  0.00    -0.264 NA
ATOM      6  C   UNL     1       7.076   8.846 -22.233  1.00  0.00     0.111 A 
ENDROOT
BRANCH   1   7
ATOM      7  C   UNL     1       3.401  10.773 -23.215  1.00  0.00     0.073 C 
ATOM      8  O   UNL     1       2.929  10.691 -24.379  1.00  0.00    -0.545 OA
ATOM      9  O   UNL     1       2.713  11.512 -22.258  1.00  0.00    -0.545 OA
ENDBRANCH   1   7
TORSDOF 1
ENDMDL
MODEL 6
REMARK VINA RESULT:    -4.281      2.686      3.553
REMARK INTER + INTRA:          -4.554
REMARK INTER:                  -4.531
REMARK INTRA:                  -0.024
REMARK UNBOUND:                -0.023
REMARK SMILES O=C([O-])c1cccnc1
REMARK SMILES IDX 4 1 5 2 9 3 6 4 8 5 7 6 2 7 1 8 3 9
REMARK H PARENT
REMARK Flexibility Score: inf
ROOT
ATOM      1  C   UNL     1       4.684  -2.907 -22.253  1.00  0.00     0.016 A 
ATOM      2  C   UNL     1       5.794  -2.045 -22.219  1.00  0.00     0.013 A 
ATOM      3  C   UNL     1       3.564  -2.585 -21.467  1.00  0.00     0.120 A 
ATOM      4  C   UNL     1       5.769  -0.902 -21.419  1.00  0.00     0.021 A 
ATOM      5  N   UNL     1       3.567  -1.464 -20.697  1.00  0.00    -0.264 NA
ATOM      6  C   UNL     1       4.634  -0.625 -20.656  1.00  0.00     0.111 A 
ENDROOT
BRANCH   1   7
ATOM      7  C   UNL     1       4.691  -4.123 -23.094  1.00  0.00     0.073 C 
ATOM      8  O   UNL     1       3.738  -4.946 -23.038  1.00  0.00    -0.545 OA
ATOM      9  O   UNL     1       5.750  -4.376 -23.958  1.00  0.00    -0.545 OA
ENDBRANCH   1   7
TORSDOF 1
ENDMDL
MODEL 7
REMARK VINA RESULT:    -4.183     12.283     13.459
REMARK INTER + INTRA:          -4.451
REMARK INTER:                  -4.428
REMARK INTRA:                  -0.024
REMARK UNBOUND:                -0.023
REMARK SMILES O=C([O-])c1cccnc1
REMARK SMILES IDX 4 1 5 2 9 3 6 4 8 5 7 6 2 7 1 8 3 9
REMARK H PARENT
REMARK Flexibility Score: inf
ROOT
ATOM      1  C   UNL     1       6.293  10.726 -23.401  1.00  0.00     0.016 A 
ATOM      2  C   UNL     1       4.987  10.369 -23.023  1.00  0.00     0.013 A 
ATOM      3  C   UNL     1       7.358   9.911 -22.979  1.00  0.00     0.120 A 
ATOM      4  C   UNL     1       4.770   9.228 -22.248  1.00  0.00     0.021 A 
ATOM      5  N   UNL     1       7.117   8.805 -22.225  1.00  0.00    -0.264 NA
ATOM      6  C   UNL     1       5.859   8.451 -21.854  1.00  0.00     0.111 A 
ENDROOT
BRANCH   1   7
ATOM      7  C   UNL     1       6.545  11.931 -24.221  1.00  0.00     0.073 C 
ATOM      8  O   UNL     1       7.721  12.262 -24.528  1.00  0.00    -0.545 OA
ATOM      9  O   UNL     1       5.486  12.714 -24.666  1.00  0.00    -0.545 OA
ENDBRANCH   1   7
TORSDOF 1
ENDMDL
MODEL 8
REMARK VINA RESULT:    -4.179     12.214     13.285
REMARK INTER + INTRA:          -4.446
REMARK INTER:                  -4.423
REMARK INTRA:                  -0.023
REMARK UNBOUND:                -0.023
REMARK SMILES O=C([O-])c1cccnc1
REMARK SMILES IDX 4 1 5 2 9 3 6 4 8 5 7 6 2 7 1 8 3 9
REMARK H PARENT
REMARK Flexibility Score: inf
ROOT
ATOM      1  C   UNL     1       6.032  10.675 -23.346  1.00  0.00     0.016 A 
ATOM      2  C   UNL     1       6.992   9.703 -23.018  1.00  0.00     0.013 A 
ATOM      3  C   UNL     1       4.717  10.499 -22.881  1.00  0.00     0.120 A 
ATOM      4  C   UNL     1       6.633   8.595 -22.249  1.00  0.00     0.021 A 
ATOM      5  N   UNL     1       4.395   9.410 -22.133  1.00  0.00    -0.264 NA
ATOM      6  C   UNL     1       5.315   8.464 -21.811  1.00  0.00     0.111 A 
ENDROOT
BRANCH   1   7
ATOM      7  C   UNL     1       6.392  11.857 -24.160  1.00  0.00     0.073 C 
ATOM      8  O   UNL     1       7.597  12.194 -24.300  1.00  0.00    -0.545 OA
ATOM      9  O   UNL     1       5.403  12.611 -24.782  1.00  0.00    -0.545 OA
ENDBRANCH   1   7
TORSDOF 1
ENDMDL
MODEL 9
REMARK VINA RESULT:    -4.095     11.458     12.982
REMARK INTER + INTRA:          -4.357
REMARK INTER:                  -4.334
REMARK INTRA:                  -0.024
REMARK UNBOUND:                -0.023
REMARK SMILES O=C([O-])c1cccnc1
REMARK SMILES IDX 4 1 5 2 9 3 6 4 8 5 7 6 2 7 1 8 3 9
REMARK H PARENT
REMARK Flexibility Score: inf
ROOT
ATOM      1  C   UNL     1       5.696   9.572 -22.619  1.00  0.00     0.016 A 
ATOM      2  C   UNL     1       4.460  10.241 -22.650  1.00  0.00     0.013 A 
ATOM      3  C   UNL     1       6.787  10.151 -23.290  1.00  0.00     0.120 A 
ATOM      4  C   UNL     1       4.337  11.450 -23.336  1.00  0.00     0.021 A 
ATOM      5  N   UNL     1       6.638  11.330 -23.950  1.00  0.00    -0.264 NA
ATOM      6  C   UNL     1       5.448  11.985 -23.987  1.00  0.00     0.111 A 
ENDROOT
BRANCH   1   7
ATOM      7  C   UNL     1       5.849   8.289 -21.898  1.00  0.00     0.073 C 
ATOM      8  O   UNL     1       6.944   7.667 -21.922  1.00  0.00    -0.545 OA
ATOM      9  O   UNL     1       4.784   7.752 -21.183  1.00  0.00    -0.545 OA
ENDBRANCH   1   7
TORSDOF 1
ENDMDL
