MODEL 1
REMARK VINA RESULT:    -4.356      0.000      0.000
REMARK INTER + INTRA:          -7.074
REMARK INTER:                  -6.648
REMARK INTRA:                  -0.425
REMARK UNBOUND:                -0.425
REMARK SMILES O=C([O-])CCCCCCCCC(=O)[O-]
REMARK SMILES IDX 7 1 6 2 5 3 4 4 2 5 1 6 3 7 8 8 9 9 10 10 11 11 12 12 13 13
REMARK SMILES IDX 14 14
REMARK H PARENT
REMARK Flexibility Score: inf
ROOT
ATOM      1  C   UNL     1       5.918   5.890  16.222  1.00  0.00     0.000 C 
ENDROOT
BRANCH   1   2
ATOM      2  C   UNL     1       7.004   5.099  15.486  1.00  0.00     0.000 C 
BRANCH   2   3
ATOM      3  C   UNL     1       8.362   5.810  15.577  1.00  0.00     0.006 C 
BRANCH   3   4
ATOM      4  C   UNL     1       9.212   5.609  14.315  1.00  0.00     0.053 C 
BRANCH   4   5
ATOM      5  C   UNL     1      10.246   6.681  14.162  1.00  0.00     0.041 C 
ATOM      6  O   UNL     1      10.545   7.415  15.141  1.00  0.00    -0.550 OA
ATOM      7  O   UNL     1      10.903   6.848  12.950  1.00  0.00    -0.550 OA
ENDBRANCH   4   5
ENDBRANCH   3   4
ENDBRANCH   2   3
ENDBRANCH   1   2
BRANCH   1   8
ATOM      8  C   UNL     1       6.530   7.017  17.063  1.00  0.00     0.000 C 
BRANCH   8   9
ATOM      9  C   UNL     1       6.237   6.811  18.557  1.00  0.00     0.000 C 
BRANCH   9  10
ATOM     10  C   UNL     1       6.268   5.331  18.968  1.00  0.00     0.006 C 
BRANCH  10  11
ATOM     11  C   UNL     1       5.770   5.106  20.401  1.00  0.00     0.053 C 
BRANCH  11  12
ATOM     12  C   UNL     1       5.257   3.709  20.562  1.00  0.00     0.041 C 
ATOM     13  O   UNL     1       5.604   2.809  19.752  1.00  0.00    -0.550 OA
ATOM     14  O   UNL     1       4.436   3.390  21.636  1.00  0.00    -0.550 OA
ENDBRANCH  11  12
ENDBRANCH  10  11
ENDBRANCH   9  10
ENDBRANCH   8   9
ENDBRANCH   1   8
TORSDOF 9
ENDMDL
MODEL 2
REMARK VINA RESULT:    -4.263      1.310      7.154
REMARK INTER + INTRA:          -6.932
REMARK INTER:                  -6.457
REMARK INTRA:                  -0.474
REMARK UNBOUND:                -0.425
REMARK SMILES O=C([O-])CCCCCCCCC(=O)[O-]
REMARK SMILES IDX 7 1 6 2 5 3 4 4 2 5 1 6 3 7 8 8 9 9 10 10 11 11 12 12 13 13
REMARK SMILES IDX 14 14
REMARK H PARENT
REMARK Flexibility Score: inf
ROOT
ATOM      1  C   UNL     1       6.029   5.811  16.298  1.00  0.00     0.000 C 
ENDROOT
BRANCH   1   2
ATOM      2  C   UNL     1       6.480   7.077  17.037  1.00  0.00     0.000 C 
BRANCH   2   3
ATOM      3  C   UNL     1       6.357   6.899  18.558  1.00  0.00     0.006 C 
BRANCH   3   4
ATOM      4  C   UNL     1       6.842   5.520  19.024  1.00  0.00     0.053 C 
BRANCH   4   5
ATOM      5  C   UNL     1       5.804   4.811  19.839  1.00  0.00     0.041 C 
ATOM      6  O   UNL     1       5.554   3.596  19.625  1.00  0.00    -0.550 OA
ATOM      7  O   UNL     1       5.138   5.483  20.856  1.00  0.00    -0.550 OA
ENDBRANCH   4   5
ENDBRANCH   3   4
ENDBRANCH   2   3
ENDBRANCH   1   2
BRANCH   1   8
ATOM      8  C   UNL     1       7.165   5.238  15.442  1.00  0.00     0.000 C 
BRANCH   8   9
ATOM      9  C   UNL     1       8.439   6.085  15.581  1.00  0.00     0.000 C 
BRANCH   9  10
ATOM     10  C   UNL     1       9.601   5.549  14.729  1.00  0.00     0.006 C 
BRANCH  10  11
ATOM     11  C   UNL     1      10.354   6.663  13.992  1.00  0.00     0.053 C 
BRANCH  11  12
ATOM     12  C   UNL     1      10.388   6.385  12.522  1.00  0.00     0.041 C 
ATOM     13  O   UNL     1       9.341   6.030  11.920  1.00  0.00    -0.550 OA
ATOM     14  O   UNL     1      11.565   6.566  11.807  1.00  0.00    -0.550 OA
ENDBRANCH  11  12
ENDBRANCH  10  11
ENDBRANCH   9  10
ENDBRANCH   8   9
ENDBRANCH   1   8
TORSDOF 9
ENDMDL
MODEL 3
REMARK VINA RESULT:    -4.247      1.569      2.019
REMARK INTER + INTRA:          -6.907
REMARK INTER:                  -6.383
REMARK INTRA:                  -0.524
REMARK UNBOUND:                -0.425
REMARK SMILES O=C([O-])CCCCCCCCC(=O)[O-]
REMARK SMILES IDX 7 1 6 2 5 3 4 4 2 5 1 6 3 7 8 8 9 9 10 10 11 11 12 12 13 13
REMARK SMILES IDX 14 14
REMARK H PARENT
REMARK Flexibility Score: inf
ROOT
ATOM      1  C   UNL     1       5.957   5.624  16.298  1.00  0.00     0.000 C 
ENDROOT
BRANCH   1   2
ATOM      2  C   UNL     1       7.013   4.998  15.380  1.00  0.00     0.000 C 
BRANCH   2   3
ATOM      3  C   UNL     1       8.387   5.651  15.595  1.00  0.00     0.006 C 
BRANCH   3   4
ATOM      4  C   UNL     1       9.290   5.524  14.361  1.00  0.00     0.053 C 
BRANCH   4   5
ATOM      5  C   UNL     1      10.170   6.724  14.190  1.00  0.00     0.041 C 
ATOM      6  O   UNL     1      10.518   7.094  13.037  1.00  0.00    -0.550 OA
ATOM      7  O   UNL     1      10.580   7.453  15.299  1.00  0.00    -0.550 OA
ENDBRANCH   4   5
ENDBRANCH   3   4
ENDBRANCH   2   3
ENDBRANCH   1   2
BRANCH   1   8
ATOM      8  C   UNL     1       6.347   7.053  16.694  1.00  0.00     0.000 C 
BRANCH   8   9
ATOM      9  C   UNL     1       6.384   7.211  18.222  1.00  0.00     0.000 C 
BRANCH   9  10
ATOM     10  C   UNL     1       6.519   5.866  18.953  1.00  0.00     0.006 C 
BRANCH  10  11
ATOM     11  C   UNL     1       6.801   6.034  20.451  1.00  0.00     0.053 C 
BRANCH  11  12
ATOM     12  C   UNL     1       5.610   6.620  21.143  1.00  0.00     0.041 C 
ATOM     13  O   UNL     1       4.514   6.000  21.152  1.00  0.00    -0.550 OA
ATOM     14  O   UNL     1       5.724   7.828  21.820  1.00  0.00    -0.550 OA
ENDBRANCH  11  12
ENDBRANCH  10  11
ENDBRANCH   9  10
ENDBRANCH   8   9
ENDBRANCH   1   8
TORSDOF 9
ENDMDL
MODEL 4
REMARK VINA RESULT:    -4.246      0.766      6.969
REMARK INTER + INTRA:          -6.905
REMARK INTER:                  -6.454
REMARK INTRA:                  -0.452
REMARK UNBOUND:                -0.425
REMARK SMILES O=C([O-])CCCCCCCCC(=O)[O-]
REMARK SMILES IDX 7 1 6 2 5 3 4 4 2 5 1 6 3 7 8 8 9 9 10 10 11 11 12 12 13 13
REMARK SMILES IDX 14 14
REMARK H PARENT
REMARK Flexibility Score: inf
ROOT
ATOM      1  C   UNL     1       6.505   6.987  16.952  1.00  0.00     0.000 C 
ENDROOT
BRANCH   1   2
ATOM      2  C   UNL     1       6.456   6.789  18.471  1.00  0.00     0.000 C 
BRANCH   2   3
ATOM      3  C   UNL     1       6.310   5.302  18.829  1.00  0.00     0.006 C 
BRANCH   3   4
ATOM      4  C   UNL     1       5.858   5.094  20.280  1.00  0.00     0.053 C 
BRANCH   4   5
ATOM      5  C   UNL     1       5.307   3.719  20.501  1.00  0.00     0.041 C 
ATOM      6  O   UNL     1       4.516   3.500  21.456  1.00  0.00    -0.550 OA
ATOM      7  O   UNL     1       5.641   2.687  19.633  1.00  0.00    -0.550 OA
ENDBRANCH   4   5
ENDBRANCH   3   4
ENDBRANCH   2   3
ENDBRANCH   1   2
BRANCH   1   8
ATOM      8  C   UNL     1       6.096   5.707  16.215  1.00  0.00     0.000 C 
BRANCH   8   9
ATOM      9  C   UNL     1       7.259   5.159  15.375  1.00  0.00     0.000 C 
BRANCH   9  10
ATOM     10  C   UNL     1       8.558   5.955  15.571  1.00  0.00     0.006 C 
BRANCH  10  11
ATOM     11  C   UNL     1       9.754   5.320  14.851  1.00  0.00     0.053 C 
BRANCH  11  12
ATOM     12  C   UNL     1       9.831   5.809  13.438  1.00  0.00     0.041 C 
ATOM     13  O   UNL     1       9.360   5.115  12.500  1.00  0.00    -0.550 OA
ATOM     14  O   UNL     1      10.382   7.055  13.164  1.00  0.00    -0.550 OA
ENDBRANCH  11  12
ENDBRANCH  10  11
ENDBRANCH   9  10
ENDBRANCH   8   9
ENDBRANCH   1   8
TORSDOF 9
ENDMDL
MODEL 5
REMARK VINA RESULT:    -4.188      1.862      6.939
REMARK INTER + INTRA:          -6.817
REMARK INTER:                  -6.216
REMARK INTRA:                  -0.601
REMARK UNBOUND:                -0.425
REMARK SMILES O=C([O-])CCCCCCCCC(=O)[O-]
REMARK SMILES IDX 7 1 6 2 5 3 4 4 2 5 1 6 3 7 8 8 9 9 10 10 11 11 12 12 13 13
REMARK SMILES IDX 14 14
REMARK H PARENT
REMARK Flexibility Score: inf
ROOT
ATOM      1  C   UNL     1       7.489   4.095  19.430  1.00  0.00     0.000 C 
ENDROOT
BRANCH   1   2
ATOM      2  C   UNL     1       7.123   2.729  20.024  1.00  0.00     0.000 C 
BRANCH   2   3
ATOM      3  C   UNL     1       5.613   2.628  20.284  1.00  0.00     0.006 C 
BRANCH   3   4
ATOM      4  C   UNL     1       5.281   2.599  21.782  1.00  0.00     0.053 C 
BRANCH   4   5
ATOM      5  C   UNL     1       4.727   3.908  22.256  1.00  0.00     0.041 C 
ATOM      6  O   UNL     1       4.137   4.674  21.449  1.00  0.00    -0.550 OA
ATOM      7  O   UNL     1       4.834   4.267  23.593  1.00  0.00    -0.550 OA
ENDBRANCH   4   5
ENDBRANCH   3   4
ENDBRANCH   2   3
ENDBRANCH   1   2
BRANCH   1   8
ATOM      8  C   UNL     1       6.305   4.699  18.667  1.00  0.00     0.000 C 
BRANCH   8   9
ATOM      9  C   UNL     1       6.390   6.232  18.642  1.00  0.00     0.000 C 
BRANCH   9  10
ATOM     10  C   UNL     1       6.404   6.802  17.215  1.00  0.00     0.006 C 
BRANCH  10  11
ATOM     11  C   UNL     1       6.364   5.707  16.142  1.00  0.00     0.053 C 
BRANCH  11  12
ATOM     12  C   UNL     1       7.715   5.538  15.520  1.00  0.00     0.041 C 
ATOM     13  O   UNL     1       7.920   4.612  14.691  1.00  0.00    -0.550 OA
ATOM     14  O   UNL     1       8.735   6.432  15.819  1.00  0.00    -0.550 OA
ENDBRANCH  11  12
ENDBRANCH  10  11
ENDBRANCH   9  10
ENDBRANCH   8   9
ENDBRANCH   1   8
TORSDOF 9
ENDMDL
MODEL 6
REMARK VINA RESULT:    -4.186      2.224      6.635
REMARK INTER + INTRA:          -6.814
REMARK INTER:                  -5.960
REMARK INTRA:                  -0.854
REMARK UNBOUND:                -0.425
REMARK SMILES O=C([O-])CCCCCCCCC(=O)[O-]
REMARK SMILES IDX 7 1 6 2 5 3 4 4 2 5 1 6 3 7 8 8 9 9 10 10 11 11 12 12 13 13
REMARK SMILES IDX 14 14
REMARK H PARENT
REMARK Flexibility Score: inf
ROOT
ATOM      1  C   UNL     1       8.637   4.741  16.257  1.00  0.00     0.000 C 
ENDROOT
BRANCH   1   2
ATOM      2  C   UNL     1       7.524   5.304  15.364  1.00  0.00     0.000 C 
BRANCH   2   3
ATOM      3  C   UNL     1       6.262   5.611  16.185  1.00  0.00     0.006 C 
BRANCH   3   4
ATOM      4  C   UNL     1       6.427   6.860  17.060  1.00  0.00     0.053 C 
BRANCH   4   5
ATOM      5  C   UNL     1       6.367   6.529  18.520  1.00  0.00     0.041 C 
ATOM      6  O   UNL     1       6.324   5.327  18.895  1.00  0.00    -0.550 OA
ATOM      7  O   UNL     1       6.393   7.545  19.467  1.00  0.00    -0.550 OA
ENDBRANCH   4   5
ENDBRANCH   3   4
ENDBRANCH   2   3
ENDBRANCH   1   2
BRANCH   1   8
ATOM      8  C   UNL     1       9.889   5.623  16.198  1.00  0.00     0.000 C 
BRANCH   8   9
ATOM      9  C   UNL     1       9.715   6.761  15.181  1.00  0.00     0.000 C 
BRANCH   9  10
ATOM     10  C   UNL     1      10.859   6.821  14.157  1.00  0.00     0.006 C 
BRANCH  10  11
ATOM     11  C   UNL     1      10.363   6.703  12.711  1.00  0.00     0.053 C 
BRANCH  11  12
ATOM     12  C   UNL     1       9.938   5.297  12.419  1.00  0.00     0.041 C 
ATOM     13  O   UNL     1      10.650   4.329  12.793  1.00  0.00    -0.550 OA
ATOM     14  O   UNL     1       8.731   5.056  11.775  1.00  0.00    -0.550 OA
ENDBRANCH  11  12
ENDBRANCH  10  11
ENDBRANCH   9  10
ENDBRANCH   8   9
ENDBRANCH   1   8
TORSDOF 9
ENDMDL
MODEL 7
REMARK VINA RESULT:    -4.184      1.169      7.053
REMARK INTER + INTRA:          -6.811
REMARK INTER:                  -6.301
REMARK INTRA:                  -0.511
REMARK UNBOUND:                -0.425
REMARK SMILES O=C([O-])CCCCCCCCC(=O)[O-]
REMARK SMILES IDX 7 1 6 2 5 3 4 4 2 5 1 6 3 7 8 8 9 9 10 10 11 11 12 12 13 13
REMARK SMILES IDX 14 14
REMARK H PARENT
REMARK Flexibility Score: inf
ROOT
ATOM      1  C   UNL     1       6.422   6.859  18.211  1.00  0.00     0.000 C 
ENDROOT
BRANCH   1   2
ATOM      2  C   UNL     1       6.703   5.453  18.753  1.00  0.00     0.000 C 
BRANCH   2   3
ATOM      3  C   UNL     1       5.804   5.138  19.959  1.00  0.00     0.006 C 
BRANCH   3   4
ATOM      4  C   UNL     1       5.616   3.629  20.166  1.00  0.00     0.053 C 
BRANCH   4   5
ATOM      5  C   UNL     1       4.986   3.323  21.489  1.00  0.00     0.041 C 
ATOM      6  O   UNL     1       5.137   2.188  22.015  1.00  0.00    -0.550 OA
ATOM      7  O   UNL     1       4.259   4.300  22.158  1.00  0.00    -0.550 OA
ENDBRANCH   4   5
ENDBRANCH   3   4
ENDBRANCH   2   3
ENDBRANCH   1   2
BRANCH   1   8
ATOM      8  C   UNL     1       6.232   6.836  16.691  1.00  0.00     0.000 C 
BRANCH   8   9
ATOM      9  C   UNL     1       5.836   5.433  16.207  1.00  0.00     0.000 C 
BRANCH   9  10
ATOM     10  C   UNL     1       6.773   4.897  15.113  1.00  0.00     0.006 C 
BRANCH  10  11
ATOM     11  C   UNL     1       8.226   5.348  15.308  1.00  0.00     0.053 C 
BRANCH  11  12
ATOM     12  C   UNL     1       8.963   5.309  14.006  1.00  0.00     0.041 C 
ATOM     13  O   UNL     1       8.647   4.469  13.123  1.00  0.00    -0.550 OA
ATOM     14  O   UNL     1       9.968   6.233  13.749  1.00  0.00    -0.550 OA
ENDBRANCH  11  12
ENDBRANCH  10  11
ENDBRANCH   9  10
ENDBRANCH   8   9
ENDBRANCH   1   8
TORSDOF 9
ENDMDL
MODEL 8
REMARK VINA RESULT:    -4.170      1.991      3.241
REMARK INTER + INTRA:          -6.789
REMARK INTER:                  -6.134
REMARK INTRA:                  -0.655
REMARK UNBOUND:                -0.425
REMARK SMILES O=C([O-])CCCCCCCCC(=O)[O-]
REMARK SMILES IDX 7 1 6 2 5 3 4 4 2 5 1 6 3 7 8 8 9 9 10 10 11 11 12 12 13 13
REMARK SMILES IDX 14 14
REMARK H PARENT
REMARK Flexibility Score: inf
ROOT
ATOM      1  C   UNL     1       8.946   4.148  15.060  1.00  0.00     0.000 C 
ENDROOT
BRANCH   1   2
ATOM      2  C   UNL     1       8.265   3.786  13.735  1.00  0.00     0.000 C 
BRANCH   2   3
ATOM      3  C   UNL     1       9.191   4.074  12.544  1.00  0.00     0.006 C 
BRANCH   3   4
ATOM      4  C   UNL     1       9.145   5.547  12.113  1.00  0.00     0.053 C 
BRANCH   4   5
ATOM      5  C   UNL     1      10.425   6.259  12.425  1.00  0.00     0.041 C 
ATOM      6  O   UNL     1      11.426   6.119  11.674  1.00  0.00    -0.550 OA
ATOM      7  O   UNL     1      10.503   7.102  13.526  1.00  0.00    -0.550 OA
ENDBRANCH   4   5
ENDBRANCH   3   4
ENDBRANCH   2   3
ENDBRANCH   1   2
BRANCH   1   8
ATOM      8  C   UNL     1       8.172   5.247  15.796  1.00  0.00     0.000 C 
BRANCH   8   9
ATOM      9  C   UNL     1       6.681   5.211  15.427  1.00  0.00     0.000 C 
BRANCH   9  10
ATOM     10  C   UNL     1       5.798   5.931  16.459  1.00  0.00     0.006 C 
BRANCH  10  11
ATOM     11  C   UNL     1       6.577   6.962  17.285  1.00  0.00     0.053 C 
BRANCH  11  12
ATOM     12  C   UNL     1       6.455   6.659  18.746  1.00  0.00     0.041 C 
ATOM     13  O   UNL     1       6.458   7.593  19.590  1.00  0.00    -0.550 OA
ATOM     14  O   UNL     1       6.288   5.347  19.172  1.00  0.00    -0.550 OA
ENDBRANCH  11  12
ENDBRANCH  10  11
ENDBRANCH   9  10
ENDBRANCH   8   9
ENDBRANCH   1   8
TORSDOF 9
ENDMDL
MODEL 9
REMARK VINA RESULT:    -4.145      1.599      2.278
REMARK INTER + INTRA:          -6.752
REMARK INTER:                  -6.185
REMARK INTRA:                  -0.567
REMARK UNBOUND:                -0.425
REMARK SMILES O=C([O-])CCCCCCCCC(=O)[O-]
REMARK SMILES IDX 7 1 6 2 5 3 4 4 2 5 1 6 3 7 8 8 9 9 10 10 11 11 12 12 13 13
REMARK SMILES IDX 14 14
REMARK H PARENT
REMARK Flexibility Score: inf
ROOT
ATOM      1  C   UNL     1       8.022   5.243  15.070  1.00  0.00     0.000 C 
ENDROOT
BRANCH   1   2
ATOM      2  C   UNL     1       9.057   6.287  15.506  1.00  0.00     0.000 C 
BRANCH   2   3
ATOM      3  C   UNL     1      10.383   6.097  14.755  1.00  0.00     0.006 C 
BRANCH   3   4
ATOM      4  C   UNL     1      10.449   6.932  13.469  1.00  0.00     0.053 C 
BRANCH   4   5
ATOM      5  C   UNL     1      10.301   6.082  12.245  1.00  0.00     0.041 C 
ATOM      6  O   UNL     1      11.319   5.585  11.693  1.00  0.00    -0.550 OA
ATOM      7  O   UNL     1       9.039   5.812  11.732  1.00  0.00    -0.550 OA
ENDBRANCH   4   5
ENDBRANCH   3   4
ENDBRANCH   2   3
ENDBRANCH   1   2
BRANCH   1   8
ATOM      8  C   UNL     1       6.803   5.254  15.998  1.00  0.00     0.000 C 
BRANCH   8   9
ATOM      9  C   UNL     1       6.501   6.676  16.494  1.00  0.00     0.000 C 
BRANCH   9  10
ATOM     10  C   UNL     1       6.335   6.749  18.020  1.00  0.00     0.006 C 
BRANCH  10  11
ATOM     11  C   UNL     1       7.057   5.608  18.747  1.00  0.00     0.053 C 
BRANCH  11  12
ATOM     12  C   UNL     1       6.089   4.820  19.573  1.00  0.00     0.041 C 
ATOM     13  O   UNL     1       5.746   3.662  19.215  1.00  0.00    -0.550 OA
ATOM     14  O   UNL     1       5.603   5.345  20.764  1.00  0.00    -0.550 OA
ENDBRANCH  11  12
ENDBRANCH  10  11
ENDBRANCH   9  10
ENDBRANCH   8   9
ENDBRANCH   1   8
TORSDOF 9
ENDMDL
