MODEL 1
REMARK VINA RESULT:    -3.781      0.000      0.000
REMARK INTER + INTRA:          -4.157
REMARK INTER:                  -4.113
REMARK INTRA:                  -0.044
REMARK UNBOUND:                -0.044
REMARK SMILES COc1cc2ccc(=O)oc2cc1O
REMARK SMILES IDX 3 1 13 2 12 3 11 4 5 5 4 6 6 7 7 8 8 9 9 10 10 11 2 12 1 13
REMARK SMILES IDX 14 14
REMARK H PARENT 14 15
REMARK Flexibility Score: inf
ROOT
ATOM      1  C   UNL     1      -7.488  -6.550 -12.984  1.00  0.00     0.161 A 
ATOM      2  C   UNL     1      -6.425  -5.974 -13.707  1.00  0.00     0.161 A 
ATOM      3  C   UNL     1      -6.472  -4.623 -14.071  1.00  0.00     0.098 A 
ATOM      4  C   UNL     1      -7.569  -3.833 -13.721  1.00  0.00     0.142 A 
ATOM      5  C   UNL     1      -8.638  -4.401 -12.998  1.00  0.00     0.022 A 
ATOM      6  C   UNL     1      -8.595  -5.753 -12.631  1.00  0.00     0.062 A 
ATOM      7  C   UNL     1      -9.723  -3.584 -12.662  1.00  0.00     0.019 A 
ATOM      8  C   UNL     1      -9.718  -2.245 -13.049  1.00  0.00     0.094 A 
ATOM      9  C   UNL     1      -8.623  -1.752 -13.766  1.00  0.00     0.336 A 
ATOM     10  O   UNL     1      -8.599  -0.545 -14.125  1.00  0.00    -0.246 OA
ATOM     11  O   UNL     1      -7.602  -2.550 -14.072  1.00  0.00    -0.423 OA
ENDROOT
BRANCH   1  12
ATOM     12  O   UNL     1      -7.409  -7.908 -12.635  1.00  0.00    -0.493 OA
ATOM     13  C   UNL     1      -8.197  -8.530 -11.624  1.00  0.00     0.278 C 
ENDBRANCH   1  12
BRANCH   2  14
ATOM     14  O   UNL     1      -5.311  -6.730 -14.075  1.00  0.00    -0.504 OA
ATOM     15  H   UNL     1      -5.394  -7.672 -14.436  1.00  0.00     0.293 HD
ENDBRANCH   2  14
TORSDOF 2
ENDMDL
MODEL 2
REMARK VINA RESULT:    -3.776     14.321     14.763
REMARK INTER + INTRA:          -4.151
REMARK INTER:                  -4.094
REMARK INTRA:                  -0.057
REMARK UNBOUND:                -0.044
REMARK SMILES COc1cc2ccc(=O)oc2cc1O
REMARK SMILES IDX 3 1 13 2 12 3 11 4 5 5 4 6 6 7 7 8 8 9 9 10 10 11 2 12 1 13
REMARK SMILES IDX 14 14
REMARK H PARENT 14 15
REMARK Flexibility Score: inf
ROOT
ATOM      1  C   UNL     1      -8.179   9.550 -10.430  1.00  0.00     0.161 A 
ATOM      2  C   UNL     1      -6.864   9.279 -10.003  1.00  0.00     0.161 A 
ATOM      3  C   UNL     1      -6.633   8.738  -8.734  1.00  0.00     0.098 A 
ATOM      4  C   UNL     1      -7.700   8.461  -7.877  1.00  0.00     0.142 A 
ATOM      5  C   UNL     1      -9.020   8.729  -8.294  1.00  0.00     0.022 A 
ATOM      6  C   UNL     1      -9.257   9.271  -9.566  1.00  0.00     0.062 A 
ATOM      7  C   UNL     1     -10.068   8.441  -7.414  1.00  0.00     0.019 A 
ATOM      8  C   UNL     1      -9.782   7.902  -6.160  1.00  0.00     0.094 A 
ATOM      9  C   UNL     1      -8.448   7.664  -5.815  1.00  0.00     0.336 A 
ATOM     10  O   UNL     1      -8.168   7.177  -4.688  1.00  0.00    -0.246 OA
ATOM     11  O   UNL     1      -7.469   7.946  -6.672  1.00  0.00    -0.423 OA
ENDROOT
BRANCH   1  12
ATOM     12  O   UNL     1      -8.376  10.094 -11.710  1.00  0.00    -0.493 OA
ATOM     13  C   UNL     1      -9.138   9.475 -12.742  1.00  0.00     0.278 C 
ENDBRANCH   1  12
BRANCH   2  14
ATOM     14  O   UNL     1      -5.771   9.541 -10.830  1.00  0.00    -0.504 OA
ATOM     15  H   UNL     1      -5.805   9.395 -11.832  1.00  0.00     0.293 HD
ENDBRANCH   2  14
TORSDOF 2
ENDMDL
MODEL 3
REMARK VINA RESULT:    -3.688      1.169      4.831
REMARK INTER + INTRA:          -4.055
REMARK INTER:                  -4.012
REMARK INTRA:                  -0.043
REMARK UNBOUND:                -0.044
REMARK SMILES COc1cc2ccc(=O)oc2cc1O
REMARK SMILES IDX 3 1 13 2 12 3 11 4 5 5 4 6 6 7 7 8 8 9 9 10 10 11 2 12 1 13
REMARK SMILES IDX 14 14
REMARK H PARENT 14 15
REMARK Flexibility Score: inf
ROOT
ATOM      1  C   UNL     1      -7.336  -3.738 -13.775  1.00  0.00     0.161 A 
ATOM      2  C   UNL     1      -6.100  -4.413 -13.794  1.00  0.00     0.161 A 
ATOM      3  C   UNL     1      -6.035  -5.775 -13.478  1.00  0.00     0.098 A 
ATOM      4  C   UNL     1      -7.193  -6.479 -13.142  1.00  0.00     0.142 A 
ATOM      5  C   UNL     1      -8.436  -5.813 -13.120  1.00  0.00     0.022 A 
ATOM      6  C   UNL     1      -8.505  -4.449 -13.436  1.00  0.00     0.062 A 
ATOM      7  C   UNL     1      -9.578  -6.545 -12.779  1.00  0.00     0.019 A 
ATOM      8  C   UNL     1      -9.458  -7.900 -12.473  1.00  0.00     0.094 A 
ATOM      9  C   UNL     1      -8.192  -8.493 -12.515  1.00  0.00     0.336 A 
ATOM     10  O   UNL     1      -8.061  -9.715 -12.243  1.00  0.00    -0.246 OA
ATOM     11  O   UNL     1      -7.121  -7.774 -12.843  1.00  0.00    -0.423 OA
ENDROOT
BRANCH   1  12
ATOM     12  O   UNL     1      -7.365  -2.372 -14.097  1.00  0.00    -0.493 OA
ATOM     13  C   UNL     1      -8.542  -1.570 -14.111  1.00  0.00     0.278 C 
ENDBRANCH   1  12
BRANCH   2  14
ATOM     14  O   UNL     1      -4.920  -3.745 -14.125  1.00  0.00    -0.504 OA
ATOM     15  H   UNL     1      -4.892  -2.745 -14.280  1.00  0.00     0.293 HD
ENDBRANCH   2  14
TORSDOF 2
ENDMDL
MODEL 4
REMARK VINA RESULT:    -3.358     16.148     17.078
REMARK INTER + INTRA:          -3.696
REMARK INTER:                  -3.634
REMARK INTRA:                  -0.062
REMARK UNBOUND:                -0.044
REMARK SMILES COc1cc2ccc(=O)oc2cc1O
REMARK SMILES IDX 3 1 13 2 12 3 11 4 5 5 4 6 6 7 7 8 8 9 9 10 10 11 2 12 1 13
REMARK SMILES IDX 14 14
REMARK H PARENT 14 15
REMARK Flexibility Score: inf
ROOT
ATOM      1  C   UNL     1      -9.295  -6.949   3.501  1.00  0.00     0.161 A 
ATOM      2  C   UNL     1      -9.841  -6.444   2.305  1.00  0.00     0.161 A 
ATOM      3  C   UNL     1     -10.109  -5.077   2.174  1.00  0.00     0.098 A 
ATOM      4  C   UNL     1      -9.838  -4.199   3.226  1.00  0.00     0.142 A 
ATOM      5  C   UNL     1      -9.293  -4.695   4.428  1.00  0.00     0.022 A 
ATOM      6  C   UNL     1      -9.022  -6.064   4.563  1.00  0.00     0.062 A 
ATOM      7  C   UNL     1      -9.033  -3.791   5.464  1.00  0.00     0.019 A 
ATOM      8  C   UNL     1      -9.318  -2.439   5.282  1.00  0.00     0.094 A 
ATOM      9  C   UNL     1      -9.860  -2.020   4.061  1.00  0.00     0.336 A 
ATOM     10  O   UNL     1     -10.125  -0.804   3.876  1.00  0.00    -0.246 OA
ATOM     11  O   UNL     1     -10.097  -2.900   3.092  1.00  0.00    -0.423 OA
ENDROOT
BRANCH   1  12
ATOM     12  O   UNL     1      -9.039  -8.327   3.599  1.00  0.00    -0.493 OA
ATOM     13  C   UNL     1      -7.739  -8.905   3.649  1.00  0.00     0.278 C 
ENDBRANCH   1  12
BRANCH   2  14
ATOM     14  O   UNL     1     -10.124  -7.289   1.230  1.00  0.00    -0.504 OA
ATOM     15  H   UNL     1      -9.441  -7.496   0.512  1.00  0.00     0.293 HD
ENDBRANCH   2  14
TORSDOF 2
ENDMDL
MODEL 5
REMARK VINA RESULT:    -3.001     14.343     14.621
REMARK INTER + INTRA:          -3.308
REMARK INTER:                  -3.774
REMARK INTRA:                   0.466
REMARK UNBOUND:                -0.044
REMARK SMILES COc1cc2ccc(=O)oc2cc1O
REMARK SMILES IDX 3 1 13 2 12 3 11 4 5 5 4 6 6 7 7 8 8 9 9 10 10 11 2 12 1 13
REMARK SMILES IDX 14 14
REMARK H PARENT 14 15
REMARK Flexibility Score: inf
ROOT
ATOM      1  C   UNL     1      -9.110   8.294  -7.415  1.00  0.00     0.161 A 
ATOM      2  C   UNL     1      -7.768   8.068  -7.050  1.00  0.00     0.161 A 
ATOM      3  C   UNL     1      -6.732   8.409  -7.926  1.00  0.00     0.098 A 
ATOM      4  C   UNL     1      -7.015   8.977  -9.170  1.00  0.00     0.142 A 
ATOM      5  C   UNL     1      -8.355   9.207  -9.546  1.00  0.00     0.022 A 
ATOM      6  C   UNL     1      -9.396   8.867  -8.671  1.00  0.00     0.062 A 
ATOM      7  C   UNL     1      -8.607   9.777 -10.798  1.00  0.00     0.019 A 
ATOM      8  C   UNL     1      -7.537  10.098 -11.633  1.00  0.00     0.094 A 
ATOM      9  C   UNL     1      -6.234   9.840 -11.193  1.00  0.00     0.336 A 
ATOM     10  O   UNL     1      -5.255  10.123 -11.931  1.00  0.00    -0.246 OA
ATOM     11  O   UNL     1      -6.022   9.298  -9.996  1.00  0.00    -0.423 OA
ENDROOT
BRANCH   1  12
ATOM     12  O   UNL     1     -10.125   7.940  -6.512  1.00  0.00    -0.493 OA
ATOM     13  C   UNL     1     -10.088   8.200  -5.113  1.00  0.00     0.278 C 
ENDBRANCH   1  12
BRANCH   2  14
ATOM     14  O   UNL     1      -7.444   7.504  -5.815  1.00  0.00    -0.504 OA
ATOM     15  H   UNL     1      -7.942   7.741  -4.966  1.00  0.00     0.293 HD
ENDBRANCH   2  14
TORSDOF 2
ENDMDL
MODEL 6
REMARK VINA RESULT:    -2.887     14.366     14.814
REMARK INTER + INTRA:          -3.184
REMARK INTER:                  -3.136
REMARK INTRA:                  -0.047
REMARK UNBOUND:                -0.044
REMARK SMILES COc1cc2ccc(=O)oc2cc1O
REMARK SMILES IDX 3 1 13 2 12 3 11 4 5 5 4 6 6 7 7 8 8 9 9 10 10 11 2 12 1 13
REMARK SMILES IDX 14 14
REMARK H PARENT 14 15
REMARK Flexibility Score: inf
ROOT
ATOM      1  C   UNL     1      -6.970   9.727 -11.458  1.00  0.00     0.161 A 
ATOM      2  C   UNL     1      -8.355   9.706 -11.717  1.00  0.00     0.161 A 
ATOM      3  C   UNL     1      -9.253   9.315 -10.718  1.00  0.00     0.098 A 
ATOM      4  C   UNL     1      -8.787   8.942  -9.455  1.00  0.00     0.142 A 
ATOM      5  C   UNL     1      -7.403   8.959  -9.186  1.00  0.00     0.022 A 
ATOM      6  C   UNL     1      -6.500   9.351 -10.184  1.00  0.00     0.062 A 
ATOM      7  C   UNL     1      -6.968   8.580  -7.912  1.00  0.00     0.019 A 
ATOM      8  C   UNL     1      -7.905   8.198  -6.952  1.00  0.00     0.094 A 
ATOM      9  C   UNL     1      -9.263   8.205  -7.292  1.00  0.00     0.336 A 
ATOM     10  O   UNL     1     -10.125   7.865  -6.441  1.00  0.00    -0.246 OA
ATOM     11  O   UNL     1      -9.650   8.571  -8.512  1.00  0.00    -0.423 OA
ENDROOT
BRANCH   1  12
ATOM     12  O   UNL     1      -6.097  10.125 -12.484  1.00  0.00    -0.493 OA
ATOM     13  C   UNL     1      -4.822   9.541 -12.730  1.00  0.00     0.278 C 
ENDBRANCH   1  12
BRANCH   2  14
ATOM     14  O   UNL     1      -8.859  10.073 -12.966  1.00  0.00    -0.504 OA
ATOM     15  H   UNL     1      -9.162   9.389 -13.647  1.00  0.00     0.293 HD
ENDBRANCH   2  14
TORSDOF 2
ENDMDL
MODEL 7
REMARK VINA RESULT:    -2.881      1.487      2.702
REMARK INTER + INTRA:          -3.178
REMARK INTER:                  -3.142
REMARK INTRA:                  -0.036
REMARK UNBOUND:                -0.044
REMARK SMILES COc1cc2ccc(=O)oc2cc1O
REMARK SMILES IDX 3 1 13 2 12 3 11 4 5 5 4 6 6 7 7 8 8 9 9 10 10 11 2 12 1 13
REMARK SMILES IDX 14 14
REMARK H PARENT 14 15
REMARK Flexibility Score: inf
ROOT
ATOM      1  C   UNL     1      -7.898  -7.662 -12.953  1.00  0.00     0.161 A 
ATOM      2  C   UNL     1      -9.172  -7.213 -12.555  1.00  0.00     0.161 A 
ATOM      3  C   UNL     1      -9.505  -5.858 -12.656  1.00  0.00     0.098 A 
ATOM      4  C   UNL     1      -8.580  -4.937 -13.152  1.00  0.00     0.142 A 
ATOM      5  C   UNL     1      -7.302  -5.375 -13.553  1.00  0.00     0.022 A 
ATOM      6  C   UNL     1      -6.964  -6.733 -13.454  1.00  0.00     0.062 A 
ATOM      7  C   UNL     1      -6.397  -4.429 -14.045  1.00  0.00     0.019 A 
ATOM      8  C   UNL     1      -6.780  -3.091 -14.125  1.00  0.00     0.094 A 
ATOM      9  C   UNL     1      -8.066  -2.729 -13.707  1.00  0.00     0.336 A 
ATOM     10  O   UNL     1      -8.431  -1.526 -13.771  1.00  0.00    -0.246 OA
ATOM     11  O   UNL     1      -8.908  -3.649 -13.244  1.00  0.00    -0.423 OA
ENDROOT
BRANCH   1  12
ATOM     12  O   UNL     1      -7.596  -9.029 -12.839  1.00  0.00    -0.493 OA
ATOM     13  C   UNL     1      -7.895 -10.008 -13.828  1.00  0.00     0.278 C 
ENDBRANCH   1  12
BRANCH   2  14
ATOM     14  O   UNL     1     -10.124  -8.102 -12.055  1.00  0.00    -0.504 OA
ATOM     15  H   UNL     1     -11.100  -8.056 -12.322  1.00  0.00     0.293 HD
ENDBRANCH   2  14
TORSDOF 2
ENDMDL
MODEL 8
REMARK VINA RESULT:    -2.866     16.772     17.699
REMARK INTER + INTRA:          -3.161
REMARK INTER:                  -3.104
REMARK INTRA:                  -0.057
REMARK UNBOUND:                -0.044
REMARK SMILES COc1cc2ccc(=O)oc2cc1O
REMARK SMILES IDX 3 1 13 2 12 3 11 4 5 5 4 6 6 7 7 8 8 9 9 10 10 11 2 12 1 13
REMARK SMILES IDX 14 14
REMARK H PARENT 14 15
REMARK Flexibility Score: inf
ROOT
ATOM      1  C   UNL     1     -10.088  -6.314   3.267  1.00  0.00     0.161 A 
ATOM      2  C   UNL     1     -10.013  -6.427   4.669  1.00  0.00     0.161 A 
ATOM      3  C   UNL     1      -9.976  -5.279   5.468  1.00  0.00     0.098 A 
ATOM      4  C   UNL     1     -10.012  -4.010   4.885  1.00  0.00     0.142 A 
ATOM      5  C   UNL     1     -10.086  -3.885   3.483  1.00  0.00     0.022 A 
ATOM      6  C   UNL     1     -10.125  -5.033   2.679  1.00  0.00     0.062 A 
ATOM      7  C   UNL     1     -10.121  -2.601   2.929  1.00  0.00     0.019 A 
ATOM      8  C   UNL     1     -10.081  -1.490   3.771  1.00  0.00     0.094 A 
ATOM      9  C   UNL     1     -10.006  -1.692   5.154  1.00  0.00     0.336 A 
ATOM     10  O   UNL     1      -9.970  -0.702   5.931  1.00  0.00    -0.246 OA
ATOM     11  O   UNL     1      -9.976  -2.924   5.655  1.00  0.00    -0.423 OA
ENDROOT
BRANCH   1  12
ATOM     12  O   UNL     1     -10.124  -7.486   2.495  1.00  0.00    -0.493 OA
ATOM     13  C   UNL     1      -8.976  -8.134   1.957  1.00  0.00     0.278 C 
ENDBRANCH   1  12
BRANCH   2  14
ATOM     14  O   UNL     1      -9.976  -7.677   5.289  1.00  0.00    -0.504 OA
ATOM     15  H   UNL     1      -9.908  -7.779   6.294  1.00  0.00     0.293 HD
ENDBRANCH   2  14
TORSDOF 2
ENDMDL
MODEL 9
REMARK VINA RESULT:    -2.844     16.009     17.182
REMARK INTER + INTRA:          -3.138
REMARK INTER:                  -3.091
REMARK INTRA:                  -0.047
REMARK UNBOUND:                -0.044
REMARK SMILES COc1cc2ccc(=O)oc2cc1O
REMARK SMILES IDX 3 1 13 2 12 3 11 4 5 5 4 6 6 7 7 8 8 9 9 10 10 11 2 12 1 13
REMARK SMILES IDX 14 14
REMARK H PARENT 14 15
REMARK Flexibility Score: inf
ROOT
ATOM      1  C   UNL     1      -8.581  -8.365   2.826  1.00  0.00     0.161 A 
ATOM      2  C   UNL     1      -7.856  -8.264   4.029  1.00  0.00     0.161 A 
ATOM      3  C   UNL     1      -7.893  -7.082   4.777  1.00  0.00     0.098 A 
ATOM      4  C   UNL     1      -8.647  -5.991   4.340  1.00  0.00     0.142 A 
ATOM      5  C   UNL     1      -9.376  -6.082   3.137  1.00  0.00     0.022 A 
ATOM      6  C   UNL     1      -9.343  -7.264   2.384  1.00  0.00     0.062 A 
ATOM      7  C   UNL     1     -10.123  -4.973   2.725  1.00  0.00     0.019 A 
ATOM      8  C   UNL     1     -10.125  -3.819   3.508  1.00  0.00     0.094 A 
ATOM      9  C   UNL     1      -9.376  -3.802   4.690  1.00  0.00     0.336 A 
ATOM     10  O   UNL     1      -9.365  -2.770   5.411  1.00  0.00    -0.246 OA
ATOM     11  O   UNL     1      -8.676  -4.871   5.059  1.00  0.00    -0.423 OA
ENDROOT
BRANCH   1  12
ATOM     12  O   UNL     1      -8.522  -9.566   2.100  1.00  0.00    -0.493 OA
ATOM     13  C   UNL     1      -9.600 -10.106   1.343  1.00  0.00     0.278 C 
ENDBRANCH   1  12
BRANCH   2  14
ATOM     14  O   UNL     1      -7.091  -9.332   4.500  1.00  0.00    -0.504 OA
ATOM     15  H   UNL     1      -6.107  -9.236   4.719  1.00  0.00     0.293 HD
ENDBRANCH   2  14
TORSDOF 2
ENDMDL
