MODEL 1
REMARK VINA RESULT:    -4.849      0.000      0.000
REMARK INTER + INTRA:          -7.551
REMARK INTER:                  -5.982
REMARK INTRA:                  -1.568
REMARK UNBOUND:                -1.568
REMARK SMILES CC(C)=CCC[C@H](C)c1ccc(C)cc1
REMARK SMILES IDX 6 1 7 2 8 3 9 4 13 5 12 6 11 7 14 8 10 9 15 10 5 11 4 12
REMARK SMILES IDX 2 13 1 14 3 15
REMARK H PARENT
REMARK Flexibility Score: inf
ROOT
ATOM      1  C   UNL     1     160.626 178.049 186.572  1.00  0.00     0.012 C 
ENDROOT
BRANCH   1   2
ATOM      2  C   UNL     1     161.342 177.366 187.760  1.00  0.00     0.016 C 
ATOM      3  C   UNL     1     162.813 177.797 187.879  1.00  0.00     0.013 C 
BRANCH   2   4
ATOM      4  C   UNL     1     161.246 175.855 187.637  1.00  0.00    -0.045 A 
ATOM      5  C   UNL     1     161.006 171.557 187.269  1.00  0.00     0.044 C 
ATOM      6  C   UNL     1     161.088 173.048 187.428  1.00  0.00    -0.051 A 
ATOM      7  C   UNL     1     159.921 173.825 187.402  1.00  0.00     0.004 A 
ATOM      8  C   UNL     1     162.334 173.680 187.534  1.00  0.00     0.004 A 
ATOM      9  C   UNL     1     159.998 175.216 187.512  1.00  0.00     0.004 A 
ATOM     10  C   UNL     1     162.413 175.071 187.644  1.00  0.00     0.004 A 
ENDBRANCH   2   4
ENDBRANCH   1   2
BRANCH   1  11
ATOM     11  C   UNL     1     161.374 177.861 185.243  1.00  0.00     0.028 C 
BRANCH  11  12
ATOM     12  C   UNL     1     160.617 176.925 184.335  1.00  0.00    -0.028 C 
ATOM     13  C   UNL     1     161.118 175.773 183.835  1.00  0.00    -0.080 C 
ATOM     14  C   UNL     1     162.539 175.335 184.104  1.00  0.00     0.039 C 
ATOM     15  C   UNL     1     160.229 174.919 182.970  1.00  0.00     0.039 C 
ENDBRANCH  11  12
ENDBRANCH   1  11
TORSDOF 4
ENDMDL
MODEL 2
REMARK VINA RESULT:    -4.572     12.268     14.457
REMARK INTER + INTRA:          -7.210
REMARK INTER:                  -6.173
REMARK INTRA:                  -1.036
REMARK UNBOUND:                -1.568
REMARK SMILES CC(C)=CCC[C@H](C)c1ccc(C)cc1
REMARK SMILES IDX 6 1 7 2 8 3 9 4 13 5 12 6 11 7 14 8 10 9 15 10 5 11 4 12
REMARK SMILES IDX 2 13 1 14 3 15
REMARK H PARENT
REMARK Flexibility Score: inf
ROOT
ATOM      1  C   UNL     1     175.542 179.452 187.281  1.00  0.00     0.012 C 
ENDROOT
BRANCH   1   2
ATOM      2  C   UNL     1     175.704 178.136 186.487  1.00  0.00     0.016 C 
ATOM      3  C   UNL     1     177.057 177.458 186.755  1.00  0.00     0.013 C 
BRANCH   2   4
ATOM      4  C   UNL     1     175.531 178.391 185.000  1.00  0.00    -0.045 A 
ATOM      5  C   UNL     1     175.004 179.132 180.776  1.00  0.00     0.044 C 
ATOM      6  C   UNL     1     175.213 178.890 182.242  1.00  0.00    -0.051 A 
ATOM      7  C   UNL     1     175.884 177.740 182.679  1.00  0.00     0.004 A 
ATOM      8  C   UNL     1     174.681 179.777 183.188  1.00  0.00     0.004 A 
ATOM      9  C   UNL     1     176.048 177.495 184.045  1.00  0.00     0.004 A 
ATOM     10  C   UNL     1     174.843 179.534 184.555  1.00  0.00     0.004 A 
ENDBRANCH   2   4
ENDBRANCH   1   2
BRANCH   1  11
ATOM     11  C   UNL     1     174.429 179.373 188.337  1.00  0.00     0.028 C 
BRANCH  11  12
ATOM     12  C   UNL     1     173.126 179.881 187.776  1.00  0.00    -0.028 C 
ATOM     13  C   UNL     1     172.094 179.091 187.403  1.00  0.00    -0.080 C 
ATOM     14  C   UNL     1     172.176 177.584 187.467  1.00  0.00     0.039 C 
ATOM     15  C   UNL     1     170.836 179.745 186.895  1.00  0.00     0.039 C 
ENDBRANCH  11  12
ENDBRANCH   1  11
TORSDOF 4
ENDMDL
MODEL 3
REMARK VINA RESULT:    -4.452      1.756      3.216
REMARK INTER + INTRA:          -7.061
REMARK INTER:                  -5.525
REMARK INTRA:                  -1.536
REMARK UNBOUND:                -1.568
REMARK SMILES CC(C)=CCC[C@H](C)c1ccc(C)cc1
REMARK SMILES IDX 6 1 7 2 8 3 9 4 13 5 12 6 11 7 14 8 10 9 15 10 5 11 4 12
REMARK SMILES IDX 2 13 1 14 3 15
REMARK H PARENT
REMARK Flexibility Score: inf
ROOT
ATOM      1  C   UNL     1     162.607 178.248 186.510  1.00  0.00     0.012 C 
ENDROOT
BRANCH   1   2
ATOM      2  C   UNL     1     161.111 177.894 186.678  1.00  0.00     0.016 C 
ATOM      3  C   UNL     1     160.588 178.233 188.084  1.00  0.00     0.013 C 
BRANCH   2   4
ATOM      4  C   UNL     1     160.876 176.426 186.371  1.00  0.00    -0.045 A 
ATOM      5  C   UNL     1     160.216 172.239 185.534  1.00  0.00     0.044 C 
ATOM      6  C   UNL     1     160.417 173.699 185.814  1.00  0.00    -0.051 A 
ATOM      7  C   UNL     1     160.994 174.531 184.845  1.00  0.00     0.004 A 
ATOM      8  C   UNL     1     160.094 174.229 187.071  1.00  0.00     0.004 A 
ATOM      9  C   UNL     1     161.216 175.884 185.117  1.00  0.00     0.004 A 
ATOM     10  C   UNL     1     160.315 175.581 187.346  1.00  0.00     0.004 A 
ENDBRANCH   2   4
ENDBRANCH   1   2
BRANCH   1  11
ATOM     11  C   UNL     1     163.505 177.513 187.516  1.00  0.00     0.028 C 
BRANCH  11  12
ATOM     12  C   UNL     1     164.588 176.745 186.800  1.00  0.00    -0.028 C 
ATOM     13  C   UNL     1     164.708 175.399 186.816  1.00  0.00    -0.080 C 
ATOM     14  C   UNL     1     163.775 174.521 187.617  1.00  0.00     0.039 C 
ATOM     15  C   UNL     1     165.821 174.768 186.020  1.00  0.00     0.039 C 
ENDBRANCH  11  12
ENDBRANCH   1  11
TORSDOF 4
ENDMDL
MODEL 4
REMARK VINA RESULT:    -4.420      1.837      2.639
REMARK INTER + INTRA:          -7.022
REMARK INTER:                  -5.923
REMARK INTRA:                  -1.099
REMARK UNBOUND:                -1.568
REMARK SMILES CC(C)=CCC[C@H](C)c1ccc(C)cc1
REMARK SMILES IDX 6 1 7 2 8 3 9 4 13 5 12 6 11 7 14 8 10 9 15 10 5 11 4 12
REMARK SMILES IDX 2 13 1 14 3 15
REMARK H PARENT
REMARK Flexibility Score: inf
ROOT
ATOM      1  C   UNL     1     163.150 177.880 187.777  1.00  0.00     0.012 C 
ENDROOT
BRANCH   1   2
ATOM      2  C   UNL     1     161.769 177.496 187.198  1.00  0.00     0.016 C 
ATOM      3  C   UNL     1     160.623 178.277 187.862  1.00  0.00     0.013 C 
BRANCH   2   4
ATOM      4  C   UNL     1     161.534 176.002 187.335  1.00  0.00    -0.045 A 
ATOM      5  C   UNL     1     160.834 171.759 187.747  1.00  0.00     0.044 C 
ATOM      6  C   UNL     1     161.077 173.229 187.573  1.00  0.00    -0.051 A 
ATOM      7  C   UNL     1     162.386 173.730 187.548  1.00  0.00     0.004 A 
ATOM      8  C   UNL     1     159.998 174.121 187.504  1.00  0.00     0.004 A 
ATOM      9  C   UNL     1     162.614 175.103 187.424  1.00  0.00     0.004 A 
ATOM     10  C   UNL     1     160.223 175.495 187.380  1.00  0.00     0.004 A 
ENDBRANCH   2   4
ENDBRANCH   1   2
BRANCH   1  11
ATOM     11  C   UNL     1     164.006 178.681 186.785  1.00  0.00     0.028 C 
BRANCH  11  12
ATOM     12  C   UNL     1     163.718 178.253 185.368  1.00  0.00    -0.028 C 
ATOM     13  C   UNL     1     164.404 177.296 184.705  1.00  0.00    -0.080 C 
ATOM     14  C   UNL     1     165.586 176.585 185.321  1.00  0.00     0.039 C 
ATOM     15  C   UNL     1     163.976 176.947 183.303  1.00  0.00     0.039 C 
ENDBRANCH  11  12
ENDBRANCH   1  11
TORSDOF 4
ENDMDL
MODEL 5
REMARK VINA RESULT:    -4.391      1.608      4.423
REMARK INTER + INTRA:          -6.985
REMARK INTER:                  -5.450
REMARK INTRA:                  -1.535
REMARK UNBOUND:                -1.568
REMARK SMILES CC(C)=CCC[C@H](C)c1ccc(C)cc1
REMARK SMILES IDX 6 1 7 2 8 3 9 4 13 5 12 6 11 7 14 8 10 9 15 10 5 11 4 12
REMARK SMILES IDX 2 13 1 14 3 15
REMARK H PARENT
REMARK Flexibility Score: inf
ROOT
ATOM      1  C   UNL     1     160.985 177.330 187.760  1.00  0.00     0.012 C 
ENDROOT
BRANCH   1   2
ATOM      2  C   UNL     1     160.444 176.087 187.015  1.00  0.00     0.016 C 
ATOM      3  C   UNL     1     161.067 174.781 187.534  1.00  0.00     0.013 C 
BRANCH   2   4
ATOM      4  C   UNL     1     160.678 176.223 185.521  1.00  0.00    -0.045 A 
ATOM      5  C   UNL     1     161.316 176.636 181.268  1.00  0.00     0.044 C 
ATOM      6  C   UNL     1     161.124 176.498 182.750  1.00  0.00    -0.051 A 
ATOM      7  C   UNL     1     161.212 175.238 183.358  1.00  0.00     0.004 A 
ATOM      8  C   UNL     1     160.789 177.615 183.527  1.00  0.00     0.004 A 
ATOM      9  C   UNL     1     160.997 175.101 184.732  1.00  0.00     0.004 A 
ATOM     10  C   UNL     1     160.573 177.481 184.901  1.00  0.00     0.004 A 
ENDBRANCH   2   4
ENDBRANCH   1   2
BRANCH   1  11
ATOM     11  C   UNL     1     162.435 177.151 188.232  1.00  0.00     0.028 C 
BRANCH  11  12
ATOM     12  C   UNL     1     163.384 177.896 187.328  1.00  0.00    -0.028 C 
ATOM     13  C   UNL     1     164.218 177.307 186.442  1.00  0.00    -0.080 C 
ATOM     14  C   UNL     1     164.316 175.804 186.312  1.00  0.00     0.039 C 
ATOM     15  C   UNL     1     165.083 178.185 185.576  1.00  0.00     0.039 C 
ENDBRANCH  11  12
ENDBRANCH   1  11
TORSDOF 4
ENDMDL
MODEL 6
REMARK VINA RESULT:    -4.364      2.029      4.569
REMARK INTER + INTRA:          -6.953
REMARK INTER:                  -6.163
REMARK INTRA:                  -0.790
REMARK UNBOUND:                -1.568
REMARK SMILES CC(C)=CCC[C@H](C)c1ccc(C)cc1
REMARK SMILES IDX 6 1 7 2 8 3 9 4 13 5 12 6 11 7 14 8 10 9 15 10 5 11 4 12
REMARK SMILES IDX 2 13 1 14 3 15
REMARK H PARENT
REMARK Flexibility Score: inf
ROOT
ATOM      1  C   UNL     1     160.636 175.934 186.872  1.00  0.00     0.012 C 
ENDROOT
BRANCH   1   2
ATOM      2  C   UNL     1     161.336 176.918 187.839  1.00  0.00     0.016 C 
ATOM      3  C   UNL     1     160.609 178.270 187.918  1.00  0.00     0.013 C 
BRANCH   2   4
ATOM      4  C   UNL     1     162.784 177.123 187.429  1.00  0.00    -0.045 A 
ATOM      5  C   UNL     1     166.892 177.736 186.240  1.00  0.00     0.044 C 
ATOM      6  C   UNL     1     165.473 177.527 186.682  1.00  0.00    -0.051 A 
ATOM      7  C   UNL     1     164.996 176.233 186.934  1.00  0.00     0.004 A 
ATOM      8  C   UNL     1     164.595 178.615 186.781  1.00  0.00     0.004 A 
ATOM      9  C   UNL     1     163.666 176.032 187.311  1.00  0.00     0.004 A 
ATOM     10  C   UNL     1     163.264 178.417 187.156  1.00  0.00     0.004 A 
ENDBRANCH   2   4
ENDBRANCH   1   2
BRANCH   1  11
ATOM     11  C   UNL     1     159.958 174.767 187.605  1.00  0.00     0.028 C 
BRANCH  11  12
ATOM     12  C   UNL     1     159.980 173.521 186.755  1.00  0.00    -0.028 C 
ATOM     13  C   UNL     1     160.920 172.553 186.843  1.00  0.00    -0.080 C 
ATOM     14  C   UNL     1     162.094 172.659 187.788  1.00  0.00     0.039 C 
ATOM     15  C   UNL     1     160.789 171.344 185.954  1.00  0.00     0.039 C 
ENDBRANCH  11  12
ENDBRANCH   1  11
TORSDOF 4
ENDMDL
MODEL 7
REMARK VINA RESULT:    -4.339      1.321      4.228
REMARK INTER + INTRA:          -6.921
REMARK INTER:                  -5.406
REMARK INTRA:                  -1.515
REMARK UNBOUND:                -1.568
REMARK SMILES CC(C)=CCC[C@H](C)c1ccc(C)cc1
REMARK SMILES IDX 6 1 7 2 8 3 9 4 13 5 12 6 11 7 14 8 10 9 15 10 5 11 4 12
REMARK SMILES IDX 2 13 1 14 3 15
REMARK H PARENT
REMARK Flexibility Score: inf
ROOT
ATOM      1  C   UNL     1     163.056 177.430 187.573  1.00  0.00     0.012 C 
ENDROOT
BRANCH   1   2
ATOM      2  C   UNL     1     161.955 178.263 186.878  1.00  0.00     0.016 C 
ATOM      3  C   UNL     1     160.634 178.253 187.665  1.00  0.00     0.013 C 
BRANCH   2   4
ATOM      4  C   UNL     1     161.726 177.761 185.463  1.00  0.00    -0.045 A 
ATOM      5  C   UNL     1     161.104 176.355 181.425  1.00  0.00     0.044 C 
ATOM      6  C   UNL     1     161.322 176.814 182.837  1.00  0.00    -0.051 A 
ATOM      7  C   UNL     1     160.227 177.047 183.681  1.00  0.00     0.004 A 
ATOM      8  C   UNL     1     162.617 177.079 183.303  1.00  0.00     0.004 A 
ATOM      9  C   UNL     1     160.426 177.510 184.984  1.00  0.00     0.004 A 
ATOM     10  C   UNL     1     162.819 177.543 184.605  1.00  0.00     0.004 A 
ENDBRANCH   2   4
ENDBRANCH   1   2
BRANCH   1  11
ATOM     11  C   UNL     1     162.504 176.168 188.252  1.00  0.00     0.028 C 
BRANCH  11  12
ATOM     12  C   UNL     1     162.526 174.999 187.300  1.00  0.00    -0.028 C 
ATOM     13  C   UNL     1     161.426 174.333 186.882  1.00  0.00    -0.080 C 
ATOM     14  C   UNL     1     160.043 174.674 187.386  1.00  0.00     0.039 C 
ATOM     15  C   UNL     1     161.600 173.207 185.896  1.00  0.00     0.039 C 
ENDBRANCH  11  12
ENDBRANCH   1  11
TORSDOF 4
ENDMDL
MODEL 8
REMARK VINA RESULT:    -4.321      1.982      3.981
REMARK INTER + INTRA:          -6.900
REMARK INTER:                  -5.318
REMARK INTRA:                  -1.582
REMARK UNBOUND:                -1.568
REMARK SMILES CC(C)=CCC[C@H](C)c1ccc(C)cc1
REMARK SMILES IDX 6 1 7 2 8 3 9 4 13 5 12 6 11 7 14 8 10 9 15 10 5 11 4 12
REMARK SMILES IDX 2 13 1 14 3 15
REMARK H PARENT
REMARK Flexibility Score: inf
ROOT
ATOM      1  C   UNL     1     160.723 175.889 186.869  1.00  0.00     0.012 C 
ENDROOT
BRANCH   1   2
ATOM      2  C   UNL     1     161.423 176.852 187.855  1.00  0.00     0.016 C 
ATOM      3  C   UNL     1     160.692 178.200 187.971  1.00  0.00     0.013 C 
BRANCH   2   4
ATOM      4  C   UNL     1     162.868 177.073 187.443  1.00  0.00    -0.045 A 
ATOM      5  C   UNL     1     166.968 177.733 186.249  1.00  0.00     0.044 C 
ATOM      6  C   UNL     1     165.552 177.505 186.693  1.00  0.00    -0.051 A 
ATOM      7  C   UNL     1     165.073 176.202 186.882  1.00  0.00     0.004 A 
ATOM      8  C   UNL     1     164.680 178.590 186.857  1.00  0.00     0.004 A 
ATOM      9  C   UNL     1     163.745 175.987 187.260  1.00  0.00     0.004 A 
ATOM     10  C   UNL     1     163.351 178.378 187.234  1.00  0.00     0.004 A 
ENDBRANCH   2   4
ENDBRANCH   1   2
BRANCH   1  11
ATOM     11  C   UNL     1     160.625 176.466 185.449  1.00  0.00     0.028 C 
BRANCH  11  12
ATOM     12  C   UNL     1     161.376 175.599 184.470  1.00  0.00    -0.028 C 
ATOM     13  C   UNL     1     162.416 176.022 183.716  1.00  0.00    -0.080 C 
ATOM     14  C   UNL     1     162.898 177.453 183.748  1.00  0.00     0.039 C 
ATOM     15  C   UNL     1     163.095 175.029 182.809  1.00  0.00     0.039 C 
ENDBRANCH  11  12
ENDBRANCH   1  11
TORSDOF 4
ENDMDL
MODEL 9
REMARK VINA RESULT:    -2.849     10.381     12.197
REMARK INTER + INTRA:          -5.084
REMARK INTER:                  -3.508
REMARK INTRA:                  -1.576
REMARK UNBOUND:                -1.568
REMARK SMILES CC(C)=CCC[C@H](C)c1ccc(C)cc1
REMARK SMILES IDX 6 1 7 2 8 3 9 4 13 5 12 6 11 7 14 8 10 9 15 10 5 11 4 12
REMARK SMILES IDX 2 13 1 14 3 15
REMARK H PARENT
REMARK Flexibility Score: inf
ROOT
ATOM      1  C   UNL     1     175.023 180.125 186.501  1.00  0.00     0.012 C 
ENDROOT
BRANCH   1   2
ATOM      2  C   UNL     1     174.586 179.127 187.597  1.00  0.00     0.016 C 
ATOM      3  C   UNL     1     175.344 177.792 187.505  1.00  0.00     0.013 C 
BRANCH   2   4
ATOM      4  C   UNL     1     173.088 178.886 187.526  1.00  0.00    -0.045 A 
ATOM      5  C   UNL     1     168.834 178.168 187.303  1.00  0.00     0.044 C 
ATOM      6  C   UNL     1     170.309 178.418 187.412  1.00  0.00    -0.051 A 
ATOM      7  C   UNL     1     170.806 179.728 187.409  1.00  0.00     0.004 A 
ATOM      8  C   UNL     1     171.207 177.342 187.447  1.00  0.00     0.004 A 
ATOM      9  C   UNL     1     172.182 179.962 187.473  1.00  0.00     0.004 A 
ATOM     10  C   UNL     1     172.584 177.573 187.510  1.00  0.00     0.004 A 
ENDBRANCH   2   4
ENDBRANCH   1   2
BRANCH   1  11
ATOM     11  C   UNL     1     175.010 179.504 185.096  1.00  0.00     0.028 C 
BRANCH  11  12
ATOM     12  C   UNL     1     173.818 179.991 184.311  1.00  0.00    -0.028 C 
ATOM     13  C   UNL     1     172.845 179.189 183.823  1.00  0.00    -0.080 C 
ATOM     14  C   UNL     1     172.893 177.687 183.977  1.00  0.00     0.039 C 
ATOM     15  C   UNL     1     171.692 179.824 183.090  1.00  0.00     0.039 C 
ENDBRANCH  11  12
ENDBRANCH   1  11
TORSDOF 4
ENDMDL
