MODEL 1
REMARK VINA RESULT:    -6.532      0.000      0.000
REMARK INTER + INTRA:          -8.772
REMARK INTER:                  -8.251
REMARK INTRA:                  -0.522
REMARK UNBOUND:                -0.522
REMARK SMILES O=C(C=Cc1ccc(O)cc1)c1ccc(O)cc1O
REMARK SMILES IDX 4 1 3 2 5 3 6 4 7 5 8 6 11 7 10 8 9 9 2 11 1 12 12 13 18 14
REMARK SMILES IDX 13 15 17 16 14 17 15 18 19 19 16 21
REMARK H PARENT 9 10 19 20 16 22
REMARK Flexibility Score: inf
ROOT
ATOM      1  C   UNL     1      31.050 -92.210  37.588  1.00  0.00     0.012 C 
ATOM      2  C   UNL     1      31.569 -93.018  38.525  1.00  0.00     0.053 C 
ENDROOT
BRANCH   1   3
ATOM      3  C   UNL     1      31.304 -90.751  37.521  1.00  0.00    -0.025 A 
ATOM      4  C   UNL     1      32.320 -90.191  36.719  1.00  0.00     0.012 A 
ATOM      5  C   UNL     1      32.524 -88.808  36.701  1.00  0.00     0.047 A 
ATOM      6  C   UNL     1      31.729 -87.966  37.487  1.00  0.00     0.115 A 
ATOM      7  C   UNL     1      30.522 -89.896  38.318  1.00  0.00     0.012 A 
ATOM      8  C   UNL     1      30.730 -88.514  38.295  1.00  0.00     0.047 A 
BRANCH   6   9
ATOM      9  O   UNL     1      31.924 -86.587  37.474  1.00  0.00    -0.508 OA
ATOM     10  H   UNL     1      31.620 -86.002  38.243  1.00  0.00     0.293 HD
ENDBRANCH   6   9
ENDBRANCH   1   3
BRANCH   2  11
ATOM     11  C   UNL     1      31.299 -94.471  38.569  1.00  0.00     0.189 C 
ATOM     12  O   UNL     1      32.214 -95.259  38.211  1.00  0.00    -0.289 OA
BRANCH  11  13
ATOM     13  C   UNL     1      30.007 -95.038  39.020  1.00  0.00     0.064 A 
ATOM     14  C   UNL     1      28.939 -95.245  38.121  1.00  0.00     0.130 A 
ATOM     15  C   UNL     1      29.856 -95.416  40.364  1.00  0.00     0.020 A 
ATOM     16  C   UNL     1      27.730 -95.784  38.586  1.00  0.00     0.093 A 
ATOM     17  C   UNL     1      28.651 -95.957  40.818  1.00  0.00     0.047 A 
ATOM     18  C   UNL     1      27.584 -96.138  39.933  1.00  0.00     0.119 A 
BRANCH  14  19
ATOM     19  O   UNL     1      29.086 -94.935  36.769  1.00  0.00    -0.507 OA
ATOM     20  H   UNL     1      29.128 -93.976  36.445  1.00  0.00     0.293 HD
ENDBRANCH  14  19
BRANCH  18  21
ATOM     21  O   UNL     1      26.386 -96.674  40.402  1.00  0.00    -0.508 OA
ATOM     22  H   UNL     1      26.372 -97.470  41.028  1.00  0.00     0.293 HD
ENDBRANCH  18  21
ENDBRANCH  11  13
ENDBRANCH   2  11
TORSDOF 6
ENDMDL
MODEL 2
REMARK VINA RESULT:    -6.529      1.262      2.169
REMARK INTER + INTRA:          -8.768
REMARK INTER:                  -8.070
REMARK INTRA:                  -0.698
REMARK UNBOUND:                -0.522
REMARK SMILES O=C(C=Cc1ccc(O)cc1)c1ccc(O)cc1O
REMARK SMILES IDX 4 1 3 2 5 3 6 4 7 5 8 6 11 7 10 8 9 9 2 11 1 12 12 13 18 14
REMARK SMILES IDX 13 15 17 16 14 17 15 18 19 19 16 21
REMARK H PARENT 9 10 19 20 16 22
REMARK Flexibility Score: inf
ROOT
ATOM      1  C   UNL     1      31.086 -91.801  38.254  1.00  0.00     0.012 C 
ATOM      2  C   UNL     1      32.083 -92.699  38.276  1.00  0.00     0.053 C 
ENDROOT
BRANCH   1   3
ATOM      3  C   UNL     1      31.283 -90.353  38.002  1.00  0.00    -0.025 A 
ATOM      4  C   UNL     1      30.455 -89.362  38.566  1.00  0.00     0.012 A 
ATOM      5  C   UNL     1      30.679 -88.010  38.288  1.00  0.00     0.047 A 
ATOM      6  C   UNL     1      31.723 -87.628  37.438  1.00  0.00     0.115 A 
ATOM      7  C   UNL     1      32.319 -89.958  37.137  1.00  0.00     0.012 A 
ATOM      8  C   UNL     1      32.539 -88.605  36.863  1.00  0.00     0.047 A 
BRANCH   6   9
ATOM      9  O   UNL     1      31.954 -86.284  37.155  1.00  0.00    -0.508 OA
ATOM     10  H   UNL     1      31.826 -85.566  37.858  1.00  0.00     0.293 HD
ENDBRANCH   6   9
ENDBRANCH   1   3
BRANCH   2  11
ATOM     11  C   UNL     1      31.859 -94.138  38.530  1.00  0.00     0.189 C 
ATOM     12  O   UNL     1      32.822 -94.825  38.961  1.00  0.00    -0.289 OA
BRANCH  11  13
ATOM     13  C   UNL     1      30.554 -94.803  38.306  1.00  0.00     0.064 A 
ATOM     14  C   UNL     1      29.754 -95.238  39.385  1.00  0.00     0.130 A 
ATOM     15  C   UNL     1      30.085 -94.969  36.993  1.00  0.00     0.020 A 
ATOM     16  C   UNL     1      28.525 -95.865  39.134  1.00  0.00     0.093 A 
ATOM     17  C   UNL     1      28.857 -95.590  36.752  1.00  0.00     0.047 A 
ATOM     18  C   UNL     1      28.076 -96.044  37.819  1.00  0.00     0.119 A 
BRANCH  14  19
ATOM     19  O   UNL     1      30.170 -95.028  40.700  1.00  0.00    -0.507 OA
ATOM     20  H   UNL     1      30.802 -95.669  41.165  1.00  0.00     0.293 HD
ENDBRANCH  14  19
BRANCH  18  21
ATOM     21  O   UNL     1      26.856 -96.666  37.562  1.00  0.00    -0.508 OA
ATOM     22  H   UNL     1      26.666 -97.609  37.880  1.00  0.00     0.293 HD
ENDBRANCH  18  21
ENDBRANCH  11  13
ENDBRANCH   2  11
TORSDOF 6
ENDMDL
MODEL 3
REMARK VINA RESULT:    -6.507      1.195      1.817
REMARK INTER + INTRA:          -8.740
REMARK INTER:                  -8.154
REMARK INTRA:                  -0.586
REMARK UNBOUND:                -0.522
REMARK SMILES O=C(C=Cc1ccc(O)cc1)c1ccc(O)cc1O
REMARK SMILES IDX 4 1 3 2 5 3 6 4 7 5 8 6 11 7 10 8 9 9 2 11 1 12 12 13 18 14
REMARK SMILES IDX 13 15 17 16 14 17 15 18 19 19 16 21
REMARK H PARENT 9 10 19 20 16 22
REMARK Flexibility Score: inf
ROOT
ATOM      1  C   UNL     1      31.129 -91.958  37.882  1.00  0.00     0.012 C 
ATOM      2  C   UNL     1      32.099 -92.806  38.258  1.00  0.00     0.053 C 
ENDROOT
BRANCH   1   3
ATOM      3  C   UNL     1      31.328 -90.498  37.715  1.00  0.00    -0.025 A 
ATOM      4  C   UNL     1      32.349 -89.955  36.908  1.00  0.00     0.012 A 
ATOM      5  C   UNL     1      32.498 -88.570  36.793  1.00  0.00     0.047 A 
ATOM      6  C   UNL     1      31.641 -87.707  37.486  1.00  0.00     0.115 A 
ATOM      7  C   UNL     1      30.483 -89.621  38.418  1.00  0.00     0.012 A 
ATOM      8  C   UNL     1      30.636 -88.237  38.299  1.00  0.00     0.047 A 
BRANCH   6   9
ATOM      9  O   UNL     1      31.782 -86.326  37.377  1.00  0.00    -0.508 OA
ATOM     10  H   UNL     1      31.293 -85.693  37.999  1.00  0.00     0.293 HD
ENDBRANCH   6   9
ENDBRANCH   1   3
BRANCH   2  11
ATOM     11  C   UNL     1      31.875 -94.258  38.417  1.00  0.00     0.189 C 
ATOM     12  O   UNL     1      32.860 -94.986  38.707  1.00  0.00    -0.289 OA
BRANCH  11  13
ATOM     13  C   UNL     1      30.545 -94.892  38.259  1.00  0.00     0.064 A 
ATOM     14  C   UNL     1      29.759 -95.247  39.376  1.00  0.00     0.130 A 
ATOM     15  C   UNL     1      30.038 -95.108  36.967  1.00  0.00     0.020 A 
ATOM     16  C   UNL     1      28.505 -95.846  39.186  1.00  0.00     0.093 A 
ATOM     17  C   UNL     1      28.785 -95.700  36.786  1.00  0.00     0.047 A 
ATOM     18  C   UNL     1      28.018 -96.075  37.893  1.00  0.00     0.119 A 
BRANCH  14  19
ATOM     19  O   UNL     1      30.215 -94.986  40.669  1.00  0.00    -0.507 OA
ATOM     20  H   UNL     1      30.504 -95.732  41.290  1.00  0.00     0.293 HD
ENDBRANCH  14  19
BRANCH  18  21
ATOM     21  O   UNL     1      26.774 -96.669  37.697  1.00  0.00    -0.508 OA
ATOM     22  H   UNL     1      26.003 -96.158  37.282  1.00  0.00     0.293 HD
ENDBRANCH  18  21
ENDBRANCH  11  13
ENDBRANCH   2  11
TORSDOF 6
ENDMDL
MODEL 4
REMARK VINA RESULT:    -6.282      0.968      1.129
REMARK INTER + INTRA:          -8.456
REMARK INTER:                  -7.833
REMARK INTRA:                  -0.622
REMARK UNBOUND:                -0.522
REMARK SMILES O=C(C=Cc1ccc(O)cc1)c1ccc(O)cc1O
REMARK SMILES IDX 4 1 3 2 5 3 6 4 7 5 8 6 11 7 10 8 9 9 2 11 1 12 12 13 18 14
REMARK SMILES IDX 13 15 17 16 14 17 15 18 19 19 16 21
REMARK H PARENT 9 10 19 20 16 22
REMARK Flexibility Score: inf
ROOT
ATOM      1  C   UNL     1      31.363 -92.205  37.416  1.00  0.00     0.012 C 
ATOM      2  C   UNL     1      31.580 -92.972  38.496  1.00  0.00     0.053 C 
ENDROOT
BRANCH   1   3
ATOM      3  C   UNL     1      31.481 -90.727  37.415  1.00  0.00    -0.025 A 
ATOM      4  C   UNL     1      32.431 -90.039  36.632  1.00  0.00     0.012 A 
ATOM      5  C   UNL     1      32.506 -88.644  36.676  1.00  0.00     0.047 A 
ATOM      6  C   UNL     1      31.646 -87.916  37.507  1.00  0.00     0.115 A 
ATOM      7  C   UNL     1      30.633 -89.986  38.257  1.00  0.00     0.012 A 
ATOM      8  C   UNL     1      30.712 -88.591  38.297  1.00  0.00     0.047 A 
BRANCH   6   9
ATOM      9  O   UNL     1      31.713 -86.526  37.556  1.00  0.00    -0.508 OA
ATOM     10  H   UNL     1      32.586 -86.032  37.411  1.00  0.00     0.293 HD
ENDBRANCH   6   9
ENDBRANCH   1   3
BRANCH   2  11
ATOM     11  C   UNL     1      31.456 -94.445  38.470  1.00  0.00     0.189 C 
ATOM     12  O   UNL     1      32.499 -95.135  38.611  1.00  0.00    -0.289 OA
BRANCH  11  13
ATOM     13  C   UNL     1      30.161 -95.142  38.293  1.00  0.00     0.064 A 
ATOM     14  C   UNL     1      29.752 -95.631  37.034  1.00  0.00     0.130 A 
ATOM     15  C   UNL     1      29.339 -95.357  39.411  1.00  0.00     0.020 A 
ATOM     16  C   UNL     1      28.518 -96.285  36.905  1.00  0.00     0.093 A 
ATOM     17  C   UNL     1      28.113 -96.014  39.276  1.00  0.00     0.047 A 
ATOM     18  C   UNL     1      27.697 -96.476  38.024  1.00  0.00     0.119 A 
BRANCH  14  19
ATOM     19  O   UNL     1      30.579 -95.485  35.919  1.00  0.00    -0.507 OA
ATOM     20  H   UNL     1      31.243 -96.203  35.652  1.00  0.00     0.293 HD
ENDBRANCH  14  19
BRANCH  18  21
ATOM     21  O   UNL     1      26.471 -97.125  37.904  1.00  0.00    -0.508 OA
ATOM     22  H   UNL     1      25.620 -96.722  38.278  1.00  0.00     0.293 HD
ENDBRANCH  18  21
ENDBRANCH  11  13
ENDBRANCH   2  11
TORSDOF 6
ENDMDL
MODEL 5
REMARK VINA RESULT:    -5.779      2.798      7.472
REMARK INTER + INTRA:          -7.821
REMARK INTER:                  -7.326
REMARK INTRA:                  -0.495
REMARK UNBOUND:                -0.522
REMARK SMILES O=C(C=Cc1ccc(O)cc1)c1ccc(O)cc1O
REMARK SMILES IDX 4 1 3 2 5 3 6 4 7 5 8 6 11 7 10 8 9 9 2 11 1 12 12 13 18 14
REMARK SMILES IDX 13 15 17 16 14 17 15 18 19 19 16 21
REMARK H PARENT 9 10 19 20 16 22
REMARK Flexibility Score: inf
ROOT
ATOM      1  C   UNL     1      31.378 -92.126  38.143  1.00  0.00     0.012 C 
ATOM      2  C   UNL     1      30.356 -91.941  37.293  1.00  0.00     0.053 C 
ENDROOT
BRANCH   1   3
ATOM      3  C   UNL     1      31.995 -93.446  38.419  1.00  0.00    -0.025 A 
ATOM      4  C   UNL     1      31.242 -94.572  38.809  1.00  0.00     0.012 A 
ATOM      5  C   UNL     1      31.875 -95.792  39.067  1.00  0.00     0.047 A 
ATOM      6  C   UNL     1      33.265 -95.905  38.949  1.00  0.00     0.115 A 
ATOM      7  C   UNL     1      33.392 -93.568  38.318  1.00  0.00     0.012 A 
ATOM      8  C   UNL     1      34.020 -94.790  38.576  1.00  0.00     0.047 A 
BRANCH   6   9
ATOM      9  O   UNL     1      33.904 -97.116  39.202  1.00  0.00    -0.508 OA
ATOM     10  H   UNL     1      33.637 -97.703  39.984  1.00  0.00     0.293 HD
ENDBRANCH   6   9
ENDBRANCH   1   3
BRANCH   2  11
ATOM     11  C   UNL     1      29.759 -90.614  37.037  1.00  0.00     0.189 C 
ATOM     12  O   UNL     1      28.529 -90.553  36.776  1.00  0.00    -0.289 OA
BRANCH  11  13
ATOM     13  C   UNL     1      30.540 -89.355  37.079  1.00  0.00     0.064 A 
ATOM     14  C   UNL     1      30.028 -88.190  37.689  1.00  0.00     0.130 A 
ATOM     15  C   UNL     1      31.835 -89.333  36.535  1.00  0.00     0.020 A 
ATOM     16  C   UNL     1      30.797 -87.017  37.709  1.00  0.00     0.093 A 
ATOM     17  C   UNL     1      32.596 -88.162  36.564  1.00  0.00     0.047 A 
ATOM     18  C   UNL     1      32.079 -87.001  37.145  1.00  0.00     0.119 A 
BRANCH  14  19
ATOM     19  O   UNL     1      28.769 -88.205  38.291  1.00  0.00    -0.507 OA
ATOM     20  H   UNL     1      28.618 -88.636  39.195  1.00  0.00     0.293 HD
ENDBRANCH  14  19
BRANCH  18  21
ATOM     21  O   UNL     1      32.848 -85.839  37.161  1.00  0.00    -0.508 OA
ATOM     22  H   UNL     1      33.090 -85.353  36.306  1.00  0.00     0.293 HD
ENDBRANCH  18  21
ENDBRANCH  11  13
ENDBRANCH   2  11
TORSDOF 6
ENDMDL
MODEL 6
REMARK VINA RESULT:    -5.300      2.690      7.388
REMARK INTER + INTRA:          -7.217
REMARK INTER:                  -6.505
REMARK INTRA:                  -0.711
REMARK UNBOUND:                -0.522
REMARK SMILES O=C(C=Cc1ccc(O)cc1)c1ccc(O)cc1O
REMARK SMILES IDX 4 1 3 2 5 3 6 4 7 5 8 6 11 7 10 8 9 9 2 11 1 12 12 13 18 14
REMARK SMILES IDX 13 15 17 16 14 17 15 18 19 19 16 21
REMARK H PARENT 9 10 19 20 16 22
REMARK Flexibility Score: inf
ROOT
ATOM      1  C   UNL     1      29.130 -95.626  41.133  1.00  0.00     0.012 C 
ATOM      2  C   UNL     1      29.190 -96.077  39.870  1.00  0.00     0.053 C 
ENDROOT
BRANCH   1   3
ATOM      3  C   UNL     1      27.906 -95.668  41.968  1.00  0.00    -0.025 A 
ATOM      4  C   UNL     1      26.655 -96.080  41.466  1.00  0.00     0.012 A 
ATOM      5  C   UNL     1      25.529 -96.092  42.295  1.00  0.00     0.047 A 
ATOM      6  C   UNL     1      25.631 -95.685  43.631  1.00  0.00     0.115 A 
ATOM      7  C   UNL     1      27.993 -95.247  43.307  1.00  0.00     0.012 A 
ATOM      8  C   UNL     1      26.865 -95.262  44.132  1.00  0.00     0.047 A 
BRANCH   6   9
ATOM      9  O   UNL     1      24.515 -95.695  44.465  1.00  0.00    -0.508 OA
ATOM     10  H   UNL     1      24.574 -96.019  45.423  1.00  0.00     0.293 HD
ENDBRANCH   6   9
ENDBRANCH   1   3
BRANCH   2  11
ATOM     11  C   UNL     1      30.423 -96.023  39.058  1.00  0.00     0.189 C 
ATOM     12  O   UNL     1      30.938 -97.108  38.680  1.00  0.00    -0.289 OA
BRANCH  11  13
ATOM     13  C   UNL     1      31.075 -94.752  38.664  1.00  0.00     0.064 A 
ATOM     14  C   UNL     1      32.463 -94.554  38.826  1.00  0.00     0.130 A 
ATOM     15  C   UNL     1      30.301 -93.737  38.079  1.00  0.00     0.020 A 
ATOM     16  C   UNL     1      33.044 -93.337  38.442  1.00  0.00     0.093 A 
ATOM     17  C   UNL     1      30.888 -92.529  37.694  1.00  0.00     0.047 A 
ATOM     18  C   UNL     1      32.258 -92.323  37.879  1.00  0.00     0.119 A 
BRANCH  14  19
ATOM     19  O   UNL     1      33.263 -95.571  39.348  1.00  0.00    -0.507 OA
ATOM     20  H   UNL     1      33.923 -96.077  38.769  1.00  0.00     0.293 HD
ENDBRANCH  14  19
BRANCH  18  21
ATOM     21  O   UNL     1      32.829 -91.112  37.495  1.00  0.00    -0.508 OA
ATOM     22  H   UNL     1      33.752 -91.070  37.079  1.00  0.00     0.293 HD
ENDBRANCH  18  21
ENDBRANCH  11  13
ENDBRANCH   2  11
TORSDOF 6
ENDMDL
MODEL 7
REMARK VINA RESULT:    -5.141      2.045      3.158
REMARK INTER + INTRA:          -7.015
REMARK INTER:                  -6.477
REMARK INTRA:                  -0.538
REMARK UNBOUND:                -0.522
REMARK SMILES O=C(C=Cc1ccc(O)cc1)c1ccc(O)cc1O
REMARK SMILES IDX 4 1 3 2 5 3 6 4 7 5 8 6 11 7 10 8 9 9 2 11 1 12 12 13 18 14
REMARK SMILES IDX 13 15 17 16 14 17 15 18 19 19 16 21
REMARK H PARENT 9 10 19 20 16 22
REMARK Flexibility Score: inf
ROOT
ATOM      1  C   UNL     1      30.612 -92.965  37.371  1.00  0.00     0.012 C 
ATOM      2  C   UNL     1      30.728 -93.877  38.348  1.00  0.00     0.053 C 
ENDROOT
BRANCH   1   3
ATOM      3  C   UNL     1      30.985 -91.538  37.525  1.00  0.00    -0.025 A 
ATOM      4  C   UNL     1      30.332 -90.673  38.427  1.00  0.00     0.012 A 
ATOM      5  C   UNL     1      30.716 -89.333  38.525  1.00  0.00     0.047 A 
ATOM      6  C   UNL     1      31.748 -88.833  37.722  1.00  0.00     0.115 A 
ATOM      7  C   UNL     1      32.009 -91.021  36.712  1.00  0.00     0.012 A 
ATOM      8  C   UNL     1      32.390 -89.680  36.815  1.00  0.00     0.047 A 
BRANCH   6   9
ATOM      9  O   UNL     1      32.138 -87.499  37.814  1.00  0.00    -0.508 OA
ATOM     10  H   UNL     1      31.888 -86.928  38.612  1.00  0.00     0.293 HD
ENDBRANCH   6   9
ENDBRANCH   1   3
BRANCH   2  11
ATOM     11  C   UNL     1      30.349 -95.295  38.169  1.00  0.00     0.189 C 
ATOM     12  O   UNL     1      30.721 -96.127  39.037  1.00  0.00    -0.289 OA
BRANCH  11  13
ATOM     13  C   UNL     1      29.547 -95.776  37.020  1.00  0.00     0.064 A 
ATOM     14  C   UNL     1      28.162 -96.023  37.139  1.00  0.00     0.130 A 
ATOM     15  C   UNL     1      30.170 -95.953  35.774  1.00  0.00     0.020 A 
ATOM     16  C   UNL     1      27.436 -96.480  36.029  1.00  0.00     0.093 A 
ATOM     17  C   UNL     1      29.439 -96.403  34.672  1.00  0.00     0.047 A 
ATOM     18  C   UNL     1      28.073 -96.672  34.796  1.00  0.00     0.119 A 
BRANCH  14  19
ATOM     19  O   UNL     1      27.508 -95.796  38.350  1.00  0.00    -0.507 OA
ATOM     20  H   UNL     1      27.979 -95.915  39.239  1.00  0.00     0.293 HD
ENDBRANCH  14  19
BRANCH  18  21
ATOM     21  O   UNL     1      27.358 -97.125  33.690  1.00  0.00    -0.508 OA
ATOM     22  H   UNL     1      26.601 -97.792  33.786  1.00  0.00     0.293 HD
ENDBRANCH  18  21
ENDBRANCH  11  13
ENDBRANCH   2  11
TORSDOF 6
ENDMDL
MODEL 8
REMARK VINA RESULT:    -5.131      2.163      3.252
REMARK INTER + INTRA:          -7.003
REMARK INTER:                  -6.897
REMARK INTRA:                  -0.106
REMARK UNBOUND:                -0.522
REMARK SMILES O=C(C=Cc1ccc(O)cc1)c1ccc(O)cc1O
REMARK SMILES IDX 4 1 3 2 5 3 6 4 7 5 8 6 11 7 10 8 9 9 2 11 1 12 12 13 18 14
REMARK SMILES IDX 13 15 17 16 14 17 15 18 19 19 16 21
REMARK H PARENT 9 10 19 20 16 22
REMARK Flexibility Score: inf
ROOT
ATOM      1  C   UNL     1      31.376 -91.518  37.195  1.00  0.00     0.012 C 
ATOM      2  C   UNL     1      30.412 -92.169  37.864  1.00  0.00     0.053 C 
ENDROOT
BRANCH   1   3
ATOM      3  C   UNL     1      31.542 -90.045  37.212  1.00  0.00    -0.025 A 
ATOM      4  C   UNL     1      32.668 -89.399  36.661  1.00  0.00     0.012 A 
ATOM      5  C   UNL     1      32.781 -88.006  36.713  1.00  0.00     0.047 A 
ATOM      6  C   UNL     1      31.780 -87.239  37.321  1.00  0.00     0.115 A 
ATOM      7  C   UNL     1      30.551 -89.265  37.833  1.00  0.00     0.012 A 
ATOM      8  C   UNL     1      30.668 -87.873  37.881  1.00  0.00     0.047 A 
BRANCH   6   9
ATOM      9  O   UNL     1      31.882 -85.851  37.376  1.00  0.00    -0.508 OA
ATOM     10  H   UNL     1      31.749 -85.278  36.552  1.00  0.00     0.293 HD
ENDBRANCH   6   9
ENDBRANCH   1   3
BRANCH   2  11
ATOM     11  C   UNL     1      30.268 -93.640  37.830  1.00  0.00     0.189 C 
ATOM     12  O   UNL     1      29.168 -94.123  37.452  1.00  0.00    -0.289 OA
BRANCH  11  13
ATOM     13  C   UNL     1      31.358 -94.567  38.213  1.00  0.00     0.064 A 
ATOM     14  C   UNL     1      31.174 -95.966  38.204  1.00  0.00     0.130 A 
ATOM     15  C   UNL     1      32.616 -94.044  38.555  1.00  0.00     0.020 A 
ATOM     16  C   UNL     1      32.229 -96.813  38.574  1.00  0.00     0.093 A 
ATOM     17  C   UNL     1      33.664 -94.893  38.916  1.00  0.00     0.047 A 
ATOM     18  C   UNL     1      33.473 -96.278  38.932  1.00  0.00     0.119 A 
BRANCH  14  19
ATOM     19  O   UNL     1      29.952 -96.513  37.808  1.00  0.00    -0.507 OA
ATOM     20  H   UNL     1      29.078 -96.023  37.957  1.00  0.00     0.293 HD
ENDBRANCH  14  19
BRANCH  18  21
ATOM     21  O   UNL     1      34.526 -97.112  39.300  1.00  0.00    -0.508 OA
ATOM     22  H   UNL     1      35.483 -96.780  39.319  1.00  0.00     0.293 HD
ENDBRANCH  18  21
ENDBRANCH  11  13
ENDBRANCH   2  11
TORSDOF 6
ENDMDL
MODEL 9
REMARK VINA RESULT:    -5.047      2.846      7.571
REMARK INTER + INTRA:          -6.897
REMARK INTER:                  -6.251
REMARK INTRA:                  -0.646
REMARK UNBOUND:                -0.522
REMARK SMILES O=C(C=Cc1ccc(O)cc1)c1ccc(O)cc1O
REMARK SMILES IDX 4 1 3 2 5 3 6 4 7 5 8 6 11 7 10 8 9 9 2 11 1 12 12 13 18 14
REMARK SMILES IDX 13 15 17 16 14 17 15 18 19 19 16 21
REMARK H PARENT 9 10 19 20 16 22
REMARK Flexibility Score: inf
ROOT
ATOM      1  C   UNL     1      27.474 -95.733  40.923  1.00  0.00     0.012 C 
ATOM      2  C   UNL     1      28.781 -95.961  40.728  1.00  0.00     0.053 C 
ENDROOT
BRANCH   1   3
ATOM      3  C   UNL     1      26.830 -95.707  42.259  1.00  0.00    -0.025 A 
ATOM      4  C   UNL     1      25.498 -95.291  42.455  1.00  0.00     0.012 A 
ATOM      5  C   UNL     1      24.942 -95.275  43.738  1.00  0.00     0.047 A 
ATOM      6  C   UNL     1      25.708 -95.663  44.843  1.00  0.00     0.115 A 
ATOM      7  C   UNL     1      27.594 -96.080  43.379  1.00  0.00     0.012 A 
ATOM      8  C   UNL     1      27.034 -96.063  44.660  1.00  0.00     0.047 A 
BRANCH   6   9
ATOM      9  O   UNL     1      25.163 -95.652  46.125  1.00  0.00    -0.508 OA
ATOM     10  H   UNL     1      24.276 -96.098  46.327  1.00  0.00     0.293 HD
ENDBRANCH   6   9
ENDBRANCH   1   3
BRANCH   2  11
ATOM     11  C   UNL     1      29.398 -95.983  39.384  1.00  0.00     0.189 C 
ATOM     12  O   UNL     1      29.142 -96.954  38.625  1.00  0.00    -0.289 OA
BRANCH  11  13
ATOM     13  C   UNL     1      30.295 -94.912  38.891  1.00  0.00     0.064 A 
ATOM     14  C   UNL     1      29.923 -94.074  37.818  1.00  0.00     0.130 A 
ATOM     15  C   UNL     1      31.527 -94.701  39.531  1.00  0.00     0.020 A 
ATOM     16  C   UNL     1      30.800 -93.072  37.378  1.00  0.00     0.093 A 
ATOM     17  C   UNL     1      32.393 -93.697  39.090  1.00  0.00     0.047 A 
ATOM     18  C   UNL     1      32.035 -92.883  38.011  1.00  0.00     0.119 A 
BRANCH  14  19
ATOM     19  O   UNL     1      28.678 -94.224  37.206  1.00  0.00    -0.507 OA
ATOM     20  H   UNL     1      28.588 -94.319  36.201  1.00  0.00     0.293 HD
ENDBRANCH  14  19
BRANCH  18  21
ATOM     21  O   UNL     1      32.911 -91.890  37.579  1.00  0.00    -0.508 OA
ATOM     22  H   UNL     1      33.315 -91.908  36.650  1.00  0.00     0.293 HD
ENDBRANCH  18  21
ENDBRANCH  11  13
ENDBRANCH   2  11
TORSDOF 6
ENDMDL
