MODEL 1
REMARK VINA RESULT:    -4.005      0.000      0.000
REMARK INTER + INTRA:          -4.123
REMARK INTER:                  -4.123
REMARK INTRA:                   0.000
REMARK UNBOUND:                 0.000
REMARK SMILES Cc1ccccc1O
REMARK SMILES IDX 1 1 2 2 3 3 4 4 5 5 6 6 7 7 8 8
REMARK H PARENT 8 9
REMARK Flexibility Score: inf
ROOT
ATOM      1  C   UNL     1     126.898 146.368 108.374  1.00  0.00     0.048 C 
ATOM      2  C   UNL     1     127.151 145.468 107.200  1.00  0.00    -0.009 A 
ATOM      3  C   UNL     1     127.223 146.000 105.901  1.00  0.00     0.007 A 
ATOM      4  C   UNL     1     127.459 145.162 104.807  1.00  0.00     0.001 A 
ATOM      5  C   UNL     1     127.625 143.789 105.000  1.00  0.00     0.004 A 
ATOM      6  C   UNL     1     127.555 143.250 106.287  1.00  0.00     0.046 A 
ATOM      7  C   UNL     1     127.319 144.082 107.390  1.00  0.00     0.118 A 
ENDROOT
BRANCH   7   8
ATOM      8  O   UNL     1     127.250 143.540 108.673  1.00  0.00    -0.508 OA
ATOM      9  H   UNL     1     127.146 144.127 109.492  1.00  0.00     0.293 HD
ENDBRANCH   7   8
TORSDOF 1
ENDMDL
MODEL 2
REMARK VINA RESULT:    -3.885      0.656      2.397
REMARK INTER + INTRA:          -3.999
REMARK INTER:                  -3.999
REMARK INTRA:                   0.000
REMARK UNBOUND:                 0.000
REMARK SMILES Cc1ccccc1O
REMARK SMILES IDX 1 1 2 2 3 3 4 4 5 5 6 6 7 7 8 8
REMARK H PARENT 8 9
REMARK Flexibility Score: inf
ROOT
ATOM      1  C   UNL     1     128.028 142.165 106.734  1.00  0.00     0.048 C 
ATOM      2  C   UNL     1     127.627 143.561 106.353  1.00  0.00    -0.009 A 
ATOM      3  C   UNL     1     127.625 143.956 105.004  1.00  0.00     0.007 A 
ATOM      4  C   UNL     1     127.252 145.255 104.649  1.00  0.00     0.001 A 
ATOM      5  C   UNL     1     126.878 146.171 105.635  1.00  0.00     0.004 A 
ATOM      6  C   UNL     1     126.876 145.789 106.979  1.00  0.00     0.046 A 
ATOM      7  C   UNL     1     127.249 144.488 107.344  1.00  0.00     0.118 A 
ENDROOT
BRANCH   7   8
ATOM      8  O   UNL     1     127.246 144.111 108.687  1.00  0.00    -0.508 OA
ATOM      9  H   UNL     1     127.902 143.428 109.048  1.00  0.00     0.293 HD
ENDBRANCH   7   8
TORSDOF 1
ENDMDL
MODEL 3
REMARK VINA RESULT:    -3.468      1.116      1.753
REMARK INTER + INTRA:          -3.569
REMARK INTER:                  -3.569
REMARK INTRA:                   0.000
REMARK UNBOUND:                 0.000
REMARK SMILES Cc1ccccc1O
REMARK SMILES IDX 1 1 2 2 3 3 4 4 5 5 6 6 7 7 8 8
REMARK H PARENT 8 9
REMARK Flexibility Score: inf
ROOT
ATOM      1  C   UNL     1     127.657 144.004 108.804  1.00  0.00     0.048 C 
ATOM      2  C   UNL     1     127.514 144.439 107.374  1.00  0.00    -0.009 A 
ATOM      3  C   UNL     1     127.009 145.714 107.068  1.00  0.00     0.007 A 
ATOM      4  C   UNL     1     126.875 146.120 105.737  1.00  0.00     0.001 A 
ATOM      5  C   UNL     1     127.243 145.258 104.702  1.00  0.00     0.004 A 
ATOM      6  C   UNL     1     127.747 143.988 104.995  1.00  0.00     0.046 A 
ATOM      7  C   UNL     1     127.884 143.572 106.327  1.00  0.00     0.118 A 
ENDROOT
BRANCH   7   8
ATOM      8  O   UNL     1     128.387 142.304 106.615  1.00  0.00    -0.508 OA
ATOM      9  H   UNL     1     128.390 141.937 107.559  1.00  0.00     0.293 HD
ENDBRANCH   7   8
TORSDOF 1
ENDMDL
MODEL 4
REMARK VINA RESULT:    -3.397      2.416      3.038
REMARK INTER + INTRA:          -3.497
REMARK INTER:                  -3.497
REMARK INTRA:                   0.000
REMARK UNBOUND:                 0.000
REMARK SMILES Cc1ccccc1O
REMARK SMILES IDX 1 1 2 2 3 3 4 4 5 5 6 6 7 7 8 8
REMARK H PARENT 8 9
REMARK Flexibility Score: inf
ROOT
ATOM      1  C   UNL     1     131.160 145.583 106.671  1.00  0.00     0.048 C 
ATOM      2  C   UNL     1     129.671 145.578 106.866  1.00  0.00    -0.009 A 
ATOM      3  C   UNL     1     128.817 145.267 105.794  1.00  0.00     0.007 A 
ATOM      4  C   UNL     1     127.431 145.262 105.974  1.00  0.00     0.001 A 
ATOM      5  C   UNL     1     126.886 145.565 107.224  1.00  0.00     0.004 A 
ATOM      6  C   UNL     1     127.726 145.875 108.296  1.00  0.00     0.046 A 
ATOM      7  C   UNL     1     129.118 145.883 108.125  1.00  0.00     0.118 A 
ENDROOT
BRANCH   7   8
ATOM      8  O   UNL     1     129.953 146.193 109.198  1.00  0.00    -0.508 OA
ATOM      9  H   UNL     1     130.924 146.443 109.058  1.00  0.00     0.293 HD
ENDBRANCH   7   8
TORSDOF 1
ENDMDL
MODEL 5
REMARK VINA RESULT:    -3.351      2.235      2.583
REMARK INTER + INTRA:          -3.449
REMARK INTER:                  -3.449
REMARK INTRA:                   0.000
REMARK UNBOUND:                 0.000
REMARK SMILES Cc1ccccc1O
REMARK SMILES IDX 1 1 2 2 3 3 4 4 5 5 6 6 7 7 8 8
REMARK H PARENT 8 9
REMARK Flexibility Score: inf
ROOT
ATOM      1  C   UNL     1     128.754 145.938 109.576  1.00  0.00     0.048 C 
ATOM      2  C   UNL     1     128.493 145.740 108.111  1.00  0.00    -0.009 A 
ATOM      3  C   UNL     1     127.187 145.503 107.649  1.00  0.00     0.007 A 
ATOM      4  C   UNL     1     126.943 145.320 106.285  1.00  0.00     0.001 A 
ATOM      5  C   UNL     1     127.998 145.371 105.372  1.00  0.00     0.004 A 
ATOM      6  C   UNL     1     129.300 145.607 105.820  1.00  0.00     0.046 A 
ATOM      7  C   UNL     1     129.554 145.792 107.186  1.00  0.00     0.118 A 
ENDROOT
BRANCH   7   8
ATOM      8  O   UNL     1     130.856 146.026 107.630  1.00  0.00    -0.508 OA
ATOM      9  H   UNL     1     131.407 145.296 108.065  1.00  0.00     0.293 HD
ENDBRANCH   7   8
TORSDOF 1
ENDMDL
MODEL 6
REMARK VINA RESULT:    -3.349      2.606      2.891
REMARK INTER + INTRA:          -3.447
REMARK INTER:                  -3.447
REMARK INTRA:                   0.000
REMARK UNBOUND:                 0.000
REMARK SMILES Cc1ccccc1O
REMARK SMILES IDX 1 1 2 2 3 3 4 4 5 5 6 6 7 7 8 8
REMARK H PARENT 8 9
REMARK Flexibility Score: inf
ROOT
ATOM      1  C   UNL     1     130.931 146.027 106.283  1.00  0.00     0.048 C 
ATOM      2  C   UNL     1     129.778 145.140 105.913  1.00  0.00    -0.009 A 
ATOM      3  C   UNL     1     128.506 145.689 105.682  1.00  0.00     0.007 A 
ATOM      4  C   UNL     1     127.432 144.864 105.337  1.00  0.00     0.001 A 
ATOM      5  C   UNL     1     127.619 143.485 105.219  1.00  0.00     0.004 A 
ATOM      6  C   UNL     1     128.880 142.928 105.447  1.00  0.00     0.046 A 
ATOM      7  C   UNL     1     129.963 143.748 105.793  1.00  0.00     0.118 A 
ENDROOT
BRANCH   7   8
ATOM      8  O   UNL     1     131.220 143.188 106.020  1.00  0.00    -0.508 OA
ATOM      9  H   UNL     1     132.026 143.764 106.231  1.00  0.00     0.293 HD
ENDBRANCH   7   8
TORSDOF 1
ENDMDL
MODEL 7
REMARK VINA RESULT:    -3.293      2.507      3.471
REMARK INTER + INTRA:          -3.389
REMARK INTER:                  -3.389
REMARK INTRA:                   0.000
REMARK UNBOUND:                 0.000
REMARK SMILES Cc1ccccc1O
REMARK SMILES IDX 1 1 2 2 3 3 4 4 5 5 6 6 7 7 8 8
REMARK H PARENT 8 9
REMARK Flexibility Score: inf
ROOT
ATOM      1  C   UNL     1     131.194 143.248 106.324  1.00  0.00     0.048 C 
ATOM      2  C   UNL     1     129.873 143.824 105.903  1.00  0.00    -0.009 A 
ATOM      3  C   UNL     1     128.901 143.005 105.304  1.00  0.00     0.007 A 
ATOM      4  C   UNL     1     127.671 143.541 104.912  1.00  0.00     0.001 A 
ATOM      5  C   UNL     1     127.401 144.896 105.114  1.00  0.00     0.004 A 
ATOM      6  C   UNL     1     128.361 145.719 105.708  1.00  0.00     0.046 A 
ATOM      7  C   UNL     1     129.597 145.191 106.105  1.00  0.00     0.118 A 
ENDROOT
BRANCH   7   8
ATOM      8  O   UNL     1     130.552 146.016 106.698  1.00  0.00    -0.508 OA
ATOM      9  H   UNL     1     130.291 146.867 107.182  1.00  0.00     0.293 HD
ENDBRANCH   7   8
TORSDOF 1
ENDMDL
MODEL 8
REMARK VINA RESULT:    -3.272      2.045      2.245
REMARK INTER + INTRA:          -3.367
REMARK INTER:                  -3.367
REMARK INTRA:                   0.000
REMARK UNBOUND:                 0.000
REMARK SMILES Cc1ccccc1O
REMARK SMILES IDX 1 1 2 2 3 3 4 4 5 5 6 6 7 7 8 8
REMARK H PARENT 8 9
REMARK Flexibility Score: inf
ROOT
ATOM      1  C   UNL     1     129.638 145.732 109.705  1.00  0.00     0.048 C 
ATOM      2  C   UNL     1     129.091 145.528 108.322  1.00  0.00    -0.009 A 
ATOM      3  C   UNL     1     129.936 145.627 107.203  1.00  0.00     0.007 A 
ATOM      4  C   UNL     1     129.427 145.437 105.915  1.00  0.00     0.001 A 
ATOM      5  C   UNL     1     128.074 145.147 105.732  1.00  0.00     0.004 A 
ATOM      6  C   UNL     1     127.225 145.045 106.837  1.00  0.00     0.046 A 
ATOM      7  C   UNL     1     127.726 145.234 108.133  1.00  0.00     0.118 A 
ENDROOT
BRANCH   7   8
ATOM      8  O   UNL     1     126.875 145.132 109.233  1.00  0.00    -0.508 OA
ATOM      9  H   UNL     1     126.575 145.951 109.750  1.00  0.00     0.293 HD
ENDBRANCH   7   8
TORSDOF 1
ENDMDL
