MODEL 1
REMARK VINA RESULT:    -4.437      0.000      0.000
REMARK INTER + INTRA:          -6.784
REMARK INTER:                  -5.993
REMARK INTRA:                  -0.791
REMARK UNBOUND:                -0.791
REMARK SMILES CC(=O)CCC=C(C)CCC=C(C)C
REMARK SMILES IDX 7 1 6 2 8 3 9 4 10 5 11 6 13 7 12 8 14 9 5 10 4 11 2 12 3 13
REMARK SMILES IDX 1 14
REMARK H PARENT
REMARK Flexibility Score: inf
ROOT
ATOM      1  C   UNL     1       2.743  13.115  23.797  1.00  0.00    -0.077 C 
ATOM      2  C   UNL     1       3.538  14.208  23.739  1.00  0.00    -0.028 C 
ATOM      3  C   UNL     1       1.832  12.730  22.655  1.00  0.00     0.039 C 
ENDROOT
BRANCH   1   4
ATOM      4  C   UNL     1       2.785  12.243  25.033  1.00  0.00     0.034 C 
BRANCH   4   5
ATOM      5  C   UNL     1       1.649  11.215  25.014  1.00  0.00     0.032 C 
BRANCH   5   6
ATOM      6  C   UNL     1       0.642  11.488  26.106  1.00  0.00    -0.028 C 
ATOM      7  C   UNL     1      -1.603  11.852  27.041  1.00  0.00     0.039 C 
ATOM      8  C   UNL     1      -0.686  11.575  25.879  1.00  0.00    -0.080 C 
ATOM      9  C   UNL     1      -1.263  11.400  24.494  1.00  0.00     0.039 C 
ENDBRANCH   5   6
ENDBRANCH   4   5
ENDBRANCH   1   4
BRANCH   2  10
ATOM     10  C   UNL     1       3.560  15.186  22.591  1.00  0.00     0.035 C 
BRANCH  10  11
ATOM     11  C   UNL     1       2.604  16.354  22.857  1.00  0.00     0.079 C 
BRANCH  11  12
ATOM     12  C   UNL     1       1.686  16.569  21.686  1.00  0.00     0.130 C 
ATOM     13  O   UNL     1       2.145  16.608  20.554  1.00  0.00    -0.300 OA
ATOM     14  C   UNL     1       0.209  16.711  21.895  1.00  0.00     0.087 C 
ENDBRANCH  11  12
ENDBRANCH  10  11
ENDBRANCH   2  10
TORSDOF 6
ENDMDL
MODEL 2
REMARK VINA RESULT:    -4.437      1.403      2.828
REMARK INTER + INTRA:          -6.784
REMARK INTER:                  -5.799
REMARK INTRA:                  -0.984
REMARK UNBOUND:                -0.791
REMARK SMILES CC(=O)CCC=C(C)CCC=C(C)C
REMARK SMILES IDX 7 1 6 2 8 3 9 4 10 5 11 6 13 7 12 8 14 9 5 10 4 11 2 12 3 13
REMARK SMILES IDX 1 14
REMARK H PARENT
REMARK Flexibility Score: inf
ROOT
ATOM      1  C   UNL     1       3.442  14.936  22.759  1.00  0.00    -0.077 C 
ATOM      2  C   UNL     1       2.555  15.950  22.879  1.00  0.00    -0.028 C 
ATOM      3  C   UNL     1       3.855  14.393  21.411  1.00  0.00     0.039 C 
ENDROOT
BRANCH   1   4
ATOM      4  C   UNL     1       4.054  14.345  24.011  1.00  0.00     0.034 C 
BRANCH   4   5
ATOM      5  C   UNL     1       3.810  12.834  24.076  1.00  0.00     0.032 C 
BRANCH   5   6
ATOM      6  C   UNL     1       2.386  12.525  24.473  1.00  0.00    -0.028 C 
ATOM      7  C   UNL     1       0.613  11.484  25.822  1.00  0.00     0.039 C 
ATOM      8  C   UNL     1       2.067  11.726  25.513  1.00  0.00    -0.080 C 
ATOM      9  C   UNL     1       3.133  11.074  26.363  1.00  0.00     0.039 C 
ENDBRANCH   5   6
ENDBRANCH   4   5
ENDBRANCH   1   4
BRANCH   2  10
ATOM     10  C   UNL     1       1.838  16.597  21.721  1.00  0.00     0.035 C 
BRANCH  10  11
ATOM     11  C   UNL     1       0.367  16.168  21.689  1.00  0.00     0.079 C 
BRANCH  11  12
ATOM     12  C   UNL     1       0.201  14.887  20.920  1.00  0.00     0.130 C 
ATOM     13  O   UNL     1       0.287  14.895  19.701  1.00  0.00    -0.300 OA
ATOM     14  C   UNL     1      -0.046  13.595  21.639  1.00  0.00     0.087 C 
ENDBRANCH  11  12
ENDBRANCH  10  11
ENDBRANCH   2  10
TORSDOF 6
ENDMDL
MODEL 3
REMARK VINA RESULT:    -4.420      3.336      6.041
REMARK INTER + INTRA:          -6.761
REMARK INTER:                  -5.809
REMARK INTRA:                  -0.952
REMARK UNBOUND:                -0.791
REMARK SMILES CC(=O)CCC=C(C)CCC=C(C)C
REMARK SMILES IDX 7 1 6 2 8 3 9 4 10 5 11 6 13 7 12 8 14 9 5 10 4 11 2 12 3 13
REMARK SMILES IDX 1 14
REMARK H PARENT
REMARK Flexibility Score: inf
ROOT
ATOM      1  C   UNL     1       3.468  12.988  24.071  1.00  0.00    -0.077 C 
ATOM      2  C   UNL     1       4.614  12.301  23.859  1.00  0.00    -0.028 C 
ATOM      3  C   UNL     1       2.146  12.289  24.281  1.00  0.00     0.039 C 
ENDROOT
BRANCH   1   4
ATOM      4  C   UNL     1       3.518  14.500  24.121  1.00  0.00     0.034 C 
BRANCH   4   5
ATOM      5  C   UNL     1       3.506  15.093  22.708  1.00  0.00     0.032 C 
BRANCH   5   6
ATOM      6  C   UNL     1       2.411  16.121  22.554  1.00  0.00    -0.028 C 
ATOM      7  C   UNL     1       0.195  16.947  21.880  1.00  0.00     0.039 C 
ATOM      8  C   UNL     1       1.218  15.847  21.984  1.00  0.00    -0.080 C 
ATOM      9  C   UNL     1       0.894  14.470  21.454  1.00  0.00     0.039 C 
ENDBRANCH   5   6
ENDBRANCH   4   5
ENDBRANCH   1   4
BRANCH   2  10
ATOM     10  C   UNL     1       4.698  10.800  23.740  1.00  0.00     0.035 C 
BRANCH  10  11
ATOM     11  C   UNL     1       5.380  10.197  24.972  1.00  0.00     0.079 C 
BRANCH  11  12
ATOM     12  C   UNL     1       4.360   9.685  25.950  1.00  0.00     0.130 C 
ATOM     13  O   UNL     1       3.941   8.541  25.849  1.00  0.00    -0.300 OA
ATOM     14  C   UNL     1       3.870  10.560  27.064  1.00  0.00     0.087 C 
ENDBRANCH  11  12
ENDBRANCH  10  11
ENDBRANCH   2  10
TORSDOF 6
ENDMDL
MODEL 4
REMARK VINA RESULT:    -4.392      6.710      9.047
REMARK INTER + INTRA:          -6.723
REMARK INTER:                  -5.910
REMARK INTRA:                  -0.813
REMARK UNBOUND:                -0.791
REMARK SMILES CC(=O)CCC=C(C)CCC=C(C)C
REMARK SMILES IDX 7 1 6 2 8 3 9 4 10 5 11 6 13 7 12 8 14 9 5 10 4 11 2 12 3 13
REMARK SMILES IDX 1 14
REMARK H PARENT
REMARK Flexibility Score: inf
ROOT
ATOM      1  C   UNL     1       2.277  10.165  16.667  1.00  0.00    -0.077 C 
ATOM      2  C   UNL     1       1.392   9.245  17.118  1.00  0.00    -0.028 C 
ATOM      3  C   UNL     1       3.439  10.633  17.511  1.00  0.00     0.039 C 
ENDROOT
BRANCH   1   4
ATOM      4  C   UNL     1       2.108  10.721  15.270  1.00  0.00     0.034 C 
BRANCH   4   5
ATOM      5  C   UNL     1       2.092  12.254  15.292  1.00  0.00     0.032 C 
BRANCH   5   6
ATOM      6  C   UNL     1       0.754  12.795  14.848  1.00  0.00    -0.028 C 
ATOM      7  C   UNL     1      -1.510  13.699  15.163  1.00  0.00     0.039 C 
ATOM      8  C   UNL     1      -0.211  13.173  15.713  1.00  0.00    -0.080 C 
ATOM      9  C   UNL     1      -0.014  13.077  17.208  1.00  0.00     0.039 C 
ENDBRANCH   5   6
ENDBRANCH   4   5
ENDBRANCH   1   4
BRANCH   2  10
ATOM     10  C   UNL     1       1.416   8.646  18.501  1.00  0.00     0.035 C 
BRANCH  10  11
ATOM     11  C   UNL     1       0.018   8.167  18.907  1.00  0.00     0.079 C 
BRANCH  11  12
ATOM     12  C   UNL     1      -0.350   8.687  20.268  1.00  0.00     0.130 C 
ATOM     13  O   UNL     1       0.013   8.084  21.268  1.00  0.00    -0.300 OA
ATOM     14  C   UNL     1      -1.138   9.954  20.410  1.00  0.00     0.087 C 
ENDBRANCH  11  12
ENDBRANCH  10  11
ENDBRANCH   2  10
TORSDOF 6
ENDMDL
MODEL 5
REMARK VINA RESULT:    -4.385      2.190      4.215
REMARK INTER + INTRA:          -6.713
REMARK INTER:                  -5.624
REMARK INTRA:                  -1.089
REMARK UNBOUND:                -0.791
REMARK SMILES CC(=O)CCC=C(C)CCC=C(C)C
REMARK SMILES IDX 7 1 6 2 8 3 9 4 10 5 11 6 13 7 12 8 14 9 5 10 4 11 2 12 3 13
REMARK SMILES IDX 1 14
REMARK H PARENT
REMARK Flexibility Score: inf
ROOT
ATOM      1  C   UNL     1       1.728  16.436  21.723  1.00  0.00    -0.077 C 
ATOM      2  C   UNL     1       2.317  16.263  20.517  1.00  0.00    -0.028 C 
ATOM      3  C   UNL     1       0.264  16.786  21.853  1.00  0.00     0.039 C 
ENDROOT
BRANCH   1   4
ATOM      4  C   UNL     1       2.556  16.250  22.977  1.00  0.00     0.034 C 
BRANCH   4   5
ATOM      5  C   UNL     1       3.520  15.069  22.823  1.00  0.00     0.032 C 
BRANCH   5   6
ATOM      6  C   UNL     1       3.367  14.085  23.958  1.00  0.00    -0.028 C 
ATOM      7  C   UNL     1       2.468  12.094  25.089  1.00  0.00     0.039 C 
ATOM      8  C   UNL     1       2.546  13.014  23.898  1.00  0.00    -0.080 C 
ATOM      9  C   UNL     1       1.712  12.726  22.672  1.00  0.00     0.039 C 
ENDBRANCH   5   6
ENDBRANCH   4   5
ENDBRANCH   1   4
BRANCH   2  10
ATOM     10  C   UNL     1       1.623  16.462  19.194  1.00  0.00     0.035 C 
BRANCH  10  11
ATOM     11  C   UNL     1       1.793  15.227  18.303  1.00  0.00     0.079 C 
BRANCH  11  12
ATOM     12  C   UNL     1       1.061  14.047  18.881  1.00  0.00     0.130 C 
ATOM     13  O   UNL     1       1.662  13.005  19.096  1.00  0.00    -0.300 OA
ATOM     14  C   UNL     1      -0.396  14.148  19.219  1.00  0.00     0.087 C 
ENDBRANCH  11  12
ENDBRANCH  10  11
ENDBRANCH   2  10
TORSDOF 6
ENDMDL
MODEL 6
REMARK VINA RESULT:    -4.346      2.730      5.155
REMARK INTER + INTRA:          -6.661
REMARK INTER:                  -5.402
REMARK INTRA:                  -1.260
REMARK UNBOUND:                -0.791
REMARK SMILES CC(=O)CCC=C(C)CCC=C(C)C
REMARK SMILES IDX 7 1 6 2 8 3 9 4 10 5 11 6 13 7 12 8 14 9 5 10 4 11 2 12 3 13
REMARK SMILES IDX 1 14
REMARK H PARENT
REMARK Flexibility Score: inf
ROOT
ATOM      1  C   UNL     1       3.088  12.986  23.885  1.00  0.00    -0.077 C 
ATOM      2  C   UNL     1       3.410  12.375  22.721  1.00  0.00    -0.028 C 
ATOM      3  C   UNL     1       2.358  12.260  24.990  1.00  0.00     0.039 C 
ENDROOT
BRANCH   1   4
ATOM      4  C   UNL     1       3.491  14.430  24.092  1.00  0.00     0.034 C 
BRANCH   4   5
ATOM      5  C   UNL     1       3.481  15.194  22.764  1.00  0.00     0.032 C 
BRANCH   5   6
ATOM      6  C   UNL     1       2.324  16.163  22.697  1.00  0.00    -0.028 C 
ATOM      7  C   UNL     1       0.128  16.979  21.951  1.00  0.00     0.039 C 
ATOM      8  C   UNL     1       1.225  15.947  21.944  1.00  0.00    -0.080 C 
ATOM      9  C   UNL     1       1.076  14.701  21.103  1.00  0.00     0.039 C 
ENDBRANCH   5   6
ENDBRANCH   4   5
ENDBRANCH   1   4
BRANCH   2  10
ATOM     10  C   UNL     1       3.030  10.960  22.367  1.00  0.00     0.035 C 
BRANCH  10  11
ATOM     11  C   UNL     1       1.818  10.945  21.429  1.00  0.00     0.079 C 
BRANCH  11  12
ATOM     12  C   UNL     1       0.570  10.561  22.175  1.00  0.00     0.130 C 
ATOM     13  O   UNL     1       0.385   9.394  22.489  1.00  0.00    -0.300 OA
ATOM     14  C   UNL     1      -0.436  11.603  22.558  1.00  0.00     0.087 C 
ENDBRANCH  11  12
ENDBRANCH  10  11
ENDBRANCH   2  10
TORSDOF 6
ENDMDL
MODEL 7
REMARK VINA RESULT:    -4.342      2.974      5.958
REMARK INTER + INTRA:          -6.656
REMARK INTER:                  -5.344
REMARK INTRA:                  -1.312
REMARK UNBOUND:                -0.791
REMARK SMILES CC(=O)CCC=C(C)CCC=C(C)C
REMARK SMILES IDX 7 1 6 2 8 3 9 4 10 5 11 6 13 7 12 8 14 9 5 10 4 11 2 12 3 13
REMARK SMILES IDX 1 14
REMARK H PARENT
REMARK Flexibility Score: inf
ROOT
ATOM      1  C   UNL     1       1.587  16.718  21.295  1.00  0.00    -0.077 C 
ATOM      2  C   UNL     1       2.722  16.354  21.936  1.00  0.00    -0.028 C 
ATOM      3  C   UNL     1       0.250  16.750  21.997  1.00  0.00     0.039 C 
ENDROOT
BRANCH   1   4
ATOM      4  C   UNL     1       1.665  17.125  19.839  1.00  0.00     0.034 C 
BRANCH   4   5
ATOM      5  C   UNL     1       2.652  16.235  19.076  1.00  0.00     0.032 C 
BRANCH   5   6
ATOM      6  C   UNL     1       2.077  14.859  18.835  1.00  0.00    -0.028 C 
ATOM      7  C   UNL     1       2.060  12.401  18.879  1.00  0.00     0.039 C 
ATOM      8  C   UNL     1       2.725  13.722  19.164  1.00  0.00    -0.080 C 
ATOM      9  C   UNL     1       4.092  13.750  19.806  1.00  0.00     0.039 C 
ENDBRANCH   5   6
ENDBRANCH   4   5
ENDBRANCH   1   4
BRANCH   2  10
ATOM     10  C   UNL     1       2.779  15.883  23.367  1.00  0.00     0.035 C 
BRANCH  10  11
ATOM     11  C   UNL     1       3.629  14.614  23.484  1.00  0.00     0.079 C 
BRANCH  11  12
ATOM     12  C   UNL     1       2.760  13.410  23.722  1.00  0.00     0.130 C 
ATOM     13  O   UNL     1       2.876  12.772  24.758  1.00  0.00    -0.300 OA
ATOM     14  C   UNL     1       1.736  13.000  22.708  1.00  0.00     0.087 C 
ENDBRANCH  11  12
ENDBRANCH  10  11
ENDBRANCH   2  10
TORSDOF 6
ENDMDL
MODEL 8
REMARK VINA RESULT:    -4.310      2.585      6.355
REMARK INTER + INTRA:          -6.612
REMARK INTER:                  -5.523
REMARK INTRA:                  -1.089
REMARK UNBOUND:                -0.791
REMARK SMILES CC(=O)CCC=C(C)CCC=C(C)C
REMARK SMILES IDX 7 1 6 2 8 3 9 4 10 5 11 6 13 7 12 8 14 9 5 10 4 11 2 12 3 13
REMARK SMILES IDX 1 14
REMARK H PARENT
REMARK Flexibility Score: inf
ROOT
ATOM      1  C   UNL     1       1.270  15.557  22.006  1.00  0.00    -0.077 C 
ATOM      2  C   UNL     1       2.496  15.888  22.472  1.00  0.00    -0.028 C 
ATOM      3  C   UNL     1       0.870  14.120  21.764  1.00  0.00     0.039 C 
ENDROOT
BRANCH   1   4
ATOM      4  C   UNL     1       0.264  16.657  21.741  1.00  0.00     0.034 C 
BRANCH   4   5
ATOM      5  C   UNL     1       0.663  17.475  20.508  1.00  0.00     0.032 C 
BRANCH   5   6
ATOM      6  C   UNL     1       0.402  16.708  19.234  1.00  0.00    -0.028 C 
ATOM      7  C   UNL     1       1.015  15.519  17.171  1.00  0.00     0.039 C 
ATOM      8  C   UNL     1       1.387  16.275  18.419  1.00  0.00    -0.080 C 
ATOM      9  C   UNL     1       2.842  16.532  18.734  1.00  0.00     0.039 C 
ENDBRANCH   5   6
ENDBRANCH   4   5
ENDBRANCH   1   4
BRANCH   2  10
ATOM     10  C   UNL     1       3.604  14.899  22.732  1.00  0.00     0.035 C 
BRANCH  10  11
ATOM     11  C   UNL     1       3.554  14.400  24.180  1.00  0.00     0.079 C 
BRANCH  11  12
ATOM     12  C   UNL     1       3.456  12.900  24.224  1.00  0.00     0.130 C 
ATOM     13  O   UNL     1       4.342  12.218  23.730  1.00  0.00    -0.300 OA
ATOM     14  C   UNL     1       2.291  12.234  24.892  1.00  0.00     0.087 C 
ENDBRANCH  11  12
ENDBRANCH  10  11
ENDBRANCH   2  10
TORSDOF 6
ENDMDL
MODEL 9
REMARK VINA RESULT:    -4.301      2.013      3.727
REMARK INTER + INTRA:          -6.600
REMARK INTER:                  -5.527
REMARK INTRA:                  -1.073
REMARK UNBOUND:                -0.791
REMARK SMILES CC(=O)CCC=C(C)CCC=C(C)C
REMARK SMILES IDX 7 1 6 2 8 3 9 4 10 5 11 6 13 7 12 8 14 9 5 10 4 11 2 12 3 13
REMARK SMILES IDX 1 14
REMARK H PARENT
REMARK Flexibility Score: inf
ROOT
ATOM      1  C   UNL     1       2.575  12.757  23.999  1.00  0.00    -0.077 C 
ATOM      2  C   UNL     1       3.298  13.894  24.126  1.00  0.00    -0.028 C 
ATOM      3  C   UNL     1       2.011  12.316  22.669  1.00  0.00     0.039 C 
ENDROOT
BRANCH   1   4
ATOM      4  C   UNL     1       2.345  11.894  25.220  1.00  0.00     0.034 C 
BRANCH   4   5
ATOM      5  C   UNL     1       3.678  11.455  25.836  1.00  0.00     0.032 C 
BRANCH   5   6
ATOM      6  C   UNL     1       4.238  10.246  25.125  1.00  0.00    -0.028 C 
ATOM      7  C   UNL     1       5.850   9.015  23.734  1.00  0.00     0.039 C 
ATOM      8  C   UNL     1       5.379  10.279  24.404  1.00  0.00    -0.080 C 
ATOM      9  C   UNL     1       6.185  11.549  24.258  1.00  0.00     0.039 C 
ENDBRANCH   5   6
ENDBRANCH   4   5
ENDBRANCH   1   4
BRANCH   2  10
ATOM     10  C   UNL     1       3.562  14.866  23.004  1.00  0.00     0.035 C 
BRANCH  10  11
ATOM     11  C   UNL     1       2.585  16.045  23.070  1.00  0.00     0.079 C 
BRANCH  11  12
ATOM     12  C   UNL     1       1.656  16.035  21.888  1.00  0.00     0.130 C 
ATOM     13  O   UNL     1       1.953  15.401  20.887  1.00  0.00    -0.300 OA
ATOM     14  C   UNL     1       0.355  16.778  21.939  1.00  0.00     0.087 C 
ENDBRANCH  11  12
ENDBRANCH  10  11
ENDBRANCH   2  10
TORSDOF 6
ENDMDL
