MODEL 1
REMARK VINA RESULT:    -3.936      0.000      0.000
REMARK INTER + INTRA:          -7.083
REMARK INTER:                  -6.006
REMARK INTRA:                  -1.077
REMARK UNBOUND:                -1.077
REMARK SMILES O=C([O-])CCCCCCCCC(=O)[O-]
REMARK SMILES IDX 7 1 6 2 5 3 4 4 2 5 1 6 3 7 8 8 9 9 10 10 11 11 12 12 13 13
REMARK SMILES IDX 14 14
REMARK H PARENT
REMARK Flexibility Score: inf
ROOT
ATOM      1  C   UNL     1      45.371  60.900  11.099  1.00  0.00     0.000 C 
ENDROOT
BRANCH   1   2
ATOM      2  C   UNL     1      44.554  60.563  12.356  1.00  0.00     0.000 C 
BRANCH   2   3
ATOM      3  C   UNL     1      44.384  61.771  13.290  1.00  0.00     0.006 C 
BRANCH   3   4
ATOM      4  C   UNL     1      44.605  63.083  12.534  1.00  0.00     0.053 C 
BRANCH   4   5
ATOM      5  C   UNL     1      43.294  63.706  12.170  1.00  0.00     0.041 C 
ATOM      6  O   UNL     1      42.280  63.517  12.893  1.00  0.00    -0.550 OA
ATOM      7  O   UNL     1      43.204  64.538  11.061  1.00  0.00    -0.550 OA
ENDBRANCH   4   5
ENDBRANCH   3   4
ENDBRANCH   2   3
ENDBRANCH   1   2
BRANCH   1   8
ATOM      8  C   UNL     1      44.999  60.014   9.897  1.00  0.00     0.000 C 
BRANCH   8   9
ATOM      9  C   UNL     1      44.463  60.823   8.702  1.00  0.00     0.000 C 
BRANCH   9  10
ATOM     10  C   UNL     1      43.206  61.665   8.998  1.00  0.00     0.006 C 
BRANCH  10  11
ATOM     11  C   UNL     1      41.920  60.847   9.190  1.00  0.00     0.053 C 
BRANCH  11  12
ATOM     12  C   UNL     1      41.138  61.306  10.383  1.00  0.00     0.041 C 
ATOM     13  O   UNL     1      41.199  60.666  11.466  1.00  0.00    -0.550 OA
ATOM     14  O   UNL     1      40.369  62.460  10.308  1.00  0.00    -0.550 OA
ENDBRANCH  11  12
ENDBRANCH  10  11
ENDBRANCH   9  10
ENDBRANCH   8   9
ENDBRANCH   1   8
TORSDOF 9
ENDMDL
MODEL 2
REMARK VINA RESULT:    -3.864      1.780      3.602
REMARK INTER + INTRA:          -6.974
REMARK INTER:                  -6.023
REMARK INTRA:                  -0.951
REMARK UNBOUND:                -1.077
REMARK SMILES O=C([O-])CCCCCCCCC(=O)[O-]
REMARK SMILES IDX 7 1 6 2 5 3 4 4 2 5 1 6 3 7 8 8 9 9 10 10 11 11 12 12 13 13
REMARK SMILES IDX 14 14
REMARK H PARENT
REMARK Flexibility Score: inf
ROOT
ATOM      1  C   UNL     1      43.472  60.897   8.446  1.00  0.00     0.000 C 
ENDROOT
BRANCH   1   2
ATOM      2  C   UNL     1      44.877  60.489   8.913  1.00  0.00     0.000 C 
BRANCH   2   3
ATOM      3  C   UNL     1      44.995  60.423  10.444  1.00  0.00     0.006 C 
BRANCH   3   4
ATOM      4  C   UNL     1      43.616  60.287  11.094  1.00  0.00     0.053 C 
BRANCH   4   5
ATOM      5  C   UNL     1      43.732  60.331  12.585  1.00  0.00     0.041 C 
ATOM      6  O   UNL     1      44.862  60.248  13.135  1.00  0.00    -0.550 OA
ATOM      7  O   UNL     1      42.598  60.516  13.367  1.00  0.00    -0.550 OA
ENDBRANCH   4   5
ENDBRANCH   3   4
ENDBRANCH   2   3
ENDBRANCH   1   2
BRANCH   1   8
ATOM      8  C   UNL     1      43.463  62.245   7.706  1.00  0.00     0.000 C 
BRANCH   8   9
ATOM      9  C   UNL     1      42.311  63.164   8.152  1.00  0.00     0.000 C 
BRANCH   9  10
ATOM     10  C   UNL     1      42.047  63.183   9.671  1.00  0.00     0.006 C 
BRANCH  10  11
ATOM     11  C   UNL     1      42.760  64.313  10.430  1.00  0.00     0.053 C 
BRANCH  11  12
ATOM     12  C   UNL     1      43.074  63.926  11.843  1.00  0.00     0.041 C 
ATOM     13  O   UNL     1      42.144  63.677  12.654  1.00  0.00    -0.550 OA
ATOM     14  O   UNL     1      44.396  63.809  12.254  1.00  0.00    -0.550 OA
ENDBRANCH  11  12
ENDBRANCH  10  11
ENDBRANCH   9  10
ENDBRANCH   8   9
ENDBRANCH   1   8
TORSDOF 9
ENDMDL
MODEL 3
REMARK VINA RESULT:    -3.843      2.657      4.383
REMARK INTER + INTRA:          -6.942
REMARK INTER:                  -6.335
REMARK INTRA:                  -0.607
REMARK UNBOUND:                -1.077
REMARK SMILES O=C([O-])CCCCCCCCC(=O)[O-]
REMARK SMILES IDX 7 1 6 2 5 3 4 4 2 5 1 6 3 7 8 8 9 9 10 10 11 11 12 12 13 13
REMARK SMILES IDX 14 14
REMARK H PARENT
REMARK Flexibility Score: inf
ROOT
ATOM      1  C   UNL     1      42.950  63.598  12.320  1.00  0.00     0.000 C 
ENDROOT
BRANCH   1   2
ATOM      2  C   UNL     1      42.413  63.705  10.884  1.00  0.00     0.000 C 
BRANCH   2   3
ATOM      3  C   UNL     1      42.901  64.972  10.165  1.00  0.00     0.006 C 
BRANCH   3   4
ATOM      4  C   UNL     1      42.288  65.079   8.767  1.00  0.00     0.053 C 
BRANCH   4   5
ATOM      5  C   UNL     1      42.615  66.402   8.150  1.00  0.00     0.041 C 
ATOM      6  O   UNL     1      43.808  66.801   8.102  1.00  0.00    -0.550 OA
ATOM      7  O   UNL     1      41.608  67.173   7.581  1.00  0.00    -0.550 OA
ENDBRANCH   4   5
ENDBRANCH   3   4
ENDBRANCH   2   3
ENDBRANCH   1   2
BRANCH   1   8
ATOM      8  C   UNL     1      44.486  63.546  12.375  1.00  0.00     0.000 C 
BRANCH   8   9
ATOM      9  C   UNL     1      45.014  62.426  13.289  1.00  0.00     0.000 C 
BRANCH   9  10
ATOM     10  C   UNL     1      43.956  61.395  13.730  1.00  0.00     0.006 C 
BRANCH  10  11
ATOM     11  C   UNL     1      44.048  60.038  13.015  1.00  0.00     0.053 C 
BRANCH  11  12
ATOM     12  C   UNL     1      43.128  59.965  11.834  1.00  0.00     0.041 C 
ATOM     13  O   UNL     1      41.934  59.594  11.983  1.00  0.00    -0.550 OA
ATOM     14  O   UNL     1      43.581  60.340  10.576  1.00  0.00    -0.550 OA
ENDBRANCH  11  12
ENDBRANCH  10  11
ENDBRANCH   9  10
ENDBRANCH   8   9
ENDBRANCH   1   8
TORSDOF 9
ENDMDL
MODEL 4
REMARK VINA RESULT:    -3.818      1.802      3.785
REMARK INTER + INTRA:          -6.903
REMARK INTER:                  -6.075
REMARK INTRA:                  -0.828
REMARK UNBOUND:                -1.077
REMARK SMILES O=C([O-])CCCCCCCCC(=O)[O-]
REMARK SMILES IDX 7 1 6 2 5 3 4 4 2 5 1 6 3 7 8 8 9 9 10 10 11 11 12 12 13 13
REMARK SMILES IDX 14 14
REMARK H PARENT
REMARK Flexibility Score: inf
ROOT
ATOM      1  C   UNL     1      44.358  60.427  12.619  1.00  0.00     0.000 C 
ENDROOT
BRANCH   1   2
ATOM      2  C   UNL     1      45.174  60.522  11.321  1.00  0.00     0.000 C 
BRANCH   2   3
ATOM      3  C   UNL     1      44.380  60.058  10.089  1.00  0.00     0.006 C 
BRANCH   3   4
ATOM      4  C   UNL     1      44.757  60.880   8.854  1.00  0.00     0.053 C 
BRANCH   4   5
ATOM      5  C   UNL     1      43.530  61.294   8.105  1.00  0.00     0.041 C 
ATOM      6  O   UNL     1      43.564  62.287   7.332  1.00  0.00    -0.550 OA
ATOM      7  O   UNL     1      42.361  60.552   8.221  1.00  0.00    -0.550 OA
ENDBRANCH   4   5
ENDBRANCH   3   4
ENDBRANCH   2   3
ENDBRANCH   1   2
BRANCH   1   8
ATOM      8  C   UNL     1      44.396  61.728  13.439  1.00  0.00     0.000 C 
BRANCH   8   9
ATOM      9  C   UNL     1      44.600  62.979  12.564  1.00  0.00     0.000 C 
BRANCH   9  10
ATOM     10  C   UNL     1      43.306  63.583  11.982  1.00  0.00     0.006 C 
BRANCH  10  11
ATOM     11  C   UNL     1      42.057  63.378  12.854  1.00  0.00     0.053 C 
BRANCH  11  12
ATOM     12  C   UNL     1      40.994  62.605  12.134  1.00  0.00     0.041 C 
ATOM     13  O   UNL     1      39.778  62.867  12.328  1.00  0.00    -0.550 OA
ATOM     14  O   UNL     1      41.349  61.617  11.224  1.00  0.00    -0.550 OA
ENDBRANCH  11  12
ENDBRANCH  10  11
ENDBRANCH   9  10
ENDBRANCH   8   9
ENDBRANCH   1   8
TORSDOF 9
ENDMDL
MODEL 5
REMARK VINA RESULT:    -3.810      1.818      3.819
REMARK INTER + INTRA:          -6.891
REMARK INTER:                  -5.886
REMARK INTRA:                  -1.006
REMARK UNBOUND:                -1.077
REMARK SMILES O=C([O-])CCCCCCCCC(=O)[O-]
REMARK SMILES IDX 7 1 6 2 5 3 4 4 2 5 1 6 3 7 8 8 9 9 10 10 11 11 12 12 13 13
REMARK SMILES IDX 14 14
REMARK H PARENT
REMARK Flexibility Score: inf
ROOT
ATOM      1  C   UNL     1      43.318  62.109   7.781  1.00  0.00     0.000 C 
ENDROOT
BRANCH   1   2
ATOM      2  C   UNL     1      42.523  63.077   8.671  1.00  0.00     0.000 C 
BRANCH   2   3
ATOM      3  C   UNL     1      41.657  62.348   9.711  1.00  0.00     0.006 C 
BRANCH   3   4
ATOM      4  C   UNL     1      41.613  63.127  11.028  1.00  0.00     0.053 C 
BRANCH   4   5
ATOM      5  C   UNL     1      41.374  62.199  12.177  1.00  0.00     0.041 C 
ATOM      6  O   UNL     1      41.520  60.957  12.030  1.00  0.00    -0.550 OA
ATOM      7  O   UNL     1      41.040  62.709  13.426  1.00  0.00    -0.550 OA
ENDBRANCH   4   5
ENDBRANCH   3   4
ENDBRANCH   2   3
ENDBRANCH   1   2
BRANCH   1   8
ATOM      8  C   UNL     1      43.556  60.747   8.457  1.00  0.00     0.000 C 
BRANCH   8   9
ATOM      9  C   UNL     1      44.959  60.628   9.082  1.00  0.00     0.000 C 
BRANCH   9  10
ATOM     10  C   UNL     1      44.972  60.372  10.602  1.00  0.00     0.006 C 
BRANCH  10  11
ATOM     11  C   UNL     1      44.992  61.644  11.464  1.00  0.00     0.053 C 
BRANCH  11  12
ATOM     12  C   UNL     1      44.918  61.329  12.927  1.00  0.00     0.041 C 
ATOM     13  O   UNL     1      45.231  62.201  13.780  1.00  0.00    -0.550 OA
ATOM     14  O   UNL     1      44.472  60.083  13.348  1.00  0.00    -0.550 OA
ENDBRANCH  11  12
ENDBRANCH  10  11
ENDBRANCH   9  10
ENDBRANCH   8   9
ENDBRANCH   1   8
TORSDOF 9
ENDMDL
MODEL 6
REMARK VINA RESULT:    -3.790      2.623      4.353
REMARK INTER + INTRA:          -6.861
REMARK INTER:                  -6.239
REMARK INTRA:                  -0.622
REMARK UNBOUND:                -1.077
REMARK SMILES O=C([O-])CCCCCCCCC(=O)[O-]
REMARK SMILES IDX 7 1 6 2 5 3 4 4 2 5 1 6 3 7 8 8 9 9 10 10 11 11 12 12 13 13
REMARK SMILES IDX 14 14
REMARK H PARENT
REMARK Flexibility Score: inf
ROOT
ATOM      1  C   UNL     1      44.326  63.686  12.442  1.00  0.00     0.000 C 
ENDROOT
BRANCH   1   2
ATOM      2  C   UNL     1      44.938  62.430  13.080  1.00  0.00     0.000 C 
BRANCH   2   3
ATOM      3  C   UNL     1      43.875  61.494  13.677  1.00  0.00     0.006 C 
BRANCH   3   4
ATOM      4  C   UNL     1      43.957  60.101  13.049  1.00  0.00     0.053 C 
BRANCH   4   5
ATOM      5  C   UNL     1      43.125  60.035  11.808  1.00  0.00     0.041 C 
ATOM      6  O   UNL     1      41.873  59.927  11.890  1.00  0.00    -0.550 OA
ATOM      7  O   UNL     1      43.726  60.145  10.560  1.00  0.00    -0.550 OA
ENDBRANCH   4   5
ENDBRANCH   3   4
ENDBRANCH   2   3
ENDBRANCH   1   2
BRANCH   1   8
ATOM      8  C   UNL     1      42.796  63.596  12.308  1.00  0.00     0.000 C 
BRANCH   8   9
ATOM      9  C   UNL     1      42.316  63.715  10.849  1.00  0.00     0.000 C 
BRANCH   9  10
ATOM     10  C   UNL     1      42.863  64.936  10.083  1.00  0.00     0.006 C 
BRANCH  10  11
ATOM     11  C   UNL     1      41.998  65.385   8.895  1.00  0.00     0.053 C 
BRANCH  11  12
ATOM     12  C   UNL     1      42.826  65.969   7.791  1.00  0.00     0.041 C 
ATOM     13  O   UNL     1      43.194  67.172   7.843  1.00  0.00    -0.550 OA
ATOM     14  O   UNL     1      43.217  65.176   6.720  1.00  0.00    -0.550 OA
ENDBRANCH  11  12
ENDBRANCH  10  11
ENDBRANCH   9  10
ENDBRANCH   8   9
ENDBRANCH   1   8
TORSDOF 9
ENDMDL
MODEL 7
REMARK VINA RESULT:    -3.775      2.026      3.761
REMARK INTER + INTRA:          -6.838
REMARK INTER:                  -5.869
REMARK INTRA:                  -0.969
REMARK UNBOUND:                -1.077
REMARK SMILES O=C([O-])CCCCCCCCC(=O)[O-]
REMARK SMILES IDX 7 1 6 2 5 3 4 4 2 5 1 6 3 7 8 8 9 9 10 10 11 11 12 12 13 13
REMARK SMILES IDX 14 14
REMARK H PARENT
REMARK Flexibility Score: inf
ROOT
ATOM      1  C   UNL     1      43.901  63.782  12.141  1.00  0.00     0.000 C 
ENDROOT
BRANCH   1   2
ATOM      2  C   UNL     1      42.418  63.501  12.423  1.00  0.00     0.000 C 
BRANCH   2   3
ATOM      3  C   UNL     1      41.662  63.010  11.178  1.00  0.00     0.006 C 
BRANCH   3   4
ATOM      4  C   UNL     1      42.379  63.443   9.897  1.00  0.00     0.053 C 
BRANCH   4   5
ATOM      5  C   UNL     1      41.662  64.589   9.256  1.00  0.00     0.041 C 
ATOM      6  O   UNL     1      40.406  64.579   9.164  1.00  0.00    -0.550 OA
ATOM      7  O   UNL     1      42.376  65.692   8.804  1.00  0.00    -0.550 OA
ENDBRANCH   4   5
ENDBRANCH   3   4
ENDBRANCH   2   3
ENDBRANCH   1   2
BRANCH   1   8
ATOM      8  C   UNL     1      44.840  62.901  12.983  1.00  0.00     0.000 C 
BRANCH   8   9
ATOM      9  C   UNL     1      44.145  61.643  13.534  1.00  0.00     0.000 C 
BRANCH   9  10
ATOM     10  C   UNL     1      44.589  60.318  12.883  1.00  0.00     0.006 C 
BRANCH  10  11
ATOM     11  C   UNL     1      44.928  60.422  11.388  1.00  0.00     0.053 C 
BRANCH  11  12
ATOM     12  C   UNL     1      43.769  60.028  10.523  1.00  0.00     0.041 C 
ATOM     13  O   UNL     1      43.825  60.188   9.276  1.00  0.00    -0.550 OA
ATOM     14  O   UNL     1      42.640  59.454  11.093  1.00  0.00    -0.550 OA
ENDBRANCH  11  12
ENDBRANCH  10  11
ENDBRANCH   9  10
ENDBRANCH   8   9
ENDBRANCH   1   8
TORSDOF 9
ENDMDL
MODEL 8
REMARK VINA RESULT:    -3.768      1.723      4.229
REMARK INTER + INTRA:          -6.828
REMARK INTER:                  -6.224
REMARK INTRA:                  -0.604
REMARK UNBOUND:                -1.077
REMARK SMILES O=C([O-])CCCCCCCCC(=O)[O-]
REMARK SMILES IDX 7 1 6 2 5 3 4 4 2 5 1 6 3 7 8 8 9 9 10 10 11 11 12 12 13 13
REMARK SMILES IDX 14 14
REMARK H PARENT
REMARK Flexibility Score: inf
ROOT
ATOM      1  C   UNL     1      44.615  59.985   9.974  1.00  0.00     0.000 C 
ENDROOT
BRANCH   1   2
ATOM      2  C   UNL     1      44.502  60.749   8.646  1.00  0.00     0.000 C 
BRANCH   2   3
ATOM      3  C   UNL     1      43.423  61.843   8.684  1.00  0.00     0.006 C 
BRANCH   3   4
ATOM      4  C   UNL     1      43.087  62.331   7.273  1.00  0.00     0.053 C 
BRANCH   4   5
ATOM      5  C   UNL     1      42.696  63.775   7.296  1.00  0.00     0.041 C 
ATOM      6  O   UNL     1      43.263  64.597   6.528  1.00  0.00    -0.550 OA
ATOM      7  O   UNL     1      41.670  64.205   8.129  1.00  0.00    -0.550 OA
ENDBRANCH   4   5
ENDBRANCH   3   4
ENDBRANCH   2   3
ENDBRANCH   1   2
BRANCH   1   8
ATOM      8  C   UNL     1      45.270  60.824  11.084  1.00  0.00     0.000 C 
BRANCH   8   9
ATOM      9  C   UNL     1      44.599  60.627  12.456  1.00  0.00     0.000 C 
BRANCH   9  10
ATOM     10  C   UNL     1      44.545  61.890  13.340  1.00  0.00     0.006 C 
BRANCH  10  11
ATOM     11  C   UNL     1      44.634  63.215  12.566  1.00  0.00     0.053 C 
BRANCH  11  12
ATOM     12  C   UNL     1      43.283  63.706  12.142  1.00  0.00     0.041 C 
ATOM     13  O   UNL     1      43.165  64.428  11.117  1.00  0.00    -0.550 OA
ATOM     14  O   UNL     1      42.153  63.340  12.860  1.00  0.00    -0.550 OA
ENDBRANCH  11  12
ENDBRANCH  10  11
ENDBRANCH   9  10
ENDBRANCH   8   9
ENDBRANCH   1   8
TORSDOF 9
ENDMDL
MODEL 9
REMARK VINA RESULT:    -3.745      1.888      4.037
REMARK INTER + INTRA:          -6.792
REMARK INTER:                  -5.746
REMARK INTRA:                  -1.046
REMARK UNBOUND:                -1.077
REMARK SMILES O=C([O-])CCCCCCCCC(=O)[O-]
REMARK SMILES IDX 7 1 6 2 5 3 4 4 2 5 1 6 3 7 8 8 9 9 10 10 11 11 12 12 13 13
REMARK SMILES IDX 14 14
REMARK H PARENT
REMARK Flexibility Score: inf
ROOT
ATOM      1  C   UNL     1      43.130  63.517  12.391  1.00  0.00     0.000 C 
ENDROOT
BRANCH   1   2
ATOM      2  C   UNL     1      42.870  63.985  10.951  1.00  0.00     0.000 C 
BRANCH   2   3
ATOM      3  C   UNL     1      41.774  63.164  10.253  1.00  0.00     0.006 C 
BRANCH   3   4
ATOM      4  C   UNL     1      41.230  62.076  11.181  1.00  0.00     0.053 C 
BRANCH   4   5
ATOM      5  C   UNL     1      39.773  62.291  11.445  1.00  0.00     0.041 C 
ATOM      6  O   UNL     1      39.292  63.455  11.431  1.00  0.00    -0.550 OA
ATOM      7  O   UNL     1      38.935  61.203  11.657  1.00  0.00    -0.550 OA
ENDBRANCH   4   5
ENDBRANCH   3   4
ENDBRANCH   2   3
ENDBRANCH   1   2
BRANCH   1   8
ATOM      8  C   UNL     1      44.625  63.298  12.681  1.00  0.00     0.000 C 
BRANCH   8   9
ATOM      9  C   UNL     1      44.922  61.904  13.265  1.00  0.00     0.000 C 
BRANCH   9  10
ATOM     10  C   UNL     1      44.602  60.724  12.325  1.00  0.00     0.006 C 
BRANCH  10  11
ATOM     11  C   UNL     1      45.283  60.801  10.949  1.00  0.00     0.053 C 
BRANCH  11  12
ATOM     12  C   UNL     1      44.348  60.420   9.841  1.00  0.00     0.041 C 
ATOM     13  O   UNL     1      43.500  59.506  10.014  1.00  0.00    -0.550 OA
ATOM     14  O   UNL     1      44.393  61.098   8.630  1.00  0.00    -0.550 OA
ENDBRANCH  11  12
ENDBRANCH  10  11
ENDBRANCH   9  10
ENDBRANCH   8   9
ENDBRANCH   1   8
TORSDOF 9
ENDMDL
