MODEL 1
REMARK VINA RESULT:    -4.351      0.000      0.000
REMARK INTER + INTRA:          -7.218
REMARK INTER:                  -6.640
REMARK INTRA:                  -0.578
REMARK UNBOUND:                -0.578
REMARK SMILES CCCCCCCCCCC(=O)[O-]
REMARK SMILES IDX 7 1 8 2 9 3 10 4 11 5 12 6 13 7 6 8 5 9 4 10 3 11 2 12 1 13
REMARK H PARENT
REMARK Flexibility Score: inf
ROOT
ATOM      1  C   UNL     1      50.411  33.857   3.104  1.00  0.00     0.000 C 
ENDROOT
BRANCH   1   2
ATOM      2  C   UNL     1      51.566  33.006   2.549  1.00  0.00     0.000 C 
BRANCH   2   3
ATOM      3  C   UNL     1      51.390  32.671   1.059  1.00  0.00     0.006 C 
BRANCH   3   4
ATOM      4  C   UNL     1      50.136  33.315   0.452  1.00  0.00     0.053 C 
BRANCH   4   5
ATOM      5  C   UNL     1      50.120  33.129  -1.032  1.00  0.00     0.041 C 
ATOM      6  O   UNL     1      49.424  32.217  -1.549  1.00  0.00    -0.550 OA
ATOM      7  O   UNL     1      50.836  33.994  -1.849  1.00  0.00    -0.550 OA
ENDBRANCH   4   5
ENDBRANCH   3   4
ENDBRANCH   2   3
ENDBRANCH   1   2
BRANCH   1   8
ATOM      8  C   UNL     1      49.923  33.365   4.477  1.00  0.00     0.000 C 
BRANCH   8   9
ATOM      9  C   UNL     1      50.932  32.426   5.160  1.00  0.00    -0.000 C 
BRANCH   9  10
ATOM     10  C   UNL     1      50.600  32.167   6.642  1.00  0.00    -0.000 C 
BRANCH  10  11
ATOM     11  C   UNL     1      49.156  32.512   7.060  1.00  0.00    -0.000 C 
BRANCH  11  12
ATOM     12  C   UNL     1      49.035  33.580   8.161  1.00  0.00    -0.003 C 
ATOM     13  C   UNL     1      49.965  34.772   7.939  1.00  0.00     0.004 C 
ENDBRANCH  11  12
ENDBRANCH  10  11
ENDBRANCH   9  10
ENDBRANCH   8   9
ENDBRANCH   1   8
TORSDOF 9
ENDMDL
MODEL 2
REMARK VINA RESULT:    -4.336      4.025      7.027
REMARK INTER + INTRA:          -7.196
REMARK INTER:                  -6.658
REMARK INTRA:                  -0.538
REMARK UNBOUND:                -0.578
REMARK SMILES CCCCCCCCCCC(=O)[O-]
REMARK SMILES IDX 7 1 8 2 9 3 10 4 11 5 12 6 13 7 6 8 5 9 4 10 3 11 2 12 1 13
REMARK H PARENT
REMARK Flexibility Score: inf
ROOT
ATOM      1  C   UNL     1      51.290  32.621   4.343  1.00  0.00     0.000 C 
ENDROOT
BRANCH   1   2
ATOM      2  C   UNL     1      50.849  32.025   5.692  1.00  0.00     0.000 C 
BRANCH   2   3
ATOM      3  C   UNL     1      49.390  32.362   6.036  1.00  0.00     0.006 C 
BRANCH   3   4
ATOM      4  C   UNL     1      49.134  32.409   7.549  1.00  0.00     0.053 C 
BRANCH   4   5
ATOM      5  C   UNL     1      48.998  33.825   8.012  1.00  0.00     0.041 C 
ATOM      6  O   UNL     1      48.208  34.112   8.949  1.00  0.00    -0.550 OA
ATOM      7  O   UNL     1      49.779  34.821   7.442  1.00  0.00    -0.550 OA
ENDBRANCH   4   5
ENDBRANCH   3   4
ENDBRANCH   2   3
ENDBRANCH   1   2
BRANCH   1   8
ATOM      8  C   UNL     1      50.351  33.738   3.857  1.00  0.00     0.000 C 
BRANCH   8   9
ATOM      9  C   UNL     1      50.343  33.877   2.325  1.00  0.00    -0.000 C 
BRANCH   9  10
ATOM     10  C   UNL     1      51.559  33.207   1.658  1.00  0.00    -0.000 C 
BRANCH  10  11
ATOM     11  C   UNL     1      51.254  32.445   0.353  1.00  0.00    -0.000 C 
BRANCH  11  12
ATOM     12  C   UNL     1      49.867  32.720  -0.252  1.00  0.00    -0.003 C 
ATOM     13  C   UNL     1      49.699  32.131  -1.652  1.00  0.00     0.004 C 
ENDBRANCH  11  12
ENDBRANCH  10  11
ENDBRANCH   9  10
ENDBRANCH   8   9
ENDBRANCH   1   8
TORSDOF 9
ENDMDL
MODEL 3
REMARK VINA RESULT:    -4.287     14.207     16.799
REMARK INTER + INTRA:          -7.120
REMARK INTER:                  -6.062
REMARK INTRA:                  -1.058
REMARK UNBOUND:                -0.578
REMARK SMILES CCCCCCCCCCC(=O)[O-]
REMARK SMILES IDX 7 1 8 2 9 3 10 4 11 5 12 6 13 7 6 8 5 9 4 10 3 11 2 12 1 13
REMARK H PARENT
REMARK Flexibility Score: inf
ROOT
ATOM      1  C   UNL     1      51.283  46.365  12.311  1.00  0.00     0.000 C 
ENDROOT
BRANCH   1   2
ATOM      2  C   UNL     1      52.489  45.973  13.183  1.00  0.00     0.000 C 
BRANCH   2   3
ATOM      3  C   UNL     1      53.815  46.006  12.405  1.00  0.00     0.006 C 
BRANCH   3   4
ATOM      4  C   UNL     1      54.434  44.612  12.233  1.00  0.00     0.053 C 
BRANCH   4   5
ATOM      5  C   UNL     1      54.271  44.140  10.822  1.00  0.00     0.041 C 
ATOM      6  O   UNL     1      54.347  44.957   9.868  1.00  0.00    -0.550 OA
ATOM      7  O   UNL     1      54.084  42.790  10.559  1.00  0.00    -0.550 OA
ENDBRANCH   4   5
ENDBRANCH   3   4
ENDBRANCH   2   3
ENDBRANCH   1   2
BRANCH   1   8
ATOM      8  C   UNL     1      51.704  46.933  10.944  1.00  0.00     0.000 C 
BRANCH   8   9
ATOM      9  C   UNL     1      50.746  48.026  10.440  1.00  0.00    -0.000 C 
BRANCH   9  10
ATOM     10  C   UNL     1      50.156  48.876  11.581  1.00  0.00    -0.000 C 
BRANCH  10  11
ATOM     11  C   UNL     1      51.050  50.035  12.066  1.00  0.00    -0.000 C 
BRANCH  11  12
ATOM     12  C   UNL     1      51.418  49.991  13.559  1.00  0.00    -0.003 C 
ATOM     13  C   UNL     1      52.898  49.695  13.800  1.00  0.00     0.004 C 
ENDBRANCH  11  12
ENDBRANCH  10  11
ENDBRANCH   9  10
ENDBRANCH   8   9
ENDBRANCH   1   8
TORSDOF 9
ENDMDL
MODEL 4
REMARK VINA RESULT:    -4.235     14.096     16.386
REMARK INTER + INTRA:          -7.042
REMARK INTER:                  -6.219
REMARK INTRA:                  -0.823
REMARK UNBOUND:                -0.578
REMARK SMILES CCCCCCCCCCC(=O)[O-]
REMARK SMILES IDX 7 1 8 2 9 3 10 4 11 5 12 6 13 7 6 8 5 9 4 10 3 11 2 12 1 13
REMARK H PARENT
REMARK Flexibility Score: inf
ROOT
ATOM      1  C   UNL     1      51.542  46.687  12.916  1.00  0.00     0.000 C 
ENDROOT
BRANCH   1   2
ATOM      2  C   UNL     1      52.746  45.883  13.437  1.00  0.00     0.000 C 
BRANCH   2   3
ATOM      3  C   UNL     1      53.913  45.853  12.437  1.00  0.00     0.006 C 
BRANCH   3   4
ATOM      4  C   UNL     1      54.461  44.438  12.209  1.00  0.00     0.053 C 
BRANCH   4   5
ATOM      5  C   UNL     1      54.266  44.026  10.784  1.00  0.00     0.041 C 
ATOM      6  O   UNL     1      54.187  44.897   9.878  1.00  0.00    -0.550 OA
ATOM      7  O   UNL     1      54.221  42.679  10.450  1.00  0.00    -0.550 OA
ENDBRANCH   4   5
ENDBRANCH   3   4
ENDBRANCH   2   3
ENDBRANCH   1   2
BRANCH   1   8
ATOM      8  C   UNL     1      51.261  46.429  11.426  1.00  0.00     0.000 C 
BRANCH   8   9
ATOM      9  C   UNL     1      51.122  47.730  10.618  1.00  0.00    -0.000 C 
BRANCH   9  10
ATOM     10  C   UNL     1      50.927  48.970  11.510  1.00  0.00    -0.000 C 
BRANCH  10  11
ATOM     11  C   UNL     1      49.482  49.502  11.587  1.00  0.00    -0.000 C 
BRANCH  11  12
ATOM     12  C   UNL     1      48.456  48.720  10.749  1.00  0.00    -0.003 C 
ATOM     13  C   UNL     1      47.593  47.779  11.589  1.00  0.00     0.004 C 
ENDBRANCH  11  12
ENDBRANCH  10  11
ENDBRANCH   9  10
ENDBRANCH   8   9
ENDBRANCH   1   8
TORSDOF 9
ENDMDL
MODEL 5
REMARK VINA RESULT:    -4.212     15.189     16.727
REMARK INTER + INTRA:          -7.006
REMARK INTER:                  -6.079
REMARK INTRA:                  -0.927
REMARK UNBOUND:                -0.578
REMARK SMILES CCCCCCCCCCC(=O)[O-]
REMARK SMILES IDX 7 1 8 2 9 3 10 4 11 5 12 6 13 7 6 8 5 9 4 10 3 11 2 12 1 13
REMARK H PARENT
REMARK Flexibility Score: inf
ROOT
ATOM      1  C   UNL     1      51.830  46.720  10.563  1.00  0.00     0.000 C 
ENDROOT
BRANCH   1   2
ATOM      2  C   UNL     1      51.933  46.491  12.082  1.00  0.00     0.000 C 
BRANCH   2   3
ATOM      3  C   UNL     1      53.364  46.677  12.611  1.00  0.00     0.006 C 
BRANCH   3   4
ATOM      4  C   UNL     1      54.420  46.031  11.704  1.00  0.00     0.053 C 
BRANCH   4   5
ATOM      5  C   UNL     1      54.530  44.567  11.992  1.00  0.00     0.041 C 
ATOM      6  O   UNL     1      54.738  44.167  13.168  1.00  0.00    -0.550 OA
ATOM      7  O   UNL     1      54.355  43.642  10.972  1.00  0.00    -0.550 OA
ENDBRANCH   4   5
ENDBRANCH   3   4
ENDBRANCH   2   3
ENDBRANCH   1   2
BRANCH   1   8
ATOM      8  C   UNL     1      51.013  47.974  10.210  1.00  0.00     0.000 C 
BRANCH   8   9
ATOM      9  C   UNL     1      50.845  48.925  11.408  1.00  0.00    -0.000 C 
BRANCH   9  10
ATOM     10  C   UNL     1      49.385  49.369  11.618  1.00  0.00    -0.000 C 
BRANCH  10  11
ATOM     11  C   UNL     1      48.318  48.365  11.138  1.00  0.00    -0.000 C 
BRANCH  11  12
ATOM     12  C   UNL     1      47.587  47.608  12.260  1.00  0.00    -0.003 C 
ATOM     13  C   UNL     1      48.296  46.317  12.669  1.00  0.00     0.004 C 
ENDBRANCH  11  12
ENDBRANCH  10  11
ENDBRANCH   9  10
ENDBRANCH   8   9
ENDBRANCH   1   8
TORSDOF 9
ENDMDL
MODEL 6
REMARK VINA RESULT:    -4.116      1.593      2.562
REMARK INTER + INTRA:          -6.860
REMARK INTER:                  -6.493
REMARK INTRA:                  -0.367
REMARK UNBOUND:                -0.578
REMARK SMILES CCCCCCCCCCC(=O)[O-]
REMARK SMILES IDX 7 1 8 2 9 3 10 4 11 5 12 6 13 7 6 8 5 9 4 10 3 11 2 12 1 13
REMARK H PARENT
REMARK Flexibility Score: inf
ROOT
ATOM      1  C   UNL     1      51.047  32.307   5.468  1.00  0.00     0.000 C 
ENDROOT
BRANCH   1   2
ATOM      2  C   UNL     1      50.695  33.428   4.475  1.00  0.00     0.000 C 
BRANCH   2   3
ATOM      3  C   UNL     1      51.284  33.183   3.076  1.00  0.00     0.006 C 
BRANCH   3   4
ATOM      4  C   UNL     1      50.501  33.902   1.969  1.00  0.00     0.053 C 
BRANCH   4   5
ATOM      5  C   UNL     1      50.643  33.171   0.671  1.00  0.00     0.041 C 
ATOM      6  O   UNL     1      51.404  32.171   0.587  1.00  0.00    -0.550 OA
ATOM      7  O   UNL     1      49.898  33.564  -0.433  1.00  0.00    -0.550 OA
ENDBRANCH   4   5
ENDBRANCH   3   4
ENDBRANCH   2   3
ENDBRANCH   1   2
BRANCH   1   8
ATOM      8  C   UNL     1      50.157  32.331   6.723  1.00  0.00     0.000 C 
BRANCH   8   9
ATOM      9  C   UNL     1      49.248  33.571   6.777  1.00  0.00    -0.000 C 
BRANCH   9  10
ATOM     10  C   UNL     1      48.948  34.030   8.216  1.00  0.00    -0.000 C 
BRANCH  10  11
ATOM     11  C   UNL     1      50.006  34.962   8.841  1.00  0.00    -0.000 C 
BRANCH  11  12
ATOM     12  C   UNL     1      49.764  35.324  10.317  1.00  0.00    -0.003 C 
ATOM     13  C   UNL     1      48.281  35.395  10.677  1.00  0.00     0.004 C 
ENDBRANCH  11  12
ENDBRANCH  10  11
ENDBRANCH   9  10
ENDBRANCH   8   9
ENDBRANCH   1   8
TORSDOF 9
ENDMDL
MODEL 7
REMARK VINA RESULT:    -4.106      3.755      6.685
REMARK INTER + INTRA:          -6.845
REMARK INTER:                  -5.991
REMARK INTRA:                  -0.854
REMARK UNBOUND:                -0.578
REMARK SMILES CCCCCCCCCCC(=O)[O-]
REMARK SMILES IDX 7 1 8 2 9 3 10 4 11 5 12 6 13 7 6 8 5 9 4 10 3 11 2 12 1 13
REMARK H PARENT
REMARK Flexibility Score: inf
ROOT
ATOM      1  C   UNL     1      50.385  33.972   2.081  1.00  0.00     0.000 C 
ENDROOT
BRANCH   1   2
ATOM      2  C   UNL     1      51.398  33.078   2.818  1.00  0.00     0.000 C 
BRANCH   2   3
ATOM      3  C   UNL     1      51.043  32.883   4.301  1.00  0.00     0.006 C 
BRANCH   3   4
ATOM      4  C   UNL     1      49.710  33.542   4.682  1.00  0.00     0.053 C 
BRANCH   4   5
ATOM      5  C   UNL     1      49.526  33.526   6.167  1.00  0.00     0.041 C 
ATOM      6  O   UNL     1      49.667  34.584   6.834  1.00  0.00    -0.550 OA
ATOM      7  O   UNL     1      49.151  32.353   6.808  1.00  0.00    -0.550 OA
ENDBRANCH   4   5
ENDBRANCH   3   4
ENDBRANCH   2   3
ENDBRANCH   1   2
BRANCH   1   8
ATOM      8  C   UNL     1      50.020  33.426   0.690  1.00  0.00     0.000 C 
BRANCH   8   9
ATOM      9  C   UNL     1      51.093  32.477   0.129  1.00  0.00    -0.000 C 
BRANCH   9  10
ATOM     10  C   UNL     1      51.783  33.035  -1.130  1.00  0.00    -0.000 C 
BRANCH  10  11
ATOM     11  C   UNL     1      53.299  33.282  -0.991  1.00  0.00    -0.000 C 
BRANCH  11  12
ATOM     12  C   UNL     1      53.688  34.411  -0.021  1.00  0.00    -0.003 C 
ATOM     13  C   UNL     1      54.563  33.928   1.135  1.00  0.00     0.004 C 
ENDBRANCH  11  12
ENDBRANCH  10  11
ENDBRANCH   9  10
ENDBRANCH   8   9
ENDBRANCH   1   8
TORSDOF 9
ENDMDL
MODEL 8
REMARK VINA RESULT:    -4.024      3.805      7.071
REMARK INTER + INTRA:          -6.720
REMARK INTER:                  -6.064
REMARK INTRA:                  -0.656
REMARK UNBOUND:                -0.578
REMARK SMILES CCCCCCCCCCC(=O)[O-]
REMARK SMILES IDX 7 1 8 2 9 3 10 4 11 5 12 6 13 7 6 8 5 9 4 10 3 11 2 12 1 13
REMARK H PARENT
REMARK Flexibility Score: inf
ROOT
ATOM      1  C   UNL     1      51.402  33.380   2.175  1.00  0.00     0.000 C 
ENDROOT
BRANCH   1   2
ATOM      2  C   UNL     1      51.244  32.993   3.656  1.00  0.00     0.000 C 
BRANCH   2   3
ATOM      3  C   UNL     1      49.969  33.577   4.286  1.00  0.00     0.006 C 
BRANCH   3   4
ATOM      4  C   UNL     1      49.420  32.708   5.425  1.00  0.00     0.053 C 
BRANCH   4   5
ATOM      5  C   UNL     1      49.741  33.323   6.752  1.00  0.00     0.041 C 
ATOM      6  O   UNL     1      50.051  32.592   7.729  1.00  0.00    -0.550 OA
ATOM      7  O   UNL     1      49.747  34.703   6.895  1.00  0.00    -0.550 OA
ENDBRANCH   4   5
ENDBRANCH   3   4
ENDBRANCH   2   3
ENDBRANCH   1   2
BRANCH   1   8
ATOM      8  C   UNL     1      50.064  33.763   1.520  1.00  0.00     0.000 C 
BRANCH   8   9
ATOM      9  C   UNL     1      49.825  33.024   0.193  1.00  0.00    -0.000 C 
BRANCH   9  10
ATOM     10  C   UNL     1      50.951  32.031  -0.149  1.00  0.00    -0.000 C 
BRANCH  10  11
ATOM     11  C   UNL     1      51.732  32.343  -1.442  1.00  0.00    -0.000 C 
BRANCH  11  12
ATOM     12  C   UNL     1      52.252  33.787  -1.555  1.00  0.00    -0.003 C 
ATOM     13  C   UNL     1      51.654  34.545  -2.740  1.00  0.00     0.004 C 
ENDBRANCH  11  12
ENDBRANCH  10  11
ENDBRANCH   9  10
ENDBRANCH   8   9
ENDBRANCH   1   8
TORSDOF 9
ENDMDL
MODEL 9
REMARK VINA RESULT:    -4.008      4.888      7.605
REMARK INTER + INTRA:          -6.695
REMARK INTER:                  -6.263
REMARK INTRA:                  -0.432
REMARK UNBOUND:                -0.578
REMARK SMILES CCCCCCCCCCC(=O)[O-]
REMARK SMILES IDX 7 1 8 2 9 3 10 4 11 5 12 6 13 7 6 8 5 9 4 10 3 11 2 12 1 13
REMARK H PARENT
REMARK Flexibility Score: inf
ROOT
ATOM      1  C   UNL     1      49.723  32.230   5.753  1.00  0.00     0.000 C 
ENDROOT
BRANCH   1   2
ATOM      2  C   UNL     1      49.735  32.732   7.208  1.00  0.00     0.000 C 
BRANCH   2   3
ATOM      3  C   UNL     1      49.340  34.213   7.324  1.00  0.00     0.006 C 
BRANCH   3   4
ATOM      4  C   UNL     1      50.053  34.927   8.481  1.00  0.00     0.053 C 
BRANCH   4   5
ATOM      5  C   UNL     1      49.146  35.033   9.666  1.00  0.00     0.041 C 
ATOM      6  O   UNL     1      49.554  35.571  10.729  1.00  0.00    -0.550 OA
ATOM      7  O   UNL     1      47.835  34.583   9.581  1.00  0.00    -0.550 OA
ENDBRANCH   4   5
ENDBRANCH   3   4
ENDBRANCH   2   3
ENDBRANCH   1   2
BRANCH   1   8
ATOM      8  C   UNL     1      49.674  33.381   4.733  1.00  0.00     0.000 C 
BRANCH   8   9
ATOM      9  C   UNL     1      50.913  33.415   3.822  1.00  0.00    -0.000 C 
BRANCH   9  10
ATOM     10  C   UNL     1      50.597  33.920   2.402  1.00  0.00    -0.000 C 
BRANCH  10  11
ATOM     11  C   UNL     1      51.149  33.047   1.257  1.00  0.00    -0.000 C 
BRANCH  11  12
ATOM     12  C   UNL     1      52.601  32.573   1.443  1.00  0.00    -0.003 C 
ATOM     13  C   UNL     1      53.629  33.640   1.066  1.00  0.00     0.004 C 
ENDBRANCH  11  12
ENDBRANCH  10  11
ENDBRANCH   9  10
ENDBRANCH   8   9
ENDBRANCH   1   8
TORSDOF 9
ENDMDL
