MODEL 1
REMARK VINA RESULT:    -6.204      0.000      0.000
REMARK INTER + INTRA:          -9.313
REMARK INTER:                  -8.380
REMARK INTRA:                  -0.933
REMARK UNBOUND:                -0.933
REMARK SMILES CC(=O)CCC=C(C)CCC=C(C)C
REMARK SMILES IDX 7 1 6 2 8 3 9 4 10 5 11 6 13 7 12 8 14 9 5 10 4 11 2 12 3 13
REMARK SMILES IDX 1 14
REMARK H PARENT
REMARK Flexibility Score: inf
ROOT
ATOM      1  C   UNL     1     -10.927 -16.320  29.514  1.00  0.00    -0.077 C 
ATOM      2  C   UNL     1     -11.499 -16.453  30.734  1.00  0.00    -0.028 C 
ATOM      3  C   UNL     1      -9.904 -17.306  29.001  1.00  0.00     0.039 C 
ENDROOT
BRANCH   1   4
ATOM      4  C   UNL     1     -11.310 -15.141  28.647  1.00  0.00     0.034 C 
BRANCH   4   5
ATOM      5  C   UNL     1     -12.751 -15.281  28.145  1.00  0.00     0.032 C 
BRANCH   5   6
ATOM      6  C   UNL     1     -13.441 -13.940  28.119  1.00  0.00    -0.028 C 
ATOM      7  C   UNL     1     -14.266 -14.139  30.475  1.00  0.00     0.039 C 
ATOM      8  C   UNL     1     -14.104 -13.402  29.166  1.00  0.00    -0.080 C 
ATOM      9  C   UNL     1     -14.712 -12.032  29.006  1.00  0.00     0.039 C 
ENDBRANCH   5   6
ENDBRANCH   4   5
ENDBRANCH   1   4
BRANCH   2  10
ATOM     10  C   UNL     1     -11.238 -17.597  31.681  1.00  0.00     0.035 C 
BRANCH  10  11
ATOM     11  C   UNL     1     -12.427 -18.567  31.697  1.00  0.00     0.079 C 
BRANCH  11  12
ATOM     12  C   UNL     1     -12.256 -19.820  30.861  1.00  0.00     0.130 C 
ATOM     13  O   UNL     1     -11.830 -20.821  31.418  1.00  0.00    -0.300 OA
ATOM     14  C   UNL     1     -12.573 -19.921  29.391  1.00  0.00     0.087 C 
ENDBRANCH  11  12
ENDBRANCH  10  11
ENDBRANCH   2  10
TORSDOF 6
ENDMDL
MODEL 2
REMARK VINA RESULT:    -6.042      1.189      1.994
REMARK INTER + INTRA:          -9.095
REMARK INTER:                  -8.307
REMARK INTRA:                  -0.787
REMARK UNBOUND:                -0.933
REMARK SMILES CC(=O)CCC=C(C)CCC=C(C)C
REMARK SMILES IDX 7 1 6 2 8 3 9 4 10 5 11 6 13 7 12 8 14 9 5 10 4 11 2 12 3 13
REMARK SMILES IDX 1 14
REMARK H PARENT
REMARK Flexibility Score: inf
ROOT
ATOM      1  C   UNL     1     -11.831 -17.386  27.957  1.00  0.00    -0.077 C 
ATOM      2  C   UNL     1     -12.673 -18.313  28.469  1.00  0.00    -0.028 C 
ATOM      3  C   UNL     1     -10.345 -17.634  27.841  1.00  0.00     0.039 C 
ENDROOT
BRANCH   1   4
ATOM      4  C   UNL     1     -12.391 -16.055  27.503  1.00  0.00     0.034 C 
BRANCH   4   5
ATOM      5  C   UNL     1     -12.197 -14.987  28.584  1.00  0.00     0.032 C 
BRANCH   5   6
ATOM      6  C   UNL     1     -13.209 -13.879  28.428  1.00  0.00    -0.028 C 
ATOM      7  C   UNL     1     -14.196 -14.243  30.701  1.00  0.00     0.039 C 
ATOM      8  C   UNL     1     -14.097 -13.517  29.380  1.00  0.00    -0.080 C 
ATOM      9  C   UNL     1     -15.023 -12.361  29.097  1.00  0.00     0.039 C 
ENDBRANCH   5   6
ENDBRANCH   4   5
ENDBRANCH   1   4
BRANCH   2  10
ATOM     10  C   UNL     1     -12.256 -19.690  28.923  1.00  0.00     0.035 C 
BRANCH  10  11
ATOM     11  C   UNL     1     -12.388 -19.820  30.446  1.00  0.00     0.079 C 
BRANCH  11  12
ATOM     12  C   UNL     1     -11.715 -18.729  31.254  1.00  0.00     0.130 C 
ATOM     13  O   UNL     1     -10.511 -18.820  31.440  1.00  0.00    -0.300 OA
ATOM     14  C   UNL     1     -12.425 -17.538  31.846  1.00  0.00     0.087 C 
ENDBRANCH  11  12
ENDBRANCH  10  11
ENDBRANCH   2  10
TORSDOF 6
ENDMDL
MODEL 3
REMARK VINA RESULT:    -5.908      1.961      5.150
REMARK INTER + INTRA:          -8.913
REMARK INTER:                  -8.217
REMARK INTRA:                  -0.696
REMARK UNBOUND:                -0.933
REMARK SMILES CC(=O)CCC=C(C)CCC=C(C)C
REMARK SMILES IDX 7 1 6 2 8 3 9 4 10 5 11 6 13 7 12 8 14 9 5 10 4 11 2 12 3 13
REMARK SMILES IDX 1 14
REMARK H PARENT
REMARK Flexibility Score: inf
ROOT
ATOM      1  C   UNL     1     -13.379 -14.955  30.461  1.00  0.00    -0.077 C 
ATOM      2  C   UNL     1     -12.432 -15.435  29.620  1.00  0.00    -0.028 C 
ATOM      3  C   UNL     1     -14.295 -13.821  30.066  1.00  0.00     0.039 C 
ENDROOT
BRANCH   1   4
ATOM      4  C   UNL     1     -13.512 -15.562  31.840  1.00  0.00     0.034 C 
BRANCH   4   5
ATOM      5  C   UNL     1     -12.297 -16.437  32.169  1.00  0.00     0.032 C 
BRANCH   5   6
ATOM      6  C   UNL     1     -12.590 -17.888  31.879  1.00  0.00    -0.028 C 
ATOM      7  C   UNL     1     -10.345 -18.301  30.849  1.00  0.00     0.039 C 
ATOM      8  C   UNL     1     -11.713 -18.744  31.309  1.00  0.00    -0.080 C 
ATOM      9  C   UNL     1     -12.132 -20.179  31.117  1.00  0.00     0.039 C 
ENDBRANCH   5   6
ENDBRANCH   4   5
ENDBRANCH   1   4
BRANCH   2  10
ATOM     10  C   UNL     1     -12.216 -14.950  28.208  1.00  0.00     0.035 C 
BRANCH  10  11
ATOM     11  C   UNL     1     -12.698 -15.998  27.197  1.00  0.00     0.079 C 
BRANCH  11  12
ATOM     12  C   UNL     1     -11.747 -17.153  26.953  1.00  0.00     0.130 C 
ATOM     13  O   UNL     1     -11.855 -18.139  27.667  1.00  0.00    -0.300 OA
ATOM     14  C   UNL     1     -10.674 -17.172  25.894  1.00  0.00     0.087 C 
ENDBRANCH  11  12
ENDBRANCH  10  11
ENDBRANCH   2  10
TORSDOF 6
ENDMDL
MODEL 4
REMARK VINA RESULT:    -5.868      2.851      5.730
REMARK INTER + INTRA:          -8.859
REMARK INTER:                  -8.040
REMARK INTRA:                  -0.819
REMARK UNBOUND:                -0.933
REMARK SMILES CC(=O)CCC=C(C)CCC=C(C)C
REMARK SMILES IDX 7 1 6 2 8 3 9 4 10 5 11 6 13 7 12 8 14 9 5 10 4 11 2 12 3 13
REMARK SMILES IDX 1 14
REMARK H PARENT
REMARK Flexibility Score: inf
ROOT
ATOM      1  C   UNL     1     -11.128 -16.333  27.841  1.00  0.00    -0.077 C 
ATOM      2  C   UNL     1     -11.727 -15.407  28.626  1.00  0.00    -0.028 C 
ATOM      3  C   UNL     1     -11.661 -16.685  26.472  1.00  0.00     0.039 C 
ENDROOT
BRANCH   1   4
ATOM      4  C   UNL     1      -9.897 -17.047  28.356  1.00  0.00     0.034 C 
BRANCH   4   5
ATOM      5  C   UNL     1      -9.954 -17.196  29.880  1.00  0.00     0.032 C 
BRANCH   5   6
ATOM      6  C   UNL     1     -10.503 -18.548  30.265  1.00  0.00    -0.028 C 
ATOM      7  C   UNL     1     -12.374 -17.581  31.620  1.00  0.00     0.039 C 
ATOM      8  C   UNL     1     -11.604 -18.736  31.025  1.00  0.00    -0.080 C 
ATOM      9  C   UNL     1     -12.058 -20.148  31.295  1.00  0.00     0.039 C 
ENDBRANCH   5   6
ENDBRANCH   4   5
ENDBRANCH   1   4
BRANCH   2  10
ATOM     10  C   UNL     1     -12.933 -14.596  28.222  1.00  0.00     0.035 C 
BRANCH  10  11
ATOM     11  C   UNL     1     -13.676 -14.079  29.462  1.00  0.00     0.079 C 
BRANCH  11  12
ATOM     12  C   UNL     1     -14.787 -13.085  29.188  1.00  0.00     0.130 C 
ATOM     13  O   UNL     1     -14.468 -11.962  28.828  1.00  0.00    -0.300 OA
ATOM     14  C   UNL     1     -16.258 -13.381  29.331  1.00  0.00     0.087 C 
ENDBRANCH  11  12
ENDBRANCH  10  11
ENDBRANCH   2  10
TORSDOF 6
ENDMDL
MODEL 5
REMARK VINA RESULT:    -5.789      1.273      3.109
REMARK INTER + INTRA:          -8.753
REMARK INTER:                  -7.879
REMARK INTRA:                  -0.873
REMARK UNBOUND:                -0.933
REMARK SMILES CC(=O)CCC=C(C)CCC=C(C)C
REMARK SMILES IDX 7 1 6 2 8 3 9 4 10 5 11 6 13 7 12 8 14 9 5 10 4 11 2 12 3 13
REMARK SMILES IDX 1 14
REMARK H PARENT
REMARK Flexibility Score: inf
ROOT
ATOM      1  C   UNL     1     -13.629 -15.139  31.229  1.00  0.00    -0.077 C 
ATOM      2  C   UNL     1     -12.705 -16.099  30.989  1.00  0.00    -0.028 C 
ATOM      3  C   UNL     1     -14.296 -14.993  32.577  1.00  0.00     0.039 C 
ENDROOT
BRANCH   1   4
ATOM      4  C   UNL     1     -14.018 -14.197  30.111  1.00  0.00     0.034 C 
BRANCH   4   5
ATOM      5  C   UNL     1     -12.895 -14.092  29.073  1.00  0.00     0.032 C 
BRANCH   5   6
ATOM      6  C   UNL     1     -13.212 -14.927  27.857  1.00  0.00    -0.028 C 
ATOM      7  C   UNL     1     -11.009 -16.120  27.905  1.00  0.00     0.039 C 
ATOM      8  C   UNL     1     -12.384 -15.860  27.336  1.00  0.00    -0.080 C 
ATOM      9  C   UNL     1     -12.852 -16.647  26.139  1.00  0.00     0.039 C 
ENDBRANCH   5   6
ENDBRANCH   4   5
ENDBRANCH   1   4
BRANCH   2  10
ATOM     10  C   UNL     1     -12.199 -17.076  32.020  1.00  0.00     0.035 C 
BRANCH  10  11
ATOM     11  C   UNL     1     -11.228 -18.079  31.384  1.00  0.00     0.079 C 
BRANCH  11  12
ATOM     12  C   UNL     1     -11.872 -19.289  30.737  1.00  0.00     0.130 C 
ATOM     13  O   UNL     1     -12.128 -20.246  31.452  1.00  0.00    -0.300 OA
ATOM     14  C   UNL     1     -12.219 -19.398  29.274  1.00  0.00     0.087 C 
ENDBRANCH  11  12
ENDBRANCH  10  11
ENDBRANCH   2  10
TORSDOF 6
ENDMDL
MODEL 6
REMARK VINA RESULT:    -5.783      1.569      2.544
REMARK INTER + INTRA:          -8.744
REMARK INTER:                  -7.983
REMARK INTRA:                  -0.760
REMARK UNBOUND:                -0.933
REMARK SMILES CC(=O)CCC=C(C)CCC=C(C)C
REMARK SMILES IDX 7 1 6 2 8 3 9 4 10 5 11 6 13 7 12 8 14 9 5 10 4 11 2 12 3 13
REMARK SMILES IDX 1 14
REMARK H PARENT
REMARK Flexibility Score: inf
ROOT
ATOM      1  C   UNL     1     -11.739 -16.533  32.115  1.00  0.00    -0.077 C 
ATOM      2  C   UNL     1     -12.269 -17.673  31.614  1.00  0.00    -0.028 C 
ATOM      3  C   UNL     1     -10.261 -16.397  32.400  1.00  0.00     0.039 C 
ENDROOT
BRANCH   1   4
ATOM      4  C   UNL     1     -12.655 -15.366  32.413  1.00  0.00     0.034 C 
BRANCH   4   5
ATOM      5  C   UNL     1     -13.973 -15.499  31.644  1.00  0.00     0.032 C 
BRANCH   5   6
ATOM      6  C   UNL     1     -14.284 -14.229  30.892  1.00  0.00    -0.028 C 
ATOM      7  C   UNL     1     -12.858 -14.851  28.929  1.00  0.00     0.039 C 
ATOM      8  C   UNL     1     -13.810 -13.935  29.661  1.00  0.00    -0.080 C 
ATOM      9  C   UNL     1     -14.240 -12.643  29.015  1.00  0.00     0.039 C 
ENDBRANCH   5   6
ENDBRANCH   4   5
ENDBRANCH   1   4
BRANCH   2  10
ATOM     10  C   UNL     1     -11.468 -18.895  31.237  1.00  0.00     0.035 C 
BRANCH  10  11
ATOM     11  C   UNL     1     -12.353 -19.918  30.514  1.00  0.00     0.079 C 
BRANCH  11  12
ATOM     12  C   UNL     1     -12.554 -19.673  29.031  1.00  0.00     0.130 C 
ATOM     13  O   UNL     1     -13.219 -20.485  28.406  1.00  0.00    -0.300 OA
ATOM     14  C   UNL     1     -11.992 -18.499  28.272  1.00  0.00     0.087 C 
ENDBRANCH  11  12
ENDBRANCH  10  11
ENDBRANCH   2  10
TORSDOF 6
ENDMDL
MODEL 7
REMARK VINA RESULT:    -5.775      2.495      4.940
REMARK INTER + INTRA:          -8.733
REMARK INTER:                  -7.740
REMARK INTRA:                  -0.993
REMARK UNBOUND:                -0.933
REMARK SMILES CC(=O)CCC=C(C)CCC=C(C)C
REMARK SMILES IDX 7 1 6 2 8 3 9 4 10 5 11 6 13 7 12 8 14 9 5 10 4 11 2 12 3 13
REMARK SMILES IDX 1 14
REMARK H PARENT
REMARK Flexibility Score: inf
ROOT
ATOM      1  C   UNL     1     -12.431 -19.579  29.239  1.00  0.00    -0.077 C 
ATOM      2  C   UNL     1     -11.598 -18.569  28.896  1.00  0.00    -0.028 C 
ATOM      3  C   UNL     1     -13.378 -20.207  28.243  1.00  0.00     0.039 C 
ENDROOT
BRANCH   1   4
ATOM      4  C   UNL     1     -12.426 -20.082  30.666  1.00  0.00     0.034 C 
BRANCH   4   5
ATOM      5  C   UNL     1     -11.773 -19.059  31.601  1.00  0.00     0.032 C 
BRANCH   5   6
ATOM      6  C   UNL     1     -12.754 -17.978  31.981  1.00  0.00    -0.028 C 
ATOM      7  C   UNL     1     -11.103 -16.130  31.622  1.00  0.00     0.039 C 
ATOM      8  C   UNL     1     -12.475 -16.656  31.971  1.00  0.00    -0.080 C 
ATOM      9  C   UNL     1     -13.570 -15.688  32.337  1.00  0.00     0.039 C 
ENDBRANCH   5   6
ENDBRANCH   4   5
ENDBRANCH   1   4
BRANCH   2  10
ATOM     10  C   UNL     1     -11.474 -17.998  27.505  1.00  0.00     0.035 C 
BRANCH  10  11
ATOM     11  C   UNL     1     -11.195 -16.491  27.562  1.00  0.00     0.079 C 
BRANCH  11  12
ATOM     12  C   UNL     1     -12.423 -15.602  27.574  1.00  0.00     0.130 C 
ATOM     13  O   UNL     1     -13.215 -15.716  26.651  1.00  0.00    -0.300 OA
ATOM     14  C   UNL     1     -12.736 -14.585  28.641  1.00  0.00     0.087 C 
ENDBRANCH  11  12
ENDBRANCH  10  11
ENDBRANCH   2  10
TORSDOF 6
ENDMDL
MODEL 8
REMARK VINA RESULT:    -5.728      1.484      3.239
REMARK INTER + INTRA:          -8.670
REMARK INTER:                  -8.178
REMARK INTRA:                  -0.492
REMARK UNBOUND:                -0.933
REMARK SMILES CC(=O)CCC=C(C)CCC=C(C)C
REMARK SMILES IDX 7 1 6 2 8 3 9 4 10 5 11 6 13 7 12 8 14 9 5 10 4 11 2 12 3 13
REMARK SMILES IDX 1 14
REMARK H PARENT
REMARK Flexibility Score: inf
ROOT
ATOM      1  C   UNL     1     -12.588 -15.040  27.967  1.00  0.00    -0.077 C 
ATOM      2  C   UNL     1     -11.386 -15.447  28.441  1.00  0.00    -0.028 C 
ATOM      3  C   UNL     1     -13.278 -15.749  26.826  1.00  0.00     0.039 C 
ENDROOT
BRANCH   1   4
ATOM      4  C   UNL     1     -13.250 -13.829  28.588  1.00  0.00     0.034 C 
BRANCH   4   5
ATOM      5  C   UNL     1     -13.938 -14.202  29.906  1.00  0.00     0.032 C 
BRANCH   5   6
ATOM      6  C   UNL     1     -13.236 -15.362  30.566  1.00  0.00    -0.028 C 
ATOM      7  C   UNL     1     -14.387 -15.015  32.764  1.00  0.00     0.039 C 
ATOM      8  C   UNL     1     -13.446 -15.755  31.843  1.00  0.00    -0.080 C 
ATOM      9  C   UNL     1     -12.700 -16.959  32.355  1.00  0.00     0.039 C 
ENDBRANCH   5   6
ENDBRANCH   4   5
ENDBRANCH   1   4
BRANCH   2  10
ATOM     10  C   UNL     1     -10.635 -16.656  27.941  1.00  0.00     0.035 C 
BRANCH  10  11
ATOM     11  C   UNL     1     -10.258 -17.578  29.108  1.00  0.00     0.079 C 
BRANCH  11  12
ATOM     12  C   UNL     1     -11.247 -18.687  29.408  1.00  0.00     0.130 C 
ATOM     13  O   UNL     1     -10.988 -19.444  30.331  1.00  0.00    -0.300 OA
ATOM     14  C   UNL     1     -12.527 -18.924  28.648  1.00  0.00     0.087 C 
ENDBRANCH  11  12
ENDBRANCH  10  11
ENDBRANCH   2  10
TORSDOF 6
ENDMDL
MODEL 9
REMARK VINA RESULT:    -5.713      2.866      5.891
REMARK INTER + INTRA:          -8.649
REMARK INTER:                  -7.870
REMARK INTRA:                  -0.779
REMARK UNBOUND:                -0.933
REMARK SMILES CC(=O)CCC=C(C)CCC=C(C)C
REMARK SMILES IDX 7 1 6 2 8 3 9 4 10 5 11 6 13 7 12 8 14 9 5 10 4 11 2 12 3 13
REMARK SMILES IDX 1 14
REMARK H PARENT
REMARK Flexibility Score: inf
ROOT
ATOM      1  C   UNL     1     -11.174 -16.108  30.086  1.00  0.00    -0.077 C 
ATOM      2  C   UNL     1     -11.979 -15.418  29.245  1.00  0.00    -0.028 C 
ATOM      3  C   UNL     1     -11.449 -16.187  31.569  1.00  0.00     0.039 C 
ENDROOT
BRANCH   1   4
ATOM      4  C   UNL     1      -9.954 -16.808  29.527  1.00  0.00     0.034 C 
BRANCH   4   5
ATOM      5  C   UNL     1     -10.049 -18.322  29.741  1.00  0.00     0.032 C 
BRANCH   5   6
ATOM      6  C   UNL     1     -11.194 -18.903  28.950  1.00  0.00    -0.028 C 
ATOM      7  C   UNL     1     -12.219 -20.017  30.945  1.00  0.00     0.039 C 
ATOM      8  C   UNL     1     -12.190 -19.646  29.481  1.00  0.00    -0.080 C 
ATOM      9  C   UNL     1     -13.292 -20.127  28.572  1.00  0.00     0.039 C 
ENDBRANCH   5   6
ENDBRANCH   4   5
ENDBRANCH   1   4
BRANCH   2  10
ATOM     10  C   UNL     1     -13.243 -14.708  29.661  1.00  0.00     0.035 C 
BRANCH  10  11
ATOM     11  C   UNL     1     -13.625 -13.637  28.631  1.00  0.00     0.079 C 
BRANCH  11  12
ATOM     12  C   UNL     1     -14.817 -12.775  28.999  1.00  0.00     0.130 C 
ATOM     13  O   UNL     1     -14.651 -11.565  29.041  1.00  0.00    -0.300 OA
ATOM     14  C   UNL     1     -16.192 -13.302  29.320  1.00  0.00     0.087 C 
ENDBRANCH  11  12
ENDBRANCH  10  11
ENDBRANCH   2  10
TORSDOF 6
ENDMDL
