MODEL 1
REMARK VINA RESULT:    -2.733      0.000      0.000
REMARK INTER + INTRA:          -5.420
REMARK INTER:                  -4.970
REMARK INTRA:                  -0.450
REMARK UNBOUND:                -0.450
REMARK SMILES CCCCCCCCCCCCCC[C@@H](C)C(=O)[O-]
REMARK SMILES IDX 9 1 10 2 11 3 12 4 13 5 14 6 15 7 16 8 17 9 18 10 19 11 8 12
REMARK SMILES IDX 7 13 6 14 5 15 4 16 3 17 2 18 1 19
REMARK H PARENT
REMARK Flexibility Score: inf
ROOT
ATOM      1  C   UNL     1      23.546  66.064  16.378  1.00  0.00     0.000 C 
ENDROOT
BRANCH   1   2
ATOM      2  C   UNL     1      22.271  65.246  16.113  1.00  0.00     0.000 C 
BRANCH   2   3
ATOM      3  C   UNL     1      21.018  66.125  15.978  1.00  0.00     0.000 C 
BRANCH   3   4
ATOM      4  C   UNL     1      19.757  65.264  15.838  1.00  0.00     0.000 C 
BRANCH   4   5
ATOM      5  C   UNL     1      18.488  66.125  15.928  1.00  0.00     0.001 C 
BRANCH   5   6
ATOM      6  C   UNL     1      17.318  65.373  16.601  1.00  0.00     0.009 C 
BRANCH   6   7
ATOM      7  C   UNL     1      15.924  65.862  16.144  1.00  0.00     0.032 C 
ATOM      8  C   UNL     1      15.804  65.959  14.619  1.00  0.00     0.014 C 
BRANCH   7   9
ATOM      9  C   UNL     1      14.859  64.946  16.683  1.00  0.00     0.044 C 
ATOM     10  O   UNL     1      14.807  64.679  17.914  1.00  0.00    -0.550 OA
ATOM     11  O   UNL     1      13.922  64.389  15.822  1.00  0.00    -0.550 OA
ENDBRANCH   7   9
ENDBRANCH   6   7
ENDBRANCH   5   6
ENDBRANCH   4   5
ENDBRANCH   3   4
ENDBRANCH   2   3
ENDBRANCH   1   2
BRANCH   1  12
ATOM     12  C   UNL     1      24.826  65.302  15.993  1.00  0.00     0.000 C 
BRANCH  12  13
ATOM     13  C   UNL     1      26.102  66.116  16.269  1.00  0.00    -0.000 C 
BRANCH  13  14
ATOM     14  C   UNL     1      27.112  65.359  17.145  1.00  0.00    -0.000 C 
BRANCH  14  15
ATOM     15  C   UNL     1      28.487  65.294  16.462  1.00  0.00    -0.000 C 
BRANCH  15  16
ATOM     16  C   UNL     1      29.588  65.987  17.280  1.00  0.00    -0.000 C 
BRANCH  16  17
ATOM     17  C   UNL     1      30.642  65.003  17.808  1.00  0.00    -0.000 C 
BRANCH  17  18
ATOM     18  C   UNL     1      31.241  65.496  19.130  1.00  0.00    -0.003 C 
ATOM     19  C   UNL     1      30.153  65.775  20.161  1.00  0.00     0.004 C 
ENDBRANCH  17  18
ENDBRANCH  16  17
ENDBRANCH  15  16
ENDBRANCH  14  15
ENDBRANCH  13  14
ENDBRANCH  12  13
ENDBRANCH   1  12
TORSDOF 14
ENDMDL
MODEL 2
REMARK VINA RESULT:    -2.635      8.921     10.934
REMARK INTER + INTRA:          -5.241
REMARK INTER:                  -4.355
REMARK INTRA:                  -0.886
REMARK UNBOUND:                -0.450
REMARK SMILES CCCCCCCCCCCCCC[C@@H](C)C(=O)[O-]
REMARK SMILES IDX 9 1 10 2 11 3 12 4 13 5 14 6 15 7 16 8 17 9 18 10 19 11 8 12
REMARK SMILES IDX 7 13 6 14 5 15 4 16 3 17 2 18 1 19
REMARK H PARENT
REMARK Flexibility Score: inf
ROOT
ATOM      1  C   UNL     1      27.540  64.897  19.080  1.00  0.00     0.000 C 
ENDROOT
BRANCH   1   2
ATOM      2  C   UNL     1      27.871  64.445  17.648  1.00  0.00     0.000 C 
BRANCH   2   3
ATOM      3  C   UNL     1      27.812  65.597  16.633  1.00  0.00     0.000 C 
BRANCH   3   4
ATOM      4  C   UNL     1      29.140  65.732  15.878  1.00  0.00     0.000 C 
BRANCH   4   5
ATOM      5  C   UNL     1      30.091  64.576  16.223  1.00  0.00     0.001 C 
BRANCH   5   6
ATOM      6  C   UNL     1      30.588  63.832  14.964  1.00  0.00     0.009 C 
BRANCH   6   7
ATOM      7  C   UNL     1      31.947  63.122  15.161  1.00  0.00     0.032 C 
ATOM      8  C   UNL     1      32.976  63.510  14.092  1.00  0.00     0.014 C 
BRANCH   7   9
ATOM      9  C   UNL     1      32.492  63.429  16.529  1.00  0.00     0.044 C 
ATOM     10  O   UNL     1      32.555  62.530  17.410  1.00  0.00    -0.550 OA
ATOM     11  O   UNL     1      32.932  64.712  16.829  1.00  0.00    -0.550 OA
ENDBRANCH   7   9
ENDBRANCH   6   7
ENDBRANCH   5   6
ENDBRANCH   4   5
ENDBRANCH   3   4
ENDBRANCH   2   3
ENDBRANCH   1   2
BRANCH   1  12
ATOM     12  C   UNL     1      28.359  66.125  19.515  1.00  0.00     0.000 C 
BRANCH  12  13
ATOM     13  C   UNL     1      29.772  65.751  19.994  1.00  0.00    -0.000 C 
BRANCH  13  14
ATOM     14  C   UNL     1      29.912  65.792  21.523  1.00  0.00    -0.000 C 
BRANCH  14  15
ATOM     15  C   UNL     1      31.344  65.435  21.951  1.00  0.00    -0.000 C 
BRANCH  15  16
ATOM     16  C   UNL     1      32.216  64.973  20.773  1.00  0.00    -0.000 C 
BRANCH  16  17
ATOM     17  C   UNL     1      32.936  63.646  21.054  1.00  0.00    -0.000 C 
BRANCH  17  18
ATOM     18  C   UNL     1      32.077  62.452  20.621  1.00  0.00    -0.003 C 
ATOM     19  C   UNL     1      32.669  61.136  21.114  1.00  0.00     0.004 C 
ENDBRANCH  17  18
ENDBRANCH  16  17
ENDBRANCH  15  16
ENDBRANCH  14  15
ENDBRANCH  13  14
ENDBRANCH  12  13
ENDBRANCH   1  12
TORSDOF 14
ENDMDL
MODEL 3
REMARK VINA RESULT:    -2.491      2.595      4.295
REMARK INTER + INTRA:          -4.979
REMARK INTER:                  -4.497
REMARK INTRA:                  -0.483
REMARK UNBOUND:                -0.450
REMARK SMILES CCCCCCCCCCCCCC[C@@H](C)C(=O)[O-]
REMARK SMILES IDX 9 1 10 2 11 3 12 4 13 5 14 6 15 7 16 8 17 9 18 10 19 11 8 12
REMARK SMILES IDX 7 13 6 14 5 15 4 16 3 17 2 18 1 19
REMARK H PARENT
REMARK Flexibility Score: inf
ROOT
ATOM      1  C   UNL     1      27.454  65.064  16.797  1.00  0.00     0.000 C 
ENDROOT
BRANCH   1   2
ATOM      2  C   UNL     1      26.078  65.718  17.000  1.00  0.00     0.000 C 
BRANCH   2   3
ATOM      3  C   UNL     1      25.031  65.227  15.989  1.00  0.00     0.000 C 
BRANCH   3   4
ATOM      4  C   UNL     1      23.779  66.111  16.021  1.00  0.00     0.000 C 
BRANCH   4   5
ATOM      5  C   UNL     1      22.501  65.263  15.937  1.00  0.00     0.001 C 
BRANCH   5   6
ATOM      6  C   UNL     1      21.221  66.124  16.019  1.00  0.00     0.009 C 
BRANCH   6   7
ATOM      7  C   UNL     1      19.946  65.383  15.554  1.00  0.00     0.032 C 
ATOM      8  C   UNL     1      18.785  65.531  16.544  1.00  0.00     0.014 C 
BRANCH   7   9
ATOM      9  C   UNL     1      19.529  65.884  14.198  1.00  0.00     0.044 C 
ATOM     10  O   UNL     1      18.313  66.090  13.938  1.00  0.00    -0.550 OA
ATOM     11  O   UNL     1      20.487  66.125  13.222  1.00  0.00    -0.550 OA
ENDBRANCH   7   9
ENDBRANCH   6   7
ENDBRANCH   5   6
ENDBRANCH   4   5
ENDBRANCH   3   4
ENDBRANCH   2   3
ENDBRANCH   1   2
BRANCH   1  12
ATOM     12  C   UNL     1      28.507  66.056  16.272  1.00  0.00     0.000 C 
BRANCH  12  13
ATOM     13  C   UNL     1      29.766  66.102  17.153  1.00  0.00    -0.000 C 
BRANCH  13  14
ATOM     14  C   UNL     1      30.285  64.703  17.522  1.00  0.00    -0.000 C 
BRANCH  14  15
ATOM     15  C   UNL     1      31.820  64.692  17.596  1.00  0.00    -0.000 C 
BRANCH  15  16
ATOM     16  C   UNL     1      32.343  64.649  19.041  1.00  0.00    -0.000 C 
BRANCH  16  17
ATOM     17  C   UNL     1      31.745  63.491  19.852  1.00  0.00    -0.000 C 
BRANCH  17  18
ATOM     18  C   UNL     1      32.844  62.706  20.580  1.00  0.00    -0.003 C 
ATOM     19  C   UNL     1      32.420  61.263  20.829  1.00  0.00     0.004 C 
ENDBRANCH  17  18
ENDBRANCH  16  17
ENDBRANCH  15  16
ENDBRANCH  14  15
ENDBRANCH  13  14
ENDBRANCH  12  13
ENDBRANCH   1  12
TORSDOF 14
ENDMDL
MODEL 4
REMARK VINA RESULT:    -2.410      5.289     11.655
REMARK INTER + INTRA:          -4.832
REMARK INTER:                  -4.232
REMARK INTRA:                  -0.600
REMARK UNBOUND:                -0.450
REMARK SMILES CCCCCCCCCCCCCC[C@@H](C)C(=O)[O-]
REMARK SMILES IDX 9 1 10 2 11 3 12 4 13 5 14 6 15 7 16 8 17 9 18 10 19 11 8 12
REMARK SMILES IDX 7 13 6 14 5 15 4 16 3 17 2 18 1 19
REMARK H PARENT
REMARK Flexibility Score: inf
ROOT
ATOM      1  C   UNL     1      21.585  66.121  16.017  1.00  0.00     0.000 C 
ENDROOT
BRANCH   1   2
ATOM      2  C   UNL     1      22.390  64.962  16.628  1.00  0.00     0.000 C 
BRANCH   2   3
ATOM      3  C   UNL     1      23.779  64.802  15.990  1.00  0.00     0.000 C 
BRANCH   3   4
ATOM      4  C   UNL     1      24.851  65.511  16.826  1.00  0.00     0.000 C 
BRANCH   4   5
ATOM      5  C   UNL     1      26.229  65.412  16.155  1.00  0.00     0.001 C 
BRANCH   5   6
ATOM      6  C   UNL     1      27.280  64.746  17.071  1.00  0.00     0.009 C 
BRANCH   6   7
ATOM      7  C   UNL     1      28.160  65.757  17.841  1.00  0.00     0.032 C 
ATOM      8  C   UNL     1      27.741  65.907  19.308  1.00  0.00     0.014 C 
BRANCH   7   9
ATOM      9  C   UNL     1      29.604  65.343  17.761  1.00  0.00     0.044 C 
ATOM     10  O   UNL     1      30.247  65.464  16.683  1.00  0.00    -0.550 OA
ATOM     11  O   UNL     1      30.240  64.824  18.882  1.00  0.00    -0.550 OA
ENDBRANCH   7   9
ENDBRANCH   6   7
ENDBRANCH   5   6
ENDBRANCH   4   5
ENDBRANCH   3   4
ENDBRANCH   2   3
ENDBRANCH   1   2
BRANCH   1  12
ATOM     12  C   UNL     1      20.376  65.632  15.200  1.00  0.00     0.000 C 
BRANCH  12  13
ATOM     13  C   UNL     1      19.034  66.032  15.837  1.00  0.00    -0.000 C 
BRANCH  13  14
ATOM     14  C   UNL     1      17.832  65.730  14.929  1.00  0.00    -0.000 C 
BRANCH  14  15
ATOM     15  C   UNL     1      16.510  65.991  15.667  1.00  0.00    -0.000 C 
BRANCH  15  16
ATOM     16  C   UNL     1      16.493  65.388  17.081  1.00  0.00    -0.000 C 
BRANCH  16  17
ATOM     17  C   UNL     1      15.142  64.751  17.437  1.00  0.00    -0.000 C 
BRANCH  17  18
ATOM     18  C   UNL     1      14.294  64.525  16.179  1.00  0.00    -0.003 C 
ATOM     19  C   UNL     1      12.927  65.192  16.306  1.00  0.00     0.004 C 
ENDBRANCH  17  18
ENDBRANCH  16  17
ENDBRANCH  15  16
ENDBRANCH  14  15
ENDBRANCH  13  14
ENDBRANCH  12  13
ENDBRANCH   1  12
TORSDOF 14
ENDMDL
MODEL 5
REMARK VINA RESULT:    -2.325      5.777     12.256
REMARK INTER + INTRA:          -4.678
REMARK INTER:                  -4.297
REMARK INTRA:                  -0.381
REMARK UNBOUND:                -0.450
REMARK SMILES CCCCCCCCCCCCCC[C@@H](C)C(=O)[O-]
REMARK SMILES IDX 9 1 10 2 11 3 12 4 13 5 14 6 15 7 16 8 17 9 18 10 19 11 8 12
REMARK SMILES IDX 7 13 6 14 5 15 4 16 3 17 2 18 1 19
REMARK H PARENT
REMARK Flexibility Score: inf
ROOT
ATOM      1  C   UNL     1      23.457  66.082  16.194  1.00  0.00     0.000 C 
ENDROOT
BRANCH   1   2
ATOM      2  C   UNL     1      24.752  65.257  16.115  1.00  0.00     0.000 C 
BRANCH   2   3
ATOM      3  C   UNL     1      26.015  66.118  16.272  1.00  0.00     0.000 C 
BRANCH   3   4
ATOM      4  C   UNL     1      26.946  65.536  17.343  1.00  0.00     0.000 C 
BRANCH   4   5
ATOM      5  C   UNL     1      28.415  65.862  17.034  1.00  0.00     0.001 C 
BRANCH   5   6
ATOM      6  C   UNL     1      29.392  65.002  17.866  1.00  0.00     0.009 C 
BRANCH   6   7
ATOM      7  C   UNL     1      30.647  65.772  18.338  1.00  0.00     0.032 C 
ATOM      8  C   UNL     1      30.612  66.091  19.838  1.00  0.00     0.014 C 
BRANCH   7   9
ATOM      9  C   UNL     1      31.885  64.983  18.012  1.00  0.00     0.044 C 
ATOM     10  O   UNL     1      32.032  64.464  16.873  1.00  0.00    -0.550 OA
ATOM     11  O   UNL     1      32.879  64.823  18.970  1.00  0.00    -0.550 OA
ENDBRANCH   7   9
ENDBRANCH   6   7
ENDBRANCH   5   6
ENDBRANCH   4   5
ENDBRANCH   3   4
ENDBRANCH   2   3
ENDBRANCH   1   2
BRANCH   1  12
ATOM     12  C   UNL     1      22.204  65.241  15.894  1.00  0.00     0.000 C 
BRANCH  12  13
ATOM     13  C   UNL     1      20.932  66.098  15.780  1.00  0.00    -0.000 C 
BRANCH  13  14
ATOM     14  C   UNL     1      19.682  65.382  16.315  1.00  0.00    -0.000 C 
BRANCH  14  15
ATOM     15  C   UNL     1      18.403  66.107  15.868  1.00  0.00    -0.000 C 
BRANCH  15  16
ATOM     16  C   UNL     1      17.134  65.276  16.114  1.00  0.00    -0.000 C 
BRANCH  16  17
ATOM     17  C   UNL     1      15.847  66.063  15.831  1.00  0.00    -0.000 C 
BRANCH  17  18
ATOM     18  C   UNL     1      14.626  65.353  16.429  1.00  0.00    -0.003 C 
ATOM     19  C   UNL     1      14.980  64.649  17.736  1.00  0.00     0.004 C 
ENDBRANCH  17  18
ENDBRANCH  16  17
ENDBRANCH  15  16
ENDBRANCH  14  15
ENDBRANCH  13  14
ENDBRANCH  12  13
ENDBRANCH   1  12
TORSDOF 14
ENDMDL
MODEL 6
REMARK VINA RESULT:    -2.271      1.942      4.075
REMARK INTER + INTRA:          -4.579
REMARK INTER:                  -3.900
REMARK INTRA:                  -0.680
REMARK UNBOUND:                -0.450
REMARK SMILES CCCCCCCCCCCCCC[C@@H](C)C(=O)[O-]
REMARK SMILES IDX 9 1 10 2 11 3 12 4 13 5 14 6 15 7 16 8 17 9 18 10 19 11 8 12
REMARK SMILES IDX 7 13 6 14 5 15 4 16 3 17 2 18 1 19
REMARK H PARENT
REMARK Flexibility Score: inf
ROOT
ATOM      1  C   UNL     1      19.726  64.945  16.619  1.00  0.00     0.000 C 
ENDROOT
BRANCH   1   2
ATOM      2  C   UNL     1      18.222  65.141  16.874  1.00  0.00     0.000 C 
BRANCH   2   3
ATOM      3  C   UNL     1      17.575  66.124  15.886  1.00  0.00     0.000 C 
BRANCH   3   4
ATOM      4  C   UNL     1      16.052  65.951  15.858  1.00  0.00     0.000 C 
BRANCH   4   5
ATOM      5  C   UNL     1      15.536  65.830  14.416  1.00  0.00     0.001 C 
BRANCH   5   6
ATOM      6  C   UNL     1      13.997  65.708  14.353  1.00  0.00     0.009 C 
BRANCH   6   7
ATOM      7  C   UNL     1      13.493  64.836  13.181  1.00  0.00     0.032 C 
ATOM      8  C   UNL     1      14.427  64.882  11.966  1.00  0.00     0.014 C 
BRANCH   7   9
ATOM      9  C   UNL     1      13.320  63.413  13.639  1.00  0.00     0.044 C 
ATOM     10  O   UNL     1      13.076  63.155  14.848  1.00  0.00    -0.550 OA
ATOM     11  O   UNL     1      13.428  62.372  12.725  1.00  0.00    -0.550 OA
ENDBRANCH   7   9
ENDBRANCH   6   7
ENDBRANCH   5   6
ENDBRANCH   4   5
ENDBRANCH   3   4
ENDBRANCH   2   3
ENDBRANCH   1   2
BRANCH   1  12
ATOM     12  C   UNL     1      20.188  65.586  15.299  1.00  0.00     0.000 C 
BRANCH  12  13
ATOM     13  C   UNL     1      21.627  66.125  15.378  1.00  0.00    -0.000 C 
BRANCH  13  14
ATOM     14  C   UNL     1      22.494  65.360  16.391  1.00  0.00    -0.000 C 
BRANCH  14  15
ATOM     15  C   UNL     1      23.827  64.935  15.758  1.00  0.00    -0.000 C 
BRANCH  15  16
ATOM     16  C   UNL     1      25.045  65.495  16.511  1.00  0.00    -0.000 C 
BRANCH  16  17
ATOM     17  C   UNL     1      26.376  64.967  15.959  1.00  0.00    -0.000 C 
BRANCH  17  18
ATOM     18  C   UNL     1      27.561  65.512  16.766  1.00  0.00    -0.003 C 
ATOM     19  C   UNL     1      27.410  65.196  18.251  1.00  0.00     0.004 C 
ENDBRANCH  17  18
ENDBRANCH  16  17
ENDBRANCH  15  16
ENDBRANCH  14  15
ENDBRANCH  13  14
ENDBRANCH  12  13
ENDBRANCH   1  12
TORSDOF 14
ENDMDL
MODEL 7
REMARK VINA RESULT:    -2.242      8.590     11.621
REMARK INTER + INTRA:          -4.527
REMARK INTER:                  -4.424
REMARK INTRA:                  -0.102
REMARK UNBOUND:                -0.450
REMARK SMILES CCCCCCCCCCCCCC[C@@H](C)C(=O)[O-]
REMARK SMILES IDX 9 1 10 2 11 3 12 4 13 5 14 6 15 7 16 8 17 9 18 10 19 11 8 12
REMARK SMILES IDX 7 13 6 14 5 15 4 16 3 17 2 18 1 19
REMARK H PARENT
REMARK Flexibility Score: inf
ROOT
ATOM      1  C   UNL     1      27.322  66.115  19.545  1.00  0.00     0.000 C 
ENDROOT
BRANCH   1   2
ATOM      2  C   UNL     1      28.591  65.966  20.400  1.00  0.00     0.000 C 
BRANCH   2   3
ATOM      3  C   UNL     1      29.882  66.118  19.580  1.00  0.00     0.000 C 
BRANCH   3   4
ATOM      4  C   UNL     1      30.286  64.784  18.942  1.00  0.00     0.000 C 
BRANCH   4   5
ATOM      5  C   UNL     1      31.649  64.309  19.468  1.00  0.00     0.001 C 
BRANCH   5   6
ATOM      6  C   UNL     1      31.897  64.747  20.929  1.00  0.00     0.009 C 
BRANCH   6   7
ATOM      7  C   UNL     1      32.896  63.842  21.686  1.00  0.00     0.032 C 
ATOM      8  C   UNL     1      32.627  63.799  23.195  1.00  0.00     0.014 C 
BRANCH   7   9
ATOM      9  C   UNL     1      32.854  62.449  21.120  1.00  0.00     0.044 C 
ATOM     10  O   UNL     1      32.573  61.466  21.858  1.00  0.00    -0.550 OA
ATOM     11  O   UNL     1      33.125  62.238  19.774  1.00  0.00    -0.550 OA
ENDBRANCH   7   9
ENDBRANCH   6   7
ENDBRANCH   5   6
ENDBRANCH   4   5
ENDBRANCH   3   4
ENDBRANCH   2   3
ENDBRANCH   1   2
BRANCH   1  12
ATOM     12  C   UNL     1      27.266  65.096  18.393  1.00  0.00     0.000 C 
BRANCH  12  13
ATOM     13  C   UNL     1      26.703  65.703  17.096  1.00  0.00    -0.000 C 
BRANCH  13  14
ATOM     14  C   UNL     1      27.742  65.760  15.966  1.00  0.00    -0.000 C 
BRANCH  14  15
ATOM     15  C   UNL     1      28.504  64.431  15.857  1.00  0.00    -0.000 C 
BRANCH  15  16
ATOM     16  C   UNL     1      30.012  64.629  15.638  1.00  0.00    -0.000 C 
BRANCH  16  17
ATOM     17  C   UNL     1      30.638  63.516  14.785  1.00  0.00    -0.000 C 
BRANCH  17  18
ATOM     18  C   UNL     1      32.165  63.507  14.928  1.00  0.00    -0.003 C 
ATOM     19  C   UNL     1      32.598  62.757  16.183  1.00  0.00     0.004 C 
ENDBRANCH  17  18
ENDBRANCH  16  17
ENDBRANCH  15  16
ENDBRANCH  14  15
ENDBRANCH  13  14
ENDBRANCH  12  13
ENDBRANCH   1  12
TORSDOF 14
ENDMDL
MODEL 8
REMARK VINA RESULT:    -1.948      6.950      9.627
REMARK INTER + INTRA:          -3.993
REMARK INTER:                  -3.136
REMARK INTRA:                  -0.857
REMARK UNBOUND:                -0.450
REMARK SMILES CCCCCCCCCCCCCC[C@@H](C)C(=O)[O-]
REMARK SMILES IDX 9 1 10 2 11 3 12 4 13 5 14 6 15 7 16 8 17 9 18 10 19 11 8 12
REMARK SMILES IDX 7 13 6 14 5 15 4 16 3 17 2 18 1 19
REMARK H PARENT
REMARK Flexibility Score: inf
ROOT
ATOM      1  C   UNL     1      32.515  62.368  16.749  1.00  0.00     0.000 C 
ENDROOT
BRANCH   1   2
ATOM      2  C   UNL     1      32.450  62.651  15.239  1.00  0.00     0.000 C 
BRANCH   2   3
ATOM      3  C   UNL     1      31.565  63.861  14.899  1.00  0.00     0.000 C 
BRANCH   3   4
ATOM      4  C   UNL     1      30.091  63.563  15.200  1.00  0.00     0.000 C 
BRANCH   4   5
ATOM      5  C   UNL     1      29.286  64.862  15.356  1.00  0.00     0.001 C 
BRANCH   5   6
ATOM      6  C   UNL     1      27.887  64.615  15.963  1.00  0.00     0.009 C 
BRANCH   6   7
ATOM      7  C   UNL     1      27.462  65.684  16.995  1.00  0.00     0.032 C 
ATOM      8  C   UNL     1      25.997  66.108  16.836  1.00  0.00     0.014 C 
BRANCH   7   9
ATOM      9  C   UNL     1      27.696  65.171  18.390  1.00  0.00     0.044 C 
ATOM     10  O   UNL     1      28.549  65.718  19.139  1.00  0.00    -0.550 OA
ATOM     11  O   UNL     1      26.967  64.086  18.861  1.00  0.00    -0.550 OA
ENDBRANCH   7   9
ENDBRANCH   6   7
ENDBRANCH   5   6
ENDBRANCH   4   5
ENDBRANCH   3   4
ENDBRANCH   2   3
ENDBRANCH   1   2
BRANCH   1  12
ATOM     12  C   UNL     1      32.681  63.651  17.582  1.00  0.00     0.000 C 
BRANCH  12  13
ATOM     13  C   UNL     1      33.124  63.363  19.027  1.00  0.00    -0.000 C 
BRANCH  13  14
ATOM     14  C   UNL     1      32.213  62.350  19.738  1.00  0.00    -0.000 C 
BRANCH  14  15
ATOM     15  C   UNL     1      32.258  62.550  21.260  1.00  0.00    -0.000 C 
BRANCH  15  16
ATOM     16  C   UNL     1      32.866  63.903  21.663  1.00  0.00    -0.000 C 
BRANCH  16  17
ATOM     17  C   UNL     1      32.405  64.370  23.050  1.00  0.00    -0.000 C 
BRANCH  17  18
ATOM     18  C   UNL     1      31.248  65.370  22.937  1.00  0.00    -0.003 C 
ATOM     19  C   UNL     1      30.640  65.670  24.303  1.00  0.00     0.004 C 
ENDBRANCH  17  18
ENDBRANCH  16  17
ENDBRANCH  15  16
ENDBRANCH  14  15
ENDBRANCH  13  14
ENDBRANCH  12  13
ENDBRANCH   1  12
TORSDOF 14
ENDMDL
MODEL 9
REMARK VINA RESULT:    -1.938      4.717      7.148
REMARK INTER + INTRA:          -3.974
REMARK INTER:                  -2.643
REMARK INTRA:                  -1.330
REMARK UNBOUND:                -0.450
REMARK SMILES CCCCCCCCCCCCCC[C@@H](C)C(=O)[O-]
REMARK SMILES IDX 9 1 10 2 11 3 12 4 13 5 14 6 15 7 16 8 17 9 18 10 19 11 8 12
REMARK SMILES IDX 7 13 6 14 5 15 4 16 3 17 2 18 1 19
REMARK H PARENT
REMARK Flexibility Score: inf
ROOT
ATOM      1  C   UNL     1      29.567  63.847  15.254  1.00  0.00     0.000 C 
ENDROOT
BRANCH   1   2
ATOM      2  C   UNL     1      29.077  65.149  15.907  1.00  0.00     0.000 C 
BRANCH   2   3
ATOM      3  C   UNL     1      29.233  65.143  17.436  1.00  0.00     0.000 C 
BRANCH   3   4
ATOM      4  C   UNL     1      27.932  65.577  18.121  1.00  0.00     0.000 C 
BRANCH   4   5
ATOM      5  C   UNL     1      26.925  66.125  17.098  1.00  0.00     0.001 C 
BRANCH   5   6
ATOM      6  C   UNL     1      25.543  65.444  17.214  1.00  0.00     0.009 C 
BRANCH   6   7
ATOM      7  C   UNL     1      24.748  65.427  15.889  1.00  0.00     0.032 C 
ATOM      8  C   UNL     1      25.177  64.286  14.958  1.00  0.00     0.014 C 
BRANCH   7   9
ATOM      9  C   UNL     1      23.275  65.325  16.177  1.00  0.00     0.044 C 
ATOM     10  O   UNL     1      22.849  64.529  17.057  1.00  0.00    -0.550 OA
ATOM     11  O   UNL     1      22.374  66.112  15.472  1.00  0.00    -0.550 OA
ENDBRANCH   7   9
ENDBRANCH   6   7
ENDBRANCH   5   6
ENDBRANCH   4   5
ENDBRANCH   3   4
ENDBRANCH   2   3
ENDBRANCH   1   2
BRANCH   1  12
ATOM     12  C   UNL     1      31.001  63.965  14.708  1.00  0.00     0.000 C 
BRANCH  12  13
ATOM     13  C   UNL     1      31.879  62.761  15.091  1.00  0.00    -0.000 C 
BRANCH  13  14
ATOM     14  C   UNL     1      33.098  63.159  15.937  1.00  0.00    -0.000 C 
BRANCH  14  15
ATOM     15  C   UNL     1      32.937  62.680  17.387  1.00  0.00    -0.000 C 
BRANCH  15  16
ATOM     16  C   UNL     1      32.532  63.812  18.344  1.00  0.00    -0.000 C 
BRANCH  16  17
ATOM     17  C   UNL     1      31.735  63.306  19.555  1.00  0.00    -0.000 C 
BRANCH  17  18
ATOM     18  C   UNL     1      32.642  62.547  20.531  1.00  0.00    -0.003 C 
ATOM     19  C   UNL     1      32.329  61.054  20.530  1.00  0.00     0.004 C 
ENDBRANCH  17  18
ENDBRANCH  16  17
ENDBRANCH  15  16
ENDBRANCH  14  15
ENDBRANCH  13  14
ENDBRANCH  12  13
ENDBRANCH   1  12
TORSDOF 14
ENDMDL
