MODEL 1
REMARK VINA RESULT:    -3.211      0.000      0.000
REMARK INTER + INTRA:          -3.493
REMARK INTER:                  -3.493
REMARK INTRA:                   0.000
REMARK UNBOUND:                 0.000
REMARK SMILES Oc1cccc(O)c1O
REMARK SMILES IDX 4 1 5 2 6 3 8 4 2 5 3 6 7 7 1 9 9 11
REMARK H PARENT 7 8 1 10 9 12
REMARK Flexibility Score: inf
ROOT
ATOM      1  C   UNL     1     122.479 124.329 106.015  1.00  0.00     0.008 A 
ATOM      2  C   UNL     1     123.058 123.060 106.073  1.00  0.00     0.050 A 
ATOM      3  C   UNL     1     124.436 122.895 105.883  1.00  0.00     0.161 A 
ATOM      4  C   UNL     1     125.245 124.031 105.629  1.00  0.00     0.200 A 
ATOM      5  C   UNL     1     124.653 125.303 105.573  1.00  0.00     0.161 A 
ATOM      6  C   UNL     1     123.273 125.448 105.766  1.00  0.00     0.050 A 
ENDROOT
BRANCH   3   7
ATOM      7  O   UNL     1     124.951 121.600 105.953  1.00  0.00    -0.504 OA
ATOM      8  H   UNL     1     125.027 121.068 106.808  1.00  0.00     0.293 HD
ENDBRANCH   3   7
BRANCH   5   9
ATOM      9  O   UNL     1     125.447 126.421 105.323  1.00  0.00    -0.504 OA
ATOM     10  H   UNL     1     125.689 126.701 104.379  1.00  0.00     0.293 HD
ENDBRANCH   5   9
BRANCH   4  11
ATOM     11  O   UNL     1     126.625 123.939 105.430  1.00  0.00    -0.502 OA
ATOM     12  H   UNL     1     127.106 123.084 105.191  1.00  0.00     0.293 HD
ENDBRANCH   4  11
TORSDOF 3
ENDMDL
MODEL 2
REMARK VINA RESULT:    -3.205      0.089      2.816
REMARK INTER + INTRA:          -3.486
REMARK INTER:                  -3.486
REMARK INTRA:                   0.000
REMARK UNBOUND:                 0.000
REMARK SMILES Oc1cccc(O)c1O
REMARK SMILES IDX 4 1 5 2 6 3 8 4 2 5 3 6 7 7 1 9 9 11
REMARK H PARENT 7 8 1 10 9 12
REMARK Flexibility Score: inf
ROOT
ATOM      1  C   UNL     1     122.465 124.389 106.040  1.00  0.00     0.008 A 
ATOM      2  C   UNL     1     123.277 125.487 105.748  1.00  0.00     0.050 A 
ATOM      3  C   UNL     1     124.648 125.319 105.515  1.00  0.00     0.161 A 
ATOM      4  C   UNL     1     125.211 124.020 105.576  1.00  0.00     0.200 A 
ATOM      5  C   UNL     1     124.386 122.922 105.870  1.00  0.00     0.161 A 
ATOM      6  C   UNL     1     123.017 123.110 106.100  1.00  0.00     0.050 A 
ENDROOT
BRANCH   3   7
ATOM      7  O   UNL     1     125.403 126.457 105.230  1.00  0.00    -0.504 OA
ATOM      8  H   UNL     1     125.113 127.181 104.588  1.00  0.00     0.293 HD
ENDBRANCH   3   7
BRANCH   5   9
ATOM      9  O   UNL     1     124.938 121.643 105.931  1.00  0.00    -0.504 OA
ATOM     10  H   UNL     1     124.408 120.853 106.280  1.00  0.00     0.293 HD
ENDBRANCH   5   9
BRANCH   4  11
ATOM     11  O   UNL     1     126.569 123.780 105.355  1.00  0.00    -0.502 OA
ATOM     12  H   UNL     1     126.954 122.874 105.131  1.00  0.00     0.293 HD
ENDBRANCH   4  11
TORSDOF 3
ENDMDL
MODEL 3
REMARK VINA RESULT:    -3.182      1.586      2.685
REMARK INTER + INTRA:          -3.461
REMARK INTER:                  -3.461
REMARK INTRA:                   0.000
REMARK UNBOUND:                 0.000
REMARK SMILES Oc1cccc(O)c1O
REMARK SMILES IDX 4 1 5 2 6 3 8 4 2 5 3 6 7 7 1 9 9 11
REMARK H PARENT 7 8 1 10 9 12
REMARK Flexibility Score: inf
ROOT
ATOM      1  C   UNL     1     124.614 122.403 106.107  1.00  0.00     0.008 A 
ATOM      2  C   UNL     1     123.518 123.211 105.799  1.00  0.00     0.050 A 
ATOM      3  C   UNL     1     123.688 124.577 105.542  1.00  0.00     0.161 A 
ATOM      4  C   UNL     1     124.987 125.139 105.595  1.00  0.00     0.200 A 
ATOM      5  C   UNL     1     126.084 124.319 105.905  1.00  0.00     0.161 A 
ATOM      6  C   UNL     1     125.894 122.954 106.160  1.00  0.00     0.050 A 
ENDROOT
BRANCH   3   7
ATOM      7  O   UNL     1     122.551 125.328 105.242  1.00  0.00    -0.504 OA
ATOM      8  H   UNL     1     121.856 125.054 104.562  1.00  0.00     0.293 HD
ENDBRANCH   3   7
BRANCH   5   9
ATOM      9  O   UNL     1     127.363 124.871 105.958  1.00  0.00    -0.504 OA
ATOM     10  H   UNL     1     127.911 124.859 106.811  1.00  0.00     0.293 HD
ENDBRANCH   5   9
BRANCH   4  11
ATOM     11  O   UNL     1     125.229 126.494 105.350  1.00  0.00    -0.502 OA
ATOM     12  H   UNL     1     124.787 127.247 105.855  1.00  0.00     0.293 HD
ENDBRANCH   4  11
TORSDOF 3
ENDMDL
MODEL 4
REMARK VINA RESULT:    -3.142      2.041      3.876
REMARK INTER + INTRA:          -3.418
REMARK INTER:                  -3.418
REMARK INTRA:                   0.000
REMARK UNBOUND:                 0.000
REMARK SMILES Oc1cccc(O)c1O
REMARK SMILES IDX 4 1 5 2 6 3 8 4 2 5 3 6 7 7 1 9 9 11
REMARK H PARENT 7 8 1 10 9 12
REMARK Flexibility Score: inf
ROOT
ATOM      1  C   UNL     1     125.166 124.219 104.938  1.00  0.00     0.008 A 
ATOM      2  C   UNL     1     125.022 125.559 105.299  1.00  0.00     0.050 A 
ATOM      3  C   UNL     1     123.923 125.980 106.059  1.00  0.00     0.161 A 
ATOM      4  C   UNL     1     122.951 125.031 106.462  1.00  0.00     0.200 A 
ATOM      5  C   UNL     1     123.104 123.685 106.093  1.00  0.00     0.161 A 
ATOM      6  C   UNL     1     124.211 123.283 105.333  1.00  0.00     0.050 A 
ENDROOT
BRANCH   3   7
ATOM      7  O   UNL     1     123.839 127.334 106.387  1.00  0.00    -0.504 OA
ATOM      8  H   UNL     1     124.553 127.839 106.892  1.00  0.00     0.293 HD
ENDBRANCH   3   7
BRANCH   5   9
ATOM      9  O   UNL     1     122.149 122.750 106.489  1.00  0.00    -0.504 OA
ATOM     10  H   UNL     1     122.158 122.342 107.417  1.00  0.00     0.293 HD
ENDBRANCH   5   9
BRANCH   4  11
ATOM     11  O   UNL     1     121.831 125.380 107.220  1.00  0.00    -0.502 OA
ATOM     12  H   UNL     1     121.747 126.241 107.741  1.00  0.00     0.293 HD
ENDBRANCH   4  11
TORSDOF 3
ENDMDL
MODEL 5
REMARK VINA RESULT:    -3.137      2.025      2.712
REMARK INTER + INTRA:          -3.412
REMARK INTER:                  -3.412
REMARK INTRA:                   0.000
REMARK UNBOUND:                 0.000
REMARK SMILES Oc1cccc(O)c1O
REMARK SMILES IDX 4 1 5 2 6 3 8 4 2 5 3 6 7 7 1 9 9 11
REMARK H PARENT 7 8 1 10 9 12
REMARK Flexibility Score: inf
ROOT
ATOM      1  C   UNL     1     125.195 124.175 104.982  1.00  0.00     0.008 A 
ATOM      2  C   UNL     1     124.208 123.275 105.388  1.00  0.00     0.050 A 
ATOM      3  C   UNL     1     123.107 123.713 106.135  1.00  0.00     0.161 A 
ATOM      4  C   UNL     1     122.999 125.084 106.479  1.00  0.00     0.200 A 
ATOM      5  C   UNL     1     123.997 125.981 106.065  1.00  0.00     0.161 A 
ATOM      6  C   UNL     1     125.091 125.524 105.318  1.00  0.00     0.050 A 
ENDROOT
BRANCH   3   7
ATOM      7  O   UNL     1     122.156 122.763 106.510  1.00  0.00    -0.504 OA
ATOM      8  H   UNL     1     121.199 122.984 106.747  1.00  0.00     0.293 HD
ENDBRANCH   3   7
BRANCH   5   9
ATOM      9  O   UNL     1     123.892 127.330 106.403  1.00  0.00    -0.504 OA
ATOM     10  H   UNL     1     124.644 127.983 106.214  1.00  0.00     0.293 HD
ENDBRANCH   5   9
BRANCH   4  11
ATOM     11  O   UNL     1     121.929 125.589 107.222  1.00  0.00    -0.502 OA
ATOM     12  H   UNL     1     121.760 125.367 108.192  1.00  0.00     0.293 HD
ENDBRANCH   4  11
TORSDOF 3
ENDMDL
MODEL 6
REMARK VINA RESULT:    -3.134      1.783      2.720
REMARK INTER + INTRA:          -3.409
REMARK INTER:                  -3.409
REMARK INTRA:                   0.000
REMARK UNBOUND:                 0.000
REMARK SMILES Oc1cccc(O)c1O
REMARK SMILES IDX 4 1 5 2 6 3 8 4 2 5 3 6 7 7 1 9 9 11
REMARK H PARENT 7 8 1 10 9 12
REMARK Flexibility Score: inf
ROOT
ATOM      1  C   UNL     1     124.767 125.278 104.982  1.00  0.00     0.008 A 
ATOM      2  C   UNL     1     125.668 124.275 105.346  1.00  0.00     0.050 A 
ATOM      3  C   UNL     1     125.237 123.157 106.072  1.00  0.00     0.161 A 
ATOM      4  C   UNL     1     123.873 123.048 106.437  1.00  0.00     0.200 A 
ATOM      5  C   UNL     1     122.974 124.061 106.067  1.00  0.00     0.161 A 
ATOM      6  C   UNL     1     123.423 125.172 105.341  1.00  0.00     0.050 A 
ENDROOT
BRANCH   3   7
ATOM      7  O   UNL     1     126.188 122.192 106.403  1.00  0.00    -0.504 OA
ATOM      8  H   UNL     1     126.512 122.017 107.344  1.00  0.00     0.293 HD
ENDBRANCH   3   7
BRANCH   5   9
ATOM      9  O   UNL     1     121.631 123.956 106.427  1.00  0.00    -0.504 OA
ATOM     10  H   UNL     1     120.972 124.704 106.243  1.00  0.00     0.293 HD
ENDBRANCH   5   9
BRANCH   4  11
ATOM     11  O   UNL     1     123.375 121.961 107.161  1.00  0.00    -0.502 OA
ATOM     12  H   UNL     1     122.723 122.043 107.927  1.00  0.00     0.293 HD
ENDBRANCH   4  11
TORSDOF 3
ENDMDL
MODEL 7
REMARK VINA RESULT:    -3.133      2.044      3.312
REMARK INTER + INTRA:          -3.408
REMARK INTER:                  -3.408
REMARK INTRA:                   0.000
REMARK UNBOUND:                 0.000
REMARK SMILES Oc1cccc(O)c1O
REMARK SMILES IDX 4 1 5 2 6 3 8 4 2 5 3 6 7 7 1 9 9 11
REMARK H PARENT 7 8 1 10 9 12
REMARK Flexibility Score: inf
ROOT
ATOM      1  C   UNL     1     125.575 123.260 105.739  1.00  0.00     0.008 A 
ATOM      2  C   UNL     1     126.527 124.235 106.044  1.00  0.00     0.050 A 
ATOM      3  C   UNL     1     126.170 125.588 106.102  1.00  0.00     0.161 A 
ATOM      4  C   UNL     1     124.828 125.966 105.847  1.00  0.00     0.200 A 
ATOM      5  C   UNL     1     123.878 124.978 105.541  1.00  0.00     0.161 A 
ATOM      6  C   UNL     1     124.254 123.629 105.488  1.00  0.00     0.050 A 
ENDROOT
BRANCH   3   7
ATOM      7  O   UNL     1     127.169 126.512 106.412  1.00  0.00    -0.504 OA
ATOM      8  H   UNL     1     127.065 127.512 106.311  1.00  0.00     0.293 HD
ENDBRANCH   3   7
BRANCH   5   9
ATOM      9  O   UNL     1     122.557 125.348 105.289  1.00  0.00    -0.504 OA
ATOM     10  H   UNL     1     121.900 124.708 104.859  1.00  0.00     0.293 HD
ENDBRANCH   5   9
BRANCH   4  11
ATOM     11  O   UNL     1     124.403 127.296 105.887  1.00  0.00    -0.502 OA
ATOM     12  H   UNL     1     125.027 128.089 105.899  1.00  0.00     0.293 HD
ENDBRANCH   4  11
TORSDOF 3
ENDMDL
MODEL 8
REMARK VINA RESULT:    -3.129      1.794      3.049
REMARK INTER + INTRA:          -3.403
REMARK INTER:                  -3.403
REMARK INTRA:                   0.000
REMARK UNBOUND:                 0.000
REMARK SMILES Oc1cccc(O)c1O
REMARK SMILES IDX 4 1 5 2 6 3 8 4 2 5 3 6 7 7 1 9 9 11
REMARK H PARENT 7 8 1 10 9 12
REMARK Flexibility Score: inf
ROOT
ATOM      1  C   UNL     1     124.771 125.281 105.014  1.00  0.00     0.008 A 
ATOM      2  C   UNL     1     123.427 125.119 105.356  1.00  0.00     0.050 A 
ATOM      3  C   UNL     1     123.005 123.994 106.076  1.00  0.00     0.161 A 
ATOM      4  C   UNL     1     123.954 123.015 106.459  1.00  0.00     0.200 A 
ATOM      5  C   UNL     1     125.304 123.187 106.110  1.00  0.00     0.161 A 
ATOM      6  C   UNL     1     125.708 124.318 105.389  1.00  0.00     0.050 A 
ENDROOT
BRANCH   3   7
ATOM      7  O   UNL     1     121.647 123.893 106.386  1.00  0.00    -0.504 OA
ATOM      8  H   UNL     1     121.204 123.045 106.710  1.00  0.00     0.293 HD
ENDBRANCH   3   7
BRANCH   5   9
ATOM      9  O   UNL     1     126.240 122.224 106.486  1.00  0.00    -0.504 OA
ATOM     10  H   UNL     1     127.008 122.446 107.109  1.00  0.00     0.293 HD
ENDBRANCH   5   9
BRANCH   4  11
ATOM     11  O   UNL     1     123.603 121.870 107.178  1.00  0.00    -0.502 OA
ATOM     12  H   UNL     1     123.833 120.929 106.891  1.00  0.00     0.293 HD
ENDBRANCH   4  11
TORSDOF 3
ENDMDL
MODEL 9
REMARK VINA RESULT:    -3.070      1.618      2.874
REMARK INTER + INTRA:          -3.339
REMARK INTER:                  -3.339
REMARK INTRA:                   0.000
REMARK UNBOUND:                 0.000
REMARK SMILES Oc1cccc(O)c1O
REMARK SMILES IDX 4 1 5 2 6 3 8 4 2 5 3 6 7 7 1 9 9 11
REMARK H PARENT 7 8 1 10 9 12
REMARK Flexibility Score: inf
ROOT
ATOM      1  C   UNL     1     124.488 126.089 105.898  1.00  0.00     0.008 A 
ATOM      2  C   UNL     1     125.806 125.973 106.344  1.00  0.00     0.050 A 
ATOM      3  C   UNL     1     126.425 124.720 106.426  1.00  0.00     0.161 A 
ATOM      4  C   UNL     1     125.702 123.560 106.050  1.00  0.00     0.200 A 
ATOM      5  C   UNL     1     124.378 123.686 105.602  1.00  0.00     0.161 A 
ATOM      6  C   UNL     1     123.775 124.949 105.527  1.00  0.00     0.050 A 
ENDROOT
BRANCH   3   7
ATOM      7  O   UNL     1     127.744 124.674 106.881  1.00  0.00    -0.504 OA
ATOM      8  H   UNL     1     128.412 123.967 106.608  1.00  0.00     0.293 HD
ENDBRANCH   3   7
BRANCH   5   9
ATOM      9  O   UNL     1     123.665 122.546 105.232  1.00  0.00    -0.504 OA
ATOM     10  H   UNL     1     124.130 121.731 104.849  1.00  0.00     0.293 HD
ENDBRANCH   5   9
BRANCH   4  11
ATOM     11  O   UNL     1     126.257 122.279 106.107  1.00  0.00    -0.502 OA
ATOM     12  H   UNL     1     126.194 121.602 105.361  1.00  0.00     0.293 HD
ENDBRANCH   4  11
TORSDOF 3
ENDMDL
