MODEL 1
REMARK VINA RESULT:    -4.999      0.000      0.000
REMARK INTER + INTRA:         -10.801
REMARK INTER:                  -8.798
REMARK INTRA:                  -2.003
REMARK UNBOUND:                -2.003
REMARK SMILES CCCCCCC=CCCCCCCCC(=O)[O-]
REMARK SMILES IDX 10 1 11 2 12 3 13 4 14 5 15 6 16 7 17 8 18 9 9 10 8 11 7 12
REMARK SMILES IDX 6 13 5 14 4 15 3 16 2 17 1 18
REMARK H PARENT
REMARK Flexibility Score: inf
ROOT
ATOM      1  C   UNL     1       9.535  -2.130   5.879  1.00  0.00     0.004 C 
ENDROOT
BRANCH   1   2
ATOM      2  C   UNL     1       9.730  -3.029   4.648  1.00  0.00     0.000 C 
BRANCH   2   3
ATOM      3  C   UNL     1       8.415  -3.655   4.155  1.00  0.00     0.000 C 
BRANCH   3   4
ATOM      4  C   UNL     1       7.185  -3.107   4.900  1.00  0.00     0.000 C 
BRANCH   4   5
ATOM      5  C   UNL     1       6.221  -2.354   3.969  1.00  0.00     0.006 C 
BRANCH   5   6
ATOM      6  C   UNL     1       6.708  -2.319   2.514  1.00  0.00     0.053 C 
BRANCH   6   7
ATOM      7  C   UNL     1       5.583  -1.961   1.596  1.00  0.00     0.041 C 
ATOM      8  O   UNL     1       5.246  -2.746   0.670  1.00  0.00    -0.550 OA
ATOM      9  O   UNL     1       4.940  -0.737   1.729  1.00  0.00    -0.550 OA
ENDBRANCH   6   7
ENDBRANCH   5   6
ENDBRANCH   4   5
ENDBRANCH   3   4
ENDBRANCH   2   3
ENDBRANCH   1   2
BRANCH   1  10
ATOM     10  C   UNL     1      10.028  -0.696   5.638  1.00  0.00     0.027 C 
BRANCH  10  11
ATOM     11  C   UNL     1       8.895   0.230   5.266  1.00  0.00    -0.031 C 
ATOM     12  C   UNL     1       8.608   0.660   4.022  1.00  0.00    -0.031 C 
BRANCH  12  13
ATOM     13  C   UNL     1       9.334   0.253   2.761  1.00  0.00     0.027 C 
BRANCH  13  14
ATOM     14  C   UNL     1       8.495   0.548   1.510  1.00  0.00     0.004 C 
BRANCH  14  15
ATOM     15  C   UNL     1       7.495   1.694   1.736  1.00  0.00     0.000 C 
BRANCH  15  16
ATOM     16  C   UNL     1       7.969   3.028   1.132  1.00  0.00    -0.000 C 
BRANCH  16  17
ATOM     17  C   UNL     1       7.036   3.622   0.062  1.00  0.00    -0.003 C 
ATOM     18  C   UNL     1       6.795   2.676  -1.115  1.00  0.00     0.004 C 
ENDBRANCH  16  17
ENDBRANCH  15  16
ENDBRANCH  14  15
ENDBRANCH  13  14
ENDBRANCH  12  13
ENDBRANCH  10  11
ENDBRANCH   1  10
TORSDOF 13
ENDMDL
MODEL 2
REMARK VINA RESULT:    -4.762      2.725      5.045
REMARK INTER + INTRA:         -10.383
REMARK INTER:                  -8.176
REMARK INTRA:                  -2.207
REMARK UNBOUND:                -2.003
REMARK SMILES CCCCCCC=CCCCCCCCC(=O)[O-]
REMARK SMILES IDX 10 1 11 2 12 3 13 4 14 5 15 6 16 7 17 8 18 9 9 10 8 11 7 12
REMARK SMILES IDX 6 13 5 14 4 15 3 16 2 17 1 18
REMARK H PARENT
REMARK Flexibility Score: inf
ROOT
ATOM      1  C   UNL     1       5.297  -1.490   1.173  1.00  0.00     0.004 C 
ENDROOT
BRANCH   1   2
ATOM      2  C   UNL     1       5.957  -2.682   1.884  1.00  0.00     0.000 C 
BRANCH   2   3
ATOM      3  C   UNL     1       6.409  -2.344   3.314  1.00  0.00     0.000 C 
BRANCH   3   4
ATOM      4  C   UNL     1       7.880  -2.715   3.571  1.00  0.00     0.000 C 
BRANCH   4   5
ATOM      5  C   UNL     1       8.033  -3.794   4.656  1.00  0.00     0.006 C 
BRANCH   5   6
ATOM      6  C   UNL     1       6.953  -3.699   5.742  1.00  0.00     0.053 C 
BRANCH   6   7
ATOM      7  C   UNL     1       7.064  -4.852   6.690  1.00  0.00     0.041 C 
ATOM      8  O   UNL     1       7.231  -6.020   6.250  1.00  0.00    -0.550 OA
ATOM      9  O   UNL     1       6.933  -4.642   8.056  1.00  0.00    -0.550 OA
ENDBRANCH   6   7
ENDBRANCH   5   6
ENDBRANCH   4   5
ENDBRANCH   3   4
ENDBRANCH   2   3
ENDBRANCH   1   2
BRANCH   1  10
ATOM     10  C   UNL     1       5.353  -0.206   2.013  1.00  0.00     0.027 C 
BRANCH  10  11
ATOM     11  C   UNL     1       5.950   0.944   1.239  1.00  0.00    -0.031 C 
ATOM     12  C   UNL     1       7.266   1.181   1.076  1.00  0.00    -0.031 C 
BRANCH  12  13
ATOM     13  C   UNL     1       8.388   0.312   1.593  1.00  0.00     0.027 C 
BRANCH  13  14
ATOM     14  C   UNL     1       9.080   0.950   2.805  1.00  0.00     0.004 C 
BRANCH  14  15
ATOM     15  C   UNL     1       8.225   0.858   4.080  1.00  0.00     0.000 C 
BRANCH  15  16
ATOM     16  C   UNL     1       9.035   0.422   5.313  1.00  0.00    -0.000 C 
BRANCH  16  17
ATOM     17  C   UNL     1       8.219  -0.289   6.407  1.00  0.00    -0.003 C 
ATOM     18  C   UNL     1       6.713  -0.056   6.278  1.00  0.00     0.004 C 
ENDBRANCH  16  17
ENDBRANCH  15  16
ENDBRANCH  14  15
ENDBRANCH  13  14
ENDBRANCH  12  13
ENDBRANCH  10  11
ENDBRANCH   1  10
TORSDOF 13
ENDMDL
MODEL 3
REMARK VINA RESULT:    -4.726      2.485      5.592
REMARK INTER + INTRA:         -10.321
REMARK INTER:                  -8.150
REMARK INTRA:                  -2.172
REMARK UNBOUND:                -2.003
REMARK SMILES CCCCCCC=CCCCCCCCC(=O)[O-]
REMARK SMILES IDX 10 1 11 2 12 3 13 4 14 5 15 6 16 7 17 8 18 9 9 10 8 11 7 12
REMARK SMILES IDX 6 13 5 14 4 15 3 16 2 17 1 18
REMARK H PARENT
REMARK Flexibility Score: inf
ROOT
ATOM      1  C   UNL     1       5.601   0.166   4.069  1.00  0.00     0.004 C 
ENDROOT
BRANCH   1   2
ATOM      2  C   UNL     1       4.891   0.402   2.726  1.00  0.00     0.000 C 
BRANCH   2   3
ATOM      3  C   UNL     1       5.608  -0.280   1.548  1.00  0.00     0.000 C 
BRANCH   3   4
ATOM      4  C   UNL     1       6.590   0.662   0.830  1.00  0.00     0.000 C 
BRANCH   4   5
ATOM      5  C   UNL     1       5.919   1.962   0.356  1.00  0.00     0.006 C 
BRANCH   5   6
ATOM      6  C   UNL     1       6.868   2.858  -0.451  1.00  0.00     0.053 C 
BRANCH   6   7
ATOM      7  C   UNL     1       7.573   3.819   0.453  1.00  0.00     0.041 C 
ATOM      8  O   UNL     1       7.188   5.015   0.531  1.00  0.00    -0.550 OA
ATOM      9  O   UNL     1       8.687   3.406   1.172  1.00  0.00    -0.550 OA
ENDBRANCH   6   7
ENDBRANCH   5   6
ENDBRANCH   4   5
ENDBRANCH   3   4
ENDBRANCH   2   3
ENDBRANCH   1   2
BRANCH   1  10
ATOM     10  C   UNL     1       6.359   1.410   4.554  1.00  0.00     0.027 C 
BRANCH  10  11
ATOM     11  C   UNL     1       7.551   1.043   5.403  1.00  0.00    -0.031 C 
ATOM     12  C   UNL     1       8.757   0.660   4.941  1.00  0.00    -0.031 C 
BRANCH  12  13
ATOM     13  C   UNL     1       9.156   0.576   3.487  1.00  0.00     0.027 C 
BRANCH  13  14
ATOM     14  C   UNL     1       9.097  -0.868   2.970  1.00  0.00     0.004 C 
BRANCH  14  15
ATOM     15  C   UNL     1       9.441  -1.892   4.065  1.00  0.00     0.000 C 
BRANCH  15  16
ATOM     16  C   UNL     1       8.603  -3.179   3.965  1.00  0.00    -0.000 C 
BRANCH  16  17
ATOM     17  C   UNL     1       7.191  -3.081   4.567  1.00  0.00    -0.003 C 
ATOM     18  C   UNL     1       7.191  -2.624   6.026  1.00  0.00     0.004 C 
ENDBRANCH  16  17
ENDBRANCH  15  16
ENDBRANCH  14  15
ENDBRANCH  13  14
ENDBRANCH  12  13
ENDBRANCH  10  11
ENDBRANCH   1  10
TORSDOF 13
ENDMDL
MODEL 4
REMARK VINA RESULT:    -4.708      2.293      5.328
REMARK INTER + INTRA:         -10.289
REMARK INTER:                  -8.416
REMARK INTRA:                  -1.873
REMARK UNBOUND:                -2.003
REMARK SMILES CCCCCCC=CCCCCCCCC(=O)[O-]
REMARK SMILES IDX 10 1 11 2 12 3 13 4 14 5 15 6 16 7 17 8 18 9 9 10 8 11 7 12
REMARK SMILES IDX 6 13 5 14 4 15 3 16 2 17 1 18
REMARK H PARENT
REMARK Flexibility Score: inf
ROOT
ATOM      1  C   UNL     1       6.104  -2.576   2.359  1.00  0.00     0.004 C 
ENDROOT
BRANCH   1   2
ATOM      2  C   UNL     1       5.875  -1.166   1.792  1.00  0.00     0.000 C 
BRANCH   2   3
ATOM      3  C   UNL     1       7.089  -0.243   1.990  1.00  0.00     0.000 C 
BRANCH   3   4
ATOM      4  C   UNL     1       6.736   1.244   1.809  1.00  0.00     0.000 C 
BRANCH   4   5
ATOM      5  C   UNL     1       7.432   1.870   0.588  1.00  0.00     0.006 C 
BRANCH   5   6
ATOM      6  C   UNL     1       7.601   3.389   0.718  1.00  0.00     0.053 C 
BRANCH   6   7
ATOM      7  C   UNL     1       6.668   4.099  -0.212  1.00  0.00     0.041 C 
ATOM      8  O   UNL     1       6.746   5.348  -0.357  1.00  0.00    -0.550 OA
ATOM      9  O   UNL     1       5.680   3.389  -0.881  1.00  0.00    -0.550 OA
ENDBRANCH   6   7
ENDBRANCH   5   6
ENDBRANCH   4   5
ENDBRANCH   3   4
ENDBRANCH   2   3
ENDBRANCH   1   2
BRANCH   1  10
ATOM     10  C   UNL     1       6.651  -2.546   3.793  1.00  0.00     0.027 C 
BRANCH  10  11
ATOM     11  C   UNL     1       7.829  -3.475   3.962  1.00  0.00    -0.031 C 
ATOM     12  C   UNL     1       9.112  -3.096   4.118  1.00  0.00    -0.031 C 
BRANCH  12  13
ATOM     13  C   UNL     1       9.604  -1.671   4.207  1.00  0.00     0.027 C 
BRANCH  13  14
ATOM     14  C   UNL     1       9.999  -1.301   5.642  1.00  0.00     0.004 C 
BRANCH  14  15
ATOM     15  C   UNL     1       9.085  -0.216   6.237  1.00  0.00     0.000 C 
BRANCH  15  16
ATOM     16  C   UNL     1       8.466   0.698   5.164  1.00  0.00    -0.000 C 
BRANCH  16  17
ATOM     17  C   UNL     1       7.144   1.371   5.571  1.00  0.00    -0.003 C 
ATOM     18  C   UNL     1       5.948   0.418   5.531  1.00  0.00     0.004 C 
ENDBRANCH  16  17
ENDBRANCH  15  16
ENDBRANCH  14  15
ENDBRANCH  13  14
ENDBRANCH  12  13
ENDBRANCH  10  11
ENDBRANCH   1  10
TORSDOF 13
ENDMDL
MODEL 5
REMARK VINA RESULT:    -4.707      1.872      3.479
REMARK INTER + INTRA:         -10.287
REMARK INTER:                  -8.004
REMARK INTRA:                  -2.283
REMARK UNBOUND:                -2.003
REMARK SMILES CCCCCCC=CCCCCCCCC(=O)[O-]
REMARK SMILES IDX 10 1 11 2 12 3 13 4 14 5 15 6 16 7 17 8 18 9 9 10 8 11 7 12
REMARK SMILES IDX 6 13 5 14 4 15 3 16 2 17 1 18
REMARK H PARENT
REMARK Flexibility Score: inf
ROOT
ATOM      1  C   UNL     1       9.388  -2.259   4.626  1.00  0.00     0.004 C 
ENDROOT
BRANCH   1   2
ATOM      2  C   UNL     1       9.922  -1.292   3.557  1.00  0.00     0.000 C 
BRANCH   2   3
ATOM      3  C   UNL     1       9.111   0.012   3.477  1.00  0.00     0.000 C 
BRANCH   3   4
ATOM      4  C   UNL     1       8.588   0.467   4.850  1.00  0.00     0.000 C 
BRANCH   4   5
ATOM      5  C   UNL     1       7.122   0.926   4.799  1.00  0.00     0.006 C 
BRANCH   5   6
ATOM      6  C   UNL     1       6.283   0.357   5.952  1.00  0.00     0.053 C 
BRANCH   6   7
ATOM      7  C   UNL     1       4.951  -0.103   5.450  1.00  0.00     0.041 C 
ATOM      8  O   UNL     1       4.434   0.439   4.437  1.00  0.00    -0.550 OA
ATOM      9  O   UNL     1       4.257  -1.096   6.129  1.00  0.00    -0.550 OA
ENDBRANCH   6   7
ENDBRANCH   5   6
ENDBRANCH   4   5
ENDBRANCH   3   4
ENDBRANCH   2   3
ENDBRANCH   1   2
BRANCH   1  10
ATOM     10  C   UNL     1       8.514  -3.369   4.024  1.00  0.00     0.027 C 
BRANCH  10  11
ATOM     11  C   UNL     1       7.048  -3.139   4.302  1.00  0.00    -0.031 C 
ATOM     12  C   UNL     1       6.158  -2.614   3.438  1.00  0.00    -0.031 C 
BRANCH  12  13
ATOM     13  C   UNL     1       6.450  -2.205   2.014  1.00  0.00     0.027 C 
BRANCH  13  14
ATOM     14  C   UNL     1       5.707  -0.916   1.636  1.00  0.00     0.004 C 
BRANCH  14  15
ATOM     15  C   UNL     1       6.668   0.202   1.197  1.00  0.00     0.000 C 
BRANCH  15  16
ATOM     16  C   UNL     1       5.934   1.474   0.736  1.00  0.00    -0.000 C 
BRANCH  16  17
ATOM     17  C   UNL     1       6.851   2.619   0.273  1.00  0.00    -0.003 C 
ATOM     18  C   UNL     1       7.938   2.966   1.291  1.00  0.00     0.004 C 
ENDBRANCH  16  17
ENDBRANCH  15  16
ENDBRANCH  14  15
ENDBRANCH  13  14
ENDBRANCH  12  13
ENDBRANCH  10  11
ENDBRANCH   1  10
TORSDOF 13
ENDMDL
MODEL 6
REMARK VINA RESULT:    -4.627      2.724      3.788
REMARK INTER + INTRA:         -10.146
REMARK INTER:                  -7.925
REMARK INTRA:                  -2.221
REMARK UNBOUND:                -2.003
REMARK SMILES CCCCCCC=CCCCCCCCC(=O)[O-]
REMARK SMILES IDX 10 1 11 2 12 3 13 4 14 5 15 6 16 7 17 8 18 9 9 10 8 11 7 12
REMARK SMILES IDX 6 13 5 14 4 15 3 16 2 17 1 18
REMARK H PARENT
REMARK Flexibility Score: inf
ROOT
ATOM      1  C   UNL     1      10.116  -1.541   3.701  1.00  0.00     0.004 C 
ENDROOT
BRANCH   1   2
ATOM      2  C   UNL     1       9.678  -2.622   4.702  1.00  0.00     0.000 C 
BRANCH   2   3
ATOM      3  C   UNL     1       8.630  -3.583   4.116  1.00  0.00     0.000 C 
BRANCH   3   4
ATOM      4  C   UNL     1       7.548  -3.972   5.138  1.00  0.00     0.000 C 
BRANCH   4   5
ATOM      5  C   UNL     1       6.306  -3.069   5.054  1.00  0.00     0.006 C 
BRANCH   5   6
ATOM      6  C   UNL     1       5.924  -2.460   6.411  1.00  0.00     0.053 C 
BRANCH   6   7
ATOM      7  C   UNL     1       4.485  -2.733   6.717  1.00  0.00     0.041 C 
ATOM      8  O   UNL     1       3.919  -2.142   7.675  1.00  0.00    -0.550 OA
ATOM      9  O   UNL     1       3.784  -3.676   5.978  1.00  0.00    -0.550 OA
ENDBRANCH   6   7
ENDBRANCH   5   6
ENDBRANCH   4   5
ENDBRANCH   3   4
ENDBRANCH   2   3
ENDBRANCH   1   2
BRANCH   1  10
ATOM     10  C   UNL     1       9.141  -0.356   3.658  1.00  0.00     0.027 C 
BRANCH  10  11
ATOM     11  C   UNL     1       8.618  -0.011   5.032  1.00  0.00    -0.031 C 
ATOM     12  C   UNL     1       7.530   0.739   5.293  1.00  0.00    -0.031 C 
BRANCH  12  13
ATOM     13  C   UNL     1       6.602   1.332   4.259  1.00  0.00     0.027 C 
BRANCH  13  14
ATOM     14  C   UNL     1       5.358   0.456   4.053  1.00  0.00     0.004 C 
BRANCH  14  15
ATOM     15  C   UNL     1       4.898   0.435   2.585  1.00  0.00     0.000 C 
BRANCH  15  16
ATOM     16  C   UNL     1       5.901  -0.269   1.654  1.00  0.00    -0.000 C 
BRANCH  16  17
ATOM     17  C   UNL     1       6.020  -1.789   1.862  1.00  0.00    -0.003 C 
ATOM     18  C   UNL     1       5.262  -2.599   0.810  1.00  0.00     0.004 C 
ENDBRANCH  16  17
ENDBRANCH  15  16
ENDBRANCH  14  15
ENDBRANCH  13  14
ENDBRANCH  12  13
ENDBRANCH  10  11
ENDBRANCH   1  10
TORSDOF 13
ENDMDL
MODEL 7
REMARK VINA RESULT:    -4.620      2.454      3.461
REMARK INTER + INTRA:         -10.134
REMARK INTER:                  -8.130
REMARK INTRA:                  -2.003
REMARK UNBOUND:                -2.003
REMARK SMILES CCCCCCC=CCCCCCCCC(=O)[O-]
REMARK SMILES IDX 10 1 11 2 12 3 13 4 14 5 15 6 16 7 17 8 18 9 9 10 8 11 7 12
REMARK SMILES IDX 6 13 5 14 4 15 3 16 2 17 1 18
REMARK H PARENT
REMARK Flexibility Score: inf
ROOT
ATOM      1  C   UNL     1       7.731   0.885   5.914  1.00  0.00     0.004 C 
ENDROOT
BRANCH   1   2
ATOM      2  C   UNL     1       9.003   0.460   5.164  1.00  0.00     0.000 C 
BRANCH   2   3
ATOM      3  C   UNL     1       9.345  -1.025   5.368  1.00  0.00     0.000 C 
BRANCH   3   4
ATOM      4  C   UNL     1       9.394  -1.807   4.044  1.00  0.00     0.000 C 
BRANCH   4   5
ATOM      5  C   UNL     1       8.952  -3.271   4.208  1.00  0.00     0.006 C 
BRANCH   5   6
ATOM      6  C   UNL     1       8.655  -3.639   5.668  1.00  0.00     0.053 C 
BRANCH   6   7
ATOM      7  C   UNL     1       7.332  -4.331   5.773  1.00  0.00     0.041 C 
ATOM      8  O   UNL     1       6.266  -3.691   5.572  1.00  0.00    -0.550 OA
ATOM      9  O   UNL     1       7.274  -5.668   6.141  1.00  0.00    -0.550 OA
ENDBRANCH   6   7
ENDBRANCH   5   6
ENDBRANCH   4   5
ENDBRANCH   3   4
ENDBRANCH   2   3
ENDBRANCH   1   2
BRANCH   1  10
ATOM     10  C   UNL     1       6.556  -0.070   5.658  1.00  0.00     0.027 C 
BRANCH  10  11
ATOM     11  C   UNL     1       5.545   0.527   4.710  1.00  0.00    -0.031 C 
ATOM     12  C   UNL     1       5.499   0.321   3.379  1.00  0.00    -0.031 C 
BRANCH  12  13
ATOM     13  C   UNL     1       6.419  -0.586   2.597  1.00  0.00     0.027 C 
BRANCH  13  14
ATOM     14  C   UNL     1       7.062   0.150   1.414  1.00  0.00     0.004 C 
BRANCH  14  15
ATOM     15  C   UNL     1       7.769   1.444   1.849  1.00  0.00     0.000 C 
BRANCH  15  16
ATOM     16  C   UNL     1       7.427   2.644   0.948  1.00  0.00    -0.000 C 
BRANCH  16  17
ATOM     17  C   UNL     1       6.283   2.399  -0.051  1.00  0.00    -0.003 C 
ATOM     18  C   UNL     1       6.701   2.618  -1.506  1.00  0.00     0.004 C 
ENDBRANCH  16  17
ENDBRANCH  15  16
ENDBRANCH  14  15
ENDBRANCH  13  14
ENDBRANCH  12  13
ENDBRANCH  10  11
ENDBRANCH   1  10
TORSDOF 13
ENDMDL
MODEL 8
REMARK VINA RESULT:    -4.617      2.834      3.989
REMARK INTER + INTRA:         -10.130
REMARK INTER:                  -8.275
REMARK INTRA:                  -1.854
REMARK UNBOUND:                -2.003
REMARK SMILES CCCCCCC=CCCCCCCCC(=O)[O-]
REMARK SMILES IDX 10 1 11 2 12 3 13 4 14 5 15 6 16 7 17 8 18 9 9 10 8 11 7 12
REMARK SMILES IDX 6 13 5 14 4 15 3 16 2 17 1 18
REMARK H PARENT
REMARK Flexibility Score: inf
ROOT
ATOM      1  C   UNL     1       9.002  -1.256   4.711  1.00  0.00     0.004 C 
ENDROOT
BRANCH   1   2
ATOM      2  C   UNL     1       8.500   0.163   5.022  1.00  0.00     0.000 C 
BRANCH   2   3
ATOM      3  C   UNL     1       7.485   0.194   6.177  1.00  0.00     0.000 C 
BRANCH   3   4
ATOM      4  C   UNL     1       6.035   0.341   5.685  1.00  0.00     0.000 C 
BRANCH   4   5
ATOM      5  C   UNL     1       5.136  -0.818   6.148  1.00  0.00     0.006 C 
BRANCH   5   6
ATOM      6  C   UNL     1       4.128  -0.392   7.223  1.00  0.00     0.053 C 
BRANCH   6   7
ATOM      7  C   UNL     1       2.732  -0.698   6.778  1.00  0.00     0.041 C 
ATOM      8  O   UNL     1       2.189  -0.007   5.875  1.00  0.00    -0.550 OA
ATOM      9  O   UNL     1       2.012  -1.712   7.396  1.00  0.00    -0.550 OA
ENDBRANCH   6   7
ENDBRANCH   5   6
ENDBRANCH   4   5
ENDBRANCH   3   4
ENDBRANCH   2   3
ENDBRANCH   1   2
BRANCH   1  10
ATOM     10  C   UNL     1       8.446  -1.794   3.385  1.00  0.00     0.027 C 
BRANCH  10  11
ATOM     11  C   UNL     1       7.154  -2.548   3.585  1.00  0.00    -0.031 C 
ATOM     12  C   UNL     1       6.058  -2.450   2.808  1.00  0.00    -0.031 C 
BRANCH  12  13
ATOM     13  C   UNL     1       5.937  -1.607   1.561  1.00  0.00     0.027 C 
BRANCH  13  14
ATOM     14  C   UNL     1       5.305  -0.242   1.865  1.00  0.00     0.004 C 
BRANCH  14  15
ATOM     15  C   UNL     1       6.359   0.867   2.015  1.00  0.00     0.000 C 
BRANCH  15  16
ATOM     16  C   UNL     1       7.012   1.257   0.677  1.00  0.00    -0.000 C 
BRANCH  16  17
ATOM     17  C   UNL     1       6.401   2.493  -0.006  1.00  0.00    -0.003 C 
ATOM     18  C   UNL     1       6.757   2.596  -1.490  1.00  0.00     0.004 C 
ENDBRANCH  16  17
ENDBRANCH  15  16
ENDBRANCH  14  15
ENDBRANCH  13  14
ENDBRANCH  12  13
ENDBRANCH  10  11
ENDBRANCH   1  10
TORSDOF 13
ENDMDL
MODEL 9
REMARK VINA RESULT:    -4.605      2.484      5.853
REMARK INTER + INTRA:         -10.108
REMARK INTER:                  -7.797
REMARK INTRA:                  -2.311
REMARK UNBOUND:                -2.003
REMARK SMILES CCCCCCC=CCCCCCCCC(=O)[O-]
REMARK SMILES IDX 10 1 11 2 12 3 13 4 14 5 15 6 16 7 17 8 18 9 9 10 8 11 7 12
REMARK SMILES IDX 6 13 5 14 4 15 3 16 2 17 1 18
REMARK H PARENT
REMARK Flexibility Score: inf
ROOT
ATOM      1  C   UNL     1       7.309   0.708   5.205  1.00  0.00     0.004 C 
ENDROOT
BRANCH   1   2
ATOM      2  C   UNL     1       6.923   1.300   3.840  1.00  0.00     0.000 C 
BRANCH   2   3
ATOM      3  C   UNL     1       5.792   0.518   3.152  1.00  0.00     0.000 C 
BRANCH   3   4
ATOM      4  C   UNL     1       6.116   0.176   1.688  1.00  0.00     0.000 C 
BRANCH   4   5
ATOM      5  C   UNL     1       7.255   1.039   1.120  1.00  0.00     0.006 C 
BRANCH   5   6
ATOM      6  C   UNL     1       6.742   2.209   0.268  1.00  0.00     0.053 C 
BRANCH   6   7
ATOM      7  C   UNL     1       7.537   3.445   0.548  1.00  0.00     0.041 C 
ATOM      8  O   UNL     1       8.628   3.369   1.173  1.00  0.00    -0.550 OA
ATOM      9  O   UNL     1       7.049   4.687   0.163  1.00  0.00    -0.550 OA
ENDBRANCH   6   7
ENDBRANCH   5   6
ENDBRANCH   4   5
ENDBRANCH   3   4
ENDBRANCH   2   3
ENDBRANCH   1   2
BRANCH   1  10
ATOM     10  C   UNL     1       8.801   0.358   5.289  1.00  0.00     0.027 C 
BRANCH  10  11
ATOM     11  C   UNL     1       9.358  -0.045   3.945  1.00  0.00    -0.031 C 
ATOM     12  C   UNL     1       9.383  -1.297   3.449  1.00  0.00    -0.031 C 
BRANCH  12  13
ATOM     13  C   UNL     1       8.813  -2.522   4.123  1.00  0.00     0.027 C 
BRANCH  13  14
ATOM     14  C   UNL     1       7.438  -2.891   3.548  1.00  0.00     0.004 C 
BRANCH  14  15
ATOM     15  C   UNL     1       6.337  -2.883   4.622  1.00  0.00     0.000 C 
BRANCH  15  16
ATOM     16  C   UNL     1       6.898  -2.912   6.054  1.00  0.00    -0.000 C 
BRANCH  16  17
ATOM     17  C   UNL     1       6.915  -4.301   6.716  1.00  0.00    -0.003 C 
ATOM     18  C   UNL     1       8.245  -4.623   7.398  1.00  0.00     0.004 C 
ENDBRANCH  16  17
ENDBRANCH  15  16
ENDBRANCH  14  15
ENDBRANCH  13  14
ENDBRANCH  12  13
ENDBRANCH  10  11
ENDBRANCH   1  10
TORSDOF 13
ENDMDL
