MODEL 1
REMARK VINA RESULT:    -4.293      0.000      0.000
REMARK INTER + INTRA:         -16.174
REMARK INTER:                 -11.320
REMARK INTRA:                  -4.855
REMARK UNBOUND:                -4.855
REMARK SMILES CCCCCCCCCCCCCCCCCCCCCCCCCCCCCC(=O)[O-]
REMARK SMILES IDX 16 1 17 2 18 3 19 4 20 5 21 6 22 7 23 8 24 9 25 10 26 11
REMARK SMILES IDX 27 12 28 13 29 14 30 15 31 16 32 17 15 18 14 19 13 20 12 21
REMARK SMILES IDX 11 22 10 23 9 24 8 25 7 26 6 27 5 28 4 29 3 30 2 31 1 32
REMARK H PARENT
REMARK Flexibility Score: inf
ROOT
ATOM      1  C   UNL     1       1.054  20.848  30.547  1.00  0.00     0.000 C 
ENDROOT
BRANCH   1   2
ATOM      2  C   UNL     1      -0.153  19.994  30.118  1.00  0.00     0.000 C 
BRANCH   2   3
ATOM      3  C   UNL     1       0.228  18.532  29.840  1.00  0.00     0.000 C 
BRANCH   3   4
ATOM      4  C   UNL     1      -0.581  17.922  28.679  1.00  0.00     0.000 C 
BRANCH   4   5
ATOM      5  C   UNL     1       0.326  17.375  27.561  1.00  0.00     0.000 C 
BRANCH   5   6
ATOM      6  C   UNL     1       1.822  17.662  27.784  1.00  0.00     0.000 C 
BRANCH   6   7
ATOM      7  C   UNL     1       2.715  16.490  27.348  1.00  0.00     0.000 C 
BRANCH   7   8
ATOM      8  C   UNL     1       3.125  15.639  28.556  1.00  0.00     0.000 C 
BRANCH   8   9
ATOM      9  C   UNL     1       3.379  16.513  29.793  1.00  0.00     0.000 C 
BRANCH   9  10
ATOM     10  C   UNL     1       2.477  16.126  30.984  1.00  0.00     0.000 C 
BRANCH  10  11
ATOM     11  C   UNL     1       2.171  14.618  31.072  1.00  0.00     0.000 C 
BRANCH  11  12
ATOM     12  C   UNL     1       0.680  14.264  31.209  1.00  0.00     0.000 C 
BRANCH  12  13
ATOM     13  C   UNL     1      -0.111  14.501  29.912  1.00  0.00     0.006 C 
BRANCH  13  14
ATOM     14  C   UNL     1      -1.311  13.551  29.820  1.00  0.00     0.053 C 
BRANCH  14  15
ATOM     15  C   UNL     1      -0.873  12.119  29.825  1.00  0.00     0.041 C 
ATOM     16  O   UNL     1      -0.140  11.672  28.901  1.00  0.00    -0.550 OA
ATOM     17  O   UNL     1      -1.306  11.265  30.834  1.00  0.00    -0.550 OA
ENDBRANCH  14  15
ENDBRANCH  13  14
ENDBRANCH  12  13
ENDBRANCH  11  12
ENDBRANCH  10  11
ENDBRANCH   9  10
ENDBRANCH   8   9
ENDBRANCH   7   8
ENDBRANCH   6   7
ENDBRANCH   5   6
ENDBRANCH   4   5
ENDBRANCH   3   4
ENDBRANCH   2   3
ENDBRANCH   1   2
BRANCH   1  18
ATOM     18  C   UNL     1       2.016  20.073  31.462  1.00  0.00     0.000 C 
BRANCH  18  19
ATOM     19  C   UNL     1       3.476  20.160  30.984  1.00  0.00     0.000 C 
BRANCH  19  20
ATOM     20  C   UNL     1       3.598  20.237  29.451  1.00  0.00     0.000 C 
BRANCH  20  21
ATOM     21  C   UNL     1       4.963  19.797  28.886  1.00  0.00     0.000 C 
BRANCH  21  22
ATOM     22  C   UNL     1       5.651  20.900  28.061  1.00  0.00     0.000 C 
BRANCH  22  23
ATOM     23  C   UNL     1       6.591  21.773  28.908  1.00  0.00     0.000 C 
BRANCH  23  24
ATOM     24  C   UNL     1       7.483  22.681  28.043  1.00  0.00    -0.000 C 
BRANCH  24  25
ATOM     25  C   UNL     1       8.934  22.740  28.548  1.00  0.00    -0.000 C 
BRANCH  25  26
ATOM     26  C   UNL     1       9.910  21.993  27.621  1.00  0.00    -0.000 C 
BRANCH  26  27
ATOM     27  C   UNL     1       9.230  20.867  26.822  1.00  0.00    -0.000 C 
BRANCH  27  28
ATOM     28  C   UNL     1       9.293  19.469  27.471  1.00  0.00    -0.000 C 
BRANCH  28  29
ATOM     29  C   UNL     1      10.290  19.335  28.636  1.00  0.00    -0.000 C 
BRANCH  29  30
ATOM     30  C   UNL     1       9.655  18.725  29.898  1.00  0.00    -0.000 C 
BRANCH  30  31
ATOM     31  C   UNL     1       8.956  19.777  30.771  1.00  0.00    -0.003 C 
ATOM     32  C   UNL     1       7.697  19.236  31.450  1.00  0.00     0.004 C 
ENDBRANCH  30  31
ENDBRANCH  29  30
ENDBRANCH  28  29
ENDBRANCH  27  28
ENDBRANCH  26  27
ENDBRANCH  25  26
ENDBRANCH  24  25
ENDBRANCH  23  24
ENDBRANCH  22  23
ENDBRANCH  21  22
ENDBRANCH  20  21
ENDBRANCH  19  20
ENDBRANCH  18  19
ENDBRANCH   1  18
TORSDOF 28
ENDMDL
MODEL 2
REMARK VINA RESULT:    -4.205      1.619      3.300
REMARK INTER + INTRA:         -15.943
REMARK INTER:                 -11.136
REMARK INTRA:                  -4.806
REMARK UNBOUND:                -4.855
REMARK SMILES CCCCCCCCCCCCCCCCCCCCCCCCCCCCCC(=O)[O-]
REMARK SMILES IDX 16 1 17 2 18 3 19 4 20 5 21 6 22 7 23 8 24 9 25 10 26 11
REMARK SMILES IDX 27 12 28 13 29 14 30 15 31 16 32 17 15 18 14 19 13 20 12 21
REMARK SMILES IDX 11 22 10 23 9 24 8 25 7 26 6 27 5 28 4 29 3 30 2 31 1 32
REMARK H PARENT
REMARK Flexibility Score: inf
ROOT
ATOM      1  C   UNL     1       4.725  16.245  27.644  1.00  0.00     0.000 C 
ENDROOT
BRANCH   1   2
ATOM      2  C   UNL     1       3.261  16.523  27.262  1.00  0.00     0.000 C 
BRANCH   2   3
ATOM      3  C   UNL     1       2.699  17.776  27.951  1.00  0.00     0.000 C 
BRANCH   3   4
ATOM      4  C   UNL     1       1.159  17.788  27.992  1.00  0.00     0.000 C 
BRANCH   4   5
ATOM      5  C   UNL     1       0.615  18.378  29.306  1.00  0.00     0.000 C 
BRANCH   5   6
ATOM      6  C   UNL     1       1.715  18.875  30.261  1.00  0.00     0.000 C 
BRANCH   6   7
ATOM      7  C   UNL     1       1.634  18.212  31.645  1.00  0.00     0.000 C 
BRANCH   7   8
ATOM      8  C   UNL     1       2.375  16.869  31.649  1.00  0.00     0.000 C 
BRANCH   8   9
ATOM      9  C   UNL     1       1.412  15.701  31.389  1.00  0.00     0.000 C 
BRANCH   9  10
ATOM     10  C   UNL     1       1.904  14.772  30.258  1.00  0.00     0.000 C 
BRANCH  10  11
ATOM     11  C   UNL     1       0.818  14.414  29.226  1.00  0.00     0.000 C 
BRANCH  11  12
ATOM     12  C   UNL     1      -0.551  14.047  29.823  1.00  0.00     0.000 C 
BRANCH  12  13
ATOM     13  C   UNL     1      -0.818  12.533  29.817  1.00  0.00     0.006 C 
BRANCH  13  14
ATOM     14  C   UNL     1      -0.679  11.945  31.227  1.00  0.00     0.053 C 
BRANCH  14  15
ATOM     15  C   UNL     1       0.492  11.016  31.314  1.00  0.00     0.041 C 
ATOM     16  O   UNL     1       0.474  10.039  32.111  1.00  0.00    -0.550 OA
ATOM     17  O   UNL     1       1.623  11.251  30.539  1.00  0.00    -0.550 OA
ENDBRANCH  14  15
ENDBRANCH  13  14
ENDBRANCH  12  13
ENDBRANCH  11  12
ENDBRANCH  10  11
ENDBRANCH   9  10
ENDBRANCH   8   9
ENDBRANCH   7   8
ENDBRANCH   6   7
ENDBRANCH   5   6
ENDBRANCH   4   5
ENDBRANCH   3   4
ENDBRANCH   2   3
ENDBRANCH   1   2
BRANCH   1  18
ATOM     18  C   UNL     1       5.090  16.840  29.014  1.00  0.00     0.000 C 
BRANCH  18  19
ATOM     19  C   UNL     1       6.550  17.324  29.070  1.00  0.00     0.000 C 
BRANCH  19  20
ATOM     20  C   UNL     1       6.669  18.860  29.081  1.00  0.00     0.000 C 
BRANCH  20  21
ATOM     21  C   UNL     1       5.449  19.600  29.663  1.00  0.00     0.000 C 
BRANCH  21  22
ATOM     22  C   UNL     1       5.147  20.920  28.930  1.00  0.00     0.000 C 
BRANCH  22  23
ATOM     23  C   UNL     1       6.317  21.390  28.051  1.00  0.00     0.000 C 
BRANCH  23  24
ATOM     24  C   UNL     1       6.830  22.783  28.455  1.00  0.00    -0.000 C 
BRANCH  24  25
ATOM     25  C   UNL     1       8.365  22.869  28.466  1.00  0.00    -0.000 C 
BRANCH  25  26
ATOM     26  C   UNL     1       9.003  21.871  29.448  1.00  0.00    -0.000 C 
BRANCH  26  27
ATOM     27  C   UNL     1      10.117  21.027  28.802  1.00  0.00    -0.000 C 
BRANCH  27  28
ATOM     28  C   UNL     1      10.094  20.979  27.260  1.00  0.00    -0.000 C 
BRANCH  28  29
ATOM     29  C   UNL     1       9.252  19.841  26.656  1.00  0.00    -0.000 C 
BRANCH  29  30
ATOM     30  C   UNL     1       9.995  18.494  26.638  1.00  0.00    -0.000 C 
BRANCH  30  31
ATOM     31  C   UNL     1       9.323  17.465  25.717  1.00  0.00    -0.003 C 
ATOM     32  C   UNL     1       9.132  16.107  26.393  1.00  0.00     0.004 C 
ENDBRANCH  30  31
ENDBRANCH  29  30
ENDBRANCH  28  29
ENDBRANCH  27  28
ENDBRANCH  26  27
ENDBRANCH  25  26
ENDBRANCH  24  25
ENDBRANCH  23  24
ENDBRANCH  22  23
ENDBRANCH  21  22
ENDBRANCH  20  21
ENDBRANCH  19  20
ENDBRANCH  18  19
ENDBRANCH   1  18
TORSDOF 28
ENDMDL
MODEL 3
REMARK VINA RESULT:    -4.161      3.216      8.512
REMARK INTER + INTRA:         -15.828
REMARK INTER:                 -10.840
REMARK INTRA:                  -4.987
REMARK UNBOUND:                -4.855
REMARK SMILES CCCCCCCCCCCCCCCCCCCCCCCCCCCCCC(=O)[O-]
REMARK SMILES IDX 16 1 17 2 18 3 19 4 20 5 21 6 22 7 23 8 24 9 25 10 26 11
REMARK SMILES IDX 27 12 28 13 29 14 30 15 31 16 32 17 15 18 14 19 13 20 12 21
REMARK SMILES IDX 11 22 10 23 9 24 8 25 7 26 6 27 5 28 4 29 3 30 2 31 1 32
REMARK H PARENT
REMARK Flexibility Score: inf
ROOT
ATOM      1  C   UNL     1       0.921  18.299  29.396  1.00  0.00     0.000 C 
ENDROOT
BRANCH   1   2
ATOM      2  C   UNL     1       0.323  19.390  30.302  1.00  0.00     0.000 C 
BRANCH   2   3
ATOM      3  C   UNL     1       1.160  20.678  30.308  1.00  0.00     0.000 C 
BRANCH   3   4
ATOM      4  C   UNL     1       2.507  20.511  29.580  1.00  0.00     0.000 C 
BRANCH   4   5
ATOM      5  C   UNL     1       3.666  20.233  30.555  1.00  0.00     0.000 C 
BRANCH   5   6
ATOM      6  C   UNL     1       5.014  20.817  30.093  1.00  0.00     0.000 C 
BRANCH   6   7
ATOM      7  C   UNL     1       5.371  20.402  28.657  1.00  0.00     0.000 C 
BRANCH   7   8
ATOM      8  C   UNL     1       6.251  21.463  27.986  1.00  0.00     0.000 C 
BRANCH   8   9
ATOM      9  C   UNL     1       6.912  22.379  29.028  1.00  0.00     0.000 C 
BRANCH   9  10
ATOM     10  C   UNL     1       8.005  23.280  28.413  1.00  0.00     0.000 C 
BRANCH  10  11
ATOM     11  C   UNL     1       9.255  22.512  27.941  1.00  0.00     0.000 C 
BRANCH  11  12
ATOM     12  C   UNL     1       9.709  21.374  28.870  1.00  0.00     0.000 C 
BRANCH  12  13
ATOM     13  C   UNL     1      10.556  20.315  28.147  1.00  0.00     0.006 C 
BRANCH  13  14
ATOM     14  C   UNL     1       9.941  19.952  26.791  1.00  0.00     0.053 C 
BRANCH  14  15
ATOM     15  C   UNL     1       9.185  18.661  26.865  1.00  0.00     0.041 C 
ATOM     16  O   UNL     1       9.383  17.754  26.012  1.00  0.00    -0.550 OA
ATOM     17  O   UNL     1       8.230  18.473  27.860  1.00  0.00    -0.550 OA
ENDBRANCH  14  15
ENDBRANCH  13  14
ENDBRANCH  12  13
ENDBRANCH  11  12
ENDBRANCH  10  11
ENDBRANCH   9  10
ENDBRANCH   8   9
ENDBRANCH   7   8
ENDBRANCH   6   7
ENDBRANCH   5   6
ENDBRANCH   4   5
ENDBRANCH   3   4
ENDBRANCH   2   3
ENDBRANCH   1   2
BRANCH   1  18
ATOM     18  C   UNL     1       0.962  16.928  30.090  1.00  0.00     0.000 C 
BRANCH  18  19
ATOM     19  C   UNL     1       1.408  17.029  31.559  1.00  0.00     0.000 C 
BRANCH  19  20
ATOM     20  C   UNL     1       2.939  17.008  31.722  1.00  0.00     0.000 C 
BRANCH  20  21
ATOM     21  C   UNL     1       3.683  16.090  30.734  1.00  0.00     0.000 C 
BRANCH  21  22
ATOM     22  C   UNL     1       4.754  16.836  29.918  1.00  0.00     0.000 C 
BRANCH  22  23
ATOM     23  C   UNL     1       4.827  16.357  28.459  1.00  0.00     0.000 C 
BRANCH  23  24
ATOM     24  C   UNL     1       3.782  17.047  27.564  1.00  0.00    -0.000 C 
BRANCH  24  25
ATOM     25  C   UNL     1       2.674  16.088  27.099  1.00  0.00    -0.000 C 
BRANCH  25  26
ATOM     26  C   UNL     1       3.086  14.610  27.224  1.00  0.00    -0.000 C 
BRANCH  26  27
ATOM     27  C   UNL     1       2.198  13.825  28.207  1.00  0.00    -0.000 C 
BRANCH  27  28
ATOM     28  C   UNL     1       2.950  12.845  29.132  1.00  0.00    -0.000 C 
BRANCH  28  29
ATOM     29  C   UNL     1       2.137  12.330  30.334  1.00  0.00    -0.000 C 
BRANCH  29  30
ATOM     30  C   UNL     1       1.156  13.379  30.885  1.00  0.00    -0.000 C 
BRANCH  30  31
ATOM     31  C   UNL     1      -0.298  12.883  30.880  1.00  0.00    -0.003 C 
ATOM     32  C   UNL     1      -1.165  13.614  29.854  1.00  0.00     0.004 C 
ENDBRANCH  30  31
ENDBRANCH  29  30
ENDBRANCH  28  29
ENDBRANCH  27  28
ENDBRANCH  26  27
ENDBRANCH  25  26
ENDBRANCH  24  25
ENDBRANCH  23  24
ENDBRANCH  22  23
ENDBRANCH  21  22
ENDBRANCH  20  21
ENDBRANCH  19  20
ENDBRANCH  18  19
ENDBRANCH   1  18
TORSDOF 28
ENDMDL
MODEL 4
REMARK VINA RESULT:    -4.141      4.000      8.472
REMARK INTER + INTRA:         -15.774
REMARK INTER:                 -10.804
REMARK INTRA:                  -4.970
REMARK UNBOUND:                -4.855
REMARK SMILES CCCCCCCCCCCCCCCCCCCCCCCCCCCCCC(=O)[O-]
REMARK SMILES IDX 16 1 17 2 18 3 19 4 20 5 21 6 22 7 23 8 24 9 25 10 26 11
REMARK SMILES IDX 27 12 28 13 29 14 30 15 31 16 32 17 15 18 14 19 13 20 12 21
REMARK SMILES IDX 11 22 10 23 9 24 8 25 7 26 6 27 5 28 4 29 3 30 2 31 1 32
REMARK H PARENT
REMARK Flexibility Score: inf
ROOT
ATOM      1  C   UNL     1       4.250  12.882  30.256  1.00  0.00     0.000 C 
ENDROOT
BRANCH   1   2
ATOM      2  C   UNL     1       3.434  11.651  30.690  1.00  0.00     0.000 C 
BRANCH   2   3
ATOM      3  C   UNL     1       1.933  11.951  30.813  1.00  0.00     0.000 C 
BRANCH   3   4
ATOM      4  C   UNL     1       1.361  12.631  29.555  1.00  0.00     0.000 C 
BRANCH   4   5
ATOM      5  C   UNL     1       0.607  13.932  29.887  1.00  0.00     0.000 C 
BRANCH   5   6
ATOM      6  C   UNL     1       0.988  14.535  31.252  1.00  0.00     0.000 C 
BRANCH   6   7
ATOM      7  C   UNL     1       1.366  16.021  31.152  1.00  0.00     0.000 C 
BRANCH   7   8
ATOM      8  C   UNL     1       2.890  16.198  31.175  1.00  0.00     0.000 C 
BRANCH   8   9
ATOM      9  C   UNL     1       3.297  17.585  30.657  1.00  0.00     0.000 C 
BRANCH   9  10
ATOM     10  C   UNL     1       4.691  17.581  29.993  1.00  0.00     0.000 C 
BRANCH  10  11
ATOM     11  C   UNL     1       5.111  18.945  29.412  1.00  0.00     0.000 C 
BRANCH  11  12
ATOM     12  C   UNL     1       6.600  19.068  29.051  1.00  0.00     0.000 C 
BRANCH  12  13
ATOM     13  C   UNL     1       7.078  20.527  28.974  1.00  0.00     0.006 C 
BRANCH  13  14
ATOM     14  C   UNL     1       7.973  20.748  27.749  1.00  0.00     0.053 C 
BRANCH  14  15
ATOM     15  C   UNL     1       8.696  22.057  27.833  1.00  0.00     0.041 C 
ATOM     16  O   UNL     1       8.183  23.032  28.447  1.00  0.00    -0.550 OA
ATOM     17  O   UNL     1       9.924  22.213  27.200  1.00  0.00    -0.550 OA
ENDBRANCH  14  15
ENDBRANCH  13  14
ENDBRANCH  12  13
ENDBRANCH  11  12
ENDBRANCH  10  11
ENDBRANCH   9  10
ENDBRANCH   8   9
ENDBRANCH   7   8
ENDBRANCH   6   7
ENDBRANCH   5   6
ENDBRANCH   4   5
ENDBRANCH   3   4
ENDBRANCH   2   3
ENDBRANCH   1   2
BRANCH   1  18
ATOM     18  C   UNL     1       5.128  12.591  29.028  1.00  0.00     0.000 C 
BRANCH  18  19
ATOM     19  C   UNL     1       5.317  13.832  28.137  1.00  0.00     0.000 C 
BRANCH  19  20
ATOM     20  C   UNL     1       4.001  14.315  27.499  1.00  0.00     0.000 C 
BRANCH  20  21
ATOM     21  C   UNL     1       4.151  15.488  26.513  1.00  0.00     0.000 C 
BRANCH  21  22
ATOM     22  C   UNL     1       3.316  16.718  26.916  1.00  0.00     0.000 C 
BRANCH  22  23
ATOM     23  C   UNL     1       1.889  16.348  27.350  1.00  0.00     0.000 C 
BRANCH  23  24
ATOM     24  C   UNL     1       1.077  17.576  27.798  1.00  0.00    -0.000 C 
BRANCH  24  25
ATOM     25  C   UNL     1      -0.338  17.208  28.275  1.00  0.00    -0.000 C 
BRANCH  25  26
ATOM     26  C   UNL     1      -1.003  18.343  29.074  1.00  0.00    -0.000 C 
BRANCH  26  27
ATOM     27  C   UNL     1       0.016  19.224  29.819  1.00  0.00    -0.000 C 
BRANCH  27  28
ATOM     28  C   UNL     1      -0.479  20.640  30.180  1.00  0.00    -0.000 C 
BRANCH  28  29
ATOM     29  C   UNL     1       0.631  21.690  30.372  1.00  0.00    -0.000 C 
BRANCH  29  30
ATOM     30  C   UNL     1       2.043  21.097  30.233  1.00  0.00    -0.000 C 
BRANCH  30  31
ATOM     31  C   UNL     1       3.037  21.705  31.233  1.00  0.00    -0.003 C 
ATOM     32  C   UNL     1       4.260  22.317  30.549  1.00  0.00     0.004 C 
ENDBRANCH  30  31
ENDBRANCH  29  30
ENDBRANCH  28  29
ENDBRANCH  27  28
ENDBRANCH  26  27
ENDBRANCH  25  26
ENDBRANCH  24  25
ENDBRANCH  23  24
ENDBRANCH  22  23
ENDBRANCH  21  22
ENDBRANCH  20  21
ENDBRANCH  19  20
ENDBRANCH  18  19
ENDBRANCH   1  18
TORSDOF 28
ENDMDL
MODEL 5
REMARK VINA RESULT:    -4.112      1.518      4.126
REMARK INTER + INTRA:         -15.697
REMARK INTER:                 -11.952
REMARK INTRA:                  -3.745
REMARK UNBOUND:                -4.855
REMARK SMILES CCCCCCCCCCCCCCCCCCCCCCCCCCCCCC(=O)[O-]
REMARK SMILES IDX 16 1 17 2 18 3 19 4 20 5 21 6 22 7 23 8 24 9 25 10 26 11
REMARK SMILES IDX 27 12 28 13 29 14 30 15 31 16 32 17 15 18 14 19 13 20 12 21
REMARK SMILES IDX 11 22 10 23 9 24 8 25 7 26 6 27 5 28 4 29 3 30 2 31 1 32
REMARK H PARENT
REMARK Flexibility Score: inf
ROOT
ATOM      1  C   UNL     1       3.280  19.034  30.165  1.00  0.00     0.000 C 
ENDROOT
BRANCH   1   2
ATOM      2  C   UNL     1       3.458  20.003  31.347  1.00  0.00     0.000 C 
BRANCH   2   3
ATOM      3  C   UNL     1       3.285  21.473  30.937  1.00  0.00     0.000 C 
BRANCH   3   4
ATOM      4  C   UNL     1       1.943  22.064  31.410  1.00  0.00     0.000 C 
BRANCH   4   5
ATOM      5  C   UNL     1       1.086  22.576  30.238  1.00  0.00     0.000 C 
BRANCH   5   6
ATOM      6  C   UNL     1      -0.339  21.991  30.215  1.00  0.00     0.000 C 
BRANCH   6   7
ATOM      7  C   UNL     1      -0.341  20.455  30.197  1.00  0.00     0.000 C 
BRANCH   7   8
ATOM      8  C   UNL     1      -1.721  19.917  29.796  1.00  0.00     0.000 C 
BRANCH   8   9
ATOM      9  C   UNL     1      -1.603  18.572  29.064  1.00  0.00     0.000 C 
BRANCH   9  10
ATOM     10  C   UNL     1      -0.161  18.021  29.070  1.00  0.00     0.000 C 
BRANCH  10  11
ATOM     11  C   UNL     1      -0.079  16.484  29.142  1.00  0.00     0.000 C 
BRANCH  11  12
ATOM     12  C   UNL     1       0.808  15.932  30.271  1.00  0.00     0.000 C 
BRANCH  12  13
ATOM     13  C   UNL     1       0.500  14.465  30.609  1.00  0.00     0.006 C 
BRANCH  13  14
ATOM     14  C   UNL     1      -0.724  13.966  29.831  1.00  0.00     0.053 C 
BRANCH  14  15
ATOM     15  C   UNL     1      -0.668  12.484  29.621  1.00  0.00     0.041 C 
ATOM     16  O   UNL     1       0.125  11.989  28.776  1.00  0.00    -0.550 OA
ATOM     17  O   UNL     1      -1.522  11.650  30.336  1.00  0.00    -0.550 OA
ENDBRANCH  14  15
ENDBRANCH  13  14
ENDBRANCH  12  13
ENDBRANCH  11  12
ENDBRANCH  10  11
ENDBRANCH   9  10
ENDBRANCH   8   9
ENDBRANCH   7   8
ENDBRANCH   6   7
ENDBRANCH   5   6
ENDBRANCH   4   5
ENDBRANCH   3   4
ENDBRANCH   2   3
ENDBRANCH   1   2
BRANCH   1  18
ATOM     18  C   UNL     1       3.439  19.739  28.808  1.00  0.00     0.000 C 
BRANCH  18  19
ATOM     19  C   UNL     1       3.258  18.775  27.623  1.00  0.00     0.000 C 
BRANCH  19  20
ATOM     20  C   UNL     1       3.388  17.296  28.031  1.00  0.00     0.000 C 
BRANCH  20  21
ATOM     21  C   UNL     1       3.652  16.323  26.866  1.00  0.00     0.000 C 
BRANCH  21  22
ATOM     22  C   UNL     1       4.905  15.456  27.085  1.00  0.00     0.000 C 
BRANCH  22  23
ATOM     23  C   UNL     1       5.729  15.904  28.303  1.00  0.00     0.000 C 
BRANCH  23  24
ATOM     24  C   UNL     1       7.127  16.411  27.909  1.00  0.00    -0.000 C 
BRANCH  24  25
ATOM     25  C   UNL     1       7.614  17.562  28.804  1.00  0.00    -0.000 C 
BRANCH  25  26
ATOM     26  C   UNL     1       8.121  18.766  27.990  1.00  0.00    -0.000 C 
BRANCH  26  27
ATOM     27  C   UNL     1       9.572  19.150  28.335  1.00  0.00    -0.000 C 
BRANCH  27  28
ATOM     28  C   UNL     1       9.943  20.624  28.069  1.00  0.00    -0.000 C 
BRANCH  28  29
ATOM     29  C   UNL     1       9.409  21.628  29.106  1.00  0.00    -0.000 C 
BRANCH  29  30
ATOM     30  C   UNL     1       8.841  22.905  28.462  1.00  0.00    -0.000 C 
BRANCH  30  31
ATOM     31  C   UNL     1       7.318  22.840  28.274  1.00  0.00    -0.003 C 
ATOM     32  C   UNL     1       6.563  22.794  29.603  1.00  0.00     0.004 C 
ENDBRANCH  30  31
ENDBRANCH  29  30
ENDBRANCH  28  29
ENDBRANCH  27  28
ENDBRANCH  26  27
ENDBRANCH  25  26
ENDBRANCH  24  25
ENDBRANCH  23  24
ENDBRANCH  22  23
ENDBRANCH  21  22
ENDBRANCH  20  21
ENDBRANCH  19  20
ENDBRANCH  18  19
ENDBRANCH   1  18
TORSDOF 28
ENDMDL
MODEL 6
REMARK VINA RESULT:    -4.112      2.625      7.253
REMARK INTER + INTRA:         -15.697
REMARK INTER:                 -10.087
REMARK INTRA:                  -5.610
REMARK UNBOUND:                -4.855
REMARK SMILES CCCCCCCCCCCCCCCCCCCCCCCCCCCCCC(=O)[O-]
REMARK SMILES IDX 16 1 17 2 18 3 19 4 20 5 21 6 22 7 23 8 24 9 25 10 26 11
REMARK SMILES IDX 27 12 28 13 29 14 30 15 31 16 32 17 15 18 14 19 13 20 12 21
REMARK SMILES IDX 11 22 10 23 9 24 8 25 7 26 6 27 5 28 4 29 3 30 2 31 1 32
REMARK H PARENT
REMARK Flexibility Score: inf
ROOT
ATOM      1  C   UNL     1      11.699  18.788  27.406  1.00  0.00     0.000 C 
ENDROOT
BRANCH   1   2
ATOM      2  C   UNL     1      11.138  20.221  27.392  1.00  0.00     0.000 C 
BRANCH   2   3
ATOM      3  C   UNL     1       9.868  20.349  26.538  1.00  0.00     0.000 C 
BRANCH   3   4
ATOM      4  C   UNL     1       8.727  21.070  27.280  1.00  0.00     0.000 C 
BRANCH   4   5
ATOM      5  C   UNL     1       9.174  22.424  27.863  1.00  0.00     0.000 C 
BRANCH   5   6
ATOM      6  C   UNL     1       8.033  23.215  28.527  1.00  0.00     0.000 C 
BRANCH   6   7
ATOM      7  C   UNL     1       6.679  22.498  28.415  1.00  0.00     0.000 C 
BRANCH   7   8
ATOM      8  C   UNL     1       6.022  22.354  29.793  1.00  0.00     0.000 C 
BRANCH   8   9
ATOM      9  C   UNL     1       5.599  20.902  30.060  1.00  0.00     0.000 C 
BRANCH   9  10
ATOM     10  C   UNL     1       5.429  20.088  28.759  1.00  0.00     0.000 C 
BRANCH  10  11
ATOM     11  C   UNL     1       4.347  18.994  28.843  1.00  0.00     0.000 C 
BRANCH  11  12
ATOM     12  C   UNL     1       2.903  19.513  28.940  1.00  0.00     0.000 C 
BRANCH  12  13
ATOM     13  C   UNL     1       2.068  18.764  29.990  1.00  0.00     0.006 C 
BRANCH  13  14
ATOM     14  C   UNL     1       0.590  18.713  29.583  1.00  0.00     0.053 C 
BRANCH  14  15
ATOM     15  C   UNL     1       0.289  17.481  28.786  1.00  0.00     0.041 C 
ATOM     16  O   UNL     1       0.072  16.382  29.365  1.00  0.00    -0.550 OA
ATOM     17  O   UNL     1       0.283  17.539  27.396  1.00  0.00    -0.550 OA
ENDBRANCH  14  15
ENDBRANCH  13  14
ENDBRANCH  12  13
ENDBRANCH  11  12
ENDBRANCH  10  11
ENDBRANCH   9  10
ENDBRANCH   8   9
ENDBRANCH   7   8
ENDBRANCH   6   7
ENDBRANCH   5   6
ENDBRANCH   4   5
ENDBRANCH   3   4
ENDBRANCH   2   3
ENDBRANCH   1   2
BRANCH   1  18
ATOM     18  C   UNL     1      12.774  18.597  28.489  1.00  0.00     0.000 C 
BRANCH  18  19
ATOM     19  C   UNL     1      12.379  17.527  29.522  1.00  0.00     0.000 C 
BRANCH  19  20
ATOM     20  C   UNL     1      12.527  18.016  30.975  1.00  0.00     0.000 C 
BRANCH  20  21
ATOM     21  C   UNL     1      12.700  19.539  31.131  1.00  0.00     0.000 C 
BRANCH  21  22
ATOM     22  C   UNL     1      11.575  20.186  31.959  1.00  0.00     0.000 C 
BRANCH  22  23
ATOM     23  C   UNL     1      10.717  21.158  31.134  1.00  0.00     0.000 C 
BRANCH  23  24
ATOM     24  C   UNL     1       9.323  20.585  30.820  1.00  0.00    -0.000 C 
BRANCH  24  25
ATOM     25  C   UNL     1       9.038  19.275  31.572  1.00  0.00    -0.000 C 
BRANCH  25  26
ATOM     26  C   UNL     1       8.113  18.332  30.782  1.00  0.00    -0.000 C 
BRANCH  26  27
ATOM     27  C   UNL     1       8.575  18.124  29.328  1.00  0.00    -0.000 C 
BRANCH  27  28
ATOM     28  C   UNL     1       8.991  16.682  28.970  1.00  0.00    -0.000 C 
BRANCH  28  29
ATOM     29  C   UNL     1       8.685  16.255  27.523  1.00  0.00    -0.000 C 
BRANCH  29  30
ATOM     30  C   UNL     1       9.823  15.438  26.890  1.00  0.00    -0.000 C 
BRANCH  30  31
ATOM     31  C   UNL     1      10.360  16.079  25.602  1.00  0.00    -0.003 C 
ATOM     32  C   UNL     1       9.361  17.047  24.966  1.00  0.00     0.004 C 
ENDBRANCH  30  31
ENDBRANCH  29  30
ENDBRANCH  28  29
ENDBRANCH  27  28
ENDBRANCH  26  27
ENDBRANCH  25  26
ENDBRANCH  24  25
ENDBRANCH  23  24
ENDBRANCH  22  23
ENDBRANCH  21  22
ENDBRANCH  20  21
ENDBRANCH  19  20
ENDBRANCH  18  19
ENDBRANCH   1  18
TORSDOF 28
ENDMDL
MODEL 7
REMARK VINA RESULT:    -4.105      4.119      8.348
REMARK INTER + INTRA:         -15.680
REMARK INTER:                 -10.578
REMARK INTRA:                  -5.102
REMARK UNBOUND:                -4.855
REMARK SMILES CCCCCCCCCCCCCCCCCCCCCCCCCCCCCC(=O)[O-]
REMARK SMILES IDX 16 1 17 2 18 3 19 4 20 5 21 6 22 7 23 8 24 9 25 10 26 11
REMARK SMILES IDX 27 12 28 13 29 14 30 15 31 16 32 17 15 18 14 19 13 20 12 21
REMARK SMILES IDX 11 22 10 23 9 24 8 25 7 26 6 27 5 28 4 29 3 30 2 31 1 32
REMARK H PARENT
REMARK Flexibility Score: inf
ROOT
ATOM      1  C   UNL     1      -0.013  18.004  28.509  1.00  0.00     0.000 C 
ENDROOT
BRANCH   1   2
ATOM      2  C   UNL     1      -1.349  18.500  29.090  1.00  0.00     0.000 C 
BRANCH   2   3
ATOM      3  C   UNL     1      -1.215  19.852  29.807  1.00  0.00     0.000 C 
BRANCH   3   4
ATOM      4  C   UNL     1       0.146  20.016  30.511  1.00  0.00     0.000 C 
BRANCH   4   5
ATOM      5  C   UNL     1       0.695  21.450  30.392  1.00  0.00     0.000 C 
BRANCH   5   6
ATOM      6  C   UNL     1       2.215  21.510  30.153  1.00  0.00     0.000 C 
BRANCH   6   7
ATOM      7  C   UNL     1       2.747  20.254  29.445  1.00  0.00     0.000 C 
BRANCH   7   8
ATOM      8  C   UNL     1       3.566  19.390  30.411  1.00  0.00     0.000 C 
BRANCH   8   9
ATOM      9  C   UNL     1       5.062  19.730  30.331  1.00  0.00     0.000 C 
BRANCH   9  10
ATOM     10  C   UNL     1       5.501  20.126  28.905  1.00  0.00     0.000 C 
BRANCH  10  11
ATOM     11  C   UNL     1       6.989  20.512  28.794  1.00  0.00     0.000 C 
BRANCH  11  12
ATOM     12  C   UNL     1       7.972  19.330  28.823  1.00  0.00     0.000 C 
BRANCH  12  13
ATOM     13  C   UNL     1       9.383  19.715  28.351  1.00  0.00     0.006 C 
BRANCH  13  14
ATOM     14  C   UNL     1       9.338  20.386  26.973  1.00  0.00     0.053 C 
BRANCH  14  15
ATOM     15  C   UNL     1      10.047  21.705  26.987  1.00  0.00     0.041 C 
ATOM     16  O   UNL     1      11.083  21.881  26.289  1.00  0.00    -0.550 OA
ATOM     17  O   UNL     1       9.583  22.732  27.802  1.00  0.00    -0.550 OA
ENDBRANCH  14  15
ENDBRANCH  13  14
ENDBRANCH  12  13
ENDBRANCH  11  12
ENDBRANCH  10  11
ENDBRANCH   9  10
ENDBRANCH   8   9
ENDBRANCH   7   8
ENDBRANCH   6   7
ENDBRANCH   5   6
ENDBRANCH   4   5
ENDBRANCH   3   4
ENDBRANCH   2   3
ENDBRANCH   1   2
BRANCH   1  18
ATOM     18  C   UNL     1       0.323  16.575  28.969  1.00  0.00     0.000 C 
BRANCH  18  19
ATOM     19  C   UNL     1       0.998  16.549  30.351  1.00  0.00     0.000 C 
BRANCH  19  20
ATOM     20  C   UNL     1       0.959  15.157  31.009  1.00  0.00     0.000 C 
BRANCH  20  21
ATOM     21  C   UNL     1       0.163  14.094  30.228  1.00  0.00     0.000 C 
BRANCH  21  22
ATOM     22  C   UNL     1       1.040  12.918  29.759  1.00  0.00     0.000 C 
BRANCH  22  23
ATOM     23  C   UNL     1       2.151  13.356  28.792  1.00  0.00     0.000 C 
BRANCH  23  24
ATOM     24  C   UNL     1       3.529  12.806  29.196  1.00  0.00    -0.000 C 
BRANCH  24  25
ATOM     25  C   UNL     1       3.852  13.051  30.680  1.00  0.00    -0.000 C 
BRANCH  25  26
ATOM     26  C   UNL     1       4.524  14.415  30.918  1.00  0.00    -0.000 C 
BRANCH  26  27
ATOM     27  C   UNL     1       5.696  14.679  29.956  1.00  0.00    -0.000 C 
BRANCH  27  28
ATOM     28  C   UNL     1       5.912  16.158  29.574  1.00  0.00    -0.000 C 
BRANCH  28  29
ATOM     29  C   UNL     1       5.491  16.530  28.140  1.00  0.00    -0.000 C 
BRANCH  29  30
ATOM     30  C   UNL     1       3.974  16.749  28.003  1.00  0.00    -0.000 C 
BRANCH  30  31
ATOM     31  C   UNL     1       3.376  15.986  26.812  1.00  0.00    -0.003 C 
ATOM     32  C   UNL     1       4.372  15.016  26.175  1.00  0.00     0.004 C 
ENDBRANCH  30  31
ENDBRANCH  29  30
ENDBRANCH  28  29
ENDBRANCH  27  28
ENDBRANCH  26  27
ENDBRANCH  25  26
ENDBRANCH  24  25
ENDBRANCH  23  24
ENDBRANCH  22  23
ENDBRANCH  21  22
ENDBRANCH  20  21
ENDBRANCH  19  20
ENDBRANCH  18  19
ENDBRANCH   1  18
TORSDOF 28
ENDMDL
MODEL 8
REMARK VINA RESULT:    -4.059     13.569     16.394
REMARK INTER + INTRA:         -15.559
REMARK INTER:                  -9.520
REMARK INTRA:                  -6.038
REMARK UNBOUND:                -4.855
REMARK SMILES CCCCCCCCCCCCCCCCCCCCCCCCCCCCCC(=O)[O-]
REMARK SMILES IDX 16 1 17 2 18 3 19 4 20 5 21 6 22 7 23 8 24 9 25 10 26 11
REMARK SMILES IDX 27 12 28 13 29 14 30 15 31 16 32 17 15 18 14 19 13 20 12 21
REMARK SMILES IDX 11 22 10 23 9 24 8 25 7 26 6 27 5 28 4 29 3 30 2 31 1 32
REMARK H PARENT
REMARK Flexibility Score: inf
ROOT
ATOM      1  C   UNL     1      12.318  18.092  15.851  1.00  0.00     0.000 C 
ENDROOT
BRANCH   1   2
ATOM      2  C   UNL     1      12.422  16.712  15.178  1.00  0.00     0.000 C 
BRANCH   2   3
ATOM      3  C   UNL     1      12.301  15.555  16.181  1.00  0.00     0.000 C 
BRANCH   3   4
ATOM      4  C   UNL     1      12.046  14.201  15.493  1.00  0.00     0.000 C 
BRANCH   4   5
ATOM      5  C   UNL     1      11.851  13.058  16.507  1.00  0.00     0.000 C 
BRANCH   5   6
ATOM      6  C   UNL     1      10.791  13.362  17.582  1.00  0.00     0.000 C 
BRANCH   6   7
ATOM      7  C   UNL     1       9.398  12.841  17.195  1.00  0.00     0.000 C 
BRANCH   7   8
ATOM      8  C   UNL     1       8.360  13.969  17.248  1.00  0.00     0.000 C 
BRANCH   8   9
ATOM      9  C   UNL     1       8.952  15.242  17.871  1.00  0.00     0.000 C 
BRANCH   9  10
ATOM     10  C   UNL     1       8.778  16.479  16.963  1.00  0.00     0.000 C 
BRANCH  10  11
ATOM     11  C   UNL     1       8.120  16.170  15.604  1.00  0.00     0.000 C 
BRANCH  11  12
ATOM     12  C   UNL     1       9.078  16.177  14.402  1.00  0.00     0.000 C 
BRANCH  12  13
ATOM     13  C   UNL     1       8.941  14.924  13.522  1.00  0.00     0.006 C 
BRANCH  13  14
ATOM     14  C   UNL     1       7.528  14.336  13.619  1.00  0.00     0.053 C 
BRANCH  14  15
ATOM     15  C   UNL     1       7.527  12.870  13.312  1.00  0.00     0.041 C 
ATOM     16  O   UNL     1       6.616  12.367  12.600  1.00  0.00    -0.550 OA
ATOM     17  O   UNL     1       8.517  12.050  13.844  1.00  0.00    -0.550 OA
ENDBRANCH  14  15
ENDBRANCH  13  14
ENDBRANCH  12  13
ENDBRANCH  11  12
ENDBRANCH  10  11
ENDBRANCH   9  10
ENDBRANCH   8   9
ENDBRANCH   7   8
ENDBRANCH   6   7
ENDBRANCH   5   6
ENDBRANCH   4   5
ENDBRANCH   3   4
ENDBRANCH   2   3
ENDBRANCH   1   2
BRANCH   1  18
ATOM     18  C   UNL     1      11.248  18.979  15.192  1.00  0.00     0.000 C 
BRANCH  18  19
ATOM     19  C   UNL     1      11.860  20.020  14.238  1.00  0.00     0.000 C 
BRANCH  19  20
ATOM     20  C   UNL     1      12.209  19.433  12.858  1.00  0.00     0.000 C 
BRANCH  20  21
ATOM     21  C   UNL     1      13.717  19.330  12.560  1.00  0.00     0.000 C 
BRANCH  21  22
ATOM     22  C   UNL     1      14.563  20.276  13.431  1.00  0.00     0.000 C 
BRANCH  22  23
ATOM     23  C   UNL     1      15.640  19.533  14.238  1.00  0.00     0.000 C 
BRANCH  23  24
ATOM     24  C   UNL     1      15.586  18.011  14.023  1.00  0.00    -0.000 C 
BRANCH  24  25
ATOM     25  C   UNL     1      16.621  17.256  14.873  1.00  0.00    -0.000 C 
BRANCH  25  26
ATOM     26  C   UNL     1      15.991  16.575  16.101  1.00  0.00    -0.000 C 
BRANCH  26  27
ATOM     27  C   UNL     1      16.261  17.339  17.410  1.00  0.00    -0.000 C 
BRANCH  27  28
ATOM     28  C   UNL     1      15.202  18.396  17.786  1.00  0.00    -0.000 C 
BRANCH  28  29
ATOM     29  C   UNL     1      14.606  18.249  19.198  1.00  0.00    -0.000 C 
BRANCH  29  30
ATOM     30  C   UNL     1      14.558  16.788  19.676  1.00  0.00    -0.000 C 
BRANCH  30  31
ATOM     31  C   UNL     1      13.167  16.160  19.506  1.00  0.00    -0.003 C 
ATOM     32  C   UNL     1      12.046  17.200  19.519  1.00  0.00     0.004 C 
ENDBRANCH  30  31
ENDBRANCH  29  30
ENDBRANCH  28  29
ENDBRANCH  27  28
ENDBRANCH  26  27
ENDBRANCH  25  26
ENDBRANCH  24  25
ENDBRANCH  23  24
ENDBRANCH  22  23
ENDBRANCH  21  22
ENDBRANCH  20  21
ENDBRANCH  19  20
ENDBRANCH  18  19
ENDBRANCH   1  18
TORSDOF 28
ENDMDL
MODEL 9
REMARK VINA RESULT:    -4.044      3.916      8.262
REMARK INTER + INTRA:         -15.518
REMARK INTER:                 -10.023
REMARK INTRA:                  -5.494
REMARK UNBOUND:                -4.855
REMARK SMILES CCCCCCCCCCCCCCCCCCCCCCCCCCCCCC(=O)[O-]
REMARK SMILES IDX 16 1 17 2 18 3 19 4 20 5 21 6 22 7 23 8 24 9 25 10 26 11
REMARK SMILES IDX 27 12 28 13 29 14 30 15 31 16 32 17 15 18 14 19 13 20 12 21
REMARK SMILES IDX 11 22 10 23 9 24 8 25 7 26 6 27 5 28 4 29 3 30 2 31 1 32
REMARK H PARENT
REMARK Flexibility Score: inf
ROOT
ATOM      1  C   UNL     1       1.903  15.466  28.659  1.00  0.00     0.000 C 
ENDROOT
BRANCH   1   2
ATOM      2  C   UNL     1       2.140  16.391  27.452  1.00  0.00     0.000 C 
BRANCH   2   3
ATOM      3  C   UNL     1       1.221  17.621  27.462  1.00  0.00     0.000 C 
BRANCH   3   4
ATOM      4  C   UNL     1      -0.139  17.338  28.127  1.00  0.00     0.000 C 
BRANCH   4   5
ATOM      5  C   UNL     1      -0.510  18.404  29.175  1.00  0.00     0.000 C 
BRANCH   5   6
ATOM      6  C   UNL     1       0.664  18.809  30.084  1.00  0.00     0.000 C 
BRANCH   6   7
ATOM      7  C   UNL     1       0.809  20.334  30.211  1.00  0.00     0.000 C 
BRANCH   7   8
ATOM      8  C   UNL     1       2.271  20.760  30.032  1.00  0.00     0.000 C 
BRANCH   8   9
ATOM      9  C   UNL     1       3.199  19.539  29.941  1.00  0.00     0.000 C 
BRANCH   9  10
ATOM     10  C   UNL     1       4.143  19.605  28.721  1.00  0.00     0.000 C 
BRANCH  10  11
ATOM     11  C   UNL     1       5.497  20.281  29.013  1.00  0.00     0.000 C 
BRANCH  11  12
ATOM     12  C   UNL     1       5.968  21.284  27.947  1.00  0.00     0.000 C 
BRANCH  12  13
ATOM     13  C   UNL     1       7.479  21.555  28.009  1.00  0.00     0.006 C 
BRANCH  13  14
ATOM     14  C   UNL     1       8.277  20.255  27.854  1.00  0.00     0.053 C 
BRANCH  14  15
ATOM     15  C   UNL     1       9.627  20.367  28.494  1.00  0.00     0.041 C 
ATOM     16  O   UNL     1       9.834  21.213  29.406  1.00  0.00    -0.550 OA
ATOM     17  O   UNL     1      10.671  19.559  28.055  1.00  0.00    -0.550 OA
ENDBRANCH  14  15
ENDBRANCH  13  14
ENDBRANCH  12  13
ENDBRANCH  11  12
ENDBRANCH  10  11
ENDBRANCH   9  10
ENDBRANCH   8   9
ENDBRANCH   7   8
ENDBRANCH   6   7
ENDBRANCH   5   6
ENDBRANCH   4   5
ENDBRANCH   3   4
ENDBRANCH   2   3
ENDBRANCH   1   2
BRANCH   1  18
ATOM     18  C   UNL     1       2.747  15.876  29.878  1.00  0.00     0.000 C 
BRANCH  18  19
ATOM     19  C   UNL     1       2.023  15.605  31.208  1.00  0.00     0.000 C 
BRANCH  19  20
ATOM     20  C   UNL     1       0.619  15.004  31.012  1.00  0.00     0.000 C 
BRANCH  20  21
ATOM     21  C   UNL     1       0.386  13.655  31.721  1.00  0.00     0.000 C 
BRANCH  21  22
ATOM     22  C   UNL     1       0.129  12.500  30.737  1.00  0.00     0.000 C 
BRANCH  22  23
ATOM     23  C   UNL     1       1.274  11.475  30.715  1.00  0.00     0.000 C 
BRANCH  23  24
ATOM     24  C   UNL     1       2.521  12.006  29.987  1.00  0.00    -0.000 C 
BRANCH  24  25
ATOM     25  C   UNL     1       3.782  11.968  30.868  1.00  0.00    -0.000 C 
BRANCH  25  26
ATOM     26  C   UNL     1       4.735  13.142  30.581  1.00  0.00    -0.000 C 
BRANCH  26  27
ATOM     27  C   UNL     1       5.871  12.765  29.614  1.00  0.00    -0.000 C 
BRANCH  27  28
ATOM     28  C   UNL     1       5.589  13.051  28.124  1.00  0.00    -0.000 C 
BRANCH  28  29
ATOM     29  C   UNL     1       5.392  14.537  27.772  1.00  0.00    -0.000 C 
BRANCH  29  30
ATOM     30  C   UNL     1       6.695  15.349  27.862  1.00  0.00    -0.000 C 
BRANCH  30  31
ATOM     31  C   UNL     1       6.482  16.732  28.496  1.00  0.00    -0.003 C 
ATOM     32  C   UNL     1       6.292  16.661  30.012  1.00  0.00     0.004 C 
ENDBRANCH  30  31
ENDBRANCH  29  30
ENDBRANCH  28  29
ENDBRANCH  27  28
ENDBRANCH  26  27
ENDBRANCH  25  26
ENDBRANCH  24  25
ENDBRANCH  23  24
ENDBRANCH  22  23
ENDBRANCH  21  22
ENDBRANCH  20  21
ENDBRANCH  19  20
ENDBRANCH  18  19
ENDBRANCH   1  18
TORSDOF 28
ENDMDL
