MODEL 1
REMARK VINA RESULT:    -3.496      0.000      0.000
REMARK INTER + INTRA:         -11.795
REMARK INTER:                  -7.992
REMARK INTRA:                  -3.804
REMARK UNBOUND:                -3.804
REMARK SMILES CCCCCCCCCCCCCCCCCCCCCCCC(=O)[O-]
REMARK SMILES IDX 13 1 14 2 15 3 16 4 17 5 18 6 19 7 20 8 21 9 22 10 23 11
REMARK SMILES IDX 24 12 25 13 26 14 12 15 11 16 10 17 9 18 8 19 7 20 6 21 5 22
REMARK SMILES IDX 4 23 3 24 2 25 1 26
REMARK H PARENT
REMARK Flexibility Score: inf
ROOT
ATOM      1  C   UNL     1      26.755  44.845   6.477  1.00  0.00     0.000 C 
ENDROOT
BRANCH   1   2
ATOM      2  C   UNL     1      27.884  44.167   5.683  1.00  0.00     0.000 C 
BRANCH   2   3
ATOM      3  C   UNL     1      27.413  43.623   4.324  1.00  0.00     0.000 C 
BRANCH   3   4
ATOM      4  C   UNL     1      27.862  42.185   4.004  1.00  0.00     0.000 C 
BRANCH   4   5
ATOM      5  C   UNL     1      26.697  41.216   3.708  1.00  0.00     0.000 C 
BRANCH   5   6
ATOM      6  C   UNL     1      25.370  41.957   3.469  1.00  0.00     0.000 C 
BRANCH   6   7
ATOM      7  C   UNL     1      24.208  41.005   3.132  1.00  0.00     0.000 C 
BRANCH   7   8
ATOM      8  C   UNL     1      24.258  40.395   1.719  1.00  0.00     0.000 C 
BRANCH   8   9
ATOM      9  C   UNL     1      24.445  38.867   1.737  1.00  0.00     0.000 C 
BRANCH   9  10
ATOM     10  C   UNL     1      25.739  38.421   1.034  1.00  0.00     0.006 C 
BRANCH  10  11
ATOM     11  C   UNL     1      26.496  39.586   0.385  1.00  0.00     0.053 C 
BRANCH  11  12
ATOM     12  C   UNL     1      26.487  39.455  -1.106  1.00  0.00     0.041 C 
ATOM     13  O   UNL     1      27.131  38.528  -1.667  1.00  0.00    -0.550 OA
ATOM     14  O   UNL     1      25.767  40.358  -1.879  1.00  0.00    -0.550 OA
ENDBRANCH  11  12
ENDBRANCH  10  11
ENDBRANCH   9  10
ENDBRANCH   8   9
ENDBRANCH   7   8
ENDBRANCH   6   7
ENDBRANCH   5   6
ENDBRANCH   4   5
ENDBRANCH   3   4
ENDBRANCH   2   3
ENDBRANCH   1   2
BRANCH   1  15
ATOM     15  C   UNL     1      25.461  45.018   5.659  1.00  0.00     0.000 C 
BRANCH  15  16
ATOM     16  C   UNL     1      24.237  44.243   6.185  1.00  0.00     0.000 C 
BRANCH  16  17
ATOM     17  C   UNL     1      24.581  43.273   7.327  1.00  0.00     0.000 C 
BRANCH  17  18
ATOM     18  C   UNL     1      24.416  41.794   6.929  1.00  0.00    -0.000 C 
BRANCH  18  19
ATOM     19  C   UNL     1      25.652  40.903   7.173  1.00  0.00    -0.000 C 
BRANCH  19  20
ATOM     20  C   UNL     1      26.756  41.537   8.039  1.00  0.00    -0.000 C 
BRANCH  20  21
ATOM     21  C   UNL     1      27.426  40.578   9.043  1.00  0.00    -0.000 C 
BRANCH  21  22
ATOM     22  C   UNL     1      27.217  40.971  10.522  1.00  0.00    -0.000 C 
BRANCH  22  23
ATOM     23  C   UNL     1      28.247  42.004  11.013  1.00  0.00    -0.000 C 
BRANCH  23  24
ATOM     24  C   UNL     1      27.598  43.184  11.753  1.00  0.00    -0.000 C 
BRANCH  24  25
ATOM     25  C   UNL     1      26.241  43.587  11.154  1.00  0.00    -0.003 C 
ATOM     26  C   UNL     1      26.408  44.685  10.108  1.00  0.00     0.004 C 
ENDBRANCH  24  25
ENDBRANCH  23  24
ENDBRANCH  22  23
ENDBRANCH  21  22
ENDBRANCH  20  21
ENDBRANCH  19  20
ENDBRANCH  18  19
ENDBRANCH  17  18
ENDBRANCH  16  17
ENDBRANCH  15  16
ENDBRANCH   1  15
TORSDOF 22
ENDMDL
MODEL 2
REMARK VINA RESULT:    -3.404      3.918      7.973
REMARK INTER + INTRA:         -11.585
REMARK INTER:                  -7.341
REMARK INTRA:                  -4.244
REMARK UNBOUND:                -3.804
REMARK SMILES CCCCCCCCCCCCCCCCCCCCCCCC(=O)[O-]
REMARK SMILES IDX 13 1 14 2 15 3 16 4 17 5 18 6 19 7 20 8 21 9 22 10 23 11
REMARK SMILES IDX 24 12 25 13 26 14 12 15 11 16 10 17 9 18 8 19 7 20 6 21 5 22
REMARK SMILES IDX 4 23 3 24 2 25 1 26
REMARK H PARENT
REMARK Flexibility Score: inf
ROOT
ATOM      1  C   UNL     1      25.867  39.997   5.265  1.00  0.00     0.000 C 
ENDROOT
BRANCH   1   2
ATOM      2  C   UNL     1      26.605  40.505   6.515  1.00  0.00     0.000 C 
BRANCH   2   3
ATOM      3  C   UNL     1      27.803  41.407   6.173  1.00  0.00     0.000 C 
BRANCH   3   4
ATOM      4  C   UNL     1      27.699  42.149   4.828  1.00  0.00     0.000 C 
BRANCH   4   5
ATOM      5  C   UNL     1      27.623  43.685   4.965  1.00  0.00     0.000 C 
BRANCH   5   6
ATOM      6  C   UNL     1      26.233  44.234   4.600  1.00  0.00     0.000 C 
BRANCH   6   7
ATOM      7  C   UNL     1      25.505  44.861   5.804  1.00  0.00     0.000 C 
BRANCH   7   8
ATOM      8  C   UNL     1      24.382  43.995   6.404  1.00  0.00     0.000 C 
BRANCH   8   9
ATOM      9  C   UNL     1      24.756  43.406   7.776  1.00  0.00     0.000 C 
BRANCH   9  10
ATOM     10  C   UNL     1      25.824  44.237   8.507  1.00  0.00     0.006 C 
BRANCH  10  11
ATOM     11  C   UNL     1      27.014  43.393   8.982  1.00  0.00     0.053 C 
BRANCH  11  12
ATOM     12  C   UNL     1      26.644  42.596  10.194  1.00  0.00     0.041 C 
ATOM     13  O   UNL     1      26.425  41.358  10.099  1.00  0.00    -0.550 OA
ATOM     14  O   UNL     1      26.538  43.220  11.431  1.00  0.00    -0.550 OA
ENDBRANCH  11  12
ENDBRANCH  10  11
ENDBRANCH   9  10
ENDBRANCH   8   9
ENDBRANCH   7   8
ENDBRANCH   6   7
ENDBRANCH   5   6
ENDBRANCH   4   5
ENDBRANCH   3   4
ENDBRANCH   2   3
ENDBRANCH   1   2
BRANCH   1  15
ATOM     15  C   UNL     1      24.419  40.513   5.167  1.00  0.00     0.000 C 
BRANCH  15  16
ATOM     16  C   UNL     1      24.068  41.262   3.867  1.00  0.00     0.000 C 
BRANCH  16  17
ATOM     17  C   UNL     1      24.916  40.814   2.665  1.00  0.00     0.000 C 
BRANCH  17  18
ATOM     18  C   UNL     1      24.067  40.281   1.496  1.00  0.00    -0.000 C 
BRANCH  18  19
ATOM     19  C   UNL     1      24.736  39.188   0.638  1.00  0.00    -0.000 C 
BRANCH  19  20
ATOM     20  C   UNL     1      25.343  39.676  -0.690  1.00  0.00    -0.000 C 
BRANCH  20  21
ATOM     21  C   UNL     1      26.865  39.470  -0.825  1.00  0.00    -0.000 C 
BRANCH  21  22
ATOM     22  C   UNL     1      27.433  38.368   0.096  1.00  0.00    -0.000 C 
BRANCH  22  23
ATOM     23  C   UNL     1      28.488  38.903   1.081  1.00  0.00    -0.000 C 
BRANCH  23  24
ATOM     24  C   UNL     1      27.998  38.901   2.537  1.00  0.00    -0.000 C 
BRANCH  24  25
ATOM     25  C   UNL     1      29.151  38.922   3.552  1.00  0.00    -0.003 C 
ATOM     26  C   UNL     1      30.165  40.009   3.209  1.00  0.00     0.004 C 
ENDBRANCH  24  25
ENDBRANCH  23  24
ENDBRANCH  22  23
ENDBRANCH  21  22
ENDBRANCH  20  21
ENDBRANCH  19  20
ENDBRANCH  18  19
ENDBRANCH  17  18
ENDBRANCH  16  17
ENDBRANCH  15  16
ENDBRANCH   1  15
TORSDOF 22
ENDMDL
MODEL 3
REMARK VINA RESULT:    -3.379      3.224      7.791
REMARK INTER + INTRA:         -11.528
REMARK INTER:                  -7.835
REMARK INTRA:                  -3.693
REMARK UNBOUND:                -3.804
REMARK SMILES CCCCCCCCCCCCCCCCCCCCCCCC(=O)[O-]
REMARK SMILES IDX 13 1 14 2 15 3 16 4 17 5 18 6 19 7 20 8 21 9 22 10 23 11
REMARK SMILES IDX 24 12 25 13 26 14 12 15 11 16 10 17 9 18 8 19 7 20 6 21 5 22
REMARK SMILES IDX 4 23 3 24 2 25 1 26
REMARK H PARENT
REMARK Flexibility Score: inf
ROOT
ATOM      1  C   UNL     1      27.899  41.860   3.979  1.00  0.00     0.000 C 
ENDROOT
BRANCH   1   2
ATOM      2  C   UNL     1      27.674  43.376   3.844  1.00  0.00     0.000 C 
BRANCH   2   3
ATOM      3  C   UNL     1      26.241  43.800   4.205  1.00  0.00     0.000 C 
BRANCH   3   4
ATOM      4  C   UNL     1      26.134  44.871   5.307  1.00  0.00     0.000 C 
BRANCH   4   5
ATOM      5  C   UNL     1      25.561  44.343   6.639  1.00  0.00     0.000 C 
BRANCH   5   6
ATOM      6  C   UNL     1      26.660  44.077   7.682  1.00  0.00     0.000 C 
BRANCH   6   7
ATOM      7  C   UNL     1      27.917  44.938   7.457  1.00  0.00     0.000 C 
BRANCH   7   8
ATOM      8  C   UNL     1      29.247  44.250   7.818  1.00  0.00     0.000 C 
BRANCH   8   9
ATOM      9  C   UNL     1      30.176  44.079   6.603  1.00  0.00     0.000 C 
BRANCH   9  10
ATOM     10  C   UNL     1      30.202  45.322   5.697  1.00  0.00     0.006 C 
BRANCH  10  11
ATOM     11  C   UNL     1      31.623  45.729   5.285  1.00  0.00     0.053 C 
BRANCH  11  12
ATOM     12  C   UNL     1      31.841  45.476   3.826  1.00  0.00     0.041 C 
ATOM     13  O   UNL     1      31.151  44.612   3.220  1.00  0.00    -0.550 OA
ATOM     14  O   UNL     1      32.809  46.192   3.133  1.00  0.00    -0.550 OA
ENDBRANCH  11  12
ENDBRANCH  10  11
ENDBRANCH   9  10
ENDBRANCH   8   9
ENDBRANCH   7   8
ENDBRANCH   6   7
ENDBRANCH   5   6
ENDBRANCH   4   5
ENDBRANCH   3   4
ENDBRANCH   2   3
ENDBRANCH   1   2
BRANCH   1  15
ATOM     15  C   UNL     1      27.892  41.377   5.442  1.00  0.00     0.000 C 
BRANCH  15  16
ATOM     16  C   UNL     1      27.739  39.856   5.636  1.00  0.00     0.000 C 
BRANCH  16  17
ATOM     17  C   UNL     1      26.356  39.454   6.175  1.00  0.00     0.000 C 
BRANCH  17  18
ATOM     18  C   UNL     1      25.488  40.664   6.568  1.00  0.00    -0.000 C 
BRANCH  18  19
ATOM     19  C   UNL     1      24.210  40.861   5.728  1.00  0.00    -0.000 C 
BRANCH  19  20
ATOM     20  C   UNL     1      24.220  40.178   4.348  1.00  0.00    -0.000 C 
BRANCH  20  21
ATOM     21  C   UNL     1      24.183  41.140   3.145  1.00  0.00    -0.000 C 
BRANCH  21  22
ATOM     22  C   UNL     1      24.041  40.433   1.779  1.00  0.00    -0.000 C 
BRANCH  22  23
ATOM     23  C   UNL     1      25.400  40.086   1.146  1.00  0.00    -0.000 C 
BRANCH  23  24
ATOM     24  C   UNL     1      25.260  39.330  -0.185  1.00  0.00    -0.000 C 
BRANCH  24  25
ATOM     25  C   UNL     1      25.918  40.070  -1.360  1.00  0.00    -0.003 C 
ATOM     26  C   UNL     1      27.271  39.455  -1.707  1.00  0.00     0.004 C 
ENDBRANCH  24  25
ENDBRANCH  23  24
ENDBRANCH  22  23
ENDBRANCH  21  22
ENDBRANCH  20  21
ENDBRANCH  19  20
ENDBRANCH  18  19
ENDBRANCH  17  18
ENDBRANCH  16  17
ENDBRANCH  15  16
ENDBRANCH   1  15
TORSDOF 22
ENDMDL
MODEL 4
REMARK VINA RESULT:    -3.312      3.130      5.898
REMARK INTER + INTRA:         -11.376
REMARK INTER:                  -7.232
REMARK INTRA:                  -4.143
REMARK UNBOUND:                -3.804
REMARK SMILES CCCCCCCCCCCCCCCCCCCCCCCC(=O)[O-]
REMARK SMILES IDX 13 1 14 2 15 3 16 4 17 5 18 6 19 7 20 8 21 9 22 10 23 11
REMARK SMILES IDX 24 12 25 13 26 14 12 15 11 16 10 17 9 18 8 19 7 20 6 21 5 22
REMARK SMILES IDX 4 23 3 24 2 25 1 26
REMARK H PARENT
REMARK Flexibility Score: inf
ROOT
ATOM      1  C   UNL     1      25.006  38.273   2.280  1.00  0.00     0.000 C 
ENDROOT
BRANCH   1   2
ATOM      2  C   UNL     1      24.366  38.976   1.071  1.00  0.00     0.000 C 
BRANCH   2   3
ATOM      3  C   UNL     1      25.345  39.908   0.338  1.00  0.00     0.000 C 
BRANCH   3   4
ATOM      4  C   UNL     1      25.574  39.575  -1.149  1.00  0.00     0.000 C 
BRANCH   4   5
ATOM      5  C   UNL     1      27.059  39.399  -1.529  1.00  0.00     0.000 C 
BRANCH   5   6
ATOM      6  C   UNL     1      27.724  38.242  -0.762  1.00  0.00     0.000 C 
BRANCH   6   7
ATOM      7  C   UNL     1      28.877  38.712   0.143  1.00  0.00     0.000 C 
BRANCH   7   8
ATOM      8  C   UNL     1      28.646  38.497   1.651  1.00  0.00     0.000 C 
BRANCH   8   9
ATOM      9  C   UNL     1      29.650  39.273   2.522  1.00  0.00     0.000 C 
BRANCH   9  10
ATOM     10  C   UNL     1      28.961  40.250   3.491  1.00  0.00     0.006 C 
BRANCH  10  11
ATOM     11  C   UNL     1      29.878  41.399   3.928  1.00  0.00     0.053 C 
BRANCH  11  12
ATOM     12  C   UNL     1      30.101  41.362   5.408  1.00  0.00     0.041 C 
ATOM     13  O   UNL     1      30.097  40.262   6.024  1.00  0.00    -0.550 OA
ATOM     14  O   UNL     1      30.311  42.542   6.110  1.00  0.00    -0.550 OA
ENDBRANCH  11  12
ENDBRANCH  10  11
ENDBRANCH   9  10
ENDBRANCH   8   9
ENDBRANCH   7   8
ENDBRANCH   6   7
ENDBRANCH   5   6
ENDBRANCH   4   5
ENDBRANCH   3   4
ENDBRANCH   2   3
ENDBRANCH   1   2
BRANCH   1  15
ATOM     15  C   UNL     1      25.378  39.245   3.416  1.00  0.00     0.000 C 
BRANCH  15  16
ATOM     16  C   UNL     1      24.218  40.095   3.968  1.00  0.00     0.000 C 
BRANCH  16  17
ATOM     17  C   UNL     1      24.405  41.602   3.725  1.00  0.00     0.000 C 
BRANCH  17  18
ATOM     18  C   UNL     1      25.880  42.000   3.532  1.00  0.00    -0.000 C 
BRANCH  18  19
ATOM     19  C   UNL     1      26.204  43.483   3.807  1.00  0.00    -0.000 C 
BRANCH  19  20
ATOM     20  C   UNL     1      27.106  43.742   5.028  1.00  0.00    -0.000 C 
BRANCH  20  21
ATOM     21  C   UNL     1      26.414  44.451   6.209  1.00  0.00    -0.000 C 
BRANCH  21  22
ATOM     22  C   UNL     1      24.874  44.480   6.109  1.00  0.00    -0.000 C 
BRANCH  22  23
ATOM     23  C   UNL     1      24.195  43.537   7.119  1.00  0.00    -0.000 C 
BRANCH  23  24
ATOM     24  C   UNL     1      25.195  42.624   7.844  1.00  0.00    -0.000 C 
BRANCH  24  25
ATOM     25  C   UNL     1      25.181  41.183   7.307  1.00  0.00    -0.003 C 
ATOM     26  C   UNL     1      26.598  40.686   7.035  1.00  0.00     0.004 C 
ENDBRANCH  24  25
ENDBRANCH  23  24
ENDBRANCH  22  23
ENDBRANCH  21  22
ENDBRANCH  20  21
ENDBRANCH  19  20
ENDBRANCH  18  19
ENDBRANCH  17  18
ENDBRANCH  16  17
ENDBRANCH  15  16
ENDBRANCH   1  15
TORSDOF 22
ENDMDL
MODEL 5
REMARK VINA RESULT:    -3.239      3.787      7.640
REMARK INTER + INTRA:         -11.207
REMARK INTER:                  -6.697
REMARK INTRA:                  -4.510
REMARK UNBOUND:                -3.804
REMARK SMILES CCCCCCCCCCCCCCCCCCCCCCCC(=O)[O-]
REMARK SMILES IDX 13 1 14 2 15 3 16 4 17 5 18 6 19 7 20 8 21 9 22 10 23 11
REMARK SMILES IDX 24 12 25 13 26 14 12 15 11 16 10 17 9 18 8 19 7 20 6 21 5 22
REMARK SMILES IDX 4 23 3 24 2 25 1 26
REMARK H PARENT
REMARK Flexibility Score: inf
ROOT
ATOM      1  C   UNL     1      27.962  42.091   5.331  1.00  0.00     0.000 C 
ENDROOT
BRANCH   1   2
ATOM      2  C   UNL     1      28.488  43.188   6.272  1.00  0.00     0.000 C 
BRANCH   2   3
ATOM      3  C   UNL     1      28.029  44.597   5.860  1.00  0.00     0.000 C 
BRANCH   3   4
ATOM      4  C   UNL     1      26.821  45.146   6.642  1.00  0.00     0.000 C 
BRANCH   4   5
ATOM      5  C   UNL     1      25.547  45.315   5.788  1.00  0.00     0.000 C 
BRANCH   5   6
ATOM      6  C   UNL     1      24.550  44.161   5.993  1.00  0.00     0.000 C 
BRANCH   6   7
ATOM      7  C   UNL     1      24.585  43.589   7.422  1.00  0.00     0.000 C 
BRANCH   7   8
ATOM      8  C   UNL     1      24.385  42.065   7.516  1.00  0.00     0.000 C 
BRANCH   8   9
ATOM      9  C   UNL     1      25.658  41.326   7.964  1.00  0.00     0.000 C 
BRANCH   9  10
ATOM     10  C   UNL     1      25.619  40.926   9.449  1.00  0.00     0.006 C 
BRANCH  10  11
ATOM     11  C   UNL     1      26.817  41.465  10.242  1.00  0.00     0.053 C 
BRANCH  11  12
ATOM     12  C   UNL     1      26.800  42.961  10.270  1.00  0.00     0.041 C 
ATOM     13  O   UNL     1      27.747  43.617   9.757  1.00  0.00    -0.550 OA
ATOM     14  O   UNL     1      25.740  43.634  10.864  1.00  0.00    -0.550 OA
ENDBRANCH  11  12
ENDBRANCH  10  11
ENDBRANCH   9  10
ENDBRANCH   8   9
ENDBRANCH   7   8
ENDBRANCH   6   7
ENDBRANCH   5   6
ENDBRANCH   4   5
ENDBRANCH   3   4
ENDBRANCH   2   3
ENDBRANCH   1   2
BRANCH   1  15
ATOM     15  C   UNL     1      27.517  42.634   3.960  1.00  0.00     0.000 C 
BRANCH  15  16
ATOM     16  C   UNL     1      26.174  42.089   3.436  1.00  0.00     0.000 C 
BRANCH  16  17
ATOM     17  C   UNL     1      25.685  40.850   4.203  1.00  0.00     0.000 C 
BRANCH  17  18
ATOM     18  C   UNL     1      24.518  40.131   3.502  1.00  0.00    -0.000 C 
BRANCH  18  19
ATOM     19  C   UNL     1      24.042  40.777   2.183  1.00  0.00    -0.000 C 
BRANCH  19  20
ATOM     20  C   UNL     1      24.127  39.870   0.941  1.00  0.00    -0.000 C 
BRANCH  20  21
ATOM     21  C   UNL     1      25.064  38.655   1.086  1.00  0.00    -0.000 C 
BRANCH  21  22
ATOM     22  C   UNL     1      26.530  38.942   0.692  1.00  0.00    -0.000 C 
BRANCH  22  23
ATOM     23  C   UNL     1      27.536  38.448   1.747  1.00  0.00    -0.000 C 
BRANCH  23  24
ATOM     24  C   UNL     1      28.591  39.507   2.104  1.00  0.00    -0.000 C 
BRANCH  24  25
ATOM     25  C   UNL     1      29.201  39.291   3.499  1.00  0.00    -0.003 C 
ATOM     26  C   UNL     1      28.413  38.248   4.287  1.00  0.00     0.004 C 
ENDBRANCH  24  25
ENDBRANCH  23  24
ENDBRANCH  22  23
ENDBRANCH  21  22
ENDBRANCH  20  21
ENDBRANCH  19  20
ENDBRANCH  18  19
ENDBRANCH  17  18
ENDBRANCH  16  17
ENDBRANCH  15  16
ENDBRANCH   1  15
TORSDOF 22
ENDMDL
MODEL 6
REMARK VINA RESULT:    -3.222      3.679      7.658
REMARK INTER + INTRA:         -11.169
REMARK INTER:                  -6.815
REMARK INTRA:                  -4.355
REMARK UNBOUND:                -3.804
REMARK SMILES CCCCCCCCCCCCCCCCCCCCCCCC(=O)[O-]
REMARK SMILES IDX 13 1 14 2 15 3 16 4 17 5 18 6 19 7 20 8 21 9 22 10 23 11
REMARK SMILES IDX 24 12 25 13 26 14 12 15 11 16 10 17 9 18 8 19 7 20 6 21 5 22
REMARK SMILES IDX 4 23 3 24 2 25 1 26
REMARK H PARENT
REMARK Flexibility Score: inf
ROOT
ATOM      1  C   UNL     1      29.896  42.549   5.245  1.00  0.00     0.000 C 
ENDROOT
BRANCH   1   2
ATOM      2  C   UNL     1      29.108  43.864   5.118  1.00  0.00     0.000 C 
BRANCH   2   3
ATOM      3  C   UNL     1      28.852  44.538   6.476  1.00  0.00     0.000 C 
BRANCH   3   4
ATOM      4  C   UNL     1      27.408  45.023   6.703  1.00  0.00     0.000 C 
BRANCH   4   5
ATOM      5  C   UNL     1      26.486  44.838   5.478  1.00  0.00     0.000 C 
BRANCH   5   6
ATOM      6  C   UNL     1      25.042  44.496   5.882  1.00  0.00     0.000 C 
BRANCH   6   7
ATOM      7  C   UNL     1      24.960  43.744   7.223  1.00  0.00     0.000 C 
BRANCH   7   8
ATOM      8  C   UNL     1      24.277  42.366   7.152  1.00  0.00     0.000 C 
BRANCH   8   9
ATOM      9  C   UNL     1      25.209  41.218   7.580  1.00  0.00     0.000 C 
BRANCH   9  10
ATOM     10  C   UNL     1      26.626  41.705   7.928  1.00  0.00     0.006 C 
BRANCH  10  11
ATOM     11  C   UNL     1      27.535  40.577   8.435  1.00  0.00     0.053 C 
BRANCH  11  12
ATOM     12  C   UNL     1      27.301  40.326   9.892  1.00  0.00     0.041 C 
ATOM     13  O   UNL     1      27.105  39.154  10.312  1.00  0.00    -0.550 OA
ATOM     14  O   UNL     1      27.298  41.388  10.789  1.00  0.00    -0.550 OA
ENDBRANCH  11  12
ENDBRANCH  10  11
ENDBRANCH   9  10
ENDBRANCH   8   9
ENDBRANCH   7   8
ENDBRANCH   6   7
ENDBRANCH   5   6
ENDBRANCH   4   5
ENDBRANCH   3   4
ENDBRANCH   2   3
ENDBRANCH   1   2
BRANCH   1  15
ATOM     15  C   UNL     1      29.141  41.335   4.670  1.00  0.00     0.000 C 
BRANCH  15  16
ATOM     16  C   UNL     1      28.000  41.668   3.689  1.00  0.00     0.000 C 
BRANCH  16  17
ATOM     17  C   UNL     1      26.608  41.324   4.244  1.00  0.00     0.000 C 
BRANCH  17  18
ATOM     18  C   UNL     1      25.462  41.886   3.382  1.00  0.00    -0.000 C 
BRANCH  18  19
ATOM     19  C   UNL     1      24.205  40.996   3.293  1.00  0.00    -0.000 C 
BRANCH  19  20
ATOM     20  C   UNL     1      24.175  39.803   4.267  1.00  0.00    -0.000 C 
BRANCH  20  21
ATOM     21  C   UNL     1      24.221  38.416   3.597  1.00  0.00    -0.000 C 
BRANCH  21  22
ATOM     22  C   UNL     1      24.463  38.462   2.073  1.00  0.00    -0.000 C 
BRANCH  22  23
ATOM     23  C   UNL     1      25.934  38.205   1.697  1.00  0.00    -0.000 C 
BRANCH  23  24
ATOM     24  C   UNL     1      26.540  39.341   0.858  1.00  0.00    -0.000 C 
BRANCH  24  25
ATOM     25  C   UNL     1      25.534  39.952  -0.130  1.00  0.00    -0.003 C 
ATOM     26  C   UNL     1      26.013  39.793  -1.570  1.00  0.00     0.004 C 
ENDBRANCH  24  25
ENDBRANCH  23  24
ENDBRANCH  22  23
ENDBRANCH  21  22
ENDBRANCH  20  21
ENDBRANCH  19  20
ENDBRANCH  18  19
ENDBRANCH  17  18
ENDBRANCH  16  17
ENDBRANCH  15  16
ENDBRANCH   1  15
TORSDOF 22
ENDMDL
MODEL 7
REMARK VINA RESULT:    -3.220     18.291     20.923
REMARK INTER + INTRA:         -11.164
REMARK INTER:                  -7.126
REMARK INTRA:                  -4.038
REMARK UNBOUND:                -3.804
REMARK SMILES CCCCCCCCCCCCCCCCCCCCCCCC(=O)[O-]
REMARK SMILES IDX 13 1 14 2 15 3 16 4 17 5 18 6 19 7 20 8 21 9 22 10 23 11
REMARK SMILES IDX 24 12 25 13 26 14 12 15 11 16 10 17 9 18 8 19 7 20 6 21 5 22
REMARK SMILES IDX 4 23 3 24 2 25 1 26
REMARK H PARENT
REMARK Flexibility Score: inf
ROOT
ATOM      1  C   UNL     1      39.777  29.622   6.982  1.00  0.00     0.000 C 
ENDROOT
BRANCH   1   2
ATOM      2  C   UNL     1      40.159  28.330   7.726  1.00  0.00     0.000 C 
BRANCH   2   3
ATOM      3  C   UNL     1      41.648  27.976   7.575  1.00  0.00     0.000 C 
BRANCH   3   4
ATOM      4  C   UNL     1      42.225  28.165   6.160  1.00  0.00     0.000 C 
BRANCH   4   5
ATOM      5  C   UNL     1      43.345  29.224   6.078  1.00  0.00     0.000 C 
BRANCH   5   6
ATOM      6  C   UNL     1      43.819  29.681   7.469  1.00  0.00     0.000 C 
BRANCH   6   7
ATOM      7  C   UNL     1      43.817  31.213   7.626  1.00  0.00     0.000 C 
BRANCH   7   8
ATOM      8  C   UNL     1      42.536  31.799   8.248  1.00  0.00     0.000 C 
BRANCH   8   9
ATOM      9  C   UNL     1      42.538  31.734   9.786  1.00  0.00     0.000 C 
BRANCH   9  10
ATOM     10  C   UNL     1      41.437  30.814  10.342  1.00  0.00     0.006 C 
BRANCH  10  11
ATOM     11  C   UNL     1      41.998  29.565  11.033  1.00  0.00     0.053 C 
BRANCH  11  12
ATOM     12  C   UNL     1      41.886  29.691  12.520  1.00  0.00     0.041 C 
ATOM     13  O   UNL     1      41.462  30.759  13.038  1.00  0.00    -0.550 OA
ATOM     14  O   UNL     1      42.252  28.628  13.338  1.00  0.00    -0.550 OA
ENDBRANCH  11  12
ENDBRANCH  10  11
ENDBRANCH   9  10
ENDBRANCH   8   9
ENDBRANCH   7   8
ENDBRANCH   6   7
ENDBRANCH   5   6
ENDBRANCH   4   5
ENDBRANCH   3   4
ENDBRANCH   2   3
ENDBRANCH   1   2
BRANCH   1  15
ATOM     15  C   UNL     1      38.821  29.377   5.800  1.00  0.00     0.000 C 
BRANCH  15  16
ATOM     16  C   UNL     1      39.323  29.869   4.429  1.00  0.00     0.000 C 
BRANCH  16  17
ATOM     17  C   UNL     1      40.421  30.941   4.538  1.00  0.00     0.000 C 
BRANCH  17  18
ATOM     18  C   UNL     1      40.094  32.218   3.741  1.00  0.00    -0.000 C 
BRANCH  18  19
ATOM     19  C   UNL     1      41.097  33.378   3.913  1.00  0.00    -0.000 C 
BRANCH  19  20
ATOM     20  C   UNL     1      42.303  33.073   4.821  1.00  0.00    -0.000 C 
BRANCH  20  21
ATOM     21  C   UNL     1      43.659  32.987   4.094  1.00  0.00    -0.000 C 
BRANCH  21  22
ATOM     22  C   UNL     1      43.842  31.704   3.255  1.00  0.00    -0.000 C 
BRANCH  22  23
ATOM     23  C   UNL     1      43.998  31.994   1.751  1.00  0.00    -0.000 C 
BRANCH  23  24
ATOM     24  C   UNL     1      43.836  33.484   1.414  1.00  0.00    -0.000 C 
BRANCH  24  25
ATOM     25  C   UNL     1      42.606  33.764   0.535  1.00  0.00    -0.003 C 
ATOM     26  C   UNL     1      42.347  32.610  -0.429  1.00  0.00     0.004 C 
ENDBRANCH  24  25
ENDBRANCH  23  24
ENDBRANCH  22  23
ENDBRANCH  21  22
ENDBRANCH  20  21
ENDBRANCH  19  20
ENDBRANCH  18  19
ENDBRANCH  17  18
ENDBRANCH  16  17
ENDBRANCH  15  16
ENDBRANCH   1  15
TORSDOF 22
ENDMDL
MODEL 8
REMARK VINA RESULT:    -3.206      4.708      7.839
REMARK INTER + INTRA:         -11.133
REMARK INTER:                  -6.891
REMARK INTRA:                  -4.242
REMARK UNBOUND:                -3.804
REMARK SMILES CCCCCCCCCCCCCCCCCCCCCCCC(=O)[O-]
REMARK SMILES IDX 13 1 14 2 15 3 16 4 17 5 18 6 19 7 20 8 21 9 22 10 23 11
REMARK SMILES IDX 24 12 25 13 26 14 12 15 11 16 10 17 9 18 8 19 7 20 6 21 5 22
REMARK SMILES IDX 4 23 3 24 2 25 1 26
REMARK H PARENT
REMARK Flexibility Score: inf
ROOT
ATOM      1  C   UNL     1      28.455  42.046   4.695  1.00  0.00     0.000 C 
ENDROOT
BRANCH   1   2
ATOM      2  C   UNL     1      28.126  41.828   6.181  1.00  0.00     0.000 C 
BRANCH   2   3
ATOM      3  C   UNL     1      27.907  40.347   6.531  1.00  0.00     0.000 C 
BRANCH   3   4
ATOM      4  C   UNL     1      26.585  40.036   7.260  1.00  0.00     0.000 C 
BRANCH   4   5
ATOM      5  C   UNL     1      26.732  39.025   8.417  1.00  0.00     0.000 C 
BRANCH   5   6
ATOM      6  C   UNL     1      26.596  39.694   9.796  1.00  0.00     0.000 C 
BRANCH   6   7
ATOM      7  C   UNL     1      27.816  40.558  10.163  1.00  0.00     0.000 C 
BRANCH   7   8
ATOM      8  C   UNL     1      27.492  42.023  10.510  1.00  0.00     0.000 C 
BRANCH   8   9
ATOM      9  C   UNL     1      26.047  42.413  10.149  1.00  0.00     0.000 C 
BRANCH   9  10
ATOM     10  C   UNL     1      25.788  43.923  10.295  1.00  0.00     0.006 C 
BRANCH  10  11
ATOM     11  C   UNL     1      26.925  44.655  11.021  1.00  0.00     0.053 C 
BRANCH  11  12
ATOM     12  C   UNL     1      26.539  44.956  12.435  1.00  0.00     0.041 C 
ATOM     13  O   UNL     1      25.515  44.423  12.942  1.00  0.00    -0.550 OA
ATOM     14  O   UNL     1      27.309  45.828  13.195  1.00  0.00    -0.550 OA
ENDBRANCH  11  12
ENDBRANCH  10  11
ENDBRANCH   9  10
ENDBRANCH   8   9
ENDBRANCH   7   8
ENDBRANCH   6   7
ENDBRANCH   5   6
ENDBRANCH   4   5
ENDBRANCH   3   4
ENDBRANCH   2   3
ENDBRANCH   1   2
BRANCH   1  15
ATOM     15  C   UNL     1      27.234  42.486   3.865  1.00  0.00     0.000 C 
BRANCH  15  16
ATOM     16  C   UNL     1      26.333  41.345   3.356  1.00  0.00     0.000 C 
BRANCH  16  17
ATOM     17  C   UNL     1      24.834  41.677   3.440  1.00  0.00     0.000 C 
BRANCH  17  18
ATOM     18  C   UNL     1      24.109  40.901   4.556  1.00  0.00    -0.000 C 
BRANCH  18  19
ATOM     19  C   UNL     1      23.875  41.688   5.862  1.00  0.00    -0.000 C 
BRANCH  19  20
ATOM     20  C   UNL     1      23.889  43.221   5.716  1.00  0.00    -0.000 C 
BRANCH  20  21
ATOM     21  C   UNL     1      25.047  43.933   6.441  1.00  0.00    -0.000 C 
BRANCH  21  22
ATOM     22  C   UNL     1      25.460  45.275   5.798  1.00  0.00    -0.000 C 
BRANCH  22  23
ATOM     23  C   UNL     1      26.949  45.602   6.009  1.00  0.00    -0.000 C 
BRANCH  23  24
ATOM     24  C   UNL     1      27.337  45.675   7.494  1.00  0.00    -0.000 C 
BRANCH  24  25
ATOM     25  C   UNL     1      28.688  45.004   7.789  1.00  0.00    -0.003 C 
ATOM     26  C   UNL     1      29.700  45.300   6.685  1.00  0.00     0.004 C 
ENDBRANCH  24  25
ENDBRANCH  23  24
ENDBRANCH  22  23
ENDBRANCH  21  22
ENDBRANCH  20  21
ENDBRANCH  19  20
ENDBRANCH  18  19
ENDBRANCH  17  18
ENDBRANCH  16  17
ENDBRANCH  15  16
ENDBRANCH   1  15
TORSDOF 22
ENDMDL
MODEL 9
REMARK VINA RESULT:    -3.204      2.282      4.634
REMARK INTER + INTRA:         -11.129
REMARK INTER:                  -7.740
REMARK INTRA:                  -3.389
REMARK UNBOUND:                -3.804
REMARK SMILES CCCCCCCCCCCCCCCCCCCCCCCC(=O)[O-]
REMARK SMILES IDX 13 1 14 2 15 3 16 4 17 5 18 6 19 7 20 8 21 9 22 10 23 11
REMARK SMILES IDX 24 12 25 13 26 14 12 15 11 16 10 17 9 18 8 19 7 20 6 21 5 22
REMARK SMILES IDX 4 23 3 24 2 25 1 26
REMARK H PARENT
REMARK Flexibility Score: inf
ROOT
ATOM      1  C   UNL     1      24.431  40.947   4.143  1.00  0.00     0.000 C 
ENDROOT
BRANCH   1   2
ATOM      2  C   UNL     1      24.268  40.692   2.635  1.00  0.00     0.000 C 
BRANCH   2   3
ATOM      3  C   UNL     1      24.286  39.197   2.279  1.00  0.00     0.000 C 
BRANCH   3   4
ATOM      4  C   UNL     1      24.407  38.884   0.775  1.00  0.00     0.000 C 
BRANCH   4   5
ATOM      5  C   UNL     1      25.111  39.990  -0.039  1.00  0.00     0.000 C 
BRANCH   5   6
ATOM      6  C   UNL     1      25.717  39.454  -1.348  1.00  0.00     0.000 C 
BRANCH   6   7
ATOM      7  C   UNL     1      27.256  39.508  -1.359  1.00  0.00     0.000 C 
BRANCH   7   8
ATOM      8  C   UNL     1      27.952  38.236  -0.838  1.00  0.00     0.000 C 
BRANCH   8   9
ATOM      9  C   UNL     1      28.889  38.516   0.351  1.00  0.00     0.000 C 
BRANCH   9  10
ATOM     10  C   UNL     1      28.196  39.302   1.478  1.00  0.00     0.006 C 
BRANCH  10  11
ATOM     11  C   UNL     1      27.889  38.436   2.706  1.00  0.00     0.053 C 
BRANCH  11  12
ATOM     12  C   UNL     1      28.803  38.786   3.839  1.00  0.00     0.041 C 
ATOM     13  O   UNL     1      29.609  39.749   3.732  1.00  0.00    -0.550 OA
ATOM     14  O   UNL     1      28.766  38.048   5.016  1.00  0.00    -0.550 OA
ENDBRANCH  11  12
ENDBRANCH  10  11
ENDBRANCH   9  10
ENDBRANCH   8   9
ENDBRANCH   7   8
ENDBRANCH   6   7
ENDBRANCH   5   6
ENDBRANCH   4   5
ENDBRANCH   3   4
ENDBRANCH   2   3
ENDBRANCH   1   2
BRANCH   1  15
ATOM     15  C   UNL     1      25.904  41.054   4.582  1.00  0.00     0.000 C 
BRANCH  15  16
ATOM     16  C   UNL     1      26.790  41.965   3.711  1.00  0.00     0.000 C 
BRANCH  16  17
ATOM     17  C   UNL     1      26.420  43.454   3.824  1.00  0.00     0.000 C 
BRANCH  17  18
ATOM     18  C   UNL     1      26.777  44.058   5.195  1.00  0.00    -0.000 C 
BRANCH  18  19
ATOM     19  C   UNL     1      25.655  44.878   5.866  1.00  0.00    -0.000 C 
BRANCH  19  20
ATOM     20  C   UNL     1      24.311  44.143   6.025  1.00  0.00    -0.000 C 
BRANCH  20  21
ATOM     21  C   UNL     1      24.016  43.625   7.446  1.00  0.00    -0.000 C 
BRANCH  21  22
ATOM     22  C   UNL     1      24.516  42.187   7.706  1.00  0.00    -0.000 C 
BRANCH  22  23
ATOM     23  C   UNL     1      25.936  42.151   8.301  1.00  0.00    -0.000 C 
BRANCH  23  24
ATOM     24  C   UNL     1      25.937  42.165   9.838  1.00  0.00    -0.000 C 
BRANCH  24  25
ATOM     25  C   UNL     1      25.903  43.588  10.419  1.00  0.00    -0.003 C 
ATOM     26  C   UNL     1      27.247  44.287  10.235  1.00  0.00     0.004 C 
ENDBRANCH  24  25
ENDBRANCH  23  24
ENDBRANCH  22  23
ENDBRANCH  21  22
ENDBRANCH  20  21
ENDBRANCH  19  20
ENDBRANCH  18  19
ENDBRANCH  17  18
ENDBRANCH  16  17
ENDBRANCH  15  16
ENDBRANCH   1  15
TORSDOF 22
ENDMDL
