MODEL 1
REMARK VINA RESULT:    -8.669      0.000      0.000
REMARK INTER + INTRA:         -10.454
REMARK INTER:                 -10.189
REMARK INTRA:                  -0.265
REMARK UNBOUND:                -0.265
REMARK SMILES O=c1cc(-c2ccc(O)c(O)c2)oc2cc(O)cc(O)c12
REMARK SMILES IDX 4 1 3 2 2 3 1 4 21 5 19 6 18 7 16 8 15 9 14 10 13 11 5 12
REMARK SMILES IDX 6 13 7 14 8 15 12 16 10 17 9 18 11 20 20 22 17 24
REMARK H PARENT 9 19 11 21 20 23 17 25
REMARK Flexibility Score: inf
ROOT
ATOM      1  C   UNL     1       1.752  -6.162  -8.398  1.00  0.00     0.138 A 
ATOM      2  C   UNL     1       1.188  -4.881  -8.467  1.00  0.00     0.100 A 
ATOM      3  C   UNL     1      -0.079  -4.654  -7.928  1.00  0.00     0.197 A 
ATOM      4  O   UNL     1      -0.585  -3.510  -8.061  1.00  0.00    -0.289 OA
ATOM      5  C   UNL     1      -0.770  -5.711  -7.288  1.00  0.00     0.107 A 
ATOM      6  C   UNL     1      -2.049  -5.588  -6.668  1.00  0.00     0.134 A 
ATOM      7  C   UNL     1      -2.687  -6.730  -6.169  1.00  0.00     0.093 A 
ATOM      8  C   UNL     1      -2.066  -7.981  -6.214  1.00  0.00     0.123 A 
ATOM      9  C   UNL     1      -0.794  -8.102  -6.769  1.00  0.00     0.094 A 
ATOM     10  C   UNL     1      -0.147  -6.988  -7.307  1.00  0.00     0.146 A 
ATOM     11  O   UNL     1       1.059  -7.150  -7.841  1.00  0.00    -0.456 OA
ENDROOT
BRANCH   1  12
ATOM     12  C   UNL     1       3.097  -6.457  -8.955  1.00  0.00     0.021 A 
ATOM     13  C   UNL     1       3.221  -6.819 -10.306  1.00  0.00     0.016 A 
ATOM     14  C   UNL     1       4.473  -7.108 -10.850  1.00  0.00     0.051 A 
ATOM     15  C   UNL     1       5.626  -7.051 -10.061  1.00  0.00     0.157 A 
ATOM     16  C   UNL     1       4.255  -6.415  -8.156  1.00  0.00     0.062 A 
ATOM     17  C   UNL     1       5.515  -6.706  -8.694  1.00  0.00     0.158 A 
BRANCH  15  18
ATOM     18  O   UNL     1       6.848  -7.346 -10.669  1.00  0.00    -0.504 OA
ATOM     19  H   UNL     1       7.497  -8.041 -10.327  1.00  0.00     0.293 HD
ENDBRANCH  15  18
BRANCH  17  20
ATOM     20  O   UNL     1       6.618  -6.644  -7.841  1.00  0.00    -0.504 OA
ATOM     21  H   UNL     1       7.239  -5.850  -7.775  1.00  0.00     0.293 HD
ENDBRANCH  17  20
ENDBRANCH   1  12
BRANCH   6  22
ATOM     22  O   UNL     1      -2.719  -4.373  -6.495  1.00  0.00    -0.507 OA
ATOM     23  H   UNL     1      -3.426  -4.199  -5.797  1.00  0.00     0.293 HD
ENDBRANCH   6  22
BRANCH   8  24
ATOM     24  O   UNL     1      -2.702  -9.109  -5.701  1.00  0.00    -0.508 OA
ATOM     25  H   UNL     1      -3.318  -9.051  -4.898  1.00  0.00     0.293 HD
ENDBRANCH   8  24
TORSDOF 5
ENDMDL
MODEL 2
REMARK VINA RESULT:    -8.390      3.295      9.322
REMARK INTER + INTRA:         -10.126
REMARK INTER:                  -9.826
REMARK INTRA:                  -0.300
REMARK UNBOUND:                -0.265
REMARK SMILES O=c1cc(-c2ccc(O)c(O)c2)oc2cc(O)cc(O)c12
REMARK SMILES IDX 4 1 3 2 2 3 1 4 21 5 19 6 18 7 16 8 15 9 14 10 13 11 5 12
REMARK SMILES IDX 6 13 7 14 8 15 12 16 10 17 9 18 11 20 20 22 17 24
REMARK H PARENT 9 19 11 21 20 23 17 25
REMARK Flexibility Score: inf
ROOT
ATOM      1  C   UNL     1       6.405  -6.714  -9.810  1.00  0.00     0.138 A 
ATOM      2  C   UNL     1       6.768  -8.060  -9.959  1.00  0.00     0.100 A 
ATOM      3  C   UNL     1       8.048  -8.383 -10.411  1.00  0.00     0.197 A 
ATOM      4  O   UNL     1       8.324  -9.597 -10.596  1.00  0.00    -0.289 OA
ATOM      5  C   UNL     1       8.979  -7.352 -10.684  1.00  0.00     0.107 A 
ATOM      6  C   UNL     1      10.323  -7.563 -11.111  1.00  0.00     0.134 A 
ATOM      7  C   UNL     1      11.116  -6.464 -11.463  1.00  0.00     0.093 A 
ATOM      8  C   UNL     1      10.632  -5.159 -11.346  1.00  0.00     0.123 A 
ATOM      9  C   UNL     1       9.339  -4.940 -10.879  1.00  0.00     0.094 A 
ATOM     10  C   UNL     1       8.511  -6.017 -10.553  1.00  0.00     0.146 A 
ATOM     11  O   UNL     1       7.279  -5.765 -10.125  1.00  0.00    -0.456 OA
ENDROOT
BRANCH   1  12
ATOM     12  C   UNL     1       5.056  -6.316  -9.331  1.00  0.00     0.021 A 
ATOM     13  C   UNL     1       3.934  -7.055  -9.737  1.00  0.00     0.016 A 
ATOM     14  C   UNL     1       2.655  -6.696  -9.307  1.00  0.00     0.051 A 
ATOM     15  C   UNL     1       2.466  -5.590  -8.472  1.00  0.00     0.157 A 
ATOM     16  C   UNL     1       4.866  -5.193  -8.504  1.00  0.00     0.062 A 
ATOM     17  C   UNL     1       3.586  -4.826  -8.070  1.00  0.00     0.158 A 
BRANCH  15  18
ATOM     18  O   UNL     1       1.162  -5.289  -8.074  1.00  0.00    -0.504 OA
ATOM     19  H   UNL     1       0.384  -5.193  -8.711  1.00  0.00     0.293 HD
ENDBRANCH  15  18
BRANCH  17  20
ATOM     20  O   UNL     1       3.474  -3.700  -7.252  1.00  0.00    -0.504 OA
ATOM     21  H   UNL     1       2.833  -3.627  -6.474  1.00  0.00     0.293 HD
ENDBRANCH  17  20
ENDBRANCH   1  12
BRANCH   6  22
ATOM     22  O   UNL     1      10.932  -8.820 -11.182  1.00  0.00    -0.507 OA
ATOM     23  H   UNL     1      11.671  -9.138 -10.573  1.00  0.00     0.293 HD
ENDBRANCH   6  22
BRANCH   8  24
ATOM     24  O   UNL     1      11.434  -4.071 -11.685  1.00  0.00    -0.508 OA
ATOM     25  H   UNL     1      11.595  -3.309 -11.036  1.00  0.00     0.293 HD
ENDBRANCH   8  24
TORSDOF 5
ENDMDL
MODEL 3
REMARK VINA RESULT:    -8.327      1.262      2.767
REMARK INTER + INTRA:         -10.053
REMARK INTER:                  -9.786
REMARK INTRA:                  -0.266
REMARK UNBOUND:                -0.265
REMARK SMILES O=c1cc(-c2ccc(O)c(O)c2)oc2cc(O)cc(O)c12
REMARK SMILES IDX 4 1 3 2 2 3 1 4 21 5 19 6 18 7 16 8 15 9 14 10 13 11 5 12
REMARK SMILES IDX 6 13 7 14 8 15 12 16 10 17 9 18 11 20 20 22 17 24
REMARK H PARENT 9 19 11 21 20 23 17 25
REMARK Flexibility Score: inf
ROOT
ATOM      1  C   UNL     1       1.551  -6.313  -8.173  1.00  0.00     0.138 A 
ATOM      2  C   UNL     1       0.756  -7.389  -7.753  1.00  0.00     0.100 A 
ATOM      3  C   UNL     1      -0.498  -7.143  -7.192  1.00  0.00     0.197 A 
ATOM      4  O   UNL     1      -1.161  -8.124  -6.767  1.00  0.00    -0.289 OA
ATOM      5  C   UNL     1      -0.970  -5.814  -7.082  1.00  0.00     0.107 A 
ATOM      6  C   UNL     1      -2.247  -5.445  -6.564  1.00  0.00     0.134 A 
ATOM      7  C   UNL     1      -2.559  -4.091  -6.394  1.00  0.00     0.093 A 
ATOM      8  C   UNL     1      -1.663  -3.091  -6.780  1.00  0.00     0.123 A 
ATOM      9  C   UNL     1      -0.435  -3.440  -7.336  1.00  0.00     0.094 A 
ATOM     10  C   UNL     1      -0.080  -4.782  -7.486  1.00  0.00     0.146 A 
ATOM     11  O   UNL     1       1.107  -5.072  -8.008  1.00  0.00    -0.456 OA
ENDROOT
BRANCH   1  12
ATOM     12  C   UNL     1       2.892  -6.519  -8.777  1.00  0.00     0.021 A 
ATOM     13  C   UNL     1       2.992  -6.846 -10.139  1.00  0.00     0.016 A 
ATOM     14  C   UNL     1       4.241  -7.052 -10.729  1.00  0.00     0.051 A 
ATOM     15  C   UNL     1       5.413  -6.945  -9.974  1.00  0.00     0.157 A 
ATOM     16  C   UNL     1       4.071  -6.427  -8.014  1.00  0.00     0.062 A 
ATOM     17  C   UNL     1       5.327  -6.635  -8.598  1.00  0.00     0.158 A 
BRANCH  15  18
ATOM     18  O   UNL     1       6.630  -7.158 -10.626  1.00  0.00    -0.504 OA
ATOM     19  H   UNL     1       6.967  -6.592 -11.392  1.00  0.00     0.293 HD
ENDBRANCH  15  18
BRANCH  17  20
ATOM     20  O   UNL     1       6.452  -6.527  -7.777  1.00  0.00    -0.504 OA
ATOM     21  H   UNL     1       6.853  -5.649  -7.479  1.00  0.00     0.293 HD
ENDBRANCH  17  20
ENDBRANCH   1  12
BRANCH   6  22
ATOM     22  O   UNL     1      -3.248  -6.363  -6.227  1.00  0.00    -0.507 OA
ATOM     23  H   UNL     1      -3.378  -7.261  -6.667  1.00  0.00     0.293 HD
ENDBRANCH   6  22
BRANCH   8  24
ATOM     24  O   UNL     1      -1.988  -1.746  -6.621  1.00  0.00    -0.508 OA
ATOM     25  H   UNL     1      -1.928  -1.288  -5.719  1.00  0.00     0.293 HD
ENDBRANCH   8  24
TORSDOF 5
ENDMDL
MODEL 4
REMARK VINA RESULT:    -8.259      4.344     10.513
REMARK INTER + INTRA:          -9.972
REMARK INTER:                  -9.708
REMARK INTRA:                  -0.264
REMARK UNBOUND:                -0.265
REMARK SMILES O=c1cc(-c2ccc(O)c(O)c2)oc2cc(O)cc(O)c12
REMARK SMILES IDX 4 1 3 2 2 3 1 4 21 5 19 6 18 7 16 8 15 9 14 10 13 11 5 12
REMARK SMILES IDX 6 13 7 14 8 15 12 16 10 17 9 18 11 20 20 22 17 24
REMARK H PARENT 9 19 11 21 20 23 17 25
REMARK Flexibility Score: inf
ROOT
ATOM      1  C   UNL     1       8.063  -6.883 -10.330  1.00  0.00     0.138 A 
ATOM      2  C   UNL     1       8.627  -8.111 -10.704  1.00  0.00     0.100 A 
ATOM      3  C   UNL     1       9.888  -8.139 -11.301  1.00  0.00     0.197 A 
ATOM      4  O   UNL     1      10.340  -9.249 -11.683  1.00  0.00    -0.289 OA
ATOM      5  C   UNL     1      10.601  -6.931 -11.495  1.00  0.00     0.107 A 
ATOM      6  C   UNL     1      11.909  -6.841 -12.057  1.00  0.00     0.134 A 
ATOM      7  C   UNL     1      12.467  -5.582 -12.308  1.00  0.00     0.093 A 
ATOM      8  C   UNL     1      11.789  -4.411 -11.962  1.00  0.00     0.123 A 
ATOM      9  C   UNL     1      10.534  -4.489 -11.363  1.00  0.00     0.094 A 
ATOM     10  C   UNL     1       9.935  -5.730 -11.132  1.00  0.00     0.146 A 
ATOM     11  O   UNL     1       8.730  -5.759 -10.573  1.00  0.00    -0.456 OA
ENDROOT
BRANCH   1  12
ATOM     12  C   UNL     1       6.726  -6.797  -9.690  1.00  0.00     0.021 A 
ATOM     13  C   UNL     1       6.635  -6.525  -8.315  1.00  0.00     0.016 A 
ATOM     14  C   UNL     1       5.390  -6.447  -7.689  1.00  0.00     0.051 A 
ATOM     15  C   UNL     1       4.211  -6.646  -8.415  1.00  0.00     0.157 A 
ATOM     16  C   UNL     1       5.541  -7.014 -10.418  1.00  0.00     0.062 A 
ATOM     17  C   UNL     1       4.288  -6.939  -9.796  1.00  0.00     0.158 A 
BRANCH  15  18
ATOM     18  O   UNL     1       2.999  -6.549  -7.729  1.00  0.00    -0.504 OA
ATOM     19  H   UNL     1       2.920  -6.509  -6.723  1.00  0.00     0.293 HD
ENDBRANCH  15  18
BRANCH  17  20
ATOM     20  O   UNL     1       3.156  -7.166 -10.582  1.00  0.00    -0.504 OA
ATOM     21  H   UNL     1       2.802  -8.084 -10.812  1.00  0.00     0.293 HD
ENDBRANCH  17  20
ENDBRANCH   1  12
BRANCH   6  22
ATOM     22  O   UNL     1      12.707  -7.949 -12.360  1.00  0.00    -0.507 OA
ATOM     23  H   UNL     1      13.003  -8.210 -13.288  1.00  0.00     0.293 HD
ENDBRANCH   6  22
BRANCH   8  24
ATOM     24  O   UNL     1      12.359  -3.162 -12.201  1.00  0.00    -0.508 OA
ATOM     25  H   UNL     1      12.721  -2.911 -13.114  1.00  0.00     0.293 HD
ENDBRANCH   8  24
TORSDOF 5
ENDMDL
MODEL 5
REMARK VINA RESULT:    -7.752      6.559     10.491
REMARK INTER + INTRA:          -9.376
REMARK INTER:                  -9.084
REMARK INTRA:                  -0.292
REMARK UNBOUND:                -0.265
REMARK SMILES O=c1cc(-c2ccc(O)c(O)c2)oc2cc(O)cc(O)c12
REMARK SMILES IDX 4 1 3 2 2 3 1 4 21 5 19 6 18 7 16 8 15 9 14 10 13 11 5 12
REMARK SMILES IDX 6 13 7 14 8 15 12 16 10 17 9 18 11 20 20 22 17 24
REMARK H PARENT 9 19 11 21 20 23 17 25
REMARK Flexibility Score: inf
ROOT
ATOM      1  C   UNL     1      11.134  -6.068 -11.851  1.00  0.00     0.138 A 
ATOM      2  C   UNL     1      11.310  -7.459 -11.823  1.00  0.00     0.100 A 
ATOM      3  C   UNL     1      10.301  -8.272 -11.304  1.00  0.00     0.197 A 
ATOM      4  O   UNL     1      10.514  -9.510 -11.234  1.00  0.00    -0.289 OA
ATOM      5  C   UNL     1       9.097  -7.689 -10.840  1.00  0.00     0.107 A 
ATOM      6  C   UNL     1       7.985  -8.421 -10.328  1.00  0.00     0.134 A 
ATOM      7  C   UNL     1       6.893  -7.730  -9.790  1.00  0.00     0.093 A 
ATOM      8  C   UNL     1       6.846  -6.334  -9.801  1.00  0.00     0.123 A 
ATOM      9  C   UNL     1       7.904  -5.611 -10.348  1.00  0.00     0.094 A 
ATOM     10  C   UNL     1       9.023  -6.271 -10.860  1.00  0.00     0.146 A 
ATOM     11  O   UNL     1      10.017  -5.543 -11.359  1.00  0.00    -0.456 OA
ENDROOT
BRANCH   1  12
ATOM     12  C   UNL     1      12.175  -5.158 -12.394  1.00  0.00     0.021 A 
ATOM     13  C   UNL     1      12.184  -3.809 -12.003  1.00  0.00     0.016 A 
ATOM     14  C   UNL     1      13.147  -2.932 -12.504  1.00  0.00     0.051 A 
ATOM     15  C   UNL     1      14.114  -3.376 -13.411  1.00  0.00     0.157 A 
ATOM     16  C   UNL     1      13.138  -5.602 -13.318  1.00  0.00     0.062 A 
ATOM     17  C   UNL     1      14.106  -4.727 -13.828  1.00  0.00     0.158 A 
BRANCH  15  18
ATOM     18  O   UNL     1      15.052  -2.449 -13.870  1.00  0.00    -0.504 OA
ATOM     19  H   UNL     1      15.300  -1.604 -13.375  1.00  0.00     0.293 HD
ENDBRANCH  15  18
BRANCH  17  20
ATOM     20  O   UNL     1      15.030  -5.239 -14.742  1.00  0.00    -0.504 OA
ATOM     21  H   UNL     1      14.884  -5.262 -15.741  1.00  0.00     0.293 HD
ENDBRANCH  17  20
ENDBRANCH   1  12
BRANCH   6  22
ATOM     22  O   UNL     1       7.893  -9.817 -10.347  1.00  0.00    -0.507 OA
ATOM     23  H   UNL     1       8.293 -10.411 -11.057  1.00  0.00     0.293 HD
ENDBRANCH   6  22
BRANCH   8  24
ATOM     24  O   UNL     1       5.748  -5.655  -9.277  1.00  0.00    -0.508 OA
ATOM     25  H   UNL     1       5.288  -5.966  -8.430  1.00  0.00     0.293 HD
ENDBRANCH   8  24
TORSDOF 5
ENDMDL
MODEL 6
REMARK VINA RESULT:    -7.527      2.505      3.169
REMARK INTER + INTRA:          -9.111
REMARK INTER:                  -8.837
REMARK INTRA:                  -0.274
REMARK UNBOUND:                -0.265
REMARK SMILES O=c1cc(-c2ccc(O)c(O)c2)oc2cc(O)cc(O)c12
REMARK SMILES IDX 4 1 3 2 2 3 1 4 21 5 19 6 18 7 16 8 15 9 14 10 13 11 5 12
REMARK SMILES IDX 6 13 7 14 8 15 12 16 10 17 9 18 11 20 20 22 17 24
REMARK H PARENT 9 19 11 21 20 23 17 25
REMARK Flexibility Score: inf
ROOT
ATOM      1  C   UNL     1       0.872  -4.770  -8.376  1.00  0.00     0.138 A 
ATOM      2  C   UNL     1       0.058  -4.770  -9.517  1.00  0.00     0.100 A 
ATOM      3  C   UNL     1      -1.272  -4.357  -9.415  1.00  0.00     0.197 A 
ATOM      4  O   UNL     1      -1.995  -4.427 -10.442  1.00  0.00    -0.289 OA
ATOM      5  C   UNL     1      -1.777  -3.912  -8.170  1.00  0.00     0.107 A 
ATOM      6  C   UNL     1      -3.103  -3.431  -7.956  1.00  0.00     0.134 A 
ATOM      7  C   UNL     1      -3.526  -3.128  -6.657  1.00  0.00     0.093 A 
ATOM      8  C   UNL     1      -2.652  -3.231  -5.571  1.00  0.00     0.123 A 
ATOM      9  C   UNL     1      -1.339  -3.649  -5.777  1.00  0.00     0.094 A 
ATOM     10  C   UNL     1      -0.898  -3.992  -7.057  1.00  0.00     0.146 A 
ATOM     11  O   UNL     1       0.358  -4.400  -7.207  1.00  0.00    -0.456 OA
ENDROOT
BRANCH   1  12
ATOM     12  C   UNL     1       2.293  -5.199  -8.428  1.00  0.00     0.021 A 
ATOM     13  C   UNL     1       3.283  -4.380  -7.860  1.00  0.00     0.016 A 
ATOM     14  C   UNL     1       4.626  -4.756  -7.903  1.00  0.00     0.051 A 
ATOM     15  C   UNL     1       5.014  -5.950  -8.520  1.00  0.00     0.157 A 
ATOM     16  C   UNL     1       2.684  -6.393  -9.063  1.00  0.00     0.062 A 
ATOM     17  C   UNL     1       4.031  -6.776  -9.112  1.00  0.00     0.158 A 
BRANCH  15  18
ATOM     18  O   UNL     1       6.373  -6.271  -8.523  1.00  0.00    -0.504 OA
ATOM     19  H   UNL     1       7.004  -6.048  -9.279  1.00  0.00     0.293 HD
ENDBRANCH  15  18
BRANCH  17  20
ATOM     20  O   UNL     1       4.343  -7.974  -9.759  1.00  0.00    -0.504 OA
ATOM     21  H   UNL     1       4.228  -8.128 -10.751  1.00  0.00     0.293 HD
ENDBRANCH  17  20
ENDBRANCH   1  12
BRANCH   6  22
ATOM     22  O   UNL     1      -4.028  -3.210  -8.981  1.00  0.00    -0.507 OA
ATOM     23  H   UNL     1      -5.020  -3.087  -8.846  1.00  0.00     0.293 HD
ENDBRANCH   6  22
BRANCH   8  24
ATOM     24  O   UNL     1      -3.077  -2.913  -4.283  1.00  0.00    -0.508 OA
ATOM     25  H   UNL     1      -4.055  -2.742  -4.075  1.00  0.00     0.293 HD
ENDBRANCH   8  24
TORSDOF 5
ENDMDL
MODEL 7
REMARK VINA RESULT:    -7.469      2.608      3.269
REMARK INTER + INTRA:          -9.043
REMARK INTER:                  -8.731
REMARK INTRA:                  -0.313
REMARK UNBOUND:                -0.265
REMARK SMILES O=c1cc(-c2ccc(O)c(O)c2)oc2cc(O)cc(O)c12
REMARK SMILES IDX 4 1 3 2 2 3 1 4 21 5 19 6 18 7 16 8 15 9 14 10 13 11 5 12
REMARK SMILES IDX 6 13 7 14 8 15 12 16 10 17 9 18 11 20 20 22 17 24
REMARK H PARENT 9 19 11 21 20 23 17 25
REMARK Flexibility Score: inf
ROOT
ATOM      1  C   UNL     1       0.969  -4.565  -8.067  1.00  0.00     0.138 A 
ATOM      2  C   UNL     1       0.557  -3.609  -7.127  1.00  0.00     0.100 A 
ATOM      3  C   UNL     1      -0.764  -3.160  -7.132  1.00  0.00     0.197 A 
ATOM      4  O   UNL     1      -1.087  -2.257  -6.319  1.00  0.00    -0.289 OA
ATOM      5  C   UNL     1      -1.685  -3.696  -8.064  1.00  0.00     0.107 A 
ATOM      6  C   UNL     1      -3.066  -3.344  -8.136  1.00  0.00     0.134 A 
ATOM      7  C   UNL     1      -3.855  -3.852  -9.175  1.00  0.00     0.093 A 
ATOM      8  C   UNL     1      -3.327  -4.748 -10.109  1.00  0.00     0.123 A 
ATOM      9  C   UNL     1      -1.994  -5.140 -10.015  1.00  0.00     0.094 A 
ATOM     10  C   UNL     1      -1.172  -4.623  -9.011  1.00  0.00     0.146 A 
ATOM     11  O   UNL     1       0.097  -5.012  -8.966  1.00  0.00    -0.456 OA
ENDROOT
BRANCH   1  12
ATOM     12  C   UNL     1       2.362  -5.078  -8.104  1.00  0.00     0.021 A 
ATOM     13  C   UNL     1       3.386  -4.338  -7.492  1.00  0.00     0.016 A 
ATOM     14  C   UNL     1       4.705  -4.794  -7.520  1.00  0.00     0.051 A 
ATOM     15  C   UNL     1       5.033  -5.991  -8.165  1.00  0.00     0.157 A 
ATOM     16  C   UNL     1       2.694  -6.274  -8.767  1.00  0.00     0.062 A 
ATOM     17  C   UNL     1       4.015  -6.737  -8.802  1.00  0.00     0.158 A 
BRANCH  15  18
ATOM     18  O   UNL     1       6.370  -6.394  -8.151  1.00  0.00    -0.504 OA
ATOM     19  H   UNL     1       7.056  -6.098  -8.830  1.00  0.00     0.293 HD
ENDBRANCH  15  18
BRANCH  17  20
ATOM     20  O   UNL     1       4.269  -7.932  -9.479  1.00  0.00    -0.504 OA
ATOM     21  H   UNL     1       3.634  -8.351 -10.144  1.00  0.00     0.293 HD
ENDBRANCH  17  20
ENDBRANCH   1  12
BRANCH   6  22
ATOM     22  O   UNL     1      -3.713  -2.525  -7.205  1.00  0.00    -0.507 OA
ATOM     23  H   UNL     1      -4.021  -2.822  -6.292  1.00  0.00     0.293 HD
ENDBRANCH   6  22
BRANCH   8  24
ATOM     24  O   UNL     1      -4.124  -5.261 -11.130  1.00  0.00    -0.508 OA
ATOM     25  H   UNL     1      -3.861  -6.098 -11.637  1.00  0.00     0.293 HD
ENDBRANCH   8  24
TORSDOF 5
ENDMDL
MODEL 8
REMARK VINA RESULT:    -7.299      4.219     10.089
REMARK INTER + INTRA:          -8.843
REMARK INTER:                  -8.573
REMARK INTRA:                  -0.270
REMARK UNBOUND:                -0.265
REMARK SMILES O=c1cc(-c2ccc(O)c(O)c2)oc2cc(O)cc(O)c12
REMARK SMILES IDX 4 1 3 2 2 3 1 4 21 5 19 6 18 7 16 8 15 9 14 10 13 11 5 12
REMARK SMILES IDX 6 13 7 14 8 15 12 16 10 17 9 18 11 20 20 22 17 24
REMARK H PARENT 9 19 11 21 20 23 17 25
REMARK Flexibility Score: inf
ROOT
ATOM      1  C   UNL     1       7.918  -6.854 -10.294  1.00  0.00     0.138 A 
ATOM      2  C   UNL     1       8.714  -5.712 -10.464  1.00  0.00     0.100 A 
ATOM      3  C   UNL     1       9.957  -5.824 -11.090  1.00  0.00     0.197 A 
ATOM      4  O   UNL     1      10.675  -4.794 -11.171  1.00  0.00    -0.289 OA
ATOM      5  C   UNL     1      10.389  -7.081 -11.576  1.00  0.00     0.107 A 
ATOM      6  C   UNL     1      11.617  -7.307 -12.265  1.00  0.00     0.134 A 
ATOM      7  C   UNL     1      11.992  -8.615 -12.596  1.00  0.00     0.093 A 
ATOM      8  C   UNL     1      11.155  -9.698 -12.317  1.00  0.00     0.123 A 
ATOM      9  C   UNL     1       9.929  -9.481 -11.692  1.00  0.00     0.094 A 
ATOM     10  C   UNL     1       9.542  -8.192 -11.318  1.00  0.00     0.146 A 
ATOM     11  O   UNL     1       8.371  -8.032 -10.711  1.00  0.00    -0.456 OA
ENDROOT
BRANCH   1  12
ATOM     12  C   UNL     1       6.588  -6.790  -9.637  1.00  0.00     0.021 A 
ATOM     13  C   UNL     1       6.510  -6.509  -8.263  1.00  0.00     0.016 A 
ATOM     14  C   UNL     1       5.273  -6.452  -7.620  1.00  0.00     0.051 A 
ATOM     15  C   UNL     1       4.089  -6.680  -8.328  1.00  0.00     0.157 A 
ATOM     16  C   UNL     1       5.398  -7.036 -10.347  1.00  0.00     0.062 A 
ATOM     17  C   UNL     1       4.153  -6.982  -9.708  1.00  0.00     0.158 A 
BRANCH  15  18
ATOM     18  O   UNL     1       2.884  -6.602  -7.627  1.00  0.00    -0.504 OA
ATOM     19  H   UNL     1       2.006  -6.968  -7.968  1.00  0.00     0.293 HD
ENDBRANCH  15  18
BRANCH  17  20
ATOM     20  O   UNL     1       3.015  -7.237 -10.477  1.00  0.00    -0.504 OA
ATOM     21  H   UNL     1       2.101  -7.425 -10.090  1.00  0.00     0.293 HD
ENDBRANCH  17  20
ENDBRANCH   1  12
BRANCH   6  22
ATOM     22  O   UNL     1      12.487  -6.288 -12.667  1.00  0.00    -0.507 OA
ATOM     23  H   UNL     1      12.709  -5.470 -12.120  1.00  0.00     0.293 HD
ENDBRANCH   6  22
BRANCH   8  24
ATOM     24  O   UNL     1      11.529 -10.994 -12.664  1.00  0.00    -0.508 OA
ATOM     25  H   UNL     1      11.062 -11.500 -13.407  1.00  0.00     0.293 HD
ENDBRANCH   8  24
TORSDOF 5
ENDMDL
MODEL 9
REMARK VINA RESULT:    -7.273      1.849      3.389
REMARK INTER + INTRA:          -8.813
REMARK INTER:                  -8.506
REMARK INTRA:                  -0.307
REMARK UNBOUND:                -0.265
REMARK SMILES O=c1cc(-c2ccc(O)c(O)c2)oc2cc(O)cc(O)c12
REMARK SMILES IDX 4 1 3 2 2 3 1 4 21 5 19 6 18 7 16 8 15 9 14 10 13 11 5 12
REMARK SMILES IDX 6 13 7 14 8 15 12 16 10 17 9 18 11 20 20 22 17 24
REMARK H PARENT 9 19 11 21 20 23 17 25
REMARK Flexibility Score: inf
ROOT
ATOM      1  C   UNL     1       3.055  -6.301  -8.862  1.00  0.00     0.138 A 
ATOM      2  C   UNL     1       2.520  -7.370  -8.129  1.00  0.00     0.100 A 
ATOM      3  C   UNL     1       1.177  -7.343  -7.751  1.00  0.00     0.197 A 
ATOM      4  O   UNL     1       0.741  -8.286  -7.041  1.00  0.00    -0.289 OA
ATOM      5  C   UNL     1       0.358  -6.255  -8.138  1.00  0.00     0.107 A 
ATOM      6  C   UNL     1      -1.033  -6.140  -7.844  1.00  0.00     0.134 A 
ATOM      7  C   UNL     1      -1.714  -4.962  -8.177  1.00  0.00     0.093 A 
ATOM      8  C   UNL     1      -1.067  -3.920  -8.847  1.00  0.00     0.123 A 
ATOM      9  C   UNL     1       0.278  -4.045  -9.185  1.00  0.00     0.094 A 
ATOM     10  C   UNL     1       0.993  -5.193  -8.836  1.00  0.00     0.146 A 
ATOM     11  O   UNL     1       2.279  -5.265  -9.165  1.00  0.00    -0.456 OA
ENDROOT
BRANCH   1  12
ATOM     12  C   UNL     1       4.477  -6.279  -9.291  1.00  0.00     0.021 A 
ATOM     13  C   UNL     1       5.439  -6.953  -8.522  1.00  0.00     0.016 A 
ATOM     14  C   UNL     1       6.783  -6.942  -8.900  1.00  0.00     0.051 A 
ATOM     15  C   UNL     1       7.198  -6.252 -10.043  1.00  0.00     0.157 A 
ATOM     16  C   UNL     1       4.895  -5.571 -10.433  1.00  0.00     0.062 A 
ATOM     17  C   UNL     1       6.242  -5.553 -10.817  1.00  0.00     0.158 A 
BRANCH  15  18
ATOM     18  O   UNL     1       8.555  -6.285 -10.368  1.00  0.00    -0.504 OA
ATOM     19  H   UNL     1       9.298  -6.087  -9.713  1.00  0.00     0.293 HD
ENDBRANCH  15  18
BRANCH  17  20
ATOM     20  O   UNL     1       6.583  -4.829 -11.961  1.00  0.00    -0.504 OA
ATOM     21  H   UNL     1       5.927  -4.573 -12.685  1.00  0.00     0.293 HD
ENDBRANCH  17  20
ENDBRANCH   1  12
BRANCH   6  22
ATOM     22  O   UNL     1      -1.794  -7.155  -7.255  1.00  0.00    -0.507 OA
ATOM     23  H   UNL     1      -2.250  -7.900  -7.759  1.00  0.00     0.293 HD
ENDBRANCH   6  22
BRANCH   8  24
ATOM     24  O   UNL     1      -1.756  -2.759  -9.187  1.00  0.00    -0.508 OA
ATOM     25  H   UNL     1      -2.670  -2.793  -9.625  1.00  0.00     0.293 HD
ENDBRANCH   8  24
TORSDOF 5
ENDMDL
