MODEL 1
REMARK VINA RESULT:    -7.335      0.000      0.000
REMARK INTER + INTRA:          -8.965
REMARK INTER:                  -8.836
REMARK INTRA:                  -0.129
REMARK UNBOUND:                -0.129
REMARK SMILES O=c1c(O)c(-c2ccc(O)c(O)c2)oc2cc(O)cc(O)c12
REMARK SMILES IDX 5 1 3 2 2 3 1 4 22 5 20 6 19 7 17 8 16 9 15 10 14 11 6 12
REMARK SMILES IDX 7 13 8 14 9 15 13 16 11 17 10 18 12 20 4 22 21 24 18 26
REMARK H PARENT 10 19 12 21 4 23 21 25 18 27
REMARK Flexibility Score: inf
ROOT
ATOM      1  C   UNL     1      12.911  20.032   1.834  1.00  0.00     0.180 A 
ATOM      2  C   UNL     1      13.815  20.826   1.106  1.00  0.00     0.208 A 
ATOM      3  C   UNL     1      13.821  20.738  -0.295  1.00  0.00     0.238 A 
ATOM      4  O   UNL     1      14.669  21.410  -0.939  1.00  0.00    -0.285 OA
ATOM      5  C   UNL     1      12.913  19.872  -0.952  1.00  0.00     0.111 A 
ATOM      6  C   UNL     1      12.805  19.735  -2.368  1.00  0.00     0.134 A 
ATOM      7  C   UNL     1      11.963  18.752  -2.904  1.00  0.00     0.093 A 
ATOM      8  C   UNL     1      11.178  17.948  -2.075  1.00  0.00     0.123 A 
ATOM      9  C   UNL     1      11.232  18.115  -0.694  1.00  0.00     0.094 A 
ATOM     10  C   UNL     1      12.089  19.062  -0.129  1.00  0.00     0.146 A 
ATOM     11  O   UNL     1      12.118  19.182   1.194  1.00  0.00    -0.452 OA
ENDROOT
BRANCH   1  12
ATOM     12  C   UNL     1      12.827  20.087   3.311  1.00  0.00     0.025 A 
ATOM     13  C   UNL     1      12.486  21.295   3.939  1.00  0.00     0.016 A 
ATOM     14  C   UNL     1      12.422  21.375   5.333  1.00  0.00     0.051 A 
ATOM     15  C   UNL     1      12.713  20.256   6.119  1.00  0.00     0.157 A 
ATOM     16  C   UNL     1      13.140  18.968   4.105  1.00  0.00     0.062 A 
ATOM     17  C   UNL     1      13.078  19.047   5.504  1.00  0.00     0.158 A 
BRANCH  15  18
ATOM     18  O   UNL     1      12.638  20.365   7.508  1.00  0.00    -0.504 OA
ATOM     19  H   UNL     1      13.270  19.867   8.122  1.00  0.00     0.293 HD
ENDBRANCH  15  18
BRANCH  17  20
ATOM     20  O   UNL     1      13.382  17.931   6.282  1.00  0.00    -0.504 OA
ATOM     21  H   UNL     1      12.657  17.347   6.681  1.00  0.00     0.293 HD
ENDBRANCH  17  20
ENDBRANCH   1  12
BRANCH   2  22
ATOM     22  O   UNL     1      14.716  21.657   1.775  1.00  0.00    -0.502 OA
ATOM     23  H   UNL     1      15.445  22.171   1.292  1.00  0.00     0.293 HD
ENDBRANCH   2  22
BRANCH   6  24
ATOM     24  O   UNL     1      13.476  20.549  -3.286  1.00  0.00    -0.507 OA
ATOM     25  H   UNL     1      13.296  20.565  -4.278  1.00  0.00     0.293 HD
ENDBRANCH   6  24
BRANCH   8  26
ATOM     26  O   UNL     1      10.330  16.982  -2.617  1.00  0.00    -0.508 OA
ATOM     27  H   UNL     1       9.717  17.193  -3.397  1.00  0.00     0.293 HD
ENDBRANCH   8  26
TORSDOF 6
ENDMDL
MODEL 2
REMARK VINA RESULT:    -7.229      1.497      3.291
REMARK INTER + INTRA:          -8.837
REMARK INTER:                  -8.527
REMARK INTRA:                  -0.311
REMARK UNBOUND:                -0.129
REMARK SMILES O=c1c(O)c(-c2ccc(O)c(O)c2)oc2cc(O)cc(O)c12
REMARK SMILES IDX 5 1 3 2 2 3 1 4 22 5 20 6 19 7 17 8 16 9 15 10 14 11 6 12
REMARK SMILES IDX 7 13 8 14 9 15 13 16 11 17 10 18 12 20 4 22 21 24 18 26
REMARK H PARENT 10 19 12 21 4 23 21 25 18 27
REMARK Flexibility Score: inf
ROOT
ATOM      1  C   UNL     1      12.320  20.102   2.352  1.00  0.00     0.180 A 
ATOM      2  C   UNL     1      11.247  19.486   1.683  1.00  0.00     0.208 A 
ATOM      3  C   UNL     1      11.265  19.426   0.280  1.00  0.00     0.238 A 
ATOM      4  O   UNL     1      10.277  18.922  -0.315  1.00  0.00    -0.285 OA
ATOM      5  C   UNL     1      12.361  19.966  -0.435  1.00  0.00     0.111 A 
ATOM      6  C   UNL     1      12.502  19.924  -1.854  1.00  0.00     0.134 A 
ATOM      7  C   UNL     1      13.564  20.605  -2.462  1.00  0.00     0.093 A 
ATOM      8  C   UNL     1      14.524  21.271  -1.698  1.00  0.00     0.123 A 
ATOM      9  C   UNL     1      14.428  21.267  -0.309  1.00  0.00     0.094 A 
ATOM     10  C   UNL     1      13.361  20.627   0.325  1.00  0.00     0.146 A 
ATOM     11  O   UNL     1      13.301  20.657   1.652  1.00  0.00    -0.452 OA
ENDROOT
BRANCH   1  12
ATOM     12  C   UNL     1      12.384  20.182   3.829  1.00  0.00     0.025 A 
ATOM     13  C   UNL     1      12.858  19.082   4.561  1.00  0.00     0.016 A 
ATOM     14  C   UNL     1      12.908  19.129   5.957  1.00  0.00     0.051 A 
ATOM     15  C   UNL     1      12.472  20.266   6.642  1.00  0.00     0.157 A 
ATOM     16  C   UNL     1      11.926  21.318   4.522  1.00  0.00     0.062 A 
ATOM     17  C   UNL     1      11.975  21.365   5.923  1.00  0.00     0.158 A 
BRANCH  15  18
ATOM     18  O   UNL     1      12.536  20.285   8.035  1.00  0.00    -0.504 OA
ATOM     19  H   UNL     1      12.752  21.128   8.553  1.00  0.00     0.293 HD
ENDBRANCH  15  18
BRANCH  17  20
ATOM     20  O   UNL     1      11.525  22.498   6.600  1.00  0.00    -0.504 OA
ATOM     21  H   UNL     1      10.548  22.622   6.839  1.00  0.00     0.293 HD
ENDBRANCH  17  20
ENDBRANCH   1  12
BRANCH   2  22
ATOM     22  O   UNL     1      10.165  18.979   2.407  1.00  0.00    -0.502 OA
ATOM     23  H   UNL     1       9.434  19.573   2.781  1.00  0.00     0.293 HD
ENDBRANCH   2  22
BRANCH   6  24
ATOM     24  O   UNL     1      11.651  19.211  -2.703  1.00  0.00    -0.507 OA
ATOM     25  H   UNL     1      11.033  19.630  -3.382  1.00  0.00     0.293 HD
ENDBRANCH   6  24
BRANCH   8  26
ATOM     26  O   UNL     1      15.587  21.934  -2.311  1.00  0.00    -0.508 OA
ATOM     27  H   UNL     1      15.929  21.656  -3.224  1.00  0.00     0.293 HD
ENDBRANCH   8  26
TORSDOF 6
ENDMDL
MODEL 3
REMARK VINA RESULT:    -7.145      1.686      6.609
REMARK INTER + INTRA:          -8.736
REMARK INTER:                  -8.854
REMARK INTRA:                   0.118
REMARK UNBOUND:                -0.129
REMARK SMILES O=c1c(O)c(-c2ccc(O)c(O)c2)oc2cc(O)cc(O)c12
REMARK SMILES IDX 5 1 3 2 2 3 1 4 22 5 20 6 19 7 17 8 16 9 15 10 14 11 6 12
REMARK SMILES IDX 7 13 8 14 9 15 13 16 11 17 10 18 12 20 4 22 21 24 18 26
REMARK H PARENT 10 19 12 21 4 23 21 25 18 27
REMARK Flexibility Score: inf
ROOT
ATOM      1  C   UNL     1      12.989  20.175   1.566  1.00  0.00     0.180 A 
ATOM      2  C   UNL     1      13.193  21.231   2.472  1.00  0.00     0.208 A 
ATOM      3  C   UNL     1      12.961  21.010   3.839  1.00  0.00     0.238 A 
ATOM      4  O   UNL     1      13.092  21.974   4.638  1.00  0.00    -0.285 OA
ATOM      5  C   UNL     1      12.543  19.733   4.285  1.00  0.00     0.111 A 
ATOM      6  C   UNL     1      12.318  19.386   5.651  1.00  0.00     0.134 A 
ATOM      7  C   UNL     1      11.781  18.131   5.964  1.00  0.00     0.093 A 
ATOM      8  C   UNL     1      11.524  17.188   4.967  1.00  0.00     0.123 A 
ATOM      9  C   UNL     1      11.797  17.496   3.636  1.00  0.00     0.094 A 
ATOM     10  C   UNL     1      12.298  18.753   3.289  1.00  0.00     0.146 A 
ATOM     11  O   UNL     1      12.535  19.009   2.007  1.00  0.00    -0.452 OA
ENDROOT
BRANCH   1  12
ATOM     12  C   UNL     1      13.237  20.324   0.114  1.00  0.00     0.025 A 
ATOM     13  C   UNL     1      12.390  19.680  -0.801  1.00  0.00     0.016 A 
ATOM     14  C   UNL     1      12.618  19.791  -2.175  1.00  0.00     0.051 A 
ATOM     15  C   UNL     1      13.703  20.530  -2.655  1.00  0.00     0.157 A 
ATOM     16  C   UNL     1      14.341  21.051  -0.370  1.00  0.00     0.062 A 
ATOM     17  C   UNL     1      14.571  21.161  -1.749  1.00  0.00     0.158 A 
BRANCH  15  18
ATOM     18  O   UNL     1      13.903  20.625  -4.032  1.00  0.00    -0.504 OA
ATOM     19  H   UNL     1      13.355  20.090  -4.694  1.00  0.00     0.293 HD
ENDBRANCH  15  18
BRANCH  17  20
ATOM     20  O   UNL     1      15.663  21.890  -2.220  1.00  0.00    -0.504 OA
ATOM     21  H   UNL     1      15.792  22.867  -1.985  1.00  0.00     0.293 HD
ENDBRANCH  17  20
ENDBRANCH   1  12
BRANCH   2  22
ATOM     22  O   UNL     1      13.584  22.490   2.007  1.00  0.00    -0.502 OA
ATOM     23  H   UNL     1      12.934  23.137   1.576  1.00  0.00     0.293 HD
ENDBRANCH   2  22
BRANCH   6  24
ATOM     24  O   UNL     1      12.626  20.220   6.730  1.00  0.00    -0.507 OA
ATOM     25  H   UNL     1      12.122  21.061   6.969  1.00  0.00     0.293 HD
ENDBRANCH   6  24
BRANCH   8  26
ATOM     26  O   UNL     1      11.004  15.936   5.289  1.00  0.00    -0.508 OA
ATOM     27  H   UNL     1      11.567  15.232   5.753  1.00  0.00     0.293 HD
ENDBRANCH   8  26
TORSDOF 6
ENDMDL
MODEL 4
REMARK VINA RESULT:    -7.055      2.588      3.819
REMARK INTER + INTRA:          -8.627
REMARK INTER:                  -8.306
REMARK INTRA:                  -0.321
REMARK UNBOUND:                -0.129
REMARK SMILES O=c1c(O)c(-c2ccc(O)c(O)c2)oc2cc(O)cc(O)c12
REMARK SMILES IDX 5 1 3 2 2 3 1 4 22 5 20 6 19 7 17 8 16 9 15 10 14 11 6 12
REMARK SMILES IDX 7 13 8 14 9 15 13 16 11 17 10 18 12 20 4 22 21 24 18 26
REMARK H PARENT 10 19 12 21 4 23 21 25 18 27
REMARK Flexibility Score: inf
ROOT
ATOM      1  C   UNL     1      11.867  20.338   4.786  1.00  0.00     0.180 A 
ATOM      2  C   UNL     1      12.659  21.426   4.380  1.00  0.00     0.208 A 
ATOM      3  C   UNL     1      13.448  21.300   3.225  1.00  0.00     0.238 A 
ATOM      4  O   UNL     1      14.197  22.258   2.898  1.00  0.00    -0.285 OA
ATOM      5  C   UNL     1      13.422  20.096   2.481  1.00  0.00     0.111 A 
ATOM      6  C   UNL     1      14.150  19.874   1.274  1.00  0.00     0.134 A 
ATOM      7  C   UNL     1      14.151  18.599   0.694  1.00  0.00     0.093 A 
ATOM      8  C   UNL     1      13.399  17.558   1.242  1.00  0.00     0.123 A 
ATOM      9  C   UNL     1      12.638  17.781   2.387  1.00  0.00     0.094 A 
ATOM     10  C   UNL     1      12.646  19.032   3.008  1.00  0.00     0.146 A 
ATOM     11  O   UNL     1      11.914  19.200   4.105  1.00  0.00    -0.452 OA
ENDROOT
BRANCH   1  12
ATOM     12  C   UNL     1      10.991  20.403   5.977  1.00  0.00     0.025 A 
ATOM     13  C   UNL     1       9.666  20.846   5.838  1.00  0.00     0.016 A 
ATOM     14  C   UNL     1       8.828  20.935   6.952  1.00  0.00     0.051 A 
ATOM     15  C   UNL     1       9.304  20.598   8.223  1.00  0.00     0.157 A 
ATOM     16  C   UNL     1      11.474  20.084   7.260  1.00  0.00     0.062 A 
ATOM     17  C   UNL     1      10.634  20.175   8.380  1.00  0.00     0.158 A 
BRANCH  15  18
ATOM     18  O   UNL     1       8.444  20.694   9.317  1.00  0.00    -0.504 OA
ATOM     19  H   UNL     1       7.464  20.445   9.254  1.00  0.00     0.293 HD
ENDBRANCH  15  18
BRANCH  17  20
ATOM     20  O   UNL     1      11.119  19.850   9.646  1.00  0.00    -0.504 OA
ATOM     21  H   UNL     1      10.655  20.165  10.490  1.00  0.00     0.293 HD
ENDBRANCH  17  20
ENDBRANCH   1  12
BRANCH   2  22
ATOM     22  O   UNL     1      12.687  22.598   5.141  1.00  0.00    -0.502 OA
ATOM     23  H   UNL     1      13.542  22.969   5.538  1.00  0.00     0.293 HD
ENDBRANCH   2  22
BRANCH   6  24
ATOM     24  O   UNL     1      14.859  20.869   0.595  1.00  0.00    -0.507 OA
ATOM     25  H   UNL     1      15.761  20.738   0.161  1.00  0.00     0.293 HD
ENDBRANCH   6  24
BRANCH   8  26
ATOM     26  O   UNL     1      13.393  16.296   0.649  1.00  0.00    -0.508 OA
ATOM     27  H   UNL     1      14.070  15.587   0.908  1.00  0.00     0.293 HD
ENDBRANCH   8  26
TORSDOF 6
ENDMDL
MODEL 5
REMARK VINA RESULT:    -7.036      2.773      7.495
REMARK INTER + INTRA:          -8.605
REMARK INTER:                  -8.349
REMARK INTRA:                  -0.256
REMARK UNBOUND:                -0.129
REMARK SMILES O=c1c(O)c(-c2ccc(O)c(O)c2)oc2cc(O)cc(O)c12
REMARK SMILES IDX 5 1 3 2 2 3 1 4 22 5 20 6 19 7 17 8 16 9 15 10 14 11 6 12
REMARK SMILES IDX 7 13 8 14 9 15 13 16 11 17 10 18 12 20 4 22 21 24 18 26
REMARK H PARENT 10 19 12 21 4 23 21 25 18 27
REMARK Flexibility Score: inf
ROOT
ATOM      1  C   UNL     1      12.599  19.637  -1.532  1.00  0.00     0.180 A 
ATOM      2  C   UNL     1      11.473  20.367  -1.112  1.00  0.00     0.208 A 
ATOM      3  C   UNL     1      11.551  21.115   0.073  1.00  0.00     0.238 A 
ATOM      4  O   UNL     1      10.523  21.723   0.473  1.00  0.00    -0.285 OA
ATOM      5  C   UNL     1      12.756  21.138   0.815  1.00  0.00     0.111 A 
ATOM      6  C   UNL     1      12.959  21.894   2.009  1.00  0.00     0.134 A 
ATOM      7  C   UNL     1      14.149  21.737   2.730  1.00  0.00     0.093 A 
ATOM      8  C   UNL     1      15.169  20.904   2.266  1.00  0.00     0.123 A 
ATOM      9  C   UNL     1      15.004  20.208   1.071  1.00  0.00     0.094 A 
ATOM     10  C   UNL     1      13.813  20.315   0.348  1.00  0.00     0.146 A 
ATOM     11  O   UNL     1      13.693  19.626  -0.781  1.00  0.00    -0.452 OA
ENDROOT
BRANCH   1  12
ATOM     12  C   UNL     1      12.602  18.845  -2.783  1.00  0.00     0.025 A 
ATOM     13  C   UNL     1      11.945  17.605  -2.818  1.00  0.00     0.016 A 
ATOM     14  C   UNL     1      11.953  16.832  -3.982  1.00  0.00     0.051 A 
ATOM     15  C   UNL     1      12.629  17.277  -5.121  1.00  0.00     0.157 A 
ATOM     16  C   UNL     1      13.300  19.281  -3.925  1.00  0.00     0.062 A 
ATOM     17  C   UNL     1      13.310  18.505  -5.093  1.00  0.00     0.158 A 
BRANCH  15  18
ATOM     18  O   UNL     1      12.617  16.485  -6.269  1.00  0.00    -0.504 OA
ATOM     19  H   UNL     1      12.739  15.480  -6.232  1.00  0.00     0.293 HD
ENDBRANCH  15  18
BRANCH  17  20
ATOM     20  O   UNL     1      13.998  18.948  -6.221  1.00  0.00    -0.504 OA
ATOM     21  H   UNL     1      14.649  18.350  -6.717  1.00  0.00     0.293 HD
ENDBRANCH  17  20
ENDBRANCH   1  12
BRANCH   2  22
ATOM     22  O   UNL     1      10.286  20.313  -1.848  1.00  0.00    -0.502 OA
ATOM     23  H   UNL     1      10.266  20.405  -2.857  1.00  0.00     0.293 HD
ENDBRANCH   2  22
BRANCH   6  24
ATOM     24  O   UNL     1      12.043  22.823   2.510  1.00  0.00    -0.507 OA
ATOM     25  H   UNL     1      11.078  22.621   2.724  1.00  0.00     0.293 HD
ENDBRANCH   6  24
BRANCH   8  26
ATOM     26  O   UNL     1      16.357  20.766   2.982  1.00  0.00    -0.508 OA
ATOM     27  H   UNL     1      16.523  19.967   3.583  1.00  0.00     0.293 HD
ENDBRANCH   8  26
TORSDOF 6
ENDMDL
MODEL 6
REMARK VINA RESULT:    -7.025      2.710      4.858
REMARK INTER + INTRA:          -8.592
REMARK INTER:                  -8.276
REMARK INTRA:                  -0.316
REMARK UNBOUND:                -0.129
REMARK SMILES O=c1c(O)c(-c2ccc(O)c(O)c2)oc2cc(O)cc(O)c12
REMARK SMILES IDX 5 1 3 2 2 3 1 4 22 5 20 6 19 7 17 8 16 9 15 10 14 11 6 12
REMARK SMILES IDX 7 13 8 14 9 15 13 16 11 17 10 18 12 20 4 22 21 24 18 26
REMARK H PARENT 10 19 12 21 4 23 21 25 18 27
REMARK Flexibility Score: inf
ROOT
ATOM      1  C   UNL     1      12.577  19.421  -1.527  1.00  0.00     0.180 A 
ATOM      2  C   UNL     1      11.622  18.391  -1.468  1.00  0.00     0.208 A 
ATOM      3  C   UNL     1      11.411  17.593  -2.604  1.00  0.00     0.238 A 
ATOM      4  O   UNL     1      10.517  16.707  -2.562  1.00  0.00    -0.285 OA
ATOM      5  C   UNL     1      12.167  17.823  -3.778  1.00  0.00     0.111 A 
ATOM      6  C   UNL     1      12.064  17.050  -4.973  1.00  0.00     0.134 A 
ATOM      7  C   UNL     1      12.767  17.450  -6.116  1.00  0.00     0.093 A 
ATOM      8  C   UNL     1      13.619  18.556  -6.088  1.00  0.00     0.123 A 
ATOM      9  C   UNL     1      13.771  19.282  -4.909  1.00  0.00     0.094 A 
ATOM     10  C   UNL     1      13.056  18.929  -3.763  1.00  0.00     0.146 A 
ATOM     11  O   UNL     1      13.223  19.655  -2.663  1.00  0.00    -0.452 OA
ENDROOT
BRANCH   1  12
ATOM     12  C   UNL     1      12.873  20.288  -0.364  1.00  0.00     0.025 A 
ATOM     13  C   UNL     1      13.908  19.933   0.516  1.00  0.00     0.016 A 
ATOM     14  C   UNL     1      14.191  20.726   1.631  1.00  0.00     0.051 A 
ATOM     15  C   UNL     1      13.436  21.873   1.894  1.00  0.00     0.157 A 
ATOM     16  C   UNL     1      12.101  21.431  -0.087  1.00  0.00     0.062 A 
ATOM     17  C   UNL     1      12.383  22.227   1.033  1.00  0.00     0.158 A 
BRANCH  15  18
ATOM     18  O   UNL     1      13.743  22.646   3.013  1.00  0.00    -0.504 OA
ATOM     19  H   UNL     1      13.799  22.249   3.943  1.00  0.00     0.293 HD
ENDBRANCH  15  18
BRANCH  17  20
ATOM     20  O   UNL     1      11.617  23.362   1.296  1.00  0.00    -0.504 OA
ATOM     21  H   UNL     1      11.842  24.261   0.888  1.00  0.00     0.293 HD
ENDBRANCH  17  20
ENDBRANCH   1  12
BRANCH   2  22
ATOM     22  O   UNL     1      10.871  18.194  -0.306  1.00  0.00    -0.502 OA
ATOM     23  H   UNL     1      10.455  17.300  -0.071  1.00  0.00     0.293 HD
ENDBRANCH   2  22
BRANCH   6  24
ATOM     24  O   UNL     1      11.314  15.875  -5.081  1.00  0.00    -0.507 OA
ATOM     25  H   UNL     1      11.605  14.974  -4.733  1.00  0.00     0.293 HD
ENDBRANCH   6  24
BRANCH   8  26
ATOM     26  O   UNL     1      14.326  18.939  -7.226  1.00  0.00    -0.508 OA
ATOM     27  H   UNL     1      13.851  19.233  -8.072  1.00  0.00     0.293 HD
ENDBRANCH   8  26
TORSDOF 6
ENDMDL
MODEL 7
REMARK VINA RESULT:    -7.023      1.290      3.004
REMARK INTER + INTRA:          -8.589
REMARK INTER:                  -8.267
REMARK INTRA:                  -0.321
REMARK UNBOUND:                -0.129
REMARK SMILES O=c1c(O)c(-c2ccc(O)c(O)c2)oc2cc(O)cc(O)c12
REMARK SMILES IDX 5 1 3 2 2 3 1 4 22 5 20 6 19 7 17 8 16 9 15 10 14 11 6 12
REMARK SMILES IDX 7 13 8 14 9 15 13 16 11 17 10 18 12 20 4 22 21 24 18 26
REMARK H PARENT 10 19 12 21 4 23 21 25 18 27
REMARK Flexibility Score: inf
ROOT
ATOM      1  C   UNL     1      12.148  19.658   1.763  1.00  0.00     0.180 A 
ATOM      2  C   UNL     1      11.234  18.955   0.959  1.00  0.00     0.208 A 
ATOM      3  C   UNL     1      11.408  18.960  -0.434  1.00  0.00     0.238 A 
ATOM      4  O   UNL     1      10.556  18.374  -1.152  1.00  0.00    -0.285 OA
ATOM      5  C   UNL     1      12.502  19.654  -1.005  1.00  0.00     0.111 A 
ATOM      6  C   UNL     1      12.797  19.692  -2.401  1.00  0.00     0.134 A 
ATOM      7  C   UNL     1      13.829  20.518  -2.865  1.00  0.00     0.093 A 
ATOM      8  C   UNL     1      14.617  21.254  -1.977  1.00  0.00     0.123 A 
ATOM      9  C   UNL     1      14.374  21.177  -0.608  1.00  0.00     0.094 A 
ATOM     10  C   UNL     1      13.329  20.391  -0.118  1.00  0.00     0.146 A 
ATOM     11  O   UNL     1      13.125  20.354   1.194  1.00  0.00    -0.452 OA
ENDROOT
BRANCH   1  12
ATOM     12  C   UNL     1      12.045  19.679   3.240  1.00  0.00     0.025 A 
ATOM     13  C   UNL     1      11.258  20.660   3.864  1.00  0.00     0.016 A 
ATOM     14  C   UNL     1      11.163  20.710   5.257  1.00  0.00     0.051 A 
ATOM     15  C   UNL     1      11.863  19.794   6.047  1.00  0.00     0.157 A 
ATOM     16  C   UNL     1      12.766  18.771   4.037  1.00  0.00     0.062 A 
ATOM     17  C   UNL     1      12.672  18.822   5.436  1.00  0.00     0.158 A 
BRANCH  15  18
ATOM     18  O   UNL     1      11.747  19.867   7.435  1.00  0.00    -0.504 OA
ATOM     19  H   UNL     1      11.014  20.400   7.887  1.00  0.00     0.293 HD
ENDBRANCH  15  18
BRANCH  17  20
ATOM     20  O   UNL     1      13.385  17.914   6.218  1.00  0.00    -0.504 OA
ATOM     21  H   UNL     1      14.334  17.644   5.988  1.00  0.00     0.293 HD
ENDBRANCH  17  20
ENDBRANCH   1  12
BRANCH   2  22
ATOM     22  O   UNL     1      10.149  18.295   1.542  1.00  0.00    -0.502 OA
ATOM     23  H   UNL     1       9.275  18.144   1.050  1.00  0.00     0.293 HD
ENDBRANCH   2  22
BRANCH   6  24
ATOM     24  O   UNL     1      12.132  18.926  -3.361  1.00  0.00    -0.507 OA
ATOM     25  H   UNL     1      11.303  18.377  -3.186  1.00  0.00     0.293 HD
ENDBRANCH   6  24
BRANCH   8  26
ATOM     26  O   UNL     1      15.652  22.061  -2.447  1.00  0.00    -0.508 OA
ATOM     27  H   UNL     1      15.734  22.300  -3.428  1.00  0.00     0.293 HD
ENDBRANCH   8  26
TORSDOF 6
ENDMDL
MODEL 8
REMARK VINA RESULT:    -6.930      2.602      4.601
REMARK INTER + INTRA:          -8.477
REMARK INTER:                  -8.143
REMARK INTRA:                  -0.334
REMARK UNBOUND:                -0.129
REMARK SMILES O=c1c(O)c(-c2ccc(O)c(O)c2)oc2cc(O)cc(O)c12
REMARK SMILES IDX 5 1 3 2 2 3 1 4 22 5 20 6 19 7 17 8 16 9 15 10 14 11 6 12
REMARK SMILES IDX 7 13 8 14 9 15 13 16 11 17 10 18 12 20 4 22 21 24 18 26
REMARK H PARENT 10 19 12 21 4 23 21 25 18 27
REMARK Flexibility Score: inf
ROOT
ATOM      1  C   UNL     1      11.854  20.130   5.037  1.00  0.00     0.180 A 
ATOM      2  C   UNL     1      11.897  18.802   4.577  1.00  0.00     0.208 A 
ATOM      3  C   UNL     1      12.461  18.536   3.319  1.00  0.00     0.238 A 
ATOM      4  O   UNL     1      12.448  17.353   2.889  1.00  0.00    -0.285 OA
ATOM      5  C   UNL     1      12.990  19.597   2.545  1.00  0.00     0.111 A 
ATOM      6  C   UNL     1      13.621  19.436   1.275  1.00  0.00     0.134 A 
ATOM      7  C   UNL     1      13.990  20.570   0.540  1.00  0.00     0.093 A 
ATOM      8  C   UNL     1      13.809  21.854   1.058  1.00  0.00     0.123 A 
ATOM      9  C   UNL     1      13.249  22.019   2.322  1.00  0.00     0.094 A 
ATOM     10  C   UNL     1      12.838  20.908   3.063  1.00  0.00     0.146 A 
ATOM     11  O   UNL     1      12.298  21.110   4.260  1.00  0.00    -0.452 OA
ENDROOT
BRANCH   1  12
ATOM     12  C   UNL     1      11.297  20.486   6.362  1.00  0.00     0.025 A 
ATOM     13  C   UNL     1       9.955  20.887   6.463  1.00  0.00     0.016 A 
ATOM     14  C   UNL     1       9.415  21.247   7.700  1.00  0.00     0.051 A 
ATOM     15  C   UNL     1      10.209  21.229   8.850  1.00  0.00     0.157 A 
ATOM     16  C   UNL     1      12.100  20.489   7.517  1.00  0.00     0.062 A 
ATOM     17  C   UNL     1      11.560  20.852   8.760  1.00  0.00     0.158 A 
BRANCH  15  18
ATOM     18  O   UNL     1       9.642  21.591  10.072  1.00  0.00    -0.504 OA
ATOM     19  H   UNL     1       9.940  21.179  10.947  1.00  0.00     0.293 HD
ENDBRANCH  15  18
BRANCH  17  20
ATOM     20  O   UNL     1      12.361  20.845   9.900  1.00  0.00    -0.504 OA
ATOM     21  H   UNL     1      12.087  21.331  10.746  1.00  0.00     0.293 HD
ENDBRANCH  17  20
ENDBRANCH   1  12
BRANCH   2  22
ATOM     22  O   UNL     1      11.349  17.773   5.347  1.00  0.00    -0.502 OA
ATOM     23  H   UNL     1      11.870  16.938   5.589  1.00  0.00     0.293 HD
ENDBRANCH   2  22
BRANCH   6  24
ATOM     24  O   UNL     1      13.931  18.197   0.708  1.00  0.00    -0.507 OA
ATOM     25  H   UNL     1      13.512  17.320   0.978  1.00  0.00     0.293 HD
ENDBRANCH   6  24
BRANCH   8  26
ATOM     26  O   UNL     1      14.193  22.977   0.326  1.00  0.00    -0.508 OA
ATOM     27  H   UNL     1      14.752  23.714   0.741  1.00  0.00     0.293 HD
ENDBRANCH   8  26
TORSDOF 6
ENDMDL
MODEL 9
REMARK VINA RESULT:    -6.790      3.797      7.753
REMARK INTER + INTRA:          -8.309
REMARK INTER:                  -8.001
REMARK INTRA:                  -0.308
REMARK UNBOUND:                -0.129
REMARK SMILES O=c1c(O)c(-c2ccc(O)c(O)c2)oc2cc(O)cc(O)c12
REMARK SMILES IDX 5 1 3 2 2 3 1 4 22 5 20 6 19 7 17 8 16 9 15 10 14 11 6 12
REMARK SMILES IDX 7 13 8 14 9 15 13 16 11 17 10 18 12 20 4 22 21 24 18 26
REMARK H PARENT 10 19 12 21 4 23 21 25 18 27
REMARK Flexibility Score: inf
ROOT
ATOM      1  C   UNL     1      11.485  20.456   5.694  1.00  0.00     0.180 A 
ATOM      2  C   UNL     1      11.769  20.423   7.071  1.00  0.00     0.208 A 
ATOM      3  C   UNL     1      10.705  20.447   7.986  1.00  0.00     0.238 A 
ATOM      4  O   UNL     1      10.967  20.472   9.217  1.00  0.00    -0.285 OA
ATOM      5  C   UNL     1       9.370  20.487   7.515  1.00  0.00     0.111 A 
ATOM      6  C   UNL     1       8.215  20.473   8.352  1.00  0.00     0.134 A 
ATOM      7  C   UNL     1       6.948  20.648   7.782  1.00  0.00     0.093 A 
ATOM      8  C   UNL     1       6.791  20.770   6.399  1.00  0.00     0.123 A 
ATOM      9  C   UNL     1       7.907  20.724   5.569  1.00  0.00     0.094 A 
ATOM     10  C   UNL     1       9.187  20.588   6.111  1.00  0.00     0.146 A 
ATOM     11  O   UNL     1      10.227  20.560   5.284  1.00  0.00    -0.452 OA
ENDROOT
BRANCH   1  12
ATOM     12  C   UNL     1      12.552  20.409   4.668  1.00  0.00     0.025 A 
ATOM     13  C   UNL     1      13.107  19.172   4.305  1.00  0.00     0.016 A 
ATOM     14  C   UNL     1      14.128  19.106   3.354  1.00  0.00     0.051 A 
ATOM     15  C   UNL     1      14.622  20.274   2.765  1.00  0.00     0.157 A 
ATOM     16  C   UNL     1      13.064  21.585   4.090  1.00  0.00     0.062 A 
ATOM     17  C   UNL     1      14.091  21.520   3.136  1.00  0.00     0.158 A 
BRANCH  15  18
ATOM     18  O   UNL     1      15.640  20.177   1.817  1.00  0.00    -0.504 OA
ATOM     19  H   UNL     1      15.475  19.820   0.884  1.00  0.00     0.293 HD
ENDBRANCH  15  18
BRANCH  17  20
ATOM     20  O   UNL     1      14.588  22.690   2.563  1.00  0.00    -0.504 OA
ATOM     21  H   UNL     1      15.446  22.696   2.025  1.00  0.00     0.293 HD
ENDBRANCH  17  20
ENDBRANCH   1  12
BRANCH   2  22
ATOM     22  O   UNL     1      13.094  20.406   7.514  1.00  0.00    -0.502 OA
ATOM     23  H   UNL     1      13.435  21.031   8.236  1.00  0.00     0.293 HD
ENDBRANCH   2  22
BRANCH   6  24
ATOM     24  O   UNL     1       8.254  20.266   9.734  1.00  0.00    -0.507 OA
ATOM     25  H   UNL     1       9.093  20.089  10.265  1.00  0.00     0.293 HD
ENDBRANCH   6  24
BRANCH   8  26
ATOM     26  O   UNL     1       5.524  20.928   5.839  1.00  0.00    -0.508 OA
ATOM     27  H   UNL     1       4.682  20.819   6.393  1.00  0.00     0.293 HD
ENDBRANCH   8  26
TORSDOF 6
ENDMDL
