MODEL 1
REMARK VINA RESULT:    -7.265      0.000      0.000
REMARK INTER + INTRA:         -11.607
REMARK INTER:                 -10.663
REMARK INTRA:                  -0.944
REMARK UNBOUND:                -0.944
REMARK SMILES Cc1cc2c(C(C)C)c(O)c(O)c(C=O)c2c(O)c1-c1c(C)cc2c(C(C)C)c(O)c(O)c(C=O)c2c1O
REMARK SMILES IDX 1 1 2 2 3 3 4 4 16 5 13 6 11 7 9 8 5 9 17 10 19 11 20 12
REMARK SMILES IDX 37 13 21 14 36 15 23 16 22 17 24 18 33 19 25 20 31 21 29 22
REMARK SMILES IDX 38 23 34 25 35 26 26 27 27 28 28 29 32 30 30 32 18 34 6 36
REMARK SMILES IDX 7 37 8 38 14 39 15 40 10 41 12 43
REMARK H PARENT 38 24 32 31 30 33 18 35 10 42 12 44
REMARK Flexibility Score: inf
ROOT
ATOM      1  C   UNL     1      33.481   1.265  75.483  1.00  0.00     0.045 C 
ATOM      2  C   UNL     1      34.492   0.323  74.875  1.00  0.00    -0.039 A 
ATOM      3  C   UNL     1      35.216   0.729  73.753  1.00  0.00     0.013 A 
ATOM      4  C   UNL     1      36.136  -0.127  73.107  1.00  0.00    -0.006 A 
ATOM      5  C   UNL     1      36.391  -1.412  73.676  1.00  0.00     0.039 A 
ATOM      6  C   UNL     1      37.319  -2.282  73.031  1.00  0.00     0.072 A 
ATOM      7  C   UNL     1      38.095  -1.808  71.960  1.00  0.00     0.169 A 
ATOM      8  C   UNL     1      37.919  -0.501  71.478  1.00  0.00     0.162 A 
ATOM      9  C   UNL     1      36.839   0.287  71.932  1.00  0.00     0.008 A 
ATOM     10  C   UNL     1      35.743  -1.769  74.896  1.00  0.00     0.132 A 
ATOM     11  C   UNL     1      34.762  -0.926  75.458  1.00  0.00     0.031 A 
ENDROOT
BRANCH  11  12
ATOM     12  C   UNL     1      34.021  -1.347  76.679  1.00  0.00     0.031 A 
ATOM     13  C   UNL     1      34.620  -1.225  77.951  1.00  0.00     0.132 A 
ATOM     14  C   UNL     1      32.738  -1.902  76.555  1.00  0.00    -0.039 A 
ATOM     15  C   UNL     1      33.888  -1.565  79.131  1.00  0.00     0.039 A 
ATOM     16  C   UNL     1      32.071  -2.352  77.695  1.00  0.00     0.013 A 
ATOM     17  C   UNL     1      32.094  -2.111  75.206  1.00  0.00     0.045 C 
ATOM     18  C   UNL     1      32.589  -2.149  78.995  1.00  0.00    -0.006 A 
ATOM     19  C   UNL     1      34.433  -1.382  80.439  1.00  0.00     0.072 A 
ATOM     20  C   UNL     1      31.855  -2.550  80.154  1.00  0.00     0.008 A 
ATOM     21  C   UNL     1      33.742  -1.888  81.561  1.00  0.00     0.169 A 
ATOM     22  C   UNL     1      32.505  -2.523  81.407  1.00  0.00     0.162 A 
BRANCH  13  23
ATOM     23  O   UNL     1      35.952  -0.807  78.040  1.00  0.00    -0.507 OA
ATOM     24  H   UNL     1      36.251   0.155  77.940  1.00  0.00     0.293 HD
ENDBRANCH  13  23
BRANCH  19  25
ATOM     25  C   UNL     1      35.690  -0.635  80.657  1.00  0.00     0.264 C 
ATOM     26  O   UNL     1      36.758  -1.236  80.948  1.00  0.00    -0.298 OA
ENDBRANCH  19  25
BRANCH  20  27
ATOM     27  C   UNL     1      30.397  -3.042  80.066  1.00  0.00     0.017 C 
ATOM     28  C   UNL     1      29.439  -1.862  79.886  1.00  0.00     0.012 C 
ATOM     29  C   UNL     1      30.159  -4.125  78.996  1.00  0.00     0.012 C 
ENDBRANCH  20  27
BRANCH  21  30
ATOM     30  O   UNL     1      34.240  -1.743  82.863  1.00  0.00    -0.504 OA
ATOM     31  H   UNL     1      34.907  -2.370  83.293  1.00  0.00     0.293 HD
ENDBRANCH  21  30
BRANCH  22  32
ATOM     32  O   UNL     1      31.904  -3.120  82.518  1.00  0.00    -0.504 OA
ATOM     33  H   UNL     1      32.371  -3.222  83.410  1.00  0.00     0.293 HD
ENDBRANCH  22  32
ENDBRANCH  11  12
BRANCH  10  34
ATOM     34  O   UNL     1      36.110  -2.938  75.574  1.00  0.00    -0.507 OA
ATOM     35  H   UNL     1      36.759  -3.623  75.209  1.00  0.00     0.293 HD
ENDBRANCH  10  34
BRANCH   9  36
ATOM     36  C   UNL     1      36.481   1.590  71.193  1.00  0.00     0.017 C 
ATOM     37  C   UNL     1      35.370   1.346  70.166  1.00  0.00     0.012 C 
ATOM     38  C   UNL     1      36.127   2.765  72.125  1.00  0.00     0.012 C 
ENDBRANCH   9  36
BRANCH   6  39
ATOM     39  C   UNL     1      37.432  -3.715  73.390  1.00  0.00     0.264 C 
ATOM     40  O   UNL     1      38.355  -4.124  74.145  1.00  0.00    -0.298 OA
ENDBRANCH   6  39
BRANCH   8  41
ATOM     41  O   UNL     1      38.815   0.041  70.553  1.00  0.00    -0.504 OA
ATOM     42  H   UNL     1      38.533   0.553  69.728  1.00  0.00     0.293 HD
ENDBRANCH   8  41
BRANCH   7  43
ATOM     43  O   UNL     1      39.007  -2.678  71.353  1.00  0.00    -0.504 OA
ATOM     44  H   UNL     1      39.673  -3.243  71.860  1.00  0.00     0.293 HD
ENDBRANCH   7  43
TORSDOF 11
ENDMDL
MODEL 2
REMARK VINA RESULT:    -7.051      1.627      3.103
REMARK INTER + INTRA:         -11.292
REMARK INTER:                 -10.665
REMARK INTRA:                  -0.627
REMARK UNBOUND:                -0.944
REMARK SMILES Cc1cc2c(C(C)C)c(O)c(O)c(C=O)c2c(O)c1-c1c(C)cc2c(C(C)C)c(O)c(O)c(C=O)c2c1O
REMARK SMILES IDX 1 1 2 2 3 3 4 4 16 5 13 6 11 7 9 8 5 9 17 10 19 11 20 12
REMARK SMILES IDX 37 13 21 14 36 15 23 16 22 17 24 18 33 19 25 20 31 21 29 22
REMARK SMILES IDX 38 23 34 25 35 26 26 27 27 28 28 29 32 30 30 32 18 34 6 36
REMARK SMILES IDX 7 37 8 38 14 39 15 40 10 41 12 43
REMARK H PARENT 38 24 32 31 30 33 18 35 10 42 12 44
REMARK Flexibility Score: inf
ROOT
ATOM      1  C   UNL     1      33.570   1.134  75.728  1.00  0.00     0.045 C 
ATOM      2  C   UNL     1      34.584   0.221  75.082  1.00  0.00    -0.039 A 
ATOM      3  C   UNL     1      35.243   0.643  73.926  1.00  0.00     0.013 A 
ATOM      4  C   UNL     1      36.161  -0.188  73.244  1.00  0.00    -0.006 A 
ATOM      5  C   UNL     1      36.485  -1.459  73.810  1.00  0.00     0.039 A 
ATOM      6  C   UNL     1      37.412  -2.302  73.130  1.00  0.00     0.072 A 
ATOM      7  C   UNL     1      38.123  -1.811  72.022  1.00  0.00     0.169 A 
ATOM      8  C   UNL     1      37.881  -0.515  71.540  1.00  0.00     0.162 A 
ATOM      9  C   UNL     1      36.796   0.240  72.036  1.00  0.00     0.008 A 
ATOM     10  C   UNL     1      35.905  -1.828  75.060  1.00  0.00     0.132 A 
ATOM     11  C   UNL     1      34.921  -1.014  75.660  1.00  0.00     0.031 A 
ENDROOT
BRANCH  11  12
ATOM     12  C   UNL     1      34.251  -1.450  76.915  1.00  0.00     0.031 A 
ATOM     13  C   UNL     1      32.966  -2.033  76.870  1.00  0.00     0.132 A 
ATOM     14  C   UNL     1      34.887  -1.244  78.149  1.00  0.00    -0.039 A 
ATOM     15  C   UNL     1      32.347  -2.514  78.065  1.00  0.00     0.039 A 
ATOM     16  C   UNL     1      34.230  -1.598  79.329  1.00  0.00     0.013 A 
ATOM     17  C   UNL     1      36.230  -0.561  78.242  1.00  0.00     0.045 C 
ATOM     18  C   UNL     1      32.992  -2.282  79.320  1.00  0.00    -0.006 A 
ATOM     19  C   UNL     1      31.082  -3.179  78.048  1.00  0.00     0.072 A 
ATOM     20  C   UNL     1      32.372  -2.702  80.538  1.00  0.00     0.008 A 
ATOM     21  C   UNL     1      30.436  -3.483  79.265  1.00  0.00     0.169 A 
ATOM     22  C   UNL     1      31.046  -3.183  80.488  1.00  0.00     0.162 A 
BRANCH  13  23
ATOM     23  O   UNL     1      32.290  -2.096  75.647  1.00  0.00    -0.507 OA
ATOM     24  H   UNL     1      31.319  -1.836  75.523  1.00  0.00     0.293 HD
ENDBRANCH  13  23
BRANCH  19  25
ATOM     25  C   UNL     1      30.445  -3.599  76.782  1.00  0.00     0.264 C 
ATOM     26  O   UNL     1      29.436  -2.993  76.333  1.00  0.00    -0.298 OA
ENDBRANCH  19  25
BRANCH  20  27
ATOM     27  C   UNL     1      33.095  -2.608  81.896  1.00  0.00     0.017 C 
ATOM     28  C   UNL     1      33.906  -3.878  82.164  1.00  0.00     0.012 C 
ATOM     29  C   UNL     1      33.962  -1.345  82.065  1.00  0.00     0.012 C 
ENDBRANCH  20  27
BRANCH  21  30
ATOM     30  O   UNL     1      29.191  -4.125  79.301  1.00  0.00    -0.504 OA
ATOM     31  H   UNL     1      28.521  -4.116  78.542  1.00  0.00     0.293 HD
ENDBRANCH  21  30
BRANCH  22  32
ATOM     32  O   UNL     1      30.332  -3.384  81.672  1.00  0.00    -0.504 OA
ATOM     33  H   UNL     1      30.292  -2.699  82.416  1.00  0.00     0.293 HD
ENDBRANCH  22  32
ENDBRANCH  11  12
BRANCH  10  34
ATOM     34  O   UNL     1      36.340  -2.978  75.728  1.00  0.00    -0.507 OA
ATOM     35  H   UNL     1      36.562  -3.851  75.266  1.00  0.00     0.293 HD
ENDBRANCH  10  34
BRANCH   9  36
ATOM     36  C   UNL     1      36.362   1.525  71.306  1.00  0.00     0.017 C 
ATOM     37  C   UNL     1      35.330   1.210  70.217  1.00  0.00     0.012 C 
ATOM     38  C   UNL     1      35.859   2.641  72.241  1.00  0.00     0.012 C 
ENDBRANCH   9  36
BRANCH   6  39
ATOM     39  C   UNL     1      37.588  -3.728  73.492  1.00  0.00     0.264 C 
ATOM     40  O   UNL     1      38.636  -4.125  74.071  1.00  0.00    -0.298 OA
ENDBRANCH   6  39
BRANCH   8  41
ATOM     41  O   UNL     1      38.716   0.050  70.572  1.00  0.00    -0.504 OA
ATOM     42  H   UNL     1      38.446   0.191  69.608  1.00  0.00     0.293 HD
ENDBRANCH   8  41
BRANCH   7  43
ATOM     43  O   UNL     1      39.035  -2.656  71.379  1.00  0.00    -0.504 OA
ATOM     44  H   UNL     1      39.278  -2.585  70.401  1.00  0.00     0.293 HD
ENDBRANCH   7  43
TORSDOF 11
ENDMDL
MODEL 3
REMARK VINA RESULT:    -7.023      7.370     14.589
REMARK INTER + INTRA:         -11.251
REMARK INTER:                 -10.420
REMARK INTRA:                  -0.831
REMARK UNBOUND:                -0.944
REMARK SMILES Cc1cc2c(C(C)C)c(O)c(O)c(C=O)c2c(O)c1-c1c(C)cc2c(C(C)C)c(O)c(O)c(C=O)c2c1O
REMARK SMILES IDX 1 1 2 2 3 3 4 4 16 5 13 6 11 7 9 8 5 9 17 10 19 11 20 12
REMARK SMILES IDX 37 13 21 14 36 15 23 16 22 17 24 18 33 19 25 20 31 21 29 22
REMARK SMILES IDX 38 23 34 25 35 26 26 27 27 28 28 29 32 30 30 32 18 34 6 36
REMARK SMILES IDX 7 37 8 38 14 39 15 40 10 41 12 43
REMARK H PARENT 38 24 32 31 30 33 18 35 10 42 12 44
REMARK Flexibility Score: inf
ROOT
ATOM      1  C   UNL     1      24.636   1.049  82.096  1.00  0.00     0.045 C 
ATOM      2  C   UNL     1      24.191   0.028  83.115  1.00  0.00    -0.039 A 
ATOM      3  C   UNL     1      23.259   0.395  84.087  1.00  0.00     0.013 A 
ATOM      4  C   UNL     1      22.845  -0.500  85.100  1.00  0.00    -0.006 A 
ATOM      5  C   UNL     1      23.332  -1.842  85.069  1.00  0.00     0.039 A 
ATOM      6  C   UNL     1      22.918  -2.751  86.087  1.00  0.00     0.072 A 
ATOM      7  C   UNL     1      21.912  -2.376  86.993  1.00  0.00     0.169 A 
ATOM      8  C   UNL     1      21.354  -1.089  86.944  1.00  0.00     0.162 A 
ATOM      9  C   UNL     1      21.922  -0.096  86.115  1.00  0.00     0.008 A 
ATOM     10  C   UNL     1      24.184  -2.244  83.997  1.00  0.00     0.132 A 
ATOM     11  C   UNL     1      24.650  -1.299  83.060  1.00  0.00     0.031 A 
ENDROOT
BRANCH  11  12
ATOM     12  C   UNL     1      25.612  -1.705  82.001  1.00  0.00     0.031 A 
ATOM     13  C   UNL     1      25.162  -1.948  80.685  1.00  0.00     0.132 A 
ATOM     14  C   UNL     1      26.967  -1.880  82.324  1.00  0.00    -0.039 A 
ATOM     15  C   UNL     1      26.092  -2.273  79.650  1.00  0.00     0.039 A 
ATOM     16  C   UNL     1      27.856  -2.320  81.343  1.00  0.00     0.013 A 
ATOM     17  C   UNL     1      27.473  -1.695  83.734  1.00  0.00     0.045 C 
ATOM     18  C   UNL     1      27.466  -2.471  79.992  1.00  0.00    -0.006 A 
ATOM     19  C   UNL     1      25.682  -2.451  78.292  1.00  0.00     0.072 A 
ATOM     20  C   UNL     1      28.411  -2.850  78.988  1.00  0.00     0.008 A 
ATOM     21  C   UNL     1      26.606  -2.935  77.341  1.00  0.00     0.169 A 
ATOM     22  C   UNL     1      27.932  -3.195  77.706  1.00  0.00     0.162 A 
BRANCH  13  23
ATOM     23  O   UNL     1      23.789  -1.910  80.418  1.00  0.00    -0.507 OA
ATOM     24  H   UNL     1      23.207  -2.733  80.326  1.00  0.00     0.293 HD
ENDBRANCH  13  23
BRANCH  19  25
ATOM     25  C   UNL     1      24.319  -2.101  77.843  1.00  0.00     0.264 C 
ATOM     26  O   UNL     1      23.497  -2.995  77.508  1.00  0.00    -0.298 OA
ENDBRANCH  19  25
BRANCH  20  27
ATOM     27  C   UNL     1      29.923  -2.926  79.279  1.00  0.00     0.017 C 
ATOM     28  C   UNL     1      30.524  -1.523  79.387  1.00  0.00     0.012 C 
ATOM     29  C   UNL     1      30.288  -3.788  80.503  1.00  0.00     0.012 C 
ENDBRANCH  20  27
BRANCH  21  30
ATOM     30  O   UNL     1      26.250  -3.136  76.001  1.00  0.00    -0.504 OA
ATOM     31  H   UNL     1      25.842  -3.988  75.639  1.00  0.00     0.293 HD
ENDBRANCH  21  30
BRANCH  22  32
ATOM     32  O   UNL     1      28.789  -3.786  76.776  1.00  0.00    -0.504 OA
ATOM     33  H   UNL     1      29.197  -4.704  76.906  1.00  0.00     0.293 HD
ENDBRANCH  22  32
ENDBRANCH  11  12
BRANCH  10  34
ATOM     34  O   UNL     1      24.527  -3.592  83.837  1.00  0.00    -0.507 OA
ATOM     35  H   UNL     1      24.254  -4.325  84.478  1.00  0.00     0.293 HD
ENDBRANCH  10  34
BRANCH   9  36
ATOM     36  C   UNL     1      21.497   1.374  86.285  1.00  0.00     0.017 C 
ATOM     37  C   UNL     1      22.724   2.288  86.375  1.00  0.00     0.012 C 
ATOM     38  C   UNL     1      20.512   1.872  85.210  1.00  0.00     0.012 C 
ENDBRANCH   9  36
BRANCH   6  39
ATOM     39  C   UNL     1      23.583  -4.059  86.289  1.00  0.00     0.264 C 
ATOM     40  O   UNL     1      24.785  -4.124  86.663  1.00  0.00    -0.298 OA
ENDBRANCH   6  39
BRANCH   8  41
ATOM     41  O   UNL     1      20.224  -0.776  87.704  1.00  0.00    -0.504 OA
ATOM     42  H   UNL     1      19.334  -0.509  87.307  1.00  0.00     0.293 HD
ENDBRANCH   8  41
BRANCH   7  43
ATOM     43  O   UNL     1      21.516  -3.292  87.975  1.00  0.00    -0.504 OA
ATOM     44  H   UNL     1      20.565  -3.397  88.299  1.00  0.00     0.293 HD
ENDBRANCH   7  43
TORSDOF 11
ENDMDL
MODEL 4
REMARK VINA RESULT:    -6.910      7.338     12.171
REMARK INTER + INTRA:         -11.086
REMARK INTER:                 -10.267
REMARK INTRA:                  -0.819
REMARK UNBOUND:                -0.944
REMARK SMILES Cc1cc2c(C(C)C)c(O)c(O)c(C=O)c2c(O)c1-c1c(C)cc2c(C(C)C)c(O)c(O)c(C=O)c2c1O
REMARK SMILES IDX 1 1 2 2 3 3 4 4 16 5 13 6 11 7 9 8 5 9 17 10 19 11 20 12
REMARK SMILES IDX 37 13 21 14 36 15 23 16 22 17 24 18 33 19 25 20 31 21 29 22
REMARK SMILES IDX 38 23 34 25 35 26 26 27 27 28 28 29 32 30 30 32 18 34 6 36
REMARK SMILES IDX 7 37 8 38 14 39 15 40 10 41 12 43
REMARK H PARENT 38 24 32 31 30 33 18 35 10 42 12 44
REMARK Flexibility Score: inf
ROOT
ATOM      1  C   UNL     1      27.498  -1.592  83.656  1.00  0.00     0.045 C 
ATOM      2  C   UNL     1      27.014  -1.875  82.254  1.00  0.00    -0.039 A 
ATOM      3  C   UNL     1      27.929  -2.303  81.290  1.00  0.00     0.013 A 
ATOM      4  C   UNL     1      27.548  -2.531  79.948  1.00  0.00    -0.006 A 
ATOM      5  C   UNL     1      26.169  -2.403  79.597  1.00  0.00     0.039 A 
ATOM      6  C   UNL     1      25.777  -2.633  78.245  1.00  0.00     0.072 A 
ATOM      7  C   UNL     1      26.704  -3.149  77.325  1.00  0.00     0.169 A 
ATOM      8  C   UNL     1      28.034  -3.381  77.710  1.00  0.00     0.162 A 
ATOM      9  C   UNL     1      28.504  -2.926  78.961  1.00  0.00     0.008 A 
ATOM     10  C   UNL     1      25.222  -2.092  80.617  1.00  0.00     0.132 A 
ATOM     11  C   UNL     1      25.653  -1.778  81.923  1.00  0.00     0.031 A 
ENDROOT
BRANCH  11  12
ATOM     12  C   UNL     1      24.668  -1.363  82.958  1.00  0.00     0.031 A 
ATOM     13  C   UNL     1      24.240  -2.280  83.942  1.00  0.00     0.132 A 
ATOM     14  C   UNL     1      24.138  -0.063  82.930  1.00  0.00    -0.039 A 
ATOM     15  C   UNL     1      23.346  -1.866  84.978  1.00  0.00     0.039 A 
ATOM     16  C   UNL     1      23.170   0.305  83.865  1.00  0.00     0.013 A 
ATOM     17  C   UNL     1      24.521   0.923  81.852  1.00  0.00     0.045 C 
ATOM     18  C   UNL     1      22.795  -0.547  84.929  1.00  0.00    -0.006 A 
ATOM     19  C   UNL     1      22.951  -2.744  86.033  1.00  0.00     0.072 A 
ATOM     20  C   UNL     1      21.856  -0.122  85.920  1.00  0.00     0.008 A 
ATOM     21  C   UNL     1      21.940  -2.345  86.933  1.00  0.00     0.169 A 
ATOM     22  C   UNL     1      21.356  -1.078  86.830  1.00  0.00     0.162 A 
BRANCH  13  23
ATOM     23  O   UNL     1      24.668  -3.610  83.865  1.00  0.00    -0.507 OA
ATOM     24  H   UNL     1      25.622  -3.887  83.666  1.00  0.00     0.293 HD
ENDBRANCH  13  23
BRANCH  19  25
ATOM     25  C   UNL     1      23.607  -4.053  86.237  1.00  0.00     0.264 C 
ATOM     26  O   UNL     1      24.803  -4.125  86.627  1.00  0.00    -0.298 OA
ENDBRANCH  19  25
BRANCH  20  27
ATOM     27  C   UNL     1      21.352   1.333  85.995  1.00  0.00     0.017 C 
ATOM     28  C   UNL     1      22.455   2.259  86.514  1.00  0.00     0.012 C 
ATOM     29  C   UNL     1      20.750   1.862  84.679  1.00  0.00     0.012 C 
ENDBRANCH  20  27
BRANCH  21  30
ATOM     30  O   UNL     1      21.511  -3.175  87.978  1.00  0.00    -0.504 OA
ATOM     31  H   UNL     1      22.095  -3.469  88.751  1.00  0.00     0.293 HD
ENDBRANCH  21  30
BRANCH  22  32
ATOM     32  O   UNL     1      20.276  -0.758  87.656  1.00  0.00    -0.504 OA
ATOM     33  H   UNL     1      19.313  -0.790  87.343  1.00  0.00     0.293 HD
ENDBRANCH  22  32
ENDBRANCH  11  12
BRANCH  10  34
ATOM     34  O   UNL     1      23.849  -2.141  80.344  1.00  0.00    -0.507 OA
ATOM     35  H   UNL     1      23.150  -2.437  81.014  1.00  0.00     0.293 HD
ENDBRANCH  10  34
BRANCH   9  36
ATOM     36  C   UNL     1      30.017  -2.920  79.252  1.00  0.00     0.017 C 
ATOM     37  C   UNL     1      30.544  -1.485  79.361  1.00  0.00     0.012 C 
ATOM     38  C   UNL     1      30.424  -3.756  80.480  1.00  0.00     0.012 C 
ENDBRANCH   9  36
BRANCH   6  39
ATOM     39  C   UNL     1      24.435  -2.255  77.743  1.00  0.00     0.264 C 
ATOM     40  O   UNL     1      23.593  -3.134  77.417  1.00  0.00    -0.298 OA
ENDBRANCH   6  39
BRANCH   8  41
ATOM     41  O   UNL     1      28.906  -4.074  76.866  1.00  0.00    -0.504 OA
ATOM     42  H   UNL     1      29.824  -3.738  76.606  1.00  0.00     0.293 HD
ENDBRANCH   8  41
BRANCH   7  43
ATOM     43  O   UNL     1      26.289  -3.375  76.008  1.00  0.00    -0.504 OA
ATOM     44  H   UNL     1      25.791  -4.201  75.707  1.00  0.00     0.293 HD
ENDBRANCH   7  43
TORSDOF 11
ENDMDL
MODEL 5
REMARK VINA RESULT:    -6.642      7.592     12.044
REMARK INTER + INTRA:         -10.692
REMARK INTER:                 -10.442
REMARK INTRA:                  -0.251
REMARK UNBOUND:                -0.944
REMARK SMILES Cc1cc2c(C(C)C)c(O)c(O)c(C=O)c2c(O)c1-c1c(C)cc2c(C(C)C)c(O)c(O)c(C=O)c2c1O
REMARK SMILES IDX 1 1 2 2 3 3 4 4 16 5 13 6 11 7 9 8 5 9 17 10 19 11 20 12
REMARK SMILES IDX 37 13 21 14 36 15 23 16 22 17 24 18 33 19 25 20 31 21 29 22
REMARK SMILES IDX 38 23 34 25 35 26 26 27 27 28 28 29 32 30 30 32 18 34 6 36
REMARK SMILES IDX 7 37 8 38 14 39 15 40 10 41 12 43
REMARK H PARENT 38 24 32 31 30 33 18 35 10 42 12 44
REMARK Flexibility Score: inf
ROOT
ATOM      1  C   UNL     1      23.566  -0.672  80.377  1.00  0.00     0.045 C 
ATOM      2  C   UNL     1      24.920  -1.324  80.516  1.00  0.00    -0.039 A 
ATOM      3  C   UNL     1      25.636  -1.662  79.366  1.00  0.00     0.013 A 
ATOM      4  C   UNL     1      26.883  -2.323  79.430  1.00  0.00    -0.006 A 
ATOM      5  C   UNL     1      27.462  -2.571  80.712  1.00  0.00     0.039 A 
ATOM      6  C   UNL     1      28.721  -3.236  80.784  1.00  0.00     0.072 A 
ATOM      7  C   UNL     1      29.454  -3.479  79.611  1.00  0.00     0.169 A 
ATOM      8  C   UNL     1      28.926  -3.127  78.358  1.00  0.00     0.162 A 
ATOM      9  C   UNL     1      27.585  -2.703  78.243  1.00  0.00     0.008 A 
ATOM     10  C   UNL     1      26.785  -2.106  81.878  1.00  0.00     0.132 A 
ATOM     11  C   UNL     1      25.498  -1.536  81.779  1.00  0.00     0.031 A 
ENDROOT
BRANCH  11  12
ATOM     12  C   UNL     1      24.756  -1.140  83.006  1.00  0.00     0.031 A 
ATOM     13  C   UNL     1      23.751  -1.980  83.532  1.00  0.00     0.132 A 
ATOM     14  C   UNL     1      25.036   0.091  83.620  1.00  0.00    -0.039 A 
ATOM     15  C   UNL     1      23.082  -1.635  84.748  1.00  0.00     0.039 A 
ATOM     16  C   UNL     1      24.297   0.487  84.735  1.00  0.00     0.013 A 
ATOM     17  C   UNL     1      26.056   1.045  83.047  1.00  0.00     0.045 C 
ATOM     18  C   UNL     1      23.358  -0.370  85.354  1.00  0.00    -0.006 A 
ATOM     19  C   UNL     1      22.114  -2.497  85.350  1.00  0.00     0.072 A 
ATOM     20  C   UNL     1      22.666   0.026  86.541  1.00  0.00     0.008 A 
ATOM     21  C   UNL     1      21.362  -2.040  86.453  1.00  0.00     0.169 A 
ATOM     22  C   UNL     1      21.591  -0.769  86.992  1.00  0.00     0.162 A 
BRANCH  13  23
ATOM     23  O   UNL     1      23.387  -3.131  82.825  1.00  0.00    -0.507 OA
ATOM     24  H   UNL     1      22.486  -3.586  82.910  1.00  0.00     0.293 HD
ENDBRANCH  13  23
BRANCH  19  25
ATOM     25  C   UNL     1      21.905  -3.880  84.872  1.00  0.00     0.264 C 
ATOM     26  O   UNL     1      21.181  -4.117  83.868  1.00  0.00    -0.298 OA
ENDBRANCH  19  25
BRANCH  20  27
ATOM     27  C   UNL     1      23.036   1.308  87.311  1.00  0.00     0.017 C 
ATOM     28  C   UNL     1      24.215   1.051  88.253  1.00  0.00     0.012 C 
ATOM     29  C   UNL     1      23.295   2.533  86.413  1.00  0.00     0.012 C 
ENDBRANCH  20  27
BRANCH  21  30
ATOM     30  O   UNL     1      20.394  -2.843  87.071  1.00  0.00    -0.504 OA
ATOM     31  H   UNL     1      19.400  -2.773  86.901  1.00  0.00     0.293 HD
ENDBRANCH  21  30
BRANCH  22  32
ATOM     32  O   UNL     1      20.750  -0.299  88.003  1.00  0.00    -0.504 OA
ATOM     33  H   UNL     1      20.005   0.366  87.838  1.00  0.00     0.293 HD
ENDBRANCH  22  32
ENDBRANCH  11  12
BRANCH  10  34
ATOM     34  O   UNL     1      27.409  -2.168  83.129  1.00  0.00    -0.507 OA
ATOM     35  H   UNL     1      28.408  -2.273  83.258  1.00  0.00     0.293 HD
ENDBRANCH  10  34
BRANCH   9  36
ATOM     36  C   UNL     1      26.932  -2.604  76.851  1.00  0.00     0.017 C 
ATOM     37  C   UNL     1      26.457  -3.980  76.374  1.00  0.00     0.012 C 
ATOM     38  C   UNL     1      25.800  -1.563  76.760  1.00  0.00     0.012 C 
ENDBRANCH   9  36
BRANCH   6  39
ATOM     39  C   UNL     1      29.252  -3.774  82.059  1.00  0.00     0.264 C 
ATOM     40  O   UNL     1      30.203  -3.203  82.658  1.00  0.00    -0.298 OA
ENDBRANCH   6  39
BRANCH   8  41
ATOM     41  O   UNL     1      29.724  -3.182  77.212  1.00  0.00    -0.504 OA
ATOM     42  H   UNL     1      30.351  -2.443  76.926  1.00  0.00     0.293 HD
ENDBRANCH   8  41
BRANCH   7  43
ATOM     43  O   UNL     1      30.692  -4.124  79.711  1.00  0.00    -0.504 OA
ATOM     44  H   UNL     1      30.878  -5.049  79.350  1.00  0.00     0.293 HD
ENDBRANCH   7  43
TORSDOF 11
ENDMDL
MODEL 6
REMARK VINA RESULT:    -6.148      3.763     10.487
REMARK INTER + INTRA:          -9.968
REMARK INTER:                  -9.014
REMARK INTRA:                  -0.954
REMARK UNBOUND:                -0.944
REMARK SMILES Cc1cc2c(C(C)C)c(O)c(O)c(C=O)c2c(O)c1-c1c(C)cc2c(C(C)C)c(O)c(O)c(C=O)c2c1O
REMARK SMILES IDX 1 1 2 2 3 3 4 4 16 5 13 6 11 7 9 8 5 9 17 10 19 11 20 12
REMARK SMILES IDX 37 13 21 14 36 15 23 16 22 17 24 18 33 19 25 20 31 21 29 22
REMARK SMILES IDX 38 23 34 25 35 26 26 27 27 28 28 29 32 30 30 32 18 34 6 36
REMARK SMILES IDX 7 37 8 38 14 39 15 40 10 41 12 43
REMARK H PARENT 38 24 32 31 30 33 18 35 10 42 12 44
REMARK Flexibility Score: inf
ROOT
ATOM      1  C   UNL     1      30.645  -3.935  81.261  1.00  0.00     0.045 C 
ATOM      2  C   UNL     1      29.423  -3.089  80.996  1.00  0.00    -0.039 A 
ATOM      3  C   UNL     1      28.380  -3.088  81.924  1.00  0.00     0.013 A 
ATOM      4  C   UNL     1      27.188  -2.360  81.707  1.00  0.00    -0.006 A 
ATOM      5  C   UNL     1      27.092  -1.536  80.545  1.00  0.00     0.039 A 
ATOM      6  C   UNL     1      25.893  -0.797  80.319  1.00  0.00     0.072 A 
ATOM      7  C   UNL     1      24.903  -0.747  81.315  1.00  0.00     0.169 A 
ATOM      8  C   UNL     1      25.057  -1.472  82.508  1.00  0.00     0.162 A 
ATOM      9  C   UNL     1      26.109  -2.404  82.645  1.00  0.00     0.008 A 
ATOM     10  C   UNL     1      28.213  -1.441  79.668  1.00  0.00     0.132 A 
ATOM     11  C   UNL     1      29.348  -2.255  79.868  1.00  0.00     0.031 A 
ENDROOT
BRANCH  11  12
ATOM     12  C   UNL     1      30.475  -2.222  78.898  1.00  0.00     0.031 A 
ATOM     13  C   UNL     1      31.636  -1.471  79.181  1.00  0.00     0.132 A 
ATOM     14  C   UNL     1      30.364  -2.913  77.681  1.00  0.00    -0.039 A 
ATOM     15  C   UNL     1      32.748  -1.490  78.283  1.00  0.00     0.039 A 
ATOM     16  C   UNL     1      31.397  -2.830  76.747  1.00  0.00     0.013 A 
ATOM     17  C   UNL     1      29.111  -3.670  77.314  1.00  0.00     0.045 C 
ATOM     18  C   UNL     1      32.618  -2.178  77.036  1.00  0.00    -0.006 A 
ATOM     19  C   UNL     1      33.968  -0.804  78.573  1.00  0.00     0.072 A 
ATOM     20  C   UNL     1      33.693  -2.169  76.093  1.00  0.00     0.008 A 
ATOM     21  C   UNL     1      34.970  -0.712  77.584  1.00  0.00     0.169 A 
ATOM     22  C   UNL     1      34.800  -1.329  76.340  1.00  0.00     0.162 A 
BRANCH  13  23
ATOM     23  O   UNL     1      31.668  -0.674  80.331  1.00  0.00    -0.507 OA
ATOM     24  H   UNL     1      30.841  -0.315  80.793  1.00  0.00     0.293 HD
ENDBRANCH  13  23
BRANCH  19  25
ATOM     25  C   UNL     1      34.229  -0.219  79.905  1.00  0.00     0.264 C 
ATOM     26  O   UNL     1      34.645  -0.933  80.856  1.00  0.00    -0.298 OA
ENDBRANCH  19  25
BRANCH  20  27
ATOM     27  C   UNL     1      33.656  -3.018  74.808  1.00  0.00     0.017 C 
ATOM     28  C   UNL     1      33.491  -2.125  73.575  1.00  0.00     0.012 C 
ATOM     29  C   UNL     1      34.853  -3.976  74.648  1.00  0.00     0.012 C 
ENDBRANCH  20  27
BRANCH  21  30
ATOM     30  O   UNL     1      36.178  -0.042  77.817  1.00  0.00    -0.504 OA
ATOM     31  H   UNL     1      36.952  -0.424  78.345  1.00  0.00     0.293 HD
ENDBRANCH  21  30
BRANCH  22  32
ATOM     32  O   UNL     1      35.753  -1.119  75.341  1.00  0.00    -0.504 OA
ATOM     33  H   UNL     1      36.606  -0.595  75.493  1.00  0.00     0.293 HD
ENDBRANCH  22  32
ENDBRANCH  11  12
BRANCH  10  34
ATOM     34  O   UNL     1      28.219  -0.505  78.627  1.00  0.00    -0.507 OA
ATOM     35  H   UNL     1      27.687   0.356  78.638  1.00  0.00     0.293 HD
ENDBRANCH  10  34
BRANCH   9  36
ATOM     36  C   UNL     1      26.100  -3.397  83.822  1.00  0.00     0.017 C 
ATOM     37  C   UNL     1      26.579  -2.719  85.110  1.00  0.00     0.012 C 
ATOM     38  C   UNL     1      24.749  -4.105  84.036  1.00  0.00     0.012 C 
ENDBRANCH   9  36
BRANCH   6  39
ATOM     39  C   UNL     1      25.604  -0.147  79.019  1.00  0.00     0.264 C 
ATOM     40  O   UNL     1      25.263  -0.829  78.015  1.00  0.00    -0.298 OA
ENDBRANCH   6  39
BRANCH   8  41
ATOM     41  O   UNL     1      24.180  -1.274  83.577  1.00  0.00    -0.504 OA
ATOM     42  H   UNL     1      23.187  -1.460  83.534  1.00  0.00     0.293 HD
ENDBRANCH   8  41
BRANCH   7  43
ATOM     43  O   UNL     1      23.741  -0.006  81.072  1.00  0.00    -0.504 OA
ATOM     44  H   UNL     1      23.259   0.535  81.776  1.00  0.00     0.293 HD
ENDBRANCH   7  43
TORSDOF 11
ENDMDL
MODEL 7
REMARK VINA RESULT:    -5.998     14.469     16.731
REMARK INTER + INTRA:          -9.748
REMARK INTER:                  -8.853
REMARK INTRA:                  -0.895
REMARK UNBOUND:                -0.944
REMARK SMILES Cc1cc2c(C(C)C)c(O)c(O)c(C=O)c2c(O)c1-c1c(C)cc2c(C(C)C)c(O)c(O)c(C=O)c2c1O
REMARK SMILES IDX 1 1 2 2 3 3 4 4 16 5 13 6 11 7 9 8 5 9 17 10 19 11 20 12
REMARK SMILES IDX 37 13 21 14 36 15 23 16 22 17 24 18 33 19 25 20 31 21 29 22
REMARK SMILES IDX 38 23 34 25 35 26 26 27 27 28 28 29 32 30 30 32 18 34 6 36
REMARK SMILES IDX 7 37 8 38 14 39 15 40 10 41 12 43
REMARK H PARENT 38 24 32 31 30 33 18 35 10 42 12 44
REMARK Flexibility Score: inf
ROOT
ATOM      1  C   UNL     1      29.775  13.626  81.670  1.00  0.00     0.045 C 
ATOM      2  C   UNL     1      30.964  13.561  80.742  1.00  0.00    -0.039 A 
ATOM      3  C   UNL     1      32.243  13.422  81.282  1.00  0.00     0.013 A 
ATOM      4  C   UNL     1      33.400  13.409  80.469  1.00  0.00    -0.006 A 
ATOM      5  C   UNL     1      33.239  13.451  79.050  1.00  0.00     0.039 A 
ATOM      6  C   UNL     1      34.401  13.437  78.223  1.00  0.00     0.072 A 
ATOM      7  C   UNL     1      35.664  13.205  78.793  1.00  0.00     0.169 A 
ATOM      8  C   UNL     1      35.799  13.050  80.182  1.00  0.00     0.162 A 
ATOM      9  C   UNL     1      34.708  13.310  81.038  1.00  0.00     0.008 A 
ATOM     10  C   UNL     1      31.922  13.462  78.503  1.00  0.00     0.132 A 
ATOM     11  C   UNL     1      30.797  13.570  79.347  1.00  0.00     0.031 A 
ENDROOT
BRANCH  11  12
ATOM     12  C   UNL     1      29.431  13.677  78.767  1.00  0.00     0.031 A 
ATOM     13  C   UNL     1      28.596  12.541  78.699  1.00  0.00     0.132 A 
ATOM     14  C   UNL     1      28.989  14.906  78.253  1.00  0.00    -0.039 A 
ATOM     15  C   UNL     1      27.260  12.652  78.204  1.00  0.00     0.039 A 
ATOM     16  C   UNL     1      27.731  14.988  77.654  1.00  0.00     0.013 A 
ATOM     17  C   UNL     1      29.879  16.125  78.246  1.00  0.00     0.045 C 
ATOM     18  C   UNL     1      26.825  13.903  77.663  1.00  0.00    -0.006 A 
ATOM     19  C   UNL     1      26.361  11.541  78.192  1.00  0.00     0.072 A 
ATOM     20  C   UNL     1      25.513  14.031  77.111  1.00  0.00     0.008 A 
ATOM     21  C   UNL     1      25.115  11.658  77.541  1.00  0.00     0.169 A 
ATOM     22  C   UNL     1      24.731  12.867  76.951  1.00  0.00     0.162 A 
BRANCH  13  23
ATOM     23  O   UNL     1      29.108  11.296  79.083  1.00  0.00    -0.507 OA
ATOM     24  H   UNL     1      28.554  10.563  79.509  1.00  0.00     0.293 HD
ENDBRANCH  13  23
BRANCH  19  25
ATOM     25  C   UNL     1      26.685  10.276  78.884  1.00  0.00     0.264 C 
ATOM     26  O   UNL     1      26.788   9.195  78.244  1.00  0.00    -0.298 OA
ENDBRANCH  19  25
BRANCH  20  27
ATOM     27  C   UNL     1      24.950  15.392  76.656  1.00  0.00     0.017 C 
ATOM     28  C   UNL     1      24.339  15.283  75.256  1.00  0.00     0.012 C 
ATOM     29  C   UNL     1      23.961  16.031  77.649  1.00  0.00     0.012 C 
ENDBRANCH  20  27
BRANCH  21  30
ATOM     30  O   UNL     1      24.204  10.594  77.493  1.00  0.00    -0.504 OA
ATOM     31  H   UNL     1      24.450   9.624  77.640  1.00  0.00     0.293 HD
ENDBRANCH  21  30
BRANCH  22  32
ATOM     32  O   UNL     1      23.548  12.917  76.210  1.00  0.00    -0.504 OA
ATOM     33  H   UNL     1      22.661  12.579  76.563  1.00  0.00     0.293 HD
ENDBRANCH  22  32
ENDBRANCH  11  12
BRANCH  10  34
ATOM     34  O   UNL     1      31.729  13.317  77.124  1.00  0.00    -0.507 OA
ATOM     35  H   UNL     1      31.154  13.935  76.565  1.00  0.00     0.293 HD
ENDBRANCH  10  34
BRANCH   9  36
ATOM     36  C   UNL     1      34.940  13.425  82.557  1.00  0.00     0.017 C 
ATOM     37  C   UNL     1      34.762  14.872  83.027  1.00  0.00     0.012 C 
ATOM     38  C   UNL     1      34.083  12.459  83.398  1.00  0.00     0.012 C 
ENDBRANCH   9  36
BRANCH   6  39
ATOM     39  C   UNL     1      34.338  13.756  76.777  1.00  0.00     0.264 C 
ATOM     40  O   UNL     1      34.248  12.841  75.915  1.00  0.00    -0.298 OA
ENDBRANCH   6  39
BRANCH   8  41
ATOM     41  O   UNL     1      37.011  12.625  80.733  1.00  0.00    -0.504 OA
ATOM     42  H   UNL     1      37.626  13.222  81.269  1.00  0.00     0.293 HD
ENDBRANCH   8  41
BRANCH   7  43
ATOM     43  O   UNL     1      36.786  13.185  77.957  1.00  0.00    -0.504 OA
ATOM     44  H   UNL     1      37.144  12.352  77.511  1.00  0.00     0.293 HD
ENDBRANCH   7  43
TORSDOF 11
ENDMDL
MODEL 8
REMARK VINA RESULT:    -5.950     15.141     17.502
REMARK INTER + INTRA:          -9.677
REMARK INTER:                  -8.797
REMARK INTRA:                  -0.880
REMARK UNBOUND:                -0.944
REMARK SMILES Cc1cc2c(C(C)C)c(O)c(O)c(C=O)c2c(O)c1-c1c(C)cc2c(C(C)C)c(O)c(O)c(C=O)c2c1O
REMARK SMILES IDX 1 1 2 2 3 3 4 4 16 5 13 6 11 7 9 8 5 9 17 10 19 11 20 12
REMARK SMILES IDX 37 13 21 14 36 15 23 16 22 17 24 18 33 19 25 20 31 21 29 22
REMARK SMILES IDX 38 23 34 25 35 26 26 27 27 28 28 29 32 30 30 32 18 34 6 36
REMARK SMILES IDX 7 37 8 38 14 39 15 40 10 41 12 43
REMARK H PARENT 38 24 32 31 30 33 18 35 10 42 12 44
REMARK Flexibility Score: inf
ROOT
ATOM      1  C   UNL     1      28.896  16.121  77.092  1.00  0.00     0.045 C 
ATOM      2  C   UNL     1      29.660  15.118  77.923  1.00  0.00    -0.039 A 
ATOM      3  C   UNL     1      31.055  15.134  77.898  1.00  0.00     0.013 A 
ATOM      4  C   UNL     1      31.826  14.187  78.611  1.00  0.00    -0.006 A 
ATOM      5  C   UNL     1      31.151  13.245  79.446  1.00  0.00     0.039 A 
ATOM      6  C   UNL     1      31.922  12.287  80.169  1.00  0.00     0.072 A 
ATOM      7  C   UNL     1      33.322  12.389  80.194  1.00  0.00     0.169 A 
ATOM      8  C   UNL     1      33.975  13.392  79.459  1.00  0.00     0.162 A 
ATOM      9  C   UNL     1      33.254  14.188  78.542  1.00  0.00     0.008 A 
ATOM     10  C   UNL     1      29.732  13.319  79.566  1.00  0.00     0.132 A 
ATOM     11  C   UNL     1      28.992  14.215  78.767  1.00  0.00     0.031 A 
ENDROOT
BRANCH  11  12
ATOM     12  C   UNL     1      27.505  14.222  78.827  1.00  0.00     0.031 A 
ATOM     13  C   UNL     1      26.749  13.591  77.815  1.00  0.00     0.132 A 
ATOM     14  C   UNL     1      26.856  14.891  79.876  1.00  0.00    -0.039 A 
ATOM     15  C   UNL     1      25.323  13.537  77.904  1.00  0.00     0.039 A 
ATOM     16  C   UNL     1      25.462  14.948  79.897  1.00  0.00     0.013 A 
ATOM     17  C   UNL     1      27.630  15.635  80.937  1.00  0.00     0.045 C 
ATOM     18  C   UNL     1      24.670  14.239  78.964  1.00  0.00    -0.006 A 
ATOM     19  C   UNL     1      24.531  12.842  76.939  1.00  0.00     0.072 A 
ATOM     20  C   UNL     1      23.242  14.250  79.048  1.00  0.00     0.008 A 
ATOM     21  C   UNL     1      23.125  12.959  76.975  1.00  0.00     0.169 A 
ATOM     22  C   UNL     1      22.499  13.710  77.976  1.00  0.00     0.162 A 
BRANCH  13  23
ATOM     23  O   UNL     1      27.411  13.057  76.704  1.00  0.00    -0.507 OA
ATOM     24  H   UNL     1      28.393  12.809  76.695  1.00  0.00     0.293 HD
ENDBRANCH  13  23
BRANCH  19  25
ATOM     25  C   UNL     1      25.144  11.962  75.923  1.00  0.00     0.264 C 
ATOM     26  O   UNL     1      25.243  12.330  74.721  1.00  0.00    -0.298 OA
ENDBRANCH  19  25
BRANCH  20  27
ATOM     27  C   UNL     1      22.501  14.863  80.252  1.00  0.00     0.017 C 
ATOM     28  C   UNL     1      21.613  16.027  79.804  1.00  0.00     0.012 C 
ATOM     29  C   UNL     1      21.706  13.844  81.091  1.00  0.00     0.012 C 
ENDBRANCH  20  27
BRANCH  21  30
ATOM     30  O   UNL     1      22.305  12.304  76.046  1.00  0.00    -0.504 OA
ATOM     31  H   UNL     1      21.386  11.936  76.254  1.00  0.00     0.293 HD
ENDBRANCH  21  30
BRANCH  22  32
ATOM     32  O   UNL     1      21.118  13.907  77.915  1.00  0.00    -0.504 OA
ATOM     33  H   UNL     1      20.454  13.324  78.409  1.00  0.00     0.293 HD
ENDBRANCH  22  32
ENDBRANCH  11  12
BRANCH  10  34
ATOM     34  O   UNL     1      29.061  12.535  80.513  1.00  0.00    -0.507 OA
ATOM     35  H   UNL     1      29.520  12.060  81.280  1.00  0.00     0.293 HD
ENDBRANCH  10  34
BRANCH   9  36
ATOM     36  C   UNL     1      34.015  15.072  77.536  1.00  0.00     0.017 C 
ATOM     37  C   UNL     1      34.951  16.043  78.264  1.00  0.00     0.012 C 
ATOM     38  C   UNL     1      34.769  14.283  76.449  1.00  0.00     0.012 C 
ENDBRANCH   9  36
BRANCH   6  39
ATOM     39  C   UNL     1      31.299  11.115  80.828  1.00  0.00     0.264 C 
ATOM     40  O   UNL     1      31.639   9.941  80.520  1.00  0.00    -0.298 OA
ENDBRANCH   6  39
BRANCH   8  41
ATOM     41  O   UNL     1      35.342  13.624  79.633  1.00  0.00    -0.504 OA
ATOM     42  H   UNL     1      35.731  14.147  80.406  1.00  0.00     0.293 HD
ENDBRANCH   8  41
BRANCH   7  43
ATOM     43  O   UNL     1      34.054  11.443  80.920  1.00  0.00    -0.504 OA
ATOM     44  H   UNL     1      33.725  11.006  81.770  1.00  0.00     0.293 HD
ENDBRANCH   7  43
TORSDOF 11
ENDMDL
MODEL 9
REMARK VINA RESULT:    -5.901     15.284     18.377
REMARK INTER + INTRA:          -9.605
REMARK INTER:                  -8.692
REMARK INTRA:                  -0.913
REMARK UNBOUND:                -0.944
REMARK SMILES Cc1cc2c(C(C)C)c(O)c(O)c(C=O)c2c(O)c1-c1c(C)cc2c(C(C)C)c(O)c(O)c(C=O)c2c1O
REMARK SMILES IDX 1 1 2 2 3 3 4 4 16 5 13 6 11 7 9 8 5 9 17 10 19 11 20 12
REMARK SMILES IDX 37 13 21 14 36 15 23 16 22 17 24 18 33 19 25 20 31 21 29 22
REMARK SMILES IDX 38 23 34 25 35 26 26 27 27 28 28 29 32 30 30 32 18 34 6 36
REMARK SMILES IDX 7 37 8 38 14 39 15 40 10 41 12 43
REMARK H PARENT 38 24 32 31 30 33 18 35 10 42 12 44
REMARK Flexibility Score: inf
ROOT
ATOM      1  C   UNL     1      27.590  15.772  81.070  1.00  0.00     0.045 C 
ATOM      2  C   UNL     1      26.807  14.989  80.044  1.00  0.00    -0.039 A 
ATOM      3  C   UNL     1      25.412  15.017  80.084  1.00  0.00     0.013 A 
ATOM      4  C   UNL     1      24.624  14.262  79.186  1.00  0.00    -0.006 A 
ATOM      5  C   UNL     1      25.279  13.522  78.156  1.00  0.00     0.039 A 
ATOM      6  C   UNL     1      24.491  12.759  77.245  1.00  0.00     0.072 A 
ATOM      7  C   UNL     1      23.091  12.881  77.257  1.00  0.00     0.169 A 
ATOM      8  C   UNL     1      22.458  13.703  78.203  1.00  0.00     0.162 A 
ATOM      9  C   UNL     1      23.196  14.265  79.267  1.00  0.00     0.008 A 
ATOM     10  C   UNL     1      26.699  13.602  78.042  1.00  0.00     0.132 A 
ATOM     11  C   UNL     1      27.457  14.289  79.014  1.00  0.00     0.031 A 
ENDROOT
BRANCH  11  12
ATOM     12  C   UNL     1      28.943  14.291  78.943  1.00  0.00     0.031 A 
ATOM     13  C   UNL     1      29.698  13.478  79.816  1.00  0.00     0.132 A 
ATOM     14  C   UNL     1      29.593  15.133  78.027  1.00  0.00    -0.039 A 
ATOM     15  C   UNL     1      31.122  13.425  79.707  1.00  0.00     0.039 A 
ATOM     16  C   UNL     1      30.988  15.177  78.005  1.00  0.00     0.013 A 
ATOM     17  C   UNL     1      28.821  16.066  77.126  1.00  0.00     0.045 C 
ATOM     18  C   UNL     1      31.777  14.301  78.786  1.00  0.00    -0.006 A 
ATOM     19  C   UNL     1      31.913  12.557  80.521  1.00  0.00     0.072 A 
ATOM     20  C   UNL     1      33.204  14.312  78.693  1.00  0.00     0.008 A 
ATOM     21  C   UNL     1      33.319  12.664  80.495  1.00  0.00     0.169 A 
ATOM     22  C   UNL     1      33.947  13.578  79.642  1.00  0.00     0.162 A 
BRANCH  13  23
ATOM     23  O   UNL     1      29.037  12.757  80.817  1.00  0.00    -0.507 OA
ATOM     24  H   UNL     1      28.587  13.183  81.618  1.00  0.00     0.293 HD
ENDBRANCH  13  23
BRANCH  19  25
ATOM     25  C   UNL     1      31.295  11.513  81.366  1.00  0.00     0.264 C 
ATOM     26  O   UNL     1      31.246  11.639  82.619  1.00  0.00    -0.298 OA
ENDBRANCH  19  25
BRANCH  20  27
ATOM     27  C   UNL     1      33.945  15.126  77.614  1.00  0.00     0.017 C 
ATOM     28  C   UNL     1      34.930  16.105  78.258  1.00  0.00     0.012 C 
ATOM     29  C   UNL     1      34.633  14.268  76.535  1.00  0.00     0.012 C 
ENDBRANCH  20  27
BRANCH  21  30
ATOM     30  O   UNL     1      34.137  11.842  81.282  1.00  0.00    -0.504 OA
ATOM     31  H   UNL     1      33.798  11.093  81.872  1.00  0.00     0.293 HD
ENDBRANCH  21  30
BRANCH  22  32
ATOM     32  O   UNL     1      35.332  13.746  79.726  1.00  0.00    -0.504 OA
ATOM     33  H   UNL     1      35.794  14.624  79.530  1.00  0.00     0.293 HD
ENDBRANCH  22  32
ENDBRANCH  11  12
BRANCH  10  34
ATOM     34  O   UNL     1      27.352  13.042  76.938  1.00  0.00    -0.507 OA
ATOM     35  H   UNL     1      28.281  13.307  76.636  1.00  0.00     0.293 HD
ENDBRANCH  10  34
BRANCH   9  36
ATOM     36  C   UNL     1      22.454  14.913  80.451  1.00  0.00     0.017 C 
ATOM     37  C   UNL     1      21.632  16.119  79.985  1.00  0.00     0.012 C 
ATOM     38  C   UNL     1      21.588  13.931  81.263  1.00  0.00     0.012 C 
ENDBRANCH   9  36
BRANCH   6  39
ATOM     39  C   UNL     1      25.093  11.755  76.336  1.00  0.00     0.264 C 
ATOM     40  O   UNL     1      25.261  12.008  75.112  1.00  0.00    -0.298 OA
ENDBRANCH   6  39
BRANCH   8  41
ATOM     41  O   UNL     1      21.093  13.985  78.097  1.00  0.00    -0.504 OA
ATOM     42  H   UNL     1      20.468  14.051  78.889  1.00  0.00     0.293 HD
ENDBRANCH   8  41
BRANCH   7  43
ATOM     43  O   UNL     1      22.342  12.130  76.345  1.00  0.00    -0.504 OA
ATOM     44  H   UNL     1      22.655  11.897  75.412  1.00  0.00     0.293 HD
ENDBRANCH   7  43
TORSDOF 11
ENDMDL
