MODEL 1
REMARK VINA RESULT:    -3.800      0.000      0.000
REMARK INTER + INTRA:          -4.084
REMARK INTER:                  -4.022
REMARK INTRA:                  -0.062
REMARK UNBOUND:                -0.062
REMARK SMILES C=C(C)[C@@H]1CC=C(C)C(=O)C1
REMARK SMILES IDX 8 1 7 2 6 3 5 4 4 5 11 6 9 7 10 8 2 9 1 10 3 11
REMARK H PARENT
REMARK Flexibility Score: inf
ROOT
ATOM      1  C   UNL     1      97.791   8.874  77.622  1.00  0.00     0.048 C 
ATOM      2  C   UNL     1      99.005   8.275  78.277  1.00  0.00    -0.012 C 
ATOM      3  C   UNL     1      99.370   7.019  77.977  1.00  0.00    -0.019 C 
ATOM      4  C   UNL     1     100.554   6.346  78.618  1.00  0.00     0.036 C 
ATOM      5  C   UNL     1     101.669   7.326  79.037  1.00  0.00     0.025 C 
ATOM      6  C   UNL     1     101.103   8.553  79.784  1.00  0.00     0.089 C 
ATOM      7  C   UNL     1      99.876   9.120  79.127  1.00  0.00     0.158 C 
ATOM      8  O   UNL     1      99.572  10.325  79.341  1.00  0.00    -0.295 OA
ENDROOT
BRANCH   5   9
ATOM      9  C   UNL     1     102.594   7.705  77.878  1.00  0.00    -0.077 C 
ATOM     10  C   UNL     1     103.364   6.800  77.250  1.00  0.00     0.008 C 
ATOM     11  C   UNL     1     102.657   9.136  77.407  1.00  0.00     0.039 C 
ENDBRANCH   5   9
TORSDOF 1
ENDMDL
MODEL 2
REMARK VINA RESULT:    -3.663      1.352      1.897
REMARK INTER + INTRA:          -3.940
REMARK INTER:                  -3.730
REMARK INTRA:                  -0.209
REMARK UNBOUND:                -0.062
REMARK SMILES C=C(C)[C@@H]1CC=C(C)C(=O)C1
REMARK SMILES IDX 8 1 7 2 6 3 5 4 4 5 11 6 9 7 10 8 2 9 1 10 3 11
REMARK H PARENT
REMARK Flexibility Score: inf
ROOT
ATOM      1  C   UNL     1      97.536   6.889  75.952  1.00  0.00     0.048 C 
ATOM      2  C   UNL     1      98.524   6.979  77.083  1.00  0.00    -0.012 C 
ATOM      3  C   UNL     1      99.389   5.975  77.291  1.00  0.00    -0.019 C 
ATOM      4  C   UNL     1     100.382   5.984  78.421  1.00  0.00     0.036 C 
ATOM      5  C   UNL     1     100.829   7.400  78.840  1.00  0.00     0.025 C 
ATOM      6  C   UNL     1      99.628   8.359  78.988  1.00  0.00     0.089 C 
ATOM      7  C   UNL     1      98.641   8.235  77.861  1.00  0.00     0.158 C 
ATOM      8  O   UNL     1      97.879   9.207  77.609  1.00  0.00    -0.295 OA
ENDROOT
BRANCH   5   9
ATOM      9  C   UNL     1     101.937   7.962  77.947  1.00  0.00    -0.077 C 
ATOM     10  C   UNL     1     102.011   9.265  77.628  1.00  0.00     0.008 C 
ATOM     11  C   UNL     1     102.995   7.039  77.397  1.00  0.00     0.039 C 
ENDBRANCH   5   9
TORSDOF 1
ENDMDL
MODEL 3
REMARK VINA RESULT:    -3.612      2.278      4.176
REMARK INTER + INTRA:          -3.885
REMARK INTER:                  -3.791
REMARK INTRA:                  -0.094
REMARK UNBOUND:                -0.062
REMARK SMILES C=C(C)[C@@H]1CC=C(C)C(=O)C1
REMARK SMILES IDX 8 1 7 2 6 3 5 4 4 5 11 6 9 7 10 8 2 9 1 10 3 11
REMARK H PARENT
REMARK Flexibility Score: inf
ROOT
ATOM      1  C   UNL     1     101.478   7.374  79.479  1.00  0.00     0.048 C 
ATOM      2  C   UNL     1     100.804   6.949  78.203  1.00  0.00    -0.012 C 
ATOM      3  C   UNL     1     101.377   6.016  77.427  1.00  0.00    -0.019 C 
ATOM      4  C   UNL     1     100.775   5.568  76.123  1.00  0.00     0.036 C 
ATOM      5  C   UNL     1      99.236   5.673  76.084  1.00  0.00     0.025 C 
ATOM      6  C   UNL     1      98.741   7.031  76.626  1.00  0.00     0.089 C 
ATOM      7  C   UNL     1      99.444   7.448  77.886  1.00  0.00     0.158 C 
ATOM      8  O   UNL     1      98.876   8.264  78.660  1.00  0.00    -0.295 OA
ENDROOT
BRANCH   5   9
ATOM      9  C   UNL     1      98.542   4.477  76.741  1.00  0.00    -0.077 C 
ATOM     10  C   UNL     1      99.228   3.429  77.227  1.00  0.00     0.008 C 
ATOM     11  C   UNL     1      97.039   4.456  76.859  1.00  0.00     0.039 C 
ENDBRANCH   5   9
TORSDOF 1
ENDMDL
MODEL 4
REMARK VINA RESULT:    -3.592      8.631      9.658
REMARK INTER + INTRA:          -3.864
REMARK INTER:                  -3.648
REMARK INTRA:                  -0.216
REMARK UNBOUND:                -0.062
REMARK SMILES C=C(C)[C@@H]1CC=C(C)C(=O)C1
REMARK SMILES IDX 8 1 7 2 6 3 5 4 4 5 11 6 9 7 10 8 2 9 1 10 3 11
REMARK H PARENT
REMARK Flexibility Score: inf
ROOT
ATOM      1  C   UNL     1      98.504  10.176  68.978  1.00  0.00     0.048 C 
ATOM      2  C   UNL     1      98.210   8.847  69.619  1.00  0.00    -0.012 C 
ATOM      3  C   UNL     1      96.949   8.391  69.653  1.00  0.00    -0.019 C 
ATOM      4  C   UNL     1      96.578   7.087  70.306  1.00  0.00     0.036 C 
ATOM      5  C   UNL     1      97.709   6.038  70.277  1.00  0.00     0.025 C 
ATOM      6  C   UNL     1      99.064   6.645  70.702  1.00  0.00     0.089 C 
ATOM      7  C   UNL     1      99.327   7.983  70.069  1.00  0.00     0.158 C 
ATOM      8  O   UNL     1     100.517   8.382  69.961  1.00  0.00    -0.295 OA
ENDROOT
BRANCH   5   9
ATOM      9  C   UNL     1      97.782   5.279  68.951  1.00  0.00    -0.077 C 
ATOM     10  C   UNL     1      96.691   5.028  68.207  1.00  0.00     0.008 C 
ATOM     11  C   UNL     1      99.114   4.788  68.441  1.00  0.00     0.039 C 
ENDBRANCH   5   9
TORSDOF 1
ENDMDL
MODEL 5
REMARK VINA RESULT:    -3.572      2.956      4.562
REMARK INTER + INTRA:          -3.843
REMARK INTER:                  -3.645
REMARK INTRA:                  -0.198
REMARK UNBOUND:                -0.062
REMARK SMILES C=C(C)[C@@H]1CC=C(C)C(=O)C1
REMARK SMILES IDX 8 1 7 2 6 3 5 4 4 5 11 6 9 7 10 8 2 9 1 10 3 11
REMARK H PARENT
REMARK Flexibility Score: inf
ROOT
ATOM      1  C   UNL     1      97.761   9.218  77.902  1.00  0.00     0.048 C 
ATOM      2  C   UNL     1      98.244   8.094  77.027  1.00  0.00    -0.012 C 
ATOM      3  C   UNL     1      99.446   7.543  77.256  1.00  0.00    -0.019 C 
ATOM      4  C   UNL     1     100.004   6.438  76.400  1.00  0.00     0.036 C 
ATOM      5  C   UNL     1      98.921   5.537  75.770  1.00  0.00     0.025 C 
ATOM      6  C   UNL     1      97.781   6.367  75.142  1.00  0.00     0.089 C 
ATOM      7  C   UNL     1      97.332   7.500  76.021  1.00  0.00     0.158 C 
ATOM      8  O   UNL     1      96.172   7.969  75.865  1.00  0.00    -0.295 OA
ENDROOT
BRANCH   5   9
ATOM      9  C   UNL     1      98.418   4.455  76.727  1.00  0.00    -0.077 C 
ATOM     10  C   UNL     1      99.239   3.800  77.565  1.00  0.00     0.008 C 
ATOM     11  C   UNL     1      96.953   4.096  76.748  1.00  0.00     0.039 C 
ENDBRANCH   5   9
TORSDOF 1
ENDMDL
MODEL 6
REMARK VINA RESULT:    -3.515      2.716      4.736
REMARK INTER + INTRA:          -3.783
REMARK INTER:                  -3.594
REMARK INTRA:                  -0.190
REMARK UNBOUND:                -0.062
REMARK SMILES C=C(C)[C@@H]1CC=C(C)C(=O)C1
REMARK SMILES IDX 8 1 7 2 6 3 5 4 4 5 11 6 9 7 10 8 2 9 1 10 3 11
REMARK H PARENT
REMARK Flexibility Score: inf
ROOT
ATOM      1  C   UNL     1     101.221   7.025  79.196  1.00  0.00     0.048 C 
ATOM      2  C   UNL     1     100.704   6.154  78.083  1.00  0.00    -0.012 C 
ATOM      3  C   UNL     1     100.225   4.932  78.363  1.00  0.00    -0.019 C 
ATOM      4  C   UNL     1      99.723   3.996  77.297  1.00  0.00     0.036 C 
ATOM      5  C   UNL     1      99.140   4.720  76.065  1.00  0.00     0.025 C 
ATOM      6  C   UNL     1     100.060   5.862  75.583  1.00  0.00     0.089 C 
ATOM      7  C   UNL     1     100.585   6.704  76.712  1.00  0.00     0.158 C 
ATOM      8  O   UNL     1     100.962   7.882  76.469  1.00  0.00    -0.295 OA
ENDROOT
BRANCH   5   9
ATOM      9  C   UNL     1      97.690   5.163  76.268  1.00  0.00    -0.077 C 
ATOM     10  C   UNL     1      97.234   6.349  75.829  1.00  0.00     0.008 C 
ATOM     11  C   UNL     1      96.721   4.254  76.981  1.00  0.00     0.039 C 
ENDBRANCH   5   9
TORSDOF 1
ENDMDL
MODEL 7
REMARK VINA RESULT:    -3.484      9.313     10.477
REMARK INTER + INTRA:          -3.750
REMARK INTER:                  -3.582
REMARK INTRA:                  -0.168
REMARK UNBOUND:                -0.062
REMARK SMILES C=C(C)[C@@H]1CC=C(C)C(=O)C1
REMARK SMILES IDX 8 1 7 2 6 3 5 4 4 5 11 6 9 7 10 8 2 9 1 10 3 11
REMARK H PARENT
REMARK Flexibility Score: inf
ROOT
ATOM      1  C   UNL     1      98.476   5.415  66.902  1.00  0.00     0.048 C 
ATOM      2  C   UNL     1      97.468   5.107  67.975  1.00  0.00    -0.012 C 
ATOM      3  C   UNL     1      97.141   3.832  68.234  1.00  0.00    -0.019 C 
ATOM      4  C   UNL     1      96.117   3.454  69.269  1.00  0.00     0.036 C 
ATOM      5  C   UNL     1      96.015   4.461  70.434  1.00  0.00     0.025 C 
ATOM      6  C   UNL     1      95.958   5.918  69.928  1.00  0.00     0.089 C 
ATOM      7  C   UNL     1      96.957   6.197  68.840  1.00  0.00     0.158 C 
ATOM      8  O   UNL     1      97.329   7.385  68.644  1.00  0.00    -0.295 OA
ENDROOT
BRANCH   5   9
ATOM      9  C   UNL     1      97.086   4.240  71.505  1.00  0.00    -0.077 C 
ATOM     10  C   UNL     1      97.783   5.255  72.043  1.00  0.00     0.008 C 
ATOM     11  C   UNL     1      97.383   2.843  71.990  1.00  0.00     0.039 C 
ENDBRANCH   5   9
TORSDOF 1
ENDMDL
MODEL 8
REMARK VINA RESULT:    -3.477      9.085     10.170
REMARK INTER + INTRA:          -3.742
REMARK INTER:                  -3.528
REMARK INTRA:                  -0.214
REMARK UNBOUND:                -0.062
REMARK SMILES C=C(C)[C@@H]1CC=C(C)C(=O)C1
REMARK SMILES IDX 8 1 7 2 6 3 5 4 4 5 11 6 9 7 10 8 2 9 1 10 3 11
REMARK H PARENT
REMARK Flexibility Score: inf
ROOT
ATOM      1  C   UNL     1      98.045   8.624  68.786  1.00  0.00     0.048 C 
ATOM      2  C   UNL     1      97.505   7.220  68.759  1.00  0.00    -0.012 C 
ATOM      3  C   UNL     1      98.097   6.295  67.987  1.00  0.00    -0.019 C 
ATOM      4  C   UNL     1      97.591   4.882  67.887  1.00  0.00     0.036 C 
ATOM      5  C   UNL     1      96.881   4.388  69.165  1.00  0.00     0.025 C 
ATOM      6  C   UNL     1      95.875   5.429  69.700  1.00  0.00     0.089 C 
ATOM      7  C   UNL     1      96.425   6.828  69.695  1.00  0.00     0.158 C 
ATOM      8  O   UNL     1      95.926   7.682  70.476  1.00  0.00    -0.295 OA
ENDROOT
BRANCH   5   9
ATOM      9  C   UNL     1      97.858   3.894  70.234  1.00  0.00    -0.077 C 
ATOM     10  C   UNL     1      99.015   3.284  69.923  1.00  0.00     0.008 C 
ATOM     11  C   UNL     1      97.533   4.091  71.694  1.00  0.00     0.039 C 
ENDBRANCH   5   9
TORSDOF 1
ENDMDL
MODEL 9
REMARK VINA RESULT:    -3.470      9.000     10.107
REMARK INTER + INTRA:          -3.735
REMARK INTER:                  -3.534
REMARK INTRA:                  -0.201
REMARK UNBOUND:                -0.062
REMARK SMILES C=C(C)[C@@H]1CC=C(C)C(=O)C1
REMARK SMILES IDX 8 1 7 2 6 3 5 4 4 5 11 6 9 7 10 8 2 9 1 10 3 11
REMARK H PARENT
REMARK Flexibility Score: inf
ROOT
ATOM      1  C   UNL     1      98.556   6.556  72.452  1.00  0.00     0.048 C 
ATOM      2  C   UNL     1      97.723   6.329  71.220  1.00  0.00    -0.012 C 
ATOM      3  C   UNL     1      97.757   7.224  70.221  1.00  0.00    -0.019 C 
ATOM      4  C   UNL     1      96.925   7.077  68.975  1.00  0.00     0.036 C 
ATOM      5  C   UNL     1      96.628   5.610  68.602  1.00  0.00     0.025 C 
ATOM      6  C   UNL     1      96.164   4.790  69.824  1.00  0.00     0.089 C 
ATOM      7  C   UNL     1      96.993   5.050  71.050  1.00  0.00     0.158 C 
ATOM      8  O   UNL     1      97.030   4.177  71.958  1.00  0.00    -0.295 OA
ENDROOT
BRANCH   5   9
ATOM      9  C   UNL     1      97.775   4.947  67.836  1.00  0.00    -0.077 C 
ATOM     10  C   UNL     1      98.504   5.609  66.921  1.00  0.00     0.008 C 
ATOM     11  C   UNL     1      98.119   3.503  68.104  1.00  0.00     0.039 C 
ENDBRANCH   5   9
TORSDOF 1
ENDMDL
