MODEL 1
REMARK VINA RESULT:    -5.139      0.000      0.000
REMARK INTER + INTRA:         -14.330
REMARK INTER:                 -11.749
REMARK INTRA:                  -2.581
REMARK UNBOUND:                -2.581
REMARK SMILES CCCCCCCCCCCCCCCCCCCCCCCC(=O)[O-]
REMARK SMILES IDX 13 1 14 2 15 3 16 4 17 5 18 6 19 7 20 8 21 9 22 10 23 11
REMARK SMILES IDX 24 12 25 13 26 14 12 15 11 16 10 17 9 18 8 19 7 20 6 21 5 22
REMARK SMILES IDX 4 23 3 24 2 25 1 26
REMARK H PARENT
REMARK Flexibility Score: inf
ROOT
ATOM      1  C   UNL     1     -11.373  -4.979  -9.062  1.00  0.00     0.000 C 
ENDROOT
BRANCH   1   2
ATOM      2  C   UNL     1     -10.676  -6.339  -9.219  1.00  0.00     0.000 C 
BRANCH   2   3
ATOM      3  C   UNL     1     -11.705  -7.468  -9.386  1.00  0.00     0.000 C 
BRANCH   3   4
ATOM      4  C   UNL     1     -12.993  -7.002 -10.091  1.00  0.00     0.000 C 
BRANCH   4   5
ATOM      5  C   UNL     1     -14.223  -7.914  -9.888  1.00  0.00     0.000 C 
BRANCH   5   6
ATOM      6  C   UNL     1     -15.125  -7.546  -8.694  1.00  0.00     0.000 C 
BRANCH   6   7
ATOM      7  C   UNL     1     -14.774  -6.179  -8.084  1.00  0.00     0.000 C 
BRANCH   7   8
ATOM      8  C   UNL     1     -14.134  -6.286  -6.687  1.00  0.00     0.000 C 
BRANCH   8   9
ATOM      9  C   UNL     1     -14.026  -7.714  -6.124  1.00  0.00     0.000 C 
BRANCH   9  10
ATOM     10  C   UNL     1     -12.890  -7.871  -5.097  1.00  0.00     0.006 C 
BRANCH  10  11
ATOM     11  C   UNL     1     -11.515  -7.990  -5.768  1.00  0.00     0.053 C 
BRANCH  11  12
ATOM     12  C   UNL     1     -10.723  -6.722  -5.641  1.00  0.00     0.041 C 
ATOM     13  O   UNL     1      -9.536  -6.671  -6.059  1.00  0.00    -0.550 OA
ATOM     14  O   UNL     1     -11.279  -5.614  -5.013  1.00  0.00    -0.550 OA
ENDBRANCH  11  12
ENDBRANCH  10  11
ENDBRANCH   9  10
ENDBRANCH   8   9
ENDBRANCH   7   8
ENDBRANCH   6   7
ENDBRANCH   5   6
ENDBRANCH   4   5
ENDBRANCH   3   4
ENDBRANCH   2   3
ENDBRANCH   1   2
BRANCH   1  15
ATOM     15  C   UNL     1     -10.561  -4.002  -8.189  1.00  0.00     0.000 C 
BRANCH  15  16
ATOM     16  C   UNL     1      -9.305  -3.444  -8.882  1.00  0.00     0.000 C 
BRANCH  16  17
ATOM     17  C   UNL     1      -9.647  -2.386  -9.949  1.00  0.00     0.000 C 
BRANCH  17  18
ATOM     18  C   UNL     1     -10.615  -1.303  -9.430  1.00  0.00    -0.000 C 
BRANCH  18  19
ATOM     19  C   UNL     1     -11.320  -0.504 -10.544  1.00  0.00    -0.000 C 
BRANCH  19  20
ATOM     20  C   UNL     1     -12.824  -0.790 -10.718  1.00  0.00    -0.000 C 
BRANCH  20  21
ATOM     21  C   UNL     1     -13.733  -0.117  -9.673  1.00  0.00    -0.000 C 
BRANCH  21  22
ATOM     22  C   UNL     1     -14.271   1.244 -10.147  1.00  0.00    -0.000 C 
BRANCH  22  23
ATOM     23  C   UNL     1     -13.780   2.405  -9.263  1.00  0.00    -0.000 C 
BRANCH  23  24
ATOM     24  C   UNL     1     -12.255   2.611  -9.308  1.00  0.00    -0.000 C 
BRANCH  24  25
ATOM     25  C   UNL     1     -11.823   3.901  -8.592  1.00  0.00    -0.003 C 
ATOM     26  C   UNL     1     -13.024   4.661  -8.032  1.00  0.00     0.004 C 
ENDBRANCH  24  25
ENDBRANCH  23  24
ENDBRANCH  22  23
ENDBRANCH  21  22
ENDBRANCH  20  21
ENDBRANCH  19  20
ENDBRANCH  18  19
ENDBRANCH  17  18
ENDBRANCH  16  17
ENDBRANCH  15  16
ENDBRANCH   1  15
TORSDOF 22
ENDMDL
MODEL 2
REMARK VINA RESULT:    -5.088      0.997      1.640
REMARK INTER + INTRA:         -14.213
REMARK INTER:                 -12.006
REMARK INTRA:                  -2.207
REMARK UNBOUND:                -2.581
REMARK SMILES CCCCCCCCCCCCCCCCCCCCCCCC(=O)[O-]
REMARK SMILES IDX 13 1 14 2 15 3 16 4 17 5 18 6 19 7 20 8 21 9 22 10 23 11
REMARK SMILES IDX 24 12 25 13 26 14 12 15 11 16 10 17 9 18 8 19 7 20 6 21 5 22
REMARK SMILES IDX 4 23 3 24 2 25 1 26
REMARK H PARENT
REMARK Flexibility Score: inf
ROOT
ATOM      1  C   UNL     1      -9.576  -3.514  -7.803  1.00  0.00     0.000 C 
ENDROOT
BRANCH   1   2
ATOM      2  C   UNL     1      -9.540  -4.309  -9.117  1.00  0.00     0.000 C 
BRANCH   2   3
ATOM      3  C   UNL     1     -10.960  -4.648  -9.592  1.00  0.00     0.000 C 
BRANCH   3   4
ATOM      4  C   UNL     1     -11.889  -5.081  -8.442  1.00  0.00     0.000 C 
BRANCH   4   5
ATOM      5  C   UNL     1     -13.378  -5.240  -8.819  1.00  0.00     0.000 C 
BRANCH   5   6
ATOM      6  C   UNL     1     -13.906  -6.688  -8.823  1.00  0.00     0.000 C 
BRANCH   6   7
ATOM      7  C   UNL     1     -14.922  -6.952  -7.700  1.00  0.00     0.000 C 
BRANCH   7   8
ATOM      8  C   UNL     1     -14.340  -6.725  -6.292  1.00  0.00     0.000 C 
BRANCH   8   9
ATOM      9  C   UNL     1     -14.057  -8.005  -5.486  1.00  0.00     0.000 C 
BRANCH   9  10
ATOM     10  C   UNL     1     -12.649  -8.024  -4.862  1.00  0.00     0.006 C 
BRANCH  10  11
ATOM     11  C   UNL     1     -11.544  -7.912  -5.922  1.00  0.00     0.053 C 
BRANCH  11  12
ATOM     12  C   UNL     1     -10.711  -6.681  -5.729  1.00  0.00     0.041 C 
ATOM     13  O   UNL     1      -9.547  -6.621  -6.207  1.00  0.00    -0.550 OA
ATOM     14  O   UNL     1     -11.200  -5.620  -4.977  1.00  0.00    -0.550 OA
ENDBRANCH  11  12
ENDBRANCH  10  11
ENDBRANCH   9  10
ENDBRANCH   8   9
ENDBRANCH   7   8
ENDBRANCH   6   7
ENDBRANCH   5   6
ENDBRANCH   4   5
ENDBRANCH   3   4
ENDBRANCH   2   3
ENDBRANCH   1   2
BRANCH   1  15
ATOM     15  C   UNL     1      -9.872  -2.019  -8.031  1.00  0.00     0.000 C 
BRANCH  15  16
ATOM     16  C   UNL     1      -9.933  -1.614  -9.515  1.00  0.00     0.000 C 
BRANCH  16  17
ATOM     17  C   UNL     1     -10.939  -0.477  -9.771  1.00  0.00     0.000 C 
BRANCH  17  18
ATOM     18  C   UNL     1     -11.804  -0.712 -11.027  1.00  0.00    -0.000 C 
BRANCH  18  19
ATOM     19  C   UNL     1     -13.130  -1.447 -10.748  1.00  0.00    -0.000 C 
BRANCH  19  20
ATOM     20  C   UNL     1     -14.367  -0.545 -10.578  1.00  0.00    -0.000 C 
BRANCH  20  21
ATOM     21  C   UNL     1     -14.590  -0.018  -9.148  1.00  0.00    -0.000 C 
BRANCH  21  22
ATOM     22  C   UNL     1     -14.846   1.498  -9.109  1.00  0.00    -0.000 C 
BRANCH  22  23
ATOM     23  C   UNL     1     -13.823   2.284  -9.951  1.00  0.00    -0.000 C 
BRANCH  23  24
ATOM     24  C   UNL     1     -12.459   2.455  -9.259  1.00  0.00    -0.000 C 
BRANCH  24  25
ATOM     25  C   UNL     1     -12.124   3.931  -8.994  1.00  0.00    -0.003 C 
ATOM     26  C   UNL     1     -12.952   4.495  -7.840  1.00  0.00     0.004 C 
ENDBRANCH  24  25
ENDBRANCH  23  24
ENDBRANCH  22  23
ENDBRANCH  21  22
ENDBRANCH  20  21
ENDBRANCH  19  20
ENDBRANCH  18  19
ENDBRANCH  17  18
ENDBRANCH  16  17
ENDBRANCH  15  16
ENDBRANCH   1  15
TORSDOF 22
ENDMDL
MODEL 3
REMARK VINA RESULT:    -4.917      1.656      7.841
REMARK INTER + INTRA:         -13.821
REMARK INTER:                 -11.009
REMARK INTRA:                  -2.812
REMARK UNBOUND:                -2.581
REMARK SMILES CCCCCCCCCCCCCCCCCCCCCCCC(=O)[O-]
REMARK SMILES IDX 13 1 14 2 15 3 16 4 17 5 18 6 19 7 20 8 21 9 22 10 23 11
REMARK SMILES IDX 24 12 25 13 26 14 12 15 11 16 10 17 9 18 8 19 7 20 6 21 5 22
REMARK SMILES IDX 4 23 3 24 2 25 1 26
REMARK H PARENT
REMARK Flexibility Score: inf
ROOT
ATOM      1  C   UNL     1     -13.903  -2.225 -10.310  1.00  0.00     0.000 C 
ENDROOT
BRANCH   1   2
ATOM      2  C   UNL     1     -14.993  -1.144 -10.363  1.00  0.00     0.000 C 
BRANCH   2   3
ATOM      3  C   UNL     1     -14.792  -0.105  -9.250  1.00  0.00     0.000 C 
BRANCH   3   4
ATOM      4  C   UNL     1     -14.570   1.319  -9.793  1.00  0.00     0.000 C 
BRANCH   4   5
ATOM      5  C   UNL     1     -13.644   2.214  -8.941  1.00  0.00     0.000 C 
BRANCH   5   6
ATOM      6  C   UNL     1     -12.149   2.153  -9.310  1.00  0.00     0.000 C 
BRANCH   6   7
ATOM      7  C   UNL     1     -11.764   0.843 -10.016  1.00  0.00     0.000 C 
BRANCH   7   8
ATOM      8  C   UNL     1     -10.930  -0.100  -9.127  1.00  0.00     0.000 C 
BRANCH   8   9
ATOM      9  C   UNL     1     -10.240  -1.258  -9.868  1.00  0.00     0.000 C 
BRANCH   9  10
ATOM     10  C   UNL     1     -10.807  -2.639  -9.487  1.00  0.00     0.006 C 
BRANCH  10  11
ATOM     11  C   UNL     1      -9.709  -3.704  -9.368  1.00  0.00     0.053 C 
BRANCH  11  12
ATOM     12  C   UNL     1      -9.021  -3.647  -8.037  1.00  0.00     0.041 C 
ATOM     13  O   UNL     1      -7.782  -3.429  -7.972  1.00  0.00    -0.550 OA
ATOM     14  O   UNL     1      -9.739  -3.888  -6.872  1.00  0.00    -0.550 OA
ENDBRANCH  11  12
ENDBRANCH  10  11
ENDBRANCH   9  10
ENDBRANCH   8   9
ENDBRANCH   7   8
ENDBRANCH   6   7
ENDBRANCH   5   6
ENDBRANCH   4   5
ENDBRANCH   3   4
ENDBRANCH   2   3
ENDBRANCH   1   2
BRANCH   1  15
ATOM     15  C   UNL     1     -14.473  -3.642 -10.517  1.00  0.00     0.000 C 
BRANCH  15  16
ATOM     16  C   UNL     1     -14.834  -4.366  -9.207  1.00  0.00     0.000 C 
BRANCH  16  17
ATOM     17  C   UNL     1     -14.190  -5.762  -9.113  1.00  0.00     0.000 C 
BRANCH  17  18
ATOM     18  C   UNL     1     -12.648  -5.712  -9.122  1.00  0.00    -0.000 C 
BRANCH  18  19
ATOM     19  C   UNL     1     -11.981  -6.991  -9.667  1.00  0.00    -0.000 C 
BRANCH  19  20
ATOM     20  C   UNL     1     -11.472  -7.980  -8.601  1.00  0.00    -0.000 C 
BRANCH  20  21
ATOM     21  C   UNL     1     -10.075  -7.660  -8.039  1.00  0.00    -0.000 C 
BRANCH  21  22
ATOM     22  C   UNL     1     -10.116  -7.224  -6.564  1.00  0.00    -0.000 C 
BRANCH  22  23
ATOM     23  C   UNL     1     -11.479  -7.514  -5.909  1.00  0.00    -0.000 C 
BRANCH  23  24
ATOM     24  C   UNL     1     -12.310  -6.248  -5.630  1.00  0.00    -0.000 C 
BRANCH  24  25
ATOM     25  C   UNL     1     -13.815  -6.548  -5.555  1.00  0.00    -0.003 C 
ATOM     26  C   UNL     1     -14.146  -7.914  -6.154  1.00  0.00     0.004 C 
ENDBRANCH  24  25
ENDBRANCH  23  24
ENDBRANCH  22  23
ENDBRANCH  21  22
ENDBRANCH  20  21
ENDBRANCH  19  20
ENDBRANCH  18  19
ENDBRANCH  17  18
ENDBRANCH  16  17
ENDBRANCH  15  16
ENDBRANCH   1  15
TORSDOF 22
ENDMDL
MODEL 4
REMARK VINA RESULT:    -4.843      1.803      3.930
REMARK INTER + INTRA:         -13.653
REMARK INTER:                 -11.813
REMARK INTRA:                  -1.839
REMARK UNBOUND:                -2.581
REMARK SMILES CCCCCCCCCCCCCCCCCCCCCCCC(=O)[O-]
REMARK SMILES IDX 13 1 14 2 15 3 16 4 17 5 18 6 19 7 20 8 21 9 22 10 23 11
REMARK SMILES IDX 24 12 25 13 26 14 12 15 11 16 10 17 9 18 8 19 7 20 6 21 5 22
REMARK SMILES IDX 4 23 3 24 2 25 1 26
REMARK H PARENT
REMARK Flexibility Score: inf
ROOT
ATOM      1  C   UNL     1     -13.614  -6.964  -9.466  1.00  0.00     0.000 C 
ENDROOT
BRANCH   1   2
ATOM      2  C   UNL     1     -13.464  -7.886  -8.247  1.00  0.00     0.000 C 
BRANCH   2   3
ATOM      3  C   UNL     1     -14.546  -7.591  -7.198  1.00  0.00     0.000 C 
BRANCH   3   4
ATOM      4  C   UNL     1     -14.022  -6.754  -6.016  1.00  0.00     0.000 C 
BRANCH   4   5
ATOM      5  C   UNL     1     -12.691  -6.013  -6.271  1.00  0.00     0.000 C 
BRANCH   5   6
ATOM      6  C   UNL     1     -11.571  -6.300  -5.252  1.00  0.00     0.000 C 
BRANCH   6   7
ATOM      7  C   UNL     1     -10.663  -7.465  -5.679  1.00  0.00     0.000 C 
BRANCH   7   8
ATOM      8  C   UNL     1     -10.000  -7.242  -7.051  1.00  0.00     0.000 C 
BRANCH   8   9
ATOM      9  C   UNL     1      -9.682  -5.777  -7.394  1.00  0.00     0.000 C 
BRANCH   9  10
ATOM     10  C   UNL     1     -10.374  -5.297  -8.684  1.00  0.00     0.006 C 
BRANCH  10  11
ATOM     11  C   UNL     1      -9.691  -4.060  -9.282  1.00  0.00     0.053 C 
BRANCH  11  12
ATOM     12  C   UNL     1      -9.001  -3.243  -8.232  1.00  0.00     0.041 C 
ATOM     13  O   UNL     1      -7.757  -3.344  -8.065  1.00  0.00    -0.550 OA
ATOM     14  O   UNL     1      -9.740  -2.408  -7.403  1.00  0.00    -0.550 OA
ENDBRANCH  11  12
ENDBRANCH  10  11
ENDBRANCH   9  10
ENDBRANCH   8   9
ENDBRANCH   7   8
ENDBRANCH   6   7
ENDBRANCH   5   6
ENDBRANCH   4   5
ENDBRANCH   3   4
ENDBRANCH   2   3
ENDBRANCH   1   2
BRANCH   1  15
ATOM     15  C   UNL     1     -15.041  -6.399  -9.601  1.00  0.00     0.000 C 
BRANCH  15  16
ATOM     16  C   UNL     1     -15.094  -4.867  -9.745  1.00  0.00     0.000 C 
BRANCH  16  17
ATOM     17  C   UNL     1     -13.754  -4.199  -9.383  1.00  0.00     0.000 C 
BRANCH  17  18
ATOM     18  C   UNL     1     -13.482  -2.919 -10.200  1.00  0.00    -0.000 C 
BRANCH  18  19
ATOM     19  C   UNL     1     -14.554  -1.824 -10.029  1.00  0.00    -0.000 C 
BRANCH  19  20
ATOM     20  C   UNL     1     -14.103  -0.392 -10.375  1.00  0.00    -0.000 C 
BRANCH  20  21
ATOM     21  C   UNL     1     -12.611  -0.108 -10.120  1.00  0.00    -0.000 C 
BRANCH  21  22
ATOM     22  C   UNL     1     -12.357   1.330  -9.636  1.00  0.00    -0.000 C 
BRANCH  22  23
ATOM     23  C   UNL     1     -13.658   2.147  -9.529  1.00  0.00    -0.000 C 
BRANCH  23  24
ATOM     24  C   UNL     1     -13.570   3.318  -8.533  1.00  0.00    -0.000 C 
BRANCH  24  25
ATOM     25  C   UNL     1     -12.428   4.287  -8.878  1.00  0.00    -0.003 C 
ATOM     26  C   UNL     1     -11.132   3.903  -8.168  1.00  0.00     0.004 C 
ENDBRANCH  24  25
ENDBRANCH  23  24
ENDBRANCH  22  23
ENDBRANCH  21  22
ENDBRANCH  20  21
ENDBRANCH  19  20
ENDBRANCH  18  19
ENDBRANCH  17  18
ENDBRANCH  16  17
ENDBRANCH  15  16
ENDBRANCH   1  15
TORSDOF 22
ENDMDL
MODEL 5
REMARK VINA RESULT:    -4.816      3.175      8.231
REMARK INTER + INTRA:         -13.592
REMARK INTER:                 -10.963
REMARK INTRA:                  -2.629
REMARK UNBOUND:                -2.581
REMARK SMILES CCCCCCCCCCCCCCCCCCCCCCCC(=O)[O-]
REMARK SMILES IDX 13 1 14 2 15 3 16 4 17 5 18 6 19 7 20 8 21 9 22 10 23 11
REMARK SMILES IDX 24 12 25 13 26 14 12 15 11 16 10 17 9 18 8 19 7 20 6 21 5 22
REMARK SMILES IDX 4 23 3 24 2 25 1 26
REMARK H PARENT
REMARK Flexibility Score: inf
ROOT
ATOM      1  C   UNL     1     -10.406  -4.375  -9.747  1.00  0.00     0.000 C 
ENDROOT
BRANCH   1   2
ATOM      2  C   UNL     1      -9.586  -4.321  -8.450  1.00  0.00     0.000 C 
BRANCH   2   3
ATOM      3  C   UNL     1      -9.229  -2.872  -8.084  1.00  0.00     0.000 C 
BRANCH   3   4
ATOM      4  C   UNL     1     -10.301  -1.861  -8.533  1.00  0.00     0.000 C 
BRANCH   4   5
ATOM      5  C   UNL     1     -10.019  -1.153  -9.876  1.00  0.00     0.000 C 
BRANCH   5   6
ATOM      6  C   UNL     1     -11.168  -0.276 -10.412  1.00  0.00     0.000 C 
BRANCH   6   7
ATOM      7  C   UNL     1     -12.548  -0.930 -10.231  1.00  0.00     0.000 C 
BRANCH   7   8
ATOM      8  C   UNL     1     -13.713   0.009 -10.594  1.00  0.00     0.000 C 
BRANCH   8   9
ATOM      9  C   UNL     1     -14.469   0.608  -9.395  1.00  0.00     0.000 C 
BRANCH   9  10
ATOM     10  C   UNL     1     -14.264   2.127  -9.252  1.00  0.00     0.006 C 
BRANCH  10  11
ATOM     11  C   UNL     1     -12.803   2.538  -9.484  1.00  0.00     0.053 C 
BRANCH  11  12
ATOM     12  C   UNL     1     -12.448   3.782  -8.724  1.00  0.00     0.041 C 
ATOM     13  O   UNL     1     -11.241   4.086  -8.533  1.00  0.00    -0.550 OA
ATOM     14  O   UNL     1     -13.452   4.576  -8.182  1.00  0.00    -0.550 OA
ENDBRANCH  11  12
ENDBRANCH  10  11
ENDBRANCH   9  10
ENDBRANCH   8   9
ENDBRANCH   7   8
ENDBRANCH   6   7
ENDBRANCH   5   6
ENDBRANCH   4   5
ENDBRANCH   3   4
ENDBRANCH   2   3
ENDBRANCH   1   2
BRANCH   1  15
ATOM     15  C   UNL     1     -11.643  -5.284  -9.621  1.00  0.00     0.000 C 
BRANCH  15  16
ATOM     16  C   UNL     1     -12.811  -4.645  -8.848  1.00  0.00     0.000 C 
BRANCH  16  17
ATOM     17  C   UNL     1     -13.941  -4.172  -9.781  1.00  0.00     0.000 C 
BRANCH  17  18
ATOM     18  C   UNL     1     -15.117  -5.168  -9.852  1.00  0.00    -0.000 C 
BRANCH  18  19
ATOM     19  C   UNL     1     -14.906  -6.319 -10.856  1.00  0.00    -0.000 C 
BRANCH  19  20
ATOM     20  C   UNL     1     -14.345  -7.625 -10.261  1.00  0.00    -0.000 C 
BRANCH  20  21
ATOM     21  C   UNL     1     -14.963  -8.037  -8.912  1.00  0.00    -0.000 C 
BRANCH  21  22
ATOM     22  C   UNL     1     -13.920  -8.124  -7.785  1.00  0.00    -0.000 C 
BRANCH  22  23
ATOM     23  C   UNL     1     -14.466  -7.602  -6.444  1.00  0.00    -0.000 C 
BRANCH  23  24
ATOM     24  C   UNL     1     -13.659  -6.426  -5.866  1.00  0.00    -0.000 C 
BRANCH  24  25
ATOM     25  C   UNL     1     -12.174  -6.778  -5.680  1.00  0.00    -0.003 C 
ATOM     26  C   UNL     1     -11.326  -5.528  -5.451  1.00  0.00     0.004 C 
ENDBRANCH  24  25
ENDBRANCH  23  24
ENDBRANCH  22  23
ENDBRANCH  21  22
ENDBRANCH  20  21
ENDBRANCH  19  20
ENDBRANCH  18  19
ENDBRANCH  17  18
ENDBRANCH  16  17
ENDBRANCH  15  16
ENDBRANCH   1  15
TORSDOF 22
ENDMDL
MODEL 6
REMARK VINA RESULT:    -4.760     16.103     19.299
REMARK INTER + INTRA:         -13.463
REMARK INTER:                 -10.826
REMARK INTRA:                  -2.637
REMARK UNBOUND:                -2.581
REMARK SMILES CCCCCCCCCCCCCCCCCCCCCCCC(=O)[O-]
REMARK SMILES IDX 13 1 14 2 15 3 16 4 17 5 18 6 19 7 20 8 21 9 22 10 23 11
REMARK SMILES IDX 24 12 25 13 26 14 12 15 11 16 10 17 9 18 8 19 7 20 6 21 5 22
REMARK SMILES IDX 4 23 3 24 2 25 1 26
REMARK H PARENT
REMARK Flexibility Score: inf
ROOT
ATOM      1  C   UNL     1     -12.507   4.709   7.192  1.00  0.00     0.000 C 
ENDROOT
BRANCH   1   2
ATOM      2  C   UNL     1     -12.132   4.363   5.743  1.00  0.00     0.000 C 
BRANCH   2   3
ATOM      3  C   UNL     1     -12.259   5.595   4.834  1.00  0.00     0.000 C 
BRANCH   3   4
ATOM      4  C   UNL     1     -13.241   5.378   3.668  1.00  0.00     0.000 C 
BRANCH   4   5
ATOM      5  C   UNL     1     -14.218   6.545   3.402  1.00  0.00     0.000 C 
BRANCH   5   6
ATOM      6  C   UNL     1     -14.537   7.428   4.624  1.00  0.00     0.000 C 
BRANCH   6   7
ATOM      7  C   UNL     1     -14.181   8.907   4.397  1.00  0.00     0.000 C 
BRANCH   7   8
ATOM      8  C   UNL     1     -12.893   9.338   5.123  1.00  0.00     0.000 C 
BRANCH   8   9
ATOM      9  C   UNL     1     -12.922  10.755   5.722  1.00  0.00     0.000 C 
BRANCH   9  10
ATOM     10  C   UNL     1     -13.068  11.856   4.655  1.00  0.00     0.006 C 
BRANCH  10  11
ATOM     11  C   UNL     1     -11.971  11.774   3.584  1.00  0.00     0.053 C 
BRANCH  11  12
ATOM     12  C   UNL     1     -12.546  11.721   2.201  1.00  0.00     0.041 C 
ATOM     13  O   UNL     1     -11.785  11.655   1.199  1.00  0.00    -0.550 OA
ATOM     14  O   UNL     1     -13.921  11.798   2.016  1.00  0.00    -0.550 OA
ENDBRANCH  11  12
ENDBRANCH  10  11
ENDBRANCH   9  10
ENDBRANCH   8   9
ENDBRANCH   7   8
ENDBRANCH   6   7
ENDBRANCH   5   6
ENDBRANCH   4   5
ENDBRANCH   3   4
ENDBRANCH   2   3
ENDBRANCH   1   2
BRANCH   1  15
ATOM     15  C   UNL     1     -11.721   3.868   8.217  1.00  0.00     0.000 C 
BRANCH  15  16
ATOM     16  C   UNL     1     -10.344   4.455   8.579  1.00  0.00     0.000 C 
BRANCH  16  17
ATOM     17  C   UNL     1     -10.396   5.980   8.794  1.00  0.00     0.000 C 
BRANCH  17  18
ATOM     18  C   UNL     1      -9.379   6.743   7.920  1.00  0.00    -0.000 C 
BRANCH  18  19
ATOM     19  C   UNL     1      -9.037   6.038   6.592  1.00  0.00    -0.000 C 
BRANCH  19  20
ATOM     20  C   UNL     1      -9.001   6.946   5.348  1.00  0.00    -0.000 C 
BRANCH  20  21
ATOM     21  C   UNL     1      -9.311   8.430   5.624  1.00  0.00    -0.000 C 
BRANCH  21  22
ATOM     22  C   UNL     1      -8.322   9.380   4.927  1.00  0.00    -0.000 C 
BRANCH  22  23
ATOM     23  C   UNL     1      -7.955  10.587   5.809  1.00  0.00    -0.000 C 
BRANCH  23  24
ATOM     24  C   UNL     1      -6.501  11.063   5.628  1.00  0.00    -0.000 C 
BRANCH  24  25
ATOM     25  C   UNL     1      -5.535  10.353   6.590  1.00  0.00    -0.003 C 
ATOM     26  C   UNL     1      -4.081  10.712   6.290  1.00  0.00     0.004 C 
ENDBRANCH  24  25
ENDBRANCH  23  24
ENDBRANCH  22  23
ENDBRANCH  21  22
ENDBRANCH  20  21
ENDBRANCH  19  20
ENDBRANCH  18  19
ENDBRANCH  17  18
ENDBRANCH  16  17
ENDBRANCH  15  16
ENDBRANCH   1  15
TORSDOF 22
ENDMDL
MODEL 7
REMARK VINA RESULT:    -4.712      3.282      8.177
REMARK INTER + INTRA:         -13.352
REMARK INTER:                 -11.115
REMARK INTRA:                  -2.238
REMARK UNBOUND:                -2.581
REMARK SMILES CCCCCCCCCCCCCCCCCCCCCCCC(=O)[O-]
REMARK SMILES IDX 13 1 14 2 15 3 16 4 17 5 18 6 19 7 20 8 21 9 22 10 23 11
REMARK SMILES IDX 24 12 25 13 26 14 12 15 11 16 10 17 9 18 8 19 7 20 6 21 5 22
REMARK SMILES IDX 4 23 3 24 2 25 1 26
REMARK H PARENT
REMARK Flexibility Score: inf
ROOT
ATOM      1  C   UNL     1     -13.429  -5.538  -9.505  1.00  0.00     0.000 C 
ENDROOT
BRANCH   1   2
ATOM      2  C   UNL     1     -14.389  -4.349  -9.355  1.00  0.00     0.000 C 
BRANCH   2   3
ATOM      3  C   UNL     1     -15.073  -4.022 -10.691  1.00  0.00     0.000 C 
BRANCH   3   4
ATOM      4  C   UNL     1     -15.125  -2.510 -10.982  1.00  0.00     0.000 C 
BRANCH   4   5
ATOM      5  C   UNL     1     -14.884  -1.594  -9.762  1.00  0.00     0.000 C 
BRANCH   5   6
ATOM      6  C   UNL     1     -14.135  -0.282 -10.063  1.00  0.00     0.000 C 
BRANCH   6   7
ATOM      7  C   UNL     1     -12.819  -0.510 -10.826  1.00  0.00     0.000 C 
BRANCH   7   8
ATOM      8  C   UNL     1     -11.604   0.148 -10.146  1.00  0.00     0.000 C 
BRANCH   8   9
ATOM      9  C   UNL     1     -11.943   1.198  -9.073  1.00  0.00     0.000 C 
BRANCH   9  10
ATOM     10  C   UNL     1     -12.259   2.583  -9.666  1.00  0.00     0.006 C 
BRANCH  10  11
ATOM     11  C   UNL     1     -11.780   3.725  -8.759  1.00  0.00     0.053 C 
BRANCH  11  12
ATOM     12  C   UNL     1     -12.796   4.066  -7.710  1.00  0.00     0.041 C 
ATOM     13  O   UNL     1     -14.025   3.921  -7.946  1.00  0.00    -0.550 OA
ATOM     14  O   UNL     1     -12.388   4.594  -6.491  1.00  0.00    -0.550 OA
ENDBRANCH  11  12
ENDBRANCH  10  11
ENDBRANCH   9  10
ENDBRANCH   8   9
ENDBRANCH   7   8
ENDBRANCH   6   7
ENDBRANCH   5   6
ENDBRANCH   4   5
ENDBRANCH   3   4
ENDBRANCH   2   3
ENDBRANCH   1   2
BRANCH   1  15
ATOM     15  C   UNL     1     -13.715  -6.655  -8.483  1.00  0.00     0.000 C 
BRANCH  15  16
ATOM     16  C   UNL     1     -14.866  -6.332  -7.513  1.00  0.00     0.000 C 
BRANCH  16  17
ATOM     17  C   UNL     1     -14.514  -6.675  -6.053  1.00  0.00     0.000 C 
BRANCH  17  18
ATOM     18  C   UNL     1     -13.472  -7.807  -5.937  1.00  0.00    -0.000 C 
BRANCH  18  19
ATOM     19  C   UNL     1     -12.225  -7.432  -5.113  1.00  0.00    -0.000 C 
BRANCH  19  20
ATOM     20  C   UNL     1     -11.551  -6.100  -5.497  1.00  0.00    -0.000 C 
BRANCH  20  21
ATOM     21  C   UNL     1     -10.146  -6.242  -6.111  1.00  0.00    -0.000 C 
BRANCH  21  22
ATOM     22  C   UNL     1     -10.170  -6.923  -7.490  1.00  0.00    -0.000 C 
BRANCH  22  23
ATOM     23  C   UNL     1      -9.845  -5.941  -8.631  1.00  0.00    -0.000 C 
BRANCH  23  24
ATOM     24  C   UNL     1     -10.334  -4.506  -8.365  1.00  0.00    -0.000 C 
BRANCH  24  25
ATOM     25  C   UNL     1      -9.182  -3.564  -7.978  1.00  0.00    -0.003 C 
ATOM     26  C   UNL     1      -9.655  -2.115  -7.871  1.00  0.00     0.004 C 
ENDBRANCH  24  25
ENDBRANCH  23  24
ENDBRANCH  22  23
ENDBRANCH  21  22
ENDBRANCH  20  21
ENDBRANCH  19  20
ENDBRANCH  18  19
ENDBRANCH  17  18
ENDBRANCH  16  17
ENDBRANCH  15  16
ENDBRANCH   1  15
TORSDOF 22
ENDMDL
MODEL 8
REMARK VINA RESULT:    -4.670      3.198      8.360
REMARK INTER + INTRA:         -13.257
REMARK INTER:                 -11.302
REMARK INTRA:                  -1.956
REMARK UNBOUND:                -2.581
REMARK SMILES CCCCCCCCCCCCCCCCCCCCCCCC(=O)[O-]
REMARK SMILES IDX 13 1 14 2 15 3 16 4 17 5 18 6 19 7 20 8 21 9 22 10 23 11
REMARK SMILES IDX 24 12 25 13 26 14 12 15 11 16 10 17 9 18 8 19 7 20 6 21 5 22
REMARK SMILES IDX 4 23 3 24 2 25 1 26
REMARK H PARENT
REMARK Flexibility Score: inf
ROOT
ATOM      1  C   UNL     1      -9.907  -3.887  -6.643  1.00  0.00     0.000 C 
ENDROOT
BRANCH   1   2
ATOM      2  C   UNL     1      -9.138  -3.414  -7.886  1.00  0.00     0.000 C 
BRANCH   2   3
ATOM      3  C   UNL     1      -9.503  -4.261  -9.114  1.00  0.00     0.000 C 
BRANCH   3   4
ATOM      4  C   UNL     1     -10.978  -4.109  -9.528  1.00  0.00     0.000 C 
BRANCH   4   5
ATOM      5  C   UNL     1     -11.456  -2.657  -9.746  1.00  0.00     0.000 C 
BRANCH   5   6
ATOM      6  C   UNL     1     -10.378  -1.677 -10.250  1.00  0.00     0.000 C 
BRANCH   6   7
ATOM      7  C   UNL     1     -10.963  -0.326 -10.692  1.00  0.00     0.000 C 
BRANCH   7   8
ATOM      8  C   UNL     1     -11.711   0.407  -9.563  1.00  0.00     0.000 C 
BRANCH   8   9
ATOM      9  C   UNL     1     -13.199   0.688  -9.838  1.00  0.00     0.000 C 
BRANCH   9  10
ATOM     10  C   UNL     1     -13.601   2.145  -9.541  1.00  0.00     0.006 C 
BRANCH  10  11
ATOM     11  C   UNL     1     -12.383   3.073  -9.442  1.00  0.00     0.053 C 
BRANCH  11  12
ATOM     12  C   UNL     1     -12.477   3.990  -8.260  1.00  0.00     0.041 C 
ATOM     13  O   UNL     1     -11.438   4.518  -7.781  1.00  0.00    -0.550 OA
ATOM     14  O   UNL     1     -13.706   4.220  -7.654  1.00  0.00    -0.550 OA
ENDBRANCH  11  12
ENDBRANCH  10  11
ENDBRANCH   9  10
ENDBRANCH   8   9
ENDBRANCH   7   8
ENDBRANCH   6   7
ENDBRANCH   5   6
ENDBRANCH   4   5
ENDBRANCH   3   4
ENDBRANCH   2   3
ENDBRANCH   1   2
BRANCH   1  15
ATOM     15  C   UNL     1     -10.454  -5.318  -6.802  1.00  0.00     0.000 C 
BRANCH  15  16
ATOM     16  C   UNL     1     -10.922  -5.957  -5.482  1.00  0.00     0.000 C 
BRANCH  16  17
ATOM     17  C   UNL     1     -10.904  -7.496  -5.538  1.00  0.00     0.000 C 
BRANCH  17  18
ATOM     18  C   UNL     1     -12.308  -8.105  -5.739  1.00  0.00    -0.000 C 
BRANCH  18  19
ATOM     19  C   UNL     1     -13.455  -7.233  -5.192  1.00  0.00    -0.000 C 
BRANCH  19  20
ATOM     20  C   UNL     1     -14.843  -7.498  -5.808  1.00  0.00    -0.000 C 
BRANCH  20  21
ATOM     21  C   UNL     1     -14.949  -7.192  -7.313  1.00  0.00    -0.000 C 
BRANCH  21  22
ATOM     22  C   UNL     1     -14.322  -5.838  -7.687  1.00  0.00    -0.000 C 
BRANCH  22  23
ATOM     23  C   UNL     1     -14.129  -5.684  -9.206  1.00  0.00    -0.000 C 
BRANCH  23  24
ATOM     24  C   UNL     1     -14.050  -7.027  -9.956  1.00  0.00    -0.000 C 
BRANCH  24  25
ATOM     25  C   UNL     1     -12.619  -7.355 -10.410  1.00  0.00    -0.003 C 
ATOM     26  C   UNL     1     -11.740  -7.774  -9.234  1.00  0.00     0.004 C 
ENDBRANCH  24  25
ENDBRANCH  23  24
ENDBRANCH  22  23
ENDBRANCH  21  22
ENDBRANCH  20  21
ENDBRANCH  19  20
ENDBRANCH  18  19
ENDBRANCH  17  18
ENDBRANCH  16  17
ENDBRANCH  15  16
ENDBRANCH   1  15
TORSDOF 22
ENDMDL
