MODEL 1
REMARK VINA RESULT:    -4.030      0.000      0.000
REMARK INTER + INTRA:          -7.537
REMARK INTER:                  -7.327
REMARK INTRA:                  -0.210
REMARK UNBOUND:                -0.210
REMARK SMILES CCCCCCCCCCCCCCCC(=O)[O-]
REMARK SMILES IDX 9 1 10 2 11 3 12 4 13 5 14 6 15 7 16 8 17 9 18 10 8 11 7 12
REMARK SMILES IDX 6 13 5 14 4 15 3 16 2 17 1 18
REMARK H PARENT
REMARK Flexibility Score: inf
ROOT
ATOM      1  C   UNL     1     -15.675  -2.160  -4.217  1.00  0.00     0.000 C 
ENDROOT
BRANCH   1   2
ATOM      2  C   UNL     1     -16.820  -1.631  -3.332  1.00  0.00     0.000 C 
BRANCH   2   3
ATOM      3  C   UNL     1     -17.023  -2.385  -2.004  1.00  0.00     0.000 C 
BRANCH   3   4
ATOM      4  C   UNL     1     -17.125  -1.448  -0.790  1.00  0.00     0.000 C 
BRANCH   4   5
ATOM      5  C   UNL     1     -16.597  -0.047  -1.131  1.00  0.00     0.000 C 
BRANCH   5   6
ATOM      6  C   UNL     1     -15.836   0.611   0.034  1.00  0.00     0.006 C 
BRANCH   6   7
ATOM      7  C   UNL     1     -16.494   0.398   1.409  1.00  0.00     0.053 C 
BRANCH   7   8
ATOM      8  C   UNL     1     -15.626  -0.386   2.347  1.00  0.00     0.041 C 
ATOM      9  O   UNL     1     -14.382  -0.439   2.164  1.00  0.00    -0.550 OA
ATOM     10  O   UNL     1     -16.187  -1.027   3.446  1.00  0.00    -0.550 OA
ENDBRANCH   7   8
ENDBRANCH   6   7
ENDBRANCH   5   6
ENDBRANCH   4   5
ENDBRANCH   3   4
ENDBRANCH   2   3
ENDBRANCH   1   2
BRANCH   1  11
ATOM     11  C   UNL     1     -15.701  -3.688  -4.380  1.00  0.00     0.000 C 
BRANCH  11  12
ATOM     12  C   UNL     1     -14.900  -4.419  -3.287  1.00  0.00    -0.000 C 
BRANCH  12  13
ATOM     13  C   UNL     1     -13.595  -5.092  -3.763  1.00  0.00    -0.000 C 
BRANCH  13  14
ATOM     14  C   UNL     1     -12.818  -4.317  -4.842  1.00  0.00    -0.000 C 
BRANCH  14  15
ATOM     15  C   UNL     1     -12.896  -4.979  -6.226  1.00  0.00    -0.000 C 
BRANCH  15  16
ATOM     16  C   UNL     1     -14.355  -5.119  -6.684  1.00  0.00    -0.000 C 
BRANCH  16  17
ATOM     17  C   UNL     1     -14.510  -4.992  -8.207  1.00  0.00    -0.003 C 
ATOM     18  C   UNL     1     -15.914  -4.555  -8.625  1.00  0.00     0.004 C 
ENDBRANCH  16  17
ENDBRANCH  15  16
ENDBRANCH  14  15
ENDBRANCH  13  14
ENDBRANCH  12  13
ENDBRANCH  11  12
ENDBRANCH   1  11
TORSDOF 14
ENDMDL
MODEL 2
REMARK VINA RESULT:    -3.703      1.199      2.179
REMARK INTER + INTRA:          -6.943
REMARK INTER:                  -6.211
REMARK INTRA:                  -0.732
REMARK UNBOUND:                -0.210
REMARK SMILES CCCCCCCCCCCCCCCC(=O)[O-]
REMARK SMILES IDX 9 1 10 2 11 3 12 4 13 5 14 6 15 7 16 8 17 9 18 10 8 11 7 12
REMARK SMILES IDX 6 13 5 14 4 15 3 16 2 17 1 18
REMARK H PARENT
REMARK Flexibility Score: inf
ROOT
ATOM      1  C   UNL     1     -14.245  -4.224  -1.690  1.00  0.00     0.000 C 
ENDROOT
BRANCH   1   2
ATOM      2  C   UNL     1     -15.672  -4.035  -2.240  1.00  0.00     0.000 C 
BRANCH   2   3
ATOM      3  C   UNL     1     -15.991  -2.622  -2.763  1.00  0.00     0.000 C 
BRANCH   3   4
ATOM      4  C   UNL     1     -17.125  -1.935  -1.987  1.00  0.00     0.000 C 
BRANCH   4   5
ATOM      5  C   UNL     1     -16.620  -1.387  -0.645  1.00  0.00     0.000 C 
BRANCH   5   6
ATOM      6  C   UNL     1     -16.983   0.092  -0.421  1.00  0.00     0.006 C 
BRANCH   6   7
ATOM      7  C   UNL     1     -15.943   0.872   0.404  1.00  0.00     0.053 C 
BRANCH   7   8
ATOM      8  C   UNL     1     -15.627   0.207   1.709  1.00  0.00     0.041 C 
ATOM      9  O   UNL     1     -16.477   0.199   2.637  1.00  0.00    -0.550 OA
ATOM     10  O   UNL     1     -14.409  -0.438   1.888  1.00  0.00    -0.550 OA
ENDBRANCH   7   8
ENDBRANCH   6   7
ENDBRANCH   5   6
ENDBRANCH   4   5
ENDBRANCH   3   4
ENDBRANCH   2   3
ENDBRANCH   1   2
BRANCH   1  11
ATOM     11  C   UNL     1     -13.294  -4.878  -2.705  1.00  0.00     0.000 C 
BRANCH  11  12
ATOM     12  C   UNL     1     -13.376  -4.238  -4.102  1.00  0.00    -0.000 C 
BRANCH  12  13
ATOM     13  C   UNL     1     -13.999  -5.125  -5.200  1.00  0.00    -0.000 C 
BRANCH  13  14
ATOM     14  C   UNL     1     -15.413  -4.713  -5.648  1.00  0.00    -0.000 C 
BRANCH  14  15
ATOM     15  C   UNL     1     -15.409  -3.522  -6.617  1.00  0.00    -0.000 C 
BRANCH  15  16
ATOM     16  C   UNL     1     -15.414  -4.003  -8.076  1.00  0.00    -0.000 C 
BRANCH  16  17
ATOM     17  C   UNL     1     -16.782  -4.552  -8.511  1.00  0.00    -0.003 C 
ATOM     18  C   UNL     1     -16.868  -4.801 -10.016  1.00  0.00     0.004 C 
ENDBRANCH  16  17
ENDBRANCH  15  16
ENDBRANCH  14  15
ENDBRANCH  13  14
ENDBRANCH  12  13
ENDBRANCH  11  12
ENDBRANCH   1  11
TORSDOF 14
ENDMDL
MODEL 3
REMARK VINA RESULT:    -3.489      3.383      8.061
REMARK INTER + INTRA:          -6.554
REMARK INTER:                  -6.618
REMARK INTRA:                   0.064
REMARK UNBOUND:                -0.210
REMARK SMILES CCCCCCCCCCCCCCCC(=O)[O-]
REMARK SMILES IDX 9 1 10 2 11 3 12 4 13 5 14 6 15 7 16 8 17 9 18 10 8 11 7 12
REMARK SMILES IDX 6 13 5 14 4 15 3 16 2 17 1 18
REMARK H PARENT
REMARK Flexibility Score: inf
ROOT
ATOM      1  C   UNL     1     -16.067  -3.141  -1.915  1.00  0.00     0.000 C 
ENDROOT
BRANCH   1   2
ATOM      2  C   UNL     1     -15.387  -4.453  -2.349  1.00  0.00     0.000 C 
BRANCH   2   3
ATOM      3  C   UNL     1     -13.888  -4.556  -2.013  1.00  0.00     0.000 C 
BRANCH   3   4
ATOM      4  C   UNL     1     -13.049  -5.120  -3.171  1.00  0.00     0.000 C 
BRANCH   4   5
ATOM      5  C   UNL     1     -13.200  -4.257  -4.431  1.00  0.00     0.000 C 
BRANCH   5   6
ATOM      6  C   UNL     1     -12.814  -5.001  -5.723  1.00  0.00     0.006 C 
BRANCH   6   7
ATOM      7  C   UNL     1     -13.877  -4.916  -6.833  1.00  0.00     0.053 C 
BRANCH   7   8
ATOM      8  C   UNL     1     -15.134  -4.239  -6.376  1.00  0.00     0.041 C 
ATOM      9  O   UNL     1     -15.340  -3.030  -6.659  1.00  0.00    -0.550 OA
ATOM     10  O   UNL     1     -16.096  -4.953  -5.672  1.00  0.00    -0.550 OA
ENDBRANCH   7   8
ENDBRANCH   6   7
ENDBRANCH   5   6
ENDBRANCH   4   5
ENDBRANCH   3   4
ENDBRANCH   2   3
ENDBRANCH   1   2
BRANCH   1  11
ATOM     11  C   UNL     1     -16.454  -2.245  -3.103  1.00  0.00     0.000 C 
BRANCH  11  12
ATOM     12  C   UNL     1     -16.312  -0.744  -2.792  1.00  0.00    -0.000 C 
BRANCH  12  13
ATOM     13  C   UNL     1     -17.117  -0.243  -1.576  1.00  0.00    -0.000 C 
BRANCH  13  14
ATOM     14  C   UNL     1     -16.990  -1.106  -0.308  1.00  0.00    -0.000 C 
BRANCH  14  15
ATOM     15  C   UNL     1     -15.728  -0.788   0.507  1.00  0.00    -0.000 C 
BRANCH  15  16
ATOM     16  C   UNL     1     -16.010   0.306   1.549  1.00  0.00    -0.000 C 
BRANCH  16  17
ATOM     17  C   UNL     1     -15.909  -0.213   2.991  1.00  0.00    -0.003 C 
ATOM     18  C   UNL     1     -17.101   0.201   3.854  1.00  0.00     0.004 C 
ENDBRANCH  16  17
ENDBRANCH  15  16
ENDBRANCH  14  15
ENDBRANCH  13  14
ENDBRANCH  12  13
ENDBRANCH  11  12
ENDBRANCH   1  11
TORSDOF 14
ENDMDL
MODEL 4
REMARK VINA RESULT:    -3.113      3.663      7.906
REMARK INTER + INTRA:          -5.870
REMARK INTER:                  -5.033
REMARK INTRA:                  -0.837
REMARK UNBOUND:                -0.210
REMARK SMILES CCCCCCCCCCCCCCCC(=O)[O-]
REMARK SMILES IDX 9 1 10 2 11 3 12 4 13 5 14 6 15 7 16 8 17 9 18 10 8 11 7 12
REMARK SMILES IDX 6 13 5 14 4 15 3 16 2 17 1 18
REMARK H PARENT
REMARK Flexibility Score: inf
ROOT
ATOM      1  C   UNL     1     -15.260  -3.305  -1.828  1.00  0.00     0.000 C 
ENDROOT
BRANCH   1   2
ATOM      2  C   UNL     1     -14.640  -4.700  -2.034  1.00  0.00     0.000 C 
BRANCH   2   3
ATOM      3  C   UNL     1     -13.107  -4.721  -2.179  1.00  0.00     0.000 C 
BRANCH   3   4
ATOM      4  C   UNL     1     -12.643  -4.987  -3.620  1.00  0.00     0.000 C 
BRANCH   4   5
ATOM      5  C   UNL     1     -13.842  -5.123  -4.568  1.00  0.00     0.000 C 
BRANCH   5   6
ATOM      6  C   UNL     1     -13.792  -4.140  -5.751  1.00  0.00     0.006 C 
BRANCH   6   7
ATOM      7  C   UNL     1     -14.382  -4.705  -7.057  1.00  0.00     0.053 C 
BRANCH   7   8
ATOM      8  C   UNL     1     -15.778  -4.225  -7.313  1.00  0.00     0.041 C 
ATOM      9  O   UNL     1     -16.590  -4.101  -6.359  1.00  0.00    -0.550 OA
ATOM     10  O   UNL     1     -16.172  -3.877  -8.600  1.00  0.00    -0.550 OA
ENDBRANCH   7   8
ENDBRANCH   6   7
ENDBRANCH   5   6
ENDBRANCH   4   5
ENDBRANCH   3   4
ENDBRANCH   2   3
ENDBRANCH   1   2
BRANCH   1  11
ATOM     11  C   UNL     1     -16.767  -3.270  -2.128  1.00  0.00     0.000 C 
BRANCH  11  12
ATOM     12  C   UNL     1     -17.125  -2.318  -3.284  1.00  0.00    -0.000 C 
BRANCH  12  13
ATOM     13  C   UNL     1     -16.333  -0.994  -3.318  1.00  0.00    -0.000 C 
BRANCH  13  14
ATOM     14  C   UNL     1     -16.896   0.126  -2.424  1.00  0.00    -0.000 C 
BRANCH  14  15
ATOM     15  C   UNL     1     -16.921  -0.254  -0.936  1.00  0.00    -0.000 C 
BRANCH  15  16
ATOM     16  C   UNL     1     -16.206   0.810  -0.087  1.00  0.00    -0.000 C 
BRANCH  16  17
ATOM     17  C   UNL     1     -15.424   0.200   1.086  1.00  0.00    -0.003 C 
ATOM     18  C   UNL     1     -16.334  -0.304   2.206  1.00  0.00     0.004 C 
ENDBRANCH  16  17
ENDBRANCH  15  16
ENDBRANCH  14  15
ENDBRANCH  13  14
ENDBRANCH  12  13
ENDBRANCH  11  12
ENDBRANCH   1  11
TORSDOF 14
ENDMDL
MODEL 5
REMARK VINA RESULT:    -2.982      1.456      2.411
REMARK INTER + INTRA:          -5.633
REMARK INTER:                  -4.996
REMARK INTRA:                  -0.637
REMARK UNBOUND:                -0.210
REMARK SMILES CCCCCCCCCCCCCCCC(=O)[O-]
REMARK SMILES IDX 9 1 10 2 11 3 12 4 13 5 14 6 15 7 16 8 17 9 18 10 8 11 7 12
REMARK SMILES IDX 6 13 5 14 4 15 3 16 2 17 1 18
REMARK H PARENT
REMARK Flexibility Score: inf
ROOT
ATOM      1  C   UNL     1     -17.117  -0.769  -3.139  1.00  0.00     0.000 C 
ENDROOT
BRANCH   1   2
ATOM      2  C   UNL     1     -17.066   0.374  -2.108  1.00  0.00     0.000 C 
BRANCH   2   3
ATOM      3  C   UNL     1     -17.124  -0.070  -0.634  1.00  0.00     0.000 C 
BRANCH   3   4
ATOM      4  C   UNL     1     -16.134   0.691   0.262  1.00  0.00     0.000 C 
BRANCH   4   5
ATOM      5  C   UNL     1     -15.071  -0.256   0.835  1.00  0.00     0.000 C 
BRANCH   5   6
ATOM      6  C   UNL     1     -14.986  -0.210   2.372  1.00  0.00     0.006 C 
BRANCH   6   7
ATOM      7  C   UNL     1     -16.298  -0.592   3.081  1.00  0.00     0.053 C 
BRANCH   7   8
ATOM      8  C   UNL     1     -16.821   0.508   3.955  1.00  0.00     0.041 C 
ATOM      9  O   UNL     1     -17.025   1.654   3.476  1.00  0.00    -0.550 OA
ATOM     10  O   UNL     1     -17.120   0.257   5.289  1.00  0.00    -0.550 OA
ENDBRANCH   7   8
ENDBRANCH   6   7
ENDBRANCH   5   6
ENDBRANCH   4   5
ENDBRANCH   3   4
ENDBRANCH   2   3
ENDBRANCH   1   2
BRANCH   1  11
ATOM     11  C   UNL     1     -17.093  -2.162  -2.491  1.00  0.00     0.000 C 
BRANCH  11  12
ATOM     12  C   UNL     1     -16.141  -3.139  -3.205  1.00  0.00    -0.000 C 
BRANCH  12  13
ATOM     13  C   UNL     1     -15.410  -4.140  -2.286  1.00  0.00    -0.000 C 
BRANCH  13  14
ATOM     14  C   UNL     1     -13.926  -4.370  -2.622  1.00  0.00    -0.000 C 
BRANCH  14  15
ATOM     15  C   UNL     1     -13.721  -5.059  -3.979  1.00  0.00    -0.000 C 
BRANCH  15  16
ATOM     16  C   UNL     1     -13.755  -4.035  -5.124  1.00  0.00    -0.000 C 
BRANCH  16  17
ATOM     17  C   UNL     1     -14.036  -4.684  -6.488  1.00  0.00    -0.003 C 
ATOM     18  C   UNL     1     -15.265  -4.096  -7.181  1.00  0.00     0.004 C 
ENDBRANCH  16  17
ENDBRANCH  15  16
ENDBRANCH  14  15
ENDBRANCH  13  14
ENDBRANCH  12  13
ENDBRANCH  11  12
ENDBRANCH   1  11
TORSDOF 14
ENDMDL
MODEL 6
REMARK VINA RESULT:    -2.795      1.092      2.415
REMARK INTER + INTRA:          -5.293
REMARK INTER:                  -4.664
REMARK INTRA:                  -0.628
REMARK UNBOUND:                -0.210
REMARK SMILES CCCCCCCCCCCCCCCC(=O)[O-]
REMARK SMILES IDX 9 1 10 2 11 3 12 4 13 5 14 6 15 7 16 8 17 9 18 10 8 11 7 12
REMARK SMILES IDX 6 13 5 14 4 15 3 16 2 17 1 18
REMARK H PARENT
REMARK Flexibility Score: inf
ROOT
ATOM      1  C   UNL     1     -16.610  -2.448  -2.155  1.00  0.00     0.000 C 
ENDROOT
BRANCH   1   2
ATOM      2  C   UNL     1     -15.675  -1.349  -2.693  1.00  0.00     0.000 C 
BRANCH   2   3
ATOM      3  C   UNL     1     -16.359  -0.008  -3.017  1.00  0.00     0.000 C 
BRANCH   3   4
ATOM      4  C   UNL     1     -17.124   0.582  -1.822  1.00  0.00     0.000 C 
BRANCH   4   5
ATOM      5  C   UNL     1     -16.156   1.167  -0.784  1.00  0.00     0.000 C 
BRANCH   5   6
ATOM      6  C   UNL     1     -15.698   0.136   0.263  1.00  0.00     0.006 C 
BRANCH   6   7
ATOM      7  C   UNL     1     -16.740  -0.142   1.363  1.00  0.00     0.053 C 
BRANCH   7   8
ATOM      8  C   UNL     1     -16.110  -0.490   2.678  1.00  0.00     0.041 C 
ATOM      9  O   UNL     1     -14.860  -0.598   2.772  1.00  0.00    -0.550 OA
ATOM     10  O   UNL     1     -16.901  -0.657   3.808  1.00  0.00    -0.550 OA
ENDBRANCH   7   8
ENDBRANCH   6   7
ENDBRANCH   5   6
ENDBRANCH   4   5
ENDBRANCH   3   4
ENDBRANCH   2   3
ENDBRANCH   1   2
BRANCH   1  11
ATOM     11  C   UNL     1     -16.550  -3.743  -2.981  1.00  0.00     0.000 C 
BRANCH  11  12
ATOM     12  C   UNL     1     -15.982  -3.525  -4.395  1.00  0.00    -0.000 C 
BRANCH  12  13
ATOM     13  C   UNL     1     -16.880  -4.016  -5.550  1.00  0.00    -0.000 C 
BRANCH  13  14
ATOM     14  C   UNL     1     -16.215  -5.014  -6.514  1.00  0.00    -0.000 C 
BRANCH  14  15
ATOM     15  C   UNL     1     -14.953  -4.449  -7.183  1.00  0.00    -0.000 C 
BRANCH  15  16
ATOM     16  C   UNL     1     -13.687  -5.091  -6.595  1.00  0.00    -0.000 C 
BRANCH  16  17
ATOM     17  C   UNL     1     -13.095  -4.274  -5.435  1.00  0.00    -0.003 C 
ATOM     18  C   UNL     1     -12.810  -5.124  -4.198  1.00  0.00     0.004 C 
ENDBRANCH  16  17
ENDBRANCH  15  16
ENDBRANCH  14  15
ENDBRANCH  13  14
ENDBRANCH  12  13
ENDBRANCH  11  12
ENDBRANCH   1  11
TORSDOF 14
ENDMDL
MODEL 7
REMARK VINA RESULT:    -1.815      4.071      9.123
REMARK INTER + INTRA:          -3.511
REMARK INTER:                  -2.731
REMARK INTRA:                  -0.780
REMARK UNBOUND:                -0.210
REMARK SMILES CCCCCCCCCCCCCCCC(=O)[O-]
REMARK SMILES IDX 9 1 10 2 11 3 12 4 13 5 14 6 15 7 16 8 17 9 18 10 8 11 7 12
REMARK SMILES IDX 6 13 5 14 4 15 3 16 2 17 1 18
REMARK H PARENT
REMARK Flexibility Score: inf
ROOT
ATOM      1  C   UNL     1     -16.603  -0.494  -1.898  1.00  0.00     0.000 C 
ENDROOT
BRANCH   1   2
ATOM      2  C   UNL     1     -17.123  -1.824  -1.323  1.00  0.00     0.000 C 
BRANCH   2   3
ATOM      3  C   UNL     1     -16.814  -3.071  -2.172  1.00  0.00     0.000 C 
BRANCH   3   4
ATOM      4  C   UNL     1     -16.589  -2.747  -3.657  1.00  0.00     0.000 C 
BRANCH   4   5
ATOM      5  C   UNL     1     -15.624  -3.754  -4.299  1.00  0.00     0.000 C 
BRANCH   5   6
ATOM      6  C   UNL     1     -14.995  -3.239  -5.607  1.00  0.00     0.006 C 
BRANCH   6   7
ATOM      7  C   UNL     1     -14.616  -4.354  -6.598  1.00  0.00     0.053 C 
BRANCH   7   8
ATOM      8  C   UNL     1     -15.604  -4.491  -7.716  1.00  0.00     0.041 C 
ATOM      9  O   UNL     1     -15.205  -4.567  -8.908  1.00  0.00    -0.550 OA
ATOM     10  O   UNL     1     -16.964  -4.574  -7.441  1.00  0.00    -0.550 OA
ENDBRANCH   7   8
ENDBRANCH   6   7
ENDBRANCH   5   6
ENDBRANCH   4   5
ENDBRANCH   3   4
ENDBRANCH   2   3
ENDBRANCH   1   2
BRANCH   1  11
ATOM     11  C   UNL     1     -17.125   0.734  -1.134  1.00  0.00     0.000 C 
BRANCH  11  12
ATOM     12  C   UNL     1     -16.029   1.441  -0.317  1.00  0.00    -0.000 C 
BRANCH  12  13
ATOM     13  C   UNL     1     -15.613   0.727   0.986  1.00  0.00    -0.000 C 
BRANCH  13  14
ATOM     14  C   UNL     1     -16.753   0.009   1.730  1.00  0.00    -0.000 C 
BRANCH  14  15
ATOM     15  C   UNL     1     -16.253  -0.859   2.894  1.00  0.00    -0.000 C 
BRANCH  15  16
ATOM     16  C   UNL     1     -17.032  -0.551   4.181  1.00  0.00    -0.000 C 
BRANCH  16  17
ATOM     17  C   UNL     1     -17.123   0.955   4.470  1.00  0.00    -0.003 C 
ATOM     18  C   UNL     1     -16.860   1.294   5.936  1.00  0.00     0.004 C 
ENDBRANCH  16  17
ENDBRANCH  15  16
ENDBRANCH  14  15
ENDBRANCH  13  14
ENDBRANCH  12  13
ENDBRANCH  11  12
ENDBRANCH   1  11
TORSDOF 14
ENDMDL
