MODEL 1
REMARK VINA RESULT:    -4.800      0.000      0.000
REMARK INTER + INTRA:          -6.614
REMARK INTER:                  -6.764
REMARK INTRA:                   0.150
REMARK UNBOUND:                 0.150
REMARK SMILES CC1=CCC(=C(C)C)C(=O)CC(C)=CCC1
REMARK SMILES IDX 12 1 14 2 13 3 15 4 16 5 2 6 1 7 3 8 11 10 9 11 10 12 5 13
REMARK SMILES IDX 6 14 7 15 8 16 4 17
REMARK H PARENT
REMARK Flexibility Score: 60.00
ROOT
ATOM      1  C   UNL     1     -46.733  39.881  30.284  1.00  0.00    -0.070 C 
ATOM      2  C   UNL     1     -46.127  39.567  29.113  1.00  0.00    -0.027 C 
ATOM      3  C   UNL     1     -45.968  39.637  31.559  1.00  0.00     0.039 C 
ENDROOT
BRANCH   2   4
ATOM      4  C   UNL     1     -46.729  39.764  27.744  1.00  0.00     0.032 C 
BRANCH   4   5
ATOM      5  C   UNL     1     -47.340  38.456  27.213  1.00  0.00     0.034 C 
BRANCH   5   6
ATOM      6  C   UNL     1     -48.673  38.654  26.516  1.00  0.00    -0.077 C 
ATOM      7  C   UNL     1     -48.674  39.078  25.068  1.00  0.00     0.039 C 
ATOM      8  C   UNL     1     -49.872  38.555  27.142  1.00  0.00    -0.023 CG0
ATOM      9  G   UNL     1     -50.126  38.049  28.547  1.00  0.00     0.000 G0
ENDBRANCH   5   6
ENDBRANCH   4   5
ENDBRANCH   2   4
BRANCH   1  10
ATOM     10  C   UNL     1     -48.141  40.454  30.369  1.00  0.00     0.111 C 
BRANCH  10  11
ATOM     11  C   UNL     1     -49.171  39.368  30.577  1.00  0.00     0.163 C 
ATOM     12  O   UNL     1     -49.059  38.678  31.627  1.00  0.00    -0.294 OA
BRANCH  11  13
ATOM     13  C   UNL     1     -50.305  39.088  29.625  1.00  0.00    -0.002 C 
ATOM     14  C   UNL     1     -51.487  39.778  29.707  1.00  0.00    -0.069 C 
ATOM     15  C   UNL     1     -52.605  39.554  28.709  1.00  0.00     0.039 C 
ATOM     16  C   UNL     1     -51.768  40.760  30.823  1.00  0.00     0.039 C 
BRANCH  13  17
ATOM     17  C   UNL     1     -50.123  38.022  28.546  1.00  0.00     0.066 CG0
ATOM     18  G   UNL     1     -49.866  38.571  27.158  1.00  0.00     0.000 G0
ENDBRANCH  13  17
ENDBRANCH  11  13
ENDBRANCH  10  11
ENDBRANCH   1  10
TORSDOF 0
ENDMDL
MODEL 2
REMARK VINA RESULT:    -4.766      6.797      9.036
REMARK INTER + INTRA:          -6.566
REMARK INTER:                  -6.731
REMARK INTRA:                   0.166
REMARK UNBOUND:                 0.150
REMARK SMILES CC1=CCC(=C(C)C)C(=O)CC(C)=CCC1
REMARK SMILES IDX 12 1 14 2 13 3 15 4 16 5 2 6 1 7 3 8 11 10 9 11 10 12 5 13
REMARK SMILES IDX 6 14 7 15 8 16 4 17
REMARK H PARENT
REMARK Flexibility Score: 60.00
ROOT
ATOM      1  C   UNL     1     -51.257  35.497  21.714  1.00  0.00    -0.070 C 
ATOM      2  C   UNL     1     -50.645  35.882  22.860  1.00  0.00    -0.027 C 
ATOM      3  C   UNL     1     -51.053  34.078  21.250  1.00  0.00     0.039 C 
ENDROOT
BRANCH   2   4
ATOM      4  C   UNL     1     -50.755  37.251  23.485  1.00  0.00     0.032 C 
BRANCH   4   5
ATOM      5  C   UNL     1     -51.796  37.261  24.617  1.00  0.00     0.034 C 
BRANCH   5   6
ATOM      6  C   UNL     1     -53.127  37.862  24.204  1.00  0.00    -0.077 C 
ATOM      7  C   UNL     1     -53.296  39.359  24.278  1.00  0.00     0.039 C 
ATOM      8  C   UNL     1     -54.209  37.125  23.850  1.00  0.00    -0.023 CG0
ATOM      9  G   UNL     1     -54.251  35.630  23.607  1.00  0.00     0.000 G0
ENDBRANCH   5   6
ENDBRANCH   4   5
ENDBRANCH   2   4
BRANCH   1  10
ATOM     10  C   UNL     1     -52.124  36.428  20.876  1.00  0.00     0.111 C 
BRANCH  10  11
ATOM     11  C   UNL     1     -53.595  36.197  21.132  1.00  0.00     0.163 C 
ATOM     12  O   UNL     1     -54.402  36.876  20.441  1.00  0.00    -0.294 OA
BRANCH  11  13
ATOM     13  C   UNL     1     -54.130  35.208  22.136  1.00  0.00    -0.002 C 
ATOM     14  C   UNL     1     -54.492  33.940  21.759  1.00  0.00    -0.069 C 
ATOM     15  C   UNL     1     -54.963  32.917  22.773  1.00  0.00     0.039 C 
ATOM     16  C   UNL     1     -54.496  33.503  20.310  1.00  0.00     0.039 C 
BRANCH  13  17
ATOM     17  C   UNL     1     -54.259  35.630  23.598  1.00  0.00     0.066 CG0
ATOM     18  G   UNL     1     -54.198  37.125  23.828  1.00  0.00     0.000 G0
ENDBRANCH  13  17
ENDBRANCH  11  13
ENDBRANCH  10  11
ENDBRANCH   1  10
TORSDOF 0
ENDMDL
MODEL 3
REMARK VINA RESULT:    -4.669      2.746      4.919
REMARK INTER + INTRA:          -6.430
REMARK INTER:                  -6.571
REMARK INTRA:                   0.141
REMARK UNBOUND:                 0.150
REMARK SMILES CC1=CCC(=C(C)C)C(=O)CC(C)=CCC1
REMARK SMILES IDX 12 1 14 2 13 3 15 4 16 5 2 6 1 7 3 8 11 10 9 11 10 12 5 13
REMARK SMILES IDX 6 14 7 15 8 16 4 17
REMARK H PARENT
REMARK Flexibility Score: 60.00
ROOT
ATOM      1  C   UNL     1     -46.888  40.295  28.139  1.00  0.00    -0.070 C 
ATOM      2  C   UNL     1     -48.128  39.841  27.837  1.00  0.00    -0.027 C 
ATOM      3  C   UNL     1     -46.199  41.181  27.133  1.00  0.00     0.039 C 
ENDROOT
BRANCH   2   4
ATOM      4  C   UNL     1     -48.974  38.968  28.731  1.00  0.00     0.032 C 
BRANCH   4   5
ATOM      5  C   UNL     1     -50.035  39.798  29.473  1.00  0.00     0.034 C 
BRANCH   5   6
ATOM      6  C   UNL     1     -49.651  40.123  30.904  1.00  0.00    -0.077 C 
ATOM      7  C   UNL     1     -50.009  39.137  31.989  1.00  0.00     0.039 C 
ATOM      8  C   UNL     1     -49.076  41.292  31.283  1.00  0.00    -0.023 CG0
ATOM      9  G   UNL     1     -48.537  42.376  30.374  1.00  0.00     0.000 G0
ENDBRANCH   5   6
ENDBRANCH   4   5
ENDBRANCH   2   4
BRANCH   1  10
ATOM     10  C   UNL     1     -46.162  39.948  29.432  1.00  0.00     0.111 C 
BRANCH  10  11
ATOM     11  C   UNL     1     -46.253  41.071  30.439  1.00  0.00     0.163 C 
ATOM     12  O   UNL     1     -45.642  40.903  31.529  1.00  0.00    -0.294 OA
BRANCH  11  13
ATOM     13  C   UNL     1     -47.005  42.355  30.203  1.00  0.00    -0.002 C 
ATOM     14  C   UNL     1     -46.354  43.498  29.814  1.00  0.00    -0.069 C 
ATOM     15  C   UNL     1     -47.110  44.774  29.505  1.00  0.00     0.039 C 
ATOM     16  C   UNL     1     -44.846  43.570  29.722  1.00  0.00     0.039 C 
BRANCH  13  17
ATOM     17  C   UNL     1     -48.521  42.374  30.393  1.00  0.00     0.066 CG0
ATOM     18  G   UNL     1     -49.055  41.278  31.291  1.00  0.00     0.000 G0
ENDBRANCH  13  17
ENDBRANCH  11  13
ENDBRANCH  10  11
ENDBRANCH   1  10
TORSDOF 0
ENDMDL
MODEL 4
REMARK VINA RESULT:    -4.575      5.649      8.077
REMARK INTER + INTRA:          -6.297
REMARK INTER:                  -7.129
REMARK INTRA:                   0.832
REMARK UNBOUND:                 0.150
REMARK SMILES CC1=CCC(=C(C)C)C(=O)CC(C)=CCC1
REMARK SMILES IDX 12 1 14 2 13 3 15 4 16 5 2 6 1 7 3 8 11 10 9 11 10 12 5 13
REMARK SMILES IDX 6 14 7 15 8 16 4 17
REMARK H PARENT
REMARK Flexibility Score: 60.00
ROOT
ATOM      1  C   UNL     1     -51.705  35.752  21.322  1.00  0.00    -0.070 C 
ATOM      2  C   UNL     1     -52.967  35.571  20.863  1.00  0.00    -0.027 C 
ATOM      3  C   UNL     1     -50.780  34.561  21.327  1.00  0.00     0.039 C 
ENDROOT
BRANCH   2   4
ATOM      4  C   UNL     1     -54.016  36.650  20.762  1.00  0.00     0.032 C 
BRANCH   4   5
ATOM      5  C   UNL     1     -55.096  36.474  21.842  1.00  0.00     0.034 C 
BRANCH   5   6
ATOM      6  C   UNL     1     -54.608  35.717  23.063  1.00  0.00    -0.077 C 
ATOM      7  C   UNL     1     -54.937  34.249  23.182  1.00  0.00     0.039 C 
ATOM      8  C   UNL     1     -53.960  36.301  24.103  1.00  0.00    -0.023 CG0
ATOM      9  G   UNL     1     -53.434  37.720  24.165  1.00  0.00     0.000 G0
ENDBRANCH   5   6
ENDBRANCH   4   5
ENDBRANCH   2   4
BRANCH   1  10
ATOM     10  C   UNL     1     -51.186  37.088  21.837  1.00  0.00     0.111 C 
BRANCH  10  11
ATOM     11  C   UNL     1     -51.035  37.083  23.340  1.00  0.00     0.163 C 
ATOM     12  O   UNL     1     -50.098  36.381  23.811  1.00  0.00    -0.294 OA
BRANCH  11  13
ATOM     13  C   UNL     1     -51.915  37.867  24.278  1.00  0.00    -0.002 C 
ATOM     14  C   UNL     1     -51.378  38.702  25.224  1.00  0.00    -0.069 C 
ATOM     15  C   UNL     1     -52.256  39.549  26.123  1.00  0.00     0.039 C 
ATOM     16  C   UNL     1     -49.887  38.788  25.465  1.00  0.00     0.039 C 
BRANCH  13  17
ATOM     17  C   UNL     1     -53.432  37.732  24.161  1.00  0.00     0.066 CG0
ATOM     18  G   UNL     1     -53.932  36.304  24.097  1.00  0.00     0.000 G0
ENDBRANCH  13  17
ENDBRANCH  11  13
ENDBRANCH  10  11
ENDBRANCH   1  10
TORSDOF 0
ENDMDL
MODEL 5
REMARK VINA RESULT:    -4.481      1.632      3.409
REMARK INTER + INTRA:          -6.165
REMARK INTER:                  -6.693
REMARK INTRA:                   0.527
REMARK UNBOUND:                 0.150
REMARK SMILES CC1=CCC(=C(C)C)C(=O)CC(C)=CCC1
REMARK SMILES IDX 12 1 14 2 13 3 15 4 16 5 2 6 1 7 3 8 11 10 9 11 10 12 5 13
REMARK SMILES IDX 6 14 7 15 8 16 4 17
REMARK H PARENT
REMARK Flexibility Score: 60.00
ROOT
ATOM      1  C   UNL     1     -47.047  39.850  27.339  1.00  0.00    -0.070 C 
ATOM      2  C   UNL     1     -48.019  39.482  26.470  1.00  0.00    -0.027 C 
ATOM      3  C   UNL     1     -46.465  41.233  27.200  1.00  0.00     0.039 C 
ENDROOT
BRANCH   2   4
ATOM      4  C   UNL     1     -48.729  38.151  26.475  1.00  0.00     0.032 C 
BRANCH   4   5
ATOM      5  C   UNL     1     -49.427  37.901  27.822  1.00  0.00     0.034 C 
BRANCH   5   6
ATOM      6  C   UNL     1     -50.397  39.001  28.210  1.00  0.00    -0.077 C 
ATOM      7  C   UNL     1     -51.551  39.305  27.287  1.00  0.00     0.039 C 
ATOM      8  C   UNL     1     -50.242  39.792  29.302  1.00  0.00    -0.023 CG0
ATOM      9  G   UNL     1     -49.232  39.614  30.417  1.00  0.00     0.000 G0
ENDBRANCH   5   6
ENDBRANCH   4   5
ENDBRANCH   2   4
BRANCH   1  10
ATOM     10  C   UNL     1     -46.514  38.934  28.433  1.00  0.00     0.111 C 
BRANCH  10  11
ATOM     11  C   UNL     1     -46.697  39.542  29.804  1.00  0.00     0.163 C 
ATOM     12  O   UNL     1     -45.762  39.362  30.631  1.00  0.00    -0.294 OA
BRANCH  11  13
ATOM     13  C   UNL     1     -47.904  40.345  30.215  1.00  0.00    -0.002 C 
ATOM     14  C   UNL     1     -47.826  41.703  30.392  1.00  0.00    -0.069 C 
ATOM     15  C   UNL     1     -49.050  42.528  30.735  1.00  0.00     0.039 C 
ATOM     16  C   UNL     1     -46.512  42.449  30.311  1.00  0.00     0.039 C 
BRANCH  13  17
ATOM     17  C   UNL     1     -49.236  39.629  30.426  1.00  0.00     0.066 CG0
ATOM     18  G   UNL     1     -50.228  39.800  29.295  1.00  0.00     0.000 G0
ENDBRANCH  13  17
ENDBRANCH  11  13
ENDBRANCH  10  11
ENDBRANCH   1  10
TORSDOF 0
ENDMDL
MODEL 6
REMARK VINA RESULT:    -4.479      2.582      4.853
REMARK INTER + INTRA:          -6.162
REMARK INTER:                  -6.343
REMARK INTRA:                   0.181
REMARK UNBOUND:                 0.150
REMARK SMILES CC1=CCC(=C(C)C)C(=O)CC(C)=CCC1
REMARK SMILES IDX 12 1 14 2 13 3 15 4 16 5 2 6 1 7 3 8 11 10 9 11 10 12 5 13
REMARK SMILES IDX 6 14 7 15 8 16 4 17
REMARK H PARENT
REMARK Flexibility Score: 60.00
ROOT
ATOM      1  C   UNL     1     -50.877  37.471  23.819  1.00  0.00    -0.070 C 
ATOM      2  C   UNL     1     -49.554  37.193  23.897  1.00  0.00    -0.027 C 
ATOM      3  C   UNL     1     -51.708  36.674  22.846  1.00  0.00     0.039 C 
ENDROOT
BRANCH   2   4
ATOM      4  C   UNL     1     -48.579  37.871  24.827  1.00  0.00     0.032 C 
BRANCH   4   5
ATOM      5  C   UNL     1     -48.456  37.106  26.156  1.00  0.00     0.034 C 
BRANCH   5   6
ATOM      6  C   UNL     1     -48.386  38.015  27.369  1.00  0.00    -0.077 C 
ATOM      7  C   UNL     1     -47.093  38.738  27.654  1.00  0.00     0.039 C 
ATOM      8  C   UNL     1     -49.394  38.154  28.266  1.00  0.00    -0.023 CG0
ATOM      9  G   UNL     1     -50.804  37.618  28.139  1.00  0.00     0.000 G0
ENDBRANCH   5   6
ENDBRANCH   4   5
ENDBRANCH   2   4
BRANCH   1  10
ATOM     10  C   UNL     1     -51.556  38.550  24.653  1.00  0.00     0.111 C 
BRANCH  10  11
ATOM     11  C   UNL     1     -52.133  37.983  25.929  1.00  0.00     0.163 C 
ATOM     12  O   UNL     1     -52.966  37.044  25.804  1.00  0.00    -0.294 OA
BRANCH  11  13
ATOM     13  C   UNL     1     -51.760  38.462  27.308  1.00  0.00    -0.002 C 
ATOM     14  C   UNL     1     -52.263  39.633  27.813  1.00  0.00    -0.069 C 
ATOM     15  C   UNL     1     -51.951  40.086  29.225  1.00  0.00     0.039 C 
ATOM     16  C   UNL     1     -53.114  40.567  26.980  1.00  0.00     0.039 C 
BRANCH  13  17
ATOM     17  C   UNL     1     -50.810  37.618  28.156  1.00  0.00     0.066 CG0
ATOM     18  G   UNL     1     -49.402  38.165  28.255  1.00  0.00     0.000 G0
ENDBRANCH  13  17
ENDBRANCH  11  13
ENDBRANCH  10  11
ENDBRANCH   1  10
TORSDOF 0
ENDMDL
MODEL 7
REMARK VINA RESULT:    -4.453      1.596      3.734
REMARK INTER + INTRA:          -6.125
REMARK INTER:                  -6.265
REMARK INTRA:                   0.140
REMARK UNBOUND:                 0.150
REMARK SMILES CC1=CCC(=C(C)C)C(=O)CC(C)=CCC1
REMARK SMILES IDX 12 1 14 2 13 3 15 4 16 5 2 6 1 7 3 8 11 10 9 11 10 12 5 13
REMARK SMILES IDX 6 14 7 15 8 16 4 17
REMARK H PARENT
REMARK Flexibility Score: 60.00
ROOT
ATOM      1  C   UNL     1     -47.874  39.232  26.992  1.00  0.00    -0.070 C 
ATOM      2  C   UNL     1     -47.058  40.270  27.297  1.00  0.00    -0.027 C 
ATOM      3  C   UNL     1     -48.730  39.349  25.758  1.00  0.00     0.039 C 
ENDROOT
BRANCH   2   4
ATOM      4  C   UNL     1     -46.118  40.318  28.476  1.00  0.00     0.032 C 
BRANCH   4   5
ATOM      5  C   UNL     1     -46.553  41.390  29.489  1.00  0.00     0.034 C 
BRANCH   5   6
ATOM      6  C   UNL     1     -47.171  40.811  30.748  1.00  0.00    -0.077 C 
ATOM      7  C   UNL     1     -46.295  40.622  31.961  1.00  0.00     0.039 C 
ATOM      8  C   UNL     1     -48.453  40.371  30.824  1.00  0.00    -0.023 CG0
ATOM      9  G   UNL     1     -49.538  40.548  29.783  1.00  0.00     0.000 G0
ENDBRANCH   5   6
ENDBRANCH   4   5
ENDBRANCH   2   4
BRANCH   1  10
ATOM     10  C   UNL     1     -47.971  37.969  27.838  1.00  0.00     0.111 C 
BRANCH  10  11
ATOM     11  C   UNL     1     -48.953  38.136  28.974  1.00  0.00     0.163 C 
ATOM     12  O   UNL     1     -48.902  37.277  29.896  1.00  0.00    -0.294 OA
BRANCH  11  13
ATOM     13  C   UNL     1     -49.953  39.259  29.065  1.00  0.00    -0.002 C 
ATOM     14  C   UNL     1     -51.206  39.140  28.521  1.00  0.00    -0.069 C 
ATOM     15  C   UNL     1     -52.242  40.236  28.669  1.00  0.00     0.039 C 
ATOM     16  C   UNL     1     -51.612  37.937  27.697  1.00  0.00     0.039 C 
BRANCH  13  17
ATOM     17  C   UNL     1     -49.560  40.548  29.785  1.00  0.00     0.066 CG0
ATOM     18  G   UNL     1     -48.471  40.379  30.825  1.00  0.00     0.000 G0
ENDBRANCH  13  17
ENDBRANCH  11  13
ENDBRANCH  10  11
ENDBRANCH   1  10
TORSDOF 0
ENDMDL
MODEL 8
REMARK VINA RESULT:    -4.420      1.813      3.742
REMARK INTER + INTRA:          -6.079
REMARK INTER:                  -6.713
REMARK INTRA:                   0.634
REMARK UNBOUND:                 0.150
REMARK SMILES CC1=CCC(=C(C)C)C(=O)CC(C)=CCC1
REMARK SMILES IDX 12 1 14 2 13 3 15 4 16 5 2 6 1 7 3 8 11 10 9 11 10 12 5 13
REMARK SMILES IDX 6 14 7 15 8 16 4 17
REMARK H PARENT
REMARK Flexibility Score: 60.00
ROOT
ATOM      1  C   UNL     1     -46.600  39.976  28.131  1.00  0.00    -0.070 C 
ATOM      2  C   UNL     1     -46.353  40.618  29.298  1.00  0.00    -0.027 C 
ATOM      3  C   UNL     1     -46.808  40.815  26.896  1.00  0.00     0.039 C 
ENDROOT
BRANCH   2   4
ATOM      4  C   UNL     1     -46.099  39.943  30.622  1.00  0.00     0.032 C 
BRANCH   4   5
ATOM      5  C   UNL     1     -47.401  39.792  31.427  1.00  0.00     0.034 C 
BRANCH   5   6
ATOM      6  C   UNL     1     -48.556  40.591  30.855  1.00  0.00    -0.077 C 
ATOM      7  C   UNL     1     -48.678  42.049  31.224  1.00  0.00     0.039 C 
ATOM      8  C   UNL     1     -49.542  40.052  30.094  1.00  0.00    -0.023 CG0
ATOM      9  G   UNL     1     -49.581  38.653  29.515  1.00  0.00     0.000 G0
ENDBRANCH   5   6
ENDBRANCH   4   5
ENDBRANCH   2   4
BRANCH   1  10
ATOM     10  C   UNL     1     -46.686  38.460  28.012  1.00  0.00     0.111 C 
BRANCH  10  11
ATOM     11  C   UNL     1     -48.039  38.018  27.506  1.00  0.00     0.163 C 
ATOM     12  O   UNL     1     -48.045  37.120  26.621  1.00  0.00    -0.294 OA
BRANCH  11  13
ATOM     13  C   UNL     1     -49.348  38.573  28.007  1.00  0.00    -0.002 C 
ATOM     14  C   UNL     1     -50.316  39.003  27.136  1.00  0.00    -0.069 C 
ATOM     15  C   UNL     1     -51.662  39.495  27.628  1.00  0.00     0.039 C 
ATOM     16  C   UNL     1     -50.082  39.065  25.642  1.00  0.00     0.039 C 
BRANCH  13  17
ATOM     17  C   UNL     1     -49.597  38.644  29.512  1.00  0.00     0.066 CG0
ATOM     18  G   UNL     1     -49.542  40.042  30.092  1.00  0.00     0.000 G0
ENDBRANCH  13  17
ENDBRANCH  11  13
ENDBRANCH  10  11
ENDBRANCH   1  10
TORSDOF 0
ENDMDL
MODEL 9
REMARK VINA RESULT:    -4.320      1.912      4.709
REMARK INTER + INTRA:          -5.938
REMARK INTER:                  -6.199
REMARK INTRA:                   0.261
REMARK UNBOUND:                 0.150
REMARK SMILES CC1=CCC(=C(C)C)C(=O)CC(C)=CCC1
REMARK SMILES IDX 12 1 14 2 13 3 15 4 16 5 2 6 1 7 3 8 11 10 9 11 10 12 5 13
REMARK SMILES IDX 6 14 7 15 8 16 4 17
REMARK H PARENT
REMARK Flexibility Score: 60.00
ROOT
ATOM      1  C   UNL     1     -49.619  38.142  25.073  1.00  0.00    -0.070 C 
ATOM      2  C   UNL     1     -50.949  38.386  25.169  1.00  0.00    -0.027 C 
ATOM      3  C   UNL     1     -49.179  36.963  24.243  1.00  0.00     0.039 C 
ENDROOT
BRANCH   2   4
ATOM      4  C   UNL     1     -51.568  39.530  25.933  1.00  0.00     0.032 C 
BRANCH   4   5
ATOM      5  C   UNL     1     -52.550  39.016  27.000  1.00  0.00     0.034 C 
BRANCH   5   6
ATOM      6  C   UNL     1     -51.934  38.003  27.946  1.00  0.00    -0.077 C 
ATOM      7  C   UNL     1     -52.537  36.622  28.017  1.00  0.00     0.039 C 
ATOM      8  C   UNL     1     -50.919  38.290  28.800  1.00  0.00    -0.023 CG0
ATOM      9  G   UNL     1     -50.094  39.559  28.838  1.00  0.00     0.000 G0
ENDBRANCH   5   6
ENDBRANCH   4   5
ENDBRANCH   2   4
BRANCH   1  10
ATOM     10  C   UNL     1     -48.562  38.989  25.768  1.00  0.00     0.111 C 
BRANCH  10  11
ATOM     11  C   UNL     1     -48.340  38.542  27.194  1.00  0.00     0.163 C 
ATOM     12  O   UNL     1     -47.862  37.386  27.355  1.00  0.00    -0.294 OA
BRANCH  11  13
ATOM     13  C   UNL     1     -48.640  39.394  28.400  1.00  0.00    -0.002 C 
ATOM     14  C   UNL     1     -47.637  40.024  29.091  1.00  0.00    -0.069 C 
ATOM     15  C   UNL     1     -47.935  40.940  30.260  1.00  0.00     0.039 C 
ATOM     16  C   UNL     1     -46.176  39.804  28.764  1.00  0.00     0.039 C 
BRANCH  13  17
ATOM     17  C   UNL     1     -50.090  39.561  28.850  1.00  0.00     0.066 CG0
ATOM     18  G   UNL     1     -50.915  38.292  28.794  1.00  0.00     0.000 G0
ENDBRANCH  13  17
ENDBRANCH  11  13
ENDBRANCH  10  11
ENDBRANCH   1  10
TORSDOF 0
ENDMDL
