MODEL 1
REMARK VINA RESULT:    -2.227      0.000      0.000
REMARK INTER + INTRA:          -2.227
REMARK INTER:                  -2.227
REMARK INTRA:                   0.000
REMARK UNBOUND:                 0.000
REMARK SMILES CC(=O)[O-]
REMARK SMILES IDX 1 1 2 2 3 3 4 4
REMARK H PARENT
REMARK Flexibility Score: inf
ROOT
ATOM      1  C   UNL     1      19.456  22.244  48.729  1.00  0.00     0.063 C 
ATOM      2  C   UNL     1      20.319  23.460  48.751  1.00  0.00     0.038 C 
ATOM      3  O   UNL     1      21.382  23.492  48.078  1.00  0.00    -0.550 OA
ATOM      4  O   UNL     1      19.979  24.541  49.555  1.00  0.00    -0.550 OA
ENDROOT
TORSDOF 0
ENDMDL
MODEL 2
REMARK VINA RESULT:    -2.198     12.950     13.157
REMARK INTER + INTRA:          -2.198
REMARK INTER:                  -2.198
REMARK INTRA:                   0.000
REMARK UNBOUND:                 0.000
REMARK SMILES CC(=O)[O-]
REMARK SMILES IDX 1 1 2 2 3 3 4 4
REMARK H PARENT
REMARK Flexibility Score: inf
ROOT
ATOM      1  C   UNL     1      25.073  20.888  37.528  1.00  0.00     0.063 C 
ATOM      2  C   UNL     1      24.887  22.024  36.580  1.00  0.00     0.038 C 
ATOM      3  O   UNL     1      25.726  22.962  36.547  1.00  0.00    -0.550 OA
ATOM      4  O   UNL     1      23.762  22.076  35.768  1.00  0.00    -0.550 OA
ENDROOT
TORSDOF 0
ENDMDL
MODEL 3
REMARK VINA RESULT:    -2.173      1.831      2.469
REMARK INTER + INTRA:          -2.173
REMARK INTER:                  -2.173
REMARK INTRA:                   0.000
REMARK UNBOUND:                 0.000
REMARK SMILES CC(=O)[O-]
REMARK SMILES IDX 1 1 2 2 3 3 4 4
REMARK H PARENT
REMARK Flexibility Score: inf
ROOT
ATOM      1  C   UNL     1      20.256  23.786  49.078  1.00  0.00     0.063 C 
ATOM      2  C   UNL     1      19.905  22.549  48.324  1.00  0.00     0.038 C 
ATOM      3  O   UNL     1      19.194  21.661  48.864  1.00  0.00    -0.550 OA
ATOM      4  O   UNL     1      20.402  22.348  47.043  1.00  0.00    -0.550 OA
ENDROOT
TORSDOF 0
ENDMDL
MODEL 4
REMARK VINA RESULT:    -2.168     17.342     17.930
REMARK INTER + INTRA:          -2.168
REMARK INTER:                  -2.168
REMARK INTRA:                   0.000
REMARK UNBOUND:                 0.000
REMARK SMILES CC(=O)[O-]
REMARK SMILES IDX 1 1 2 2 3 3 4 4
REMARK H PARENT
REMARK Flexibility Score: inf
ROOT
ATOM      1  C   UNL     1      22.869  11.116  35.295  1.00  0.00     0.063 C 
ATOM      2  C   UNL     1      22.445  12.461  34.812  1.00  0.00     0.038 C 
ATOM      3  O   UNL     1      21.741  12.566  33.773  1.00  0.00    -0.550 OA
ATOM      4  O   UNL     1      22.867  13.606  35.476  1.00  0.00    -0.550 OA
ENDROOT
TORSDOF 0
ENDMDL
MODEL 5
REMARK VINA RESULT:    -2.136     13.247     13.517
REMARK INTER + INTRA:          -2.136
REMARK INTER:                  -2.136
REMARK INTRA:                   0.000
REMARK UNBOUND:                 0.000
REMARK SMILES CC(=O)[O-]
REMARK SMILES IDX 1 1 2 2 3 3 4 4
REMARK H PARENT
REMARK Flexibility Score: inf
ROOT
ATOM      1  C   UNL     1       9.729  21.500  40.591  1.00  0.00     0.063 C 
ATOM      2  C   UNL     1       9.310  22.833  41.113  1.00  0.00     0.038 C 
ATOM      3  O   UNL     1       9.023  22.972  42.331  1.00  0.00    -0.550 OA
ATOM      4  O   UNL     1       9.186  23.912  40.248  1.00  0.00    -0.550 OA
ENDROOT
TORSDOF 0
ENDMDL
MODEL 6
REMARK VINA RESULT:    -2.125     17.364     18.044
REMARK INTER + INTRA:          -2.125
REMARK INTER:                  -2.125
REMARK INTRA:                   0.000
REMARK UNBOUND:                 0.000
REMARK SMILES CC(=O)[O-]
REMARK SMILES IDX 1 1 2 2 3 3 4 4
REMARK H PARENT
REMARK Flexibility Score: inf
ROOT
ATOM      1  C   UNL     1      22.264  12.565  34.404  1.00  0.00     0.063 C 
ATOM      2  C   UNL     1      22.796  11.708  35.502  1.00  0.00     0.038 C 
ATOM      3  O   UNL     1      23.004  12.200  36.642  1.00  0.00    -0.550 OA
ATOM      4  O   UNL     1      23.112  10.378  35.257  1.00  0.00    -0.550 OA
ENDROOT
TORSDOF 0
ENDMDL
MODEL 7
REMARK VINA RESULT:    -2.109     16.417     16.517
REMARK INTER + INTRA:          -2.109
REMARK INTER:                  -2.109
REMARK INTRA:                   0.000
REMARK UNBOUND:                 0.000
REMARK SMILES CC(=O)[O-]
REMARK SMILES IDX 1 1 2 2 3 3 4 4
REMARK H PARENT
REMARK Flexibility Score: inf
ROOT
ATOM      1  C   UNL     1      19.849  23.302  32.408  1.00  0.00     0.063 C 
ATOM      2  C   UNL     1      19.048  22.050  32.520  1.00  0.00     0.038 C 
ATOM      3  O   UNL     1      17.798  22.110  32.658  1.00  0.00    -0.550 OA
ATOM      4  O   UNL     1      19.683  20.815  32.525  1.00  0.00    -0.550 OA
ENDROOT
TORSDOF 0
ENDMDL
MODEL 8
REMARK VINA RESULT:    -2.106     12.846     13.066
REMARK INTER + INTRA:          -2.106
REMARK INTER:                  -2.106
REMARK INTRA:                   0.000
REMARK UNBOUND:                 0.000
REMARK SMILES CC(=O)[O-]
REMARK SMILES IDX 1 1 2 2 3 3 4 4
REMARK H PARENT
REMARK Flexibility Score: inf
ROOT
ATOM      1  C   UNL     1       9.024  22.992  41.217  1.00  0.00     0.063 C 
ATOM      2  C   UNL     1       9.991  21.857  41.194  1.00  0.00     0.038 C 
ATOM      3  O   UNL     1      11.069  21.934  41.839  1.00  0.00    -0.550 OA
ATOM      4  O   UNL     1       9.728  20.734  40.421  1.00  0.00    -0.550 OA
ENDROOT
TORSDOF 0
ENDMDL
