MODEL 1
REMARK VINA RESULT:    -3.435      0.000      0.000
REMARK INTER + INTRA:          -5.206
REMARK INTER:                  -4.640
REMARK INTRA:                  -0.565
REMARK UNBOUND:                -0.565
REMARK SMILES [NH3+]CCCC[C@H]([NH3+])C(=O)[O-]
REMARK SMILES IDX 4 1 3 2 2 3 1 4 5 8 6 9 7 10 8 14 9 15 10 16
REMARK H PARENT 1 5 1 6 1 7 7 11 7 12 7 13
REMARK Flexibility Score: inf
ROOT
ATOM      1  C   UNL     1      -0.337  -3.108   7.172  1.00  0.00     0.012 C 
ENDROOT
BRANCH   1   2
ATOM      2  C   UNL     1      -0.223  -4.406   6.360  1.00  0.00     0.061 C 
BRANCH   2   3
ATOM      3  C   UNL     1      -0.932  -5.592   7.037  1.00  0.00     0.258 C 
BRANCH   3   4
ATOM      4  N   UNL     1      -2.225  -5.890   6.417  1.00  0.00    -0.358 N 
ATOM      5  H   UNL     1      -2.573  -5.060   5.886  1.00  0.00     0.344 HD
ATOM      6  H   UNL     1      -2.922  -6.168   7.145  1.00  0.00     0.344 HD
ATOM      7  H   UNL     1      -2.105  -6.683   5.747  1.00  0.00     0.344 HD
ENDBRANCH   3   4
ENDBRANCH   2   3
ENDBRANCH   1   2
BRANCH   1   8
ATOM      8  C   UNL     1      -1.191  -2.069   6.429  1.00  0.00     0.072 C 
BRANCH   8   9
ATOM      9  C   UNL     1      -2.621  -1.953   7.002  1.00  0.00     0.227 C 
BRANCH   9  10
ATOM     10  N   UNL     1      -2.741  -2.621   8.305  1.00  0.00    -0.350 N 
ATOM     11  H   UNL     1      -3.550  -2.222   8.836  1.00  0.00     0.345 HD
ATOM     12  H   UNL     1      -2.889  -3.650   8.182  1.00  0.00     0.345 HD
ATOM     13  H   UNL     1      -1.881  -2.458   8.874  1.00  0.00     0.345 HD
ENDBRANCH   9  10
BRANCH   9  14
ATOM     14  C   UNL     1      -3.601  -2.547   6.025  1.00  0.00     0.099 C 
ATOM     15  O   UNL     1      -3.845  -1.961   4.937  1.00  0.00    -0.544 OA
ATOM     16  O   UNL     1      -4.228  -3.755   6.309  1.00  0.00    -0.544 OA
ENDBRANCH   9  14
ENDBRANCH   8   9
ENDBRANCH   1   8
TORSDOF 7
ENDMDL
MODEL 2
REMARK VINA RESULT:    -3.417      2.087      3.547
REMARK INTER + INTRA:          -5.180
REMARK INTER:                  -4.789
REMARK INTRA:                  -0.391
REMARK UNBOUND:                -0.565
REMARK SMILES [NH3+]CCCC[C@H]([NH3+])C(=O)[O-]
REMARK SMILES IDX 4 1 3 2 2 3 1 4 5 8 6 9 7 10 8 14 9 15 10 16
REMARK H PARENT 1 5 1 6 1 7 7 11 7 12 7 13
REMARK Flexibility Score: inf
ROOT
ATOM      1  C   UNL     1      -1.661  -1.911   7.156  1.00  0.00     0.012 C 
ENDROOT
BRANCH   1   2
ATOM      2  C   UNL     1      -2.538  -1.250   6.082  1.00  0.00     0.061 C 
BRANCH   2   3
ATOM      3  C   UNL     1      -3.859  -2.002   5.851  1.00  0.00     0.258 C 
BRANCH   3   4
ATOM      4  N   UNL     1      -4.194  -2.887   6.969  1.00  0.00    -0.358 N 
ATOM      5  H   UNL     1      -4.981  -3.522   6.708  1.00  0.00     0.344 HD
ATOM      6  H   UNL     1      -4.452  -2.325   7.813  1.00  0.00     0.344 HD
ATOM      7  H   UNL     1      -3.359  -3.473   7.199  1.00  0.00     0.344 HD
ENDBRANCH   3   4
ENDBRANCH   2   3
ENDBRANCH   1   2
BRANCH   1   8
ATOM      8  C   UNL     1      -0.622  -2.845   6.517  1.00  0.00     0.072 C 
BRANCH   8   9
ATOM      9  C   UNL     1      -0.444  -4.164   7.302  1.00  0.00     0.227 C 
BRANCH   9  10
ATOM     10  N   UNL     1       0.945  -4.639   7.262  1.00  0.00    -0.350 N 
ATOM     11  H   UNL     1       1.139  -5.245   8.093  1.00  0.00     0.345 HD
ATOM     12  H   UNL     1       1.125  -5.190   6.390  1.00  0.00     0.345 HD
ATOM     13  H   UNL     1       1.604  -3.829   7.303  1.00  0.00     0.345 HD
ENDBRANCH   9  10
BRANCH   9  14
ATOM     14  C   UNL     1      -1.364  -5.213   6.734  1.00  0.00     0.099 C 
ATOM     15  O   UNL     1      -2.130  -4.931   5.775  1.00  0.00    -0.544 OA
ATOM     16  O   UNL     1      -1.360  -6.503   7.252  1.00  0.00    -0.544 OA
ENDBRANCH   9  14
ENDBRANCH   8   9
ENDBRANCH   1   8
TORSDOF 7
ENDMDL
MODEL 3
REMARK VINA RESULT:    -3.399      1.186      1.268
REMARK INTER + INTRA:          -5.156
REMARK INTER:                  -4.619
REMARK INTRA:                  -0.538
REMARK UNBOUND:                -0.565
REMARK SMILES [NH3+]CCCC[C@H]([NH3+])C(=O)[O-]
REMARK SMILES IDX 4 1 3 2 2 3 1 4 5 8 6 9 7 10 8 14 9 15 10 16
REMARK H PARENT 1 5 1 6 1 7 7 11 7 12 7 13
REMARK Flexibility Score: inf
ROOT
ATOM      1  C   UNL     1      -0.634  -3.763   7.274  1.00  0.00     0.012 C 
ENDROOT
BRANCH   1   2
ATOM      2  C   UNL     1      -0.937  -4.931   6.324  1.00  0.00     0.061 C 
BRANCH   2   3
ATOM      3  C   UNL     1      -2.405  -5.383   6.391  1.00  0.00     0.258 C 
BRANCH   3   4
ATOM      4  N   UNL     1      -3.192  -4.869   5.268  1.00  0.00    -0.358 N 
ATOM      5  H   UNL     1      -3.255  -3.827   5.314  1.00  0.00     0.344 HD
ATOM      6  H   UNL     1      -4.152  -5.286   5.274  1.00  0.00     0.344 HD
ATOM      7  H   UNL     1      -2.719  -5.132   4.374  1.00  0.00     0.344 HD
ENDBRANCH   3   4
ENDBRANCH   2   3
ENDBRANCH   1   2
BRANCH   1   8
ATOM      8  C   UNL     1      -0.778  -2.415   6.551  1.00  0.00     0.072 C 
BRANCH   8   9
ATOM      9  C   UNL     1      -1.979  -1.589   7.064  1.00  0.00     0.227 C 
BRANCH   9  10
ATOM     10  N   UNL     1      -2.632  -2.232   8.211  1.00  0.00    -0.350 N 
ATOM     11  H   UNL     1      -1.987  -2.936   8.640  1.00  0.00     0.345 HD
ATOM     12  H   UNL     1      -2.892  -1.523   8.937  1.00  0.00     0.345 HD
ATOM     13  H   UNL     1      -3.489  -2.740   7.899  1.00  0.00     0.345 HD
ENDBRANCH   9  10
BRANCH   9  14
ATOM     14  C   UNL     1      -2.970  -1.398   5.946  1.00  0.00     0.099 C 
ATOM     15  O   UNL     1      -2.678  -0.677   4.956  1.00  0.00    -0.544 OA
ATOM     16  O   UNL     1      -4.206  -2.034   5.990  1.00  0.00    -0.544 OA
ENDBRANCH   9  14
ENDBRANCH   8   9
ENDBRANCH   1   8
TORSDOF 7
ENDMDL
MODEL 4
REMARK VINA RESULT:    -3.360      1.852      1.921
REMARK INTER + INTRA:          -5.104
REMARK INTER:                  -4.973
REMARK INTRA:                  -0.131
REMARK UNBOUND:                -0.565
REMARK SMILES [NH3+]CCCC[C@H]([NH3+])C(=O)[O-]
REMARK SMILES IDX 4 1 3 2 2 3 1 4 5 8 6 9 7 10 8 14 9 15 10 16
REMARK H PARENT 1 5 1 6 1 7 7 11 7 12 7 13
REMARK Flexibility Score: inf
ROOT
ATOM      1  C   UNL     1      -0.009  -2.994   6.375  1.00  0.00     0.012 C 
ENDROOT
BRANCH   1   2
ATOM      2  C   UNL     1       0.930  -4.189   6.154  1.00  0.00     0.061 C 
BRANCH   2   3
ATOM      3  C   UNL     1       1.019  -5.108   7.383  1.00  0.00     0.258 C 
BRANCH   3   4
ATOM      4  N   UNL     1       2.380  -5.598   7.610  1.00  0.00    -0.358 N 
ATOM      5  H   UNL     1       2.969  -5.441   6.761  1.00  0.00     0.344 HD
ATOM      6  H   UNL     1       2.366  -6.615   7.853  1.00  0.00     0.344 HD
ATOM      7  H   UNL     1       2.802  -5.069   8.407  1.00  0.00     0.344 HD
ENDBRANCH   3   4
ENDBRANCH   2   3
ENDBRANCH   1   2
BRANCH   1   8
ATOM      8  C   UNL     1      -1.280  -3.426   7.122  1.00  0.00     0.072 C 
BRANCH   8   9
ATOM      9  C   UNL     1      -2.238  -2.246   7.399  1.00  0.00     0.227 C 
BRANCH   9  10
ATOM     10  N   UNL     1      -3.169  -2.547   8.494  1.00  0.00    -0.350 N 
ATOM     11  H   UNL     1      -3.224  -3.581   8.641  1.00  0.00     0.345 HD
ATOM     12  H   UNL     1      -2.856  -2.093   9.384  1.00  0.00     0.345 HD
ATOM     13  H   UNL     1      -4.129  -2.212   8.253  1.00  0.00     0.345 HD
ENDBRANCH   9  10
BRANCH   9  14
ATOM     14  C   UNL     1      -3.005  -1.919   6.144  1.00  0.00     0.099 C 
ATOM     15  O   UNL     1      -2.822  -0.821   5.557  1.00  0.00    -0.544 OA
ATOM     16  O   UNL     1      -3.907  -2.836   5.616  1.00  0.00    -0.544 OA
ENDBRANCH   9  14
ENDBRANCH   8   9
ENDBRANCH   1   8
TORSDOF 7
ENDMDL
MODEL 5
REMARK VINA RESULT:    -3.309      1.328      1.647
REMARK INTER + INTRA:          -5.035
REMARK INTER:                  -4.489
REMARK INTRA:                  -0.546
REMARK UNBOUND:                -0.565
REMARK SMILES [NH3+]CCCC[C@H]([NH3+])C(=O)[O-]
REMARK SMILES IDX 4 1 3 2 2 3 1 4 5 8 6 9 7 10 8 14 9 15 10 16
REMARK H PARENT 1 5 1 6 1 7 7 11 7 12 7 13
REMARK Flexibility Score: inf
ROOT
ATOM      1  C   UNL     1      -0.930  -2.224   7.098  1.00  0.00     0.012 C 
ENDROOT
BRANCH   1   2
ATOM      2  C   UNL     1      -0.008  -3.196   6.346  1.00  0.00     0.061 C 
BRANCH   2   3
ATOM      3  C   UNL     1       0.268  -4.484   7.140  1.00  0.00     0.258 C 
BRANCH   3   4
ATOM      4  N   UNL     1      -0.775  -5.492   6.936  1.00  0.00    -0.358 N 
ATOM      5  H   UNL     1      -0.510  -6.137   6.158  1.00  0.00     0.344 HD
ATOM      6  H   UNL     1      -1.690  -5.032   6.724  1.00  0.00     0.344 HD
ATOM      7  H   UNL     1      -0.877  -6.055   7.811  1.00  0.00     0.344 HD
ENDBRANCH   3   4
ENDBRANCH   2   3
ENDBRANCH   1   2
BRANCH   1   8
ATOM      8  C   UNL     1      -2.263  -2.047   6.355  1.00  0.00     0.072 C 
BRANCH   8   9
ATOM      9  C   UNL     1      -3.465  -2.610   7.145  1.00  0.00     0.227 C 
BRANCH   9  10
ATOM     10  N   UNL     1      -3.143  -2.797   8.566  1.00  0.00    -0.350 N 
ATOM     11  H   UNL     1      -3.535  -2.004   9.127  1.00  0.00     0.345 HD
ATOM     12  H   UNL     1      -3.542  -3.696   8.923  1.00  0.00     0.345 HD
ATOM     13  H   UNL     1      -2.108  -2.797   8.704  1.00  0.00     0.345 HD
ENDBRANCH   9  10
BRANCH   9  14
ATOM     14  C   UNL     1      -3.894  -3.920   6.538  1.00  0.00     0.099 C 
ATOM     15  O   UNL     1      -4.847  -4.571   7.043  1.00  0.00    -0.544 OA
ATOM     16  O   UNL     1      -3.256  -4.409   5.404  1.00  0.00    -0.544 OA
ENDBRANCH   9  14
ENDBRANCH   8   9
ENDBRANCH   1   8
TORSDOF 7
ENDMDL
MODEL 6
REMARK VINA RESULT:    -3.256      2.142      2.414
REMARK INTER + INTRA:          -4.963
REMARK INTER:                  -4.802
REMARK INTRA:                  -0.161
REMARK UNBOUND:                -0.565
REMARK SMILES [NH3+]CCCC[C@H]([NH3+])C(=O)[O-]
REMARK SMILES IDX 4 1 3 2 2 3 1 4 5 8 6 9 7 10 8 14 9 15 10 16
REMARK H PARENT 1 5 1 6 1 7 7 11 7 12 7 13
REMARK Flexibility Score: inf
ROOT
ATOM      1  C   UNL     1      -0.704  -2.384   6.744  1.00  0.00     0.012 C 
ENDROOT
BRANCH   1   2
ATOM      2  C   UNL     1      -0.704  -3.901   6.985  1.00  0.00     0.061 C 
BRANCH   2   3
ATOM      3  C   UNL     1       0.570  -4.584   6.461  1.00  0.00     0.258 C 
BRANCH   3   4
ATOM      4  N   UNL     1       1.382  -5.143   7.544  1.00  0.00    -0.358 N 
ATOM      5  H   UNL     1       1.297  -6.185   7.561  1.00  0.00     0.344 HD
ATOM      6  H   UNL     1       1.086  -4.745   8.464  1.00  0.00     0.344 HD
ATOM      7  H   UNL     1       2.384  -4.897   7.378  1.00  0.00     0.344 HD
ENDBRANCH   3   4
ENDBRANCH   2   3
ENDBRANCH   1   2
BRANCH   1   8
ATOM      8  C   UNL     1      -2.031  -1.756   7.196  1.00  0.00     0.072 C 
BRANCH   8   9
ATOM      9  C   UNL     1      -3.258  -2.606   6.799  1.00  0.00     0.227 C 
BRANCH   9  10
ATOM     10  N   UNL     1      -4.064  -1.948   5.762  1.00  0.00    -0.350 N 
ATOM     11  H   UNL     1      -4.596  -1.148   6.178  1.00  0.00     0.345 HD
ATOM     12  H   UNL     1      -3.454  -1.587   4.991  1.00  0.00     0.345 HD
ATOM     13  H   UNL     1      -4.761  -2.618   5.368  1.00  0.00     0.345 HD
ENDBRANCH   9  10
BRANCH   9  14
ATOM     14  C   UNL     1      -4.102  -2.866   8.019  1.00  0.00     0.099 C 
ATOM     15  O   UNL     1      -5.302  -3.230   7.894  1.00  0.00    -0.544 OA
ATOM     16  O   UNL     1      -3.558  -2.727   9.291  1.00  0.00    -0.544 OA
ENDBRANCH   9  14
ENDBRANCH   8   9
ENDBRANCH   1   8
TORSDOF 7
ENDMDL
MODEL 7
REMARK VINA RESULT:    -3.247      1.929      2.559
REMARK INTER + INTRA:          -4.951
REMARK INTER:                  -4.555
REMARK INTRA:                  -0.395
REMARK UNBOUND:                -0.565
REMARK SMILES [NH3+]CCCC[C@H]([NH3+])C(=O)[O-]
REMARK SMILES IDX 4 1 3 2 2 3 1 4 5 8 6 9 7 10 8 14 9 15 10 16
REMARK H PARENT 1 5 1 6 1 7 7 11 7 12 7 13
REMARK Flexibility Score: inf
ROOT
ATOM      1  C   UNL     1      -2.523  -5.195   5.891  1.00  0.00     0.012 C 
ENDROOT
BRANCH   1   2
ATOM      2  C   UNL     1      -1.639  -5.121   7.145  1.00  0.00     0.061 C 
BRANCH   2   3
ATOM      3  C   UNL     1      -0.166  -4.827   6.815  1.00  0.00     0.258 C 
BRANCH   3   4
ATOM      4  N   UNL     1       0.257  -3.512   7.302  1.00  0.00    -0.358 N 
ATOM      5  H   UNL     1       0.221  -2.809   6.530  1.00  0.00     0.344 HD
ATOM      6  H   UNL     1       1.225  -3.563   7.695  1.00  0.00     0.344 HD
ATOM      7  H   UNL     1      -0.396  -3.205   8.058  1.00  0.00     0.344 HD
ENDBRANCH   3   4
ENDBRANCH   2   3
ENDBRANCH   1   2
BRANCH   1   8
ATOM      8  C   UNL     1      -3.340  -3.905   5.719  1.00  0.00     0.072 C 
BRANCH   8   9
ATOM      9  C   UNL     1      -3.350  -3.031   6.993  1.00  0.00     0.227 C 
BRANCH   9  10
ATOM     10  N   UNL     1      -4.715  -2.790   7.477  1.00  0.00    -0.350 N 
ATOM     11  H   UNL     1      -5.264  -2.272   6.751  1.00  0.00     0.345 HD
ATOM     12  H   UNL     1      -5.199  -3.694   7.690  1.00  0.00     0.345 HD
ATOM     13  H   UNL     1      -4.693  -2.197   8.336  1.00  0.00     0.345 HD
ENDBRANCH   9  10
BRANCH   9  14
ATOM     14  C   UNL     1      -2.665  -1.720   6.706  1.00  0.00     0.099 C 
ATOM     15  O   UNL     1      -1.904  -1.202   7.565  1.00  0.00    -0.544 OA
ATOM     16  O   UNL     1      -2.854  -1.084   5.484  1.00  0.00    -0.544 OA
ENDBRANCH   9  14
ENDBRANCH   8   9
ENDBRANCH   1   8
TORSDOF 7
ENDMDL
MODEL 8
REMARK VINA RESULT:    -3.182      1.383      3.203
REMARK INTER + INTRA:          -4.864
REMARK INTER:                  -4.379
REMARK INTRA:                  -0.485
REMARK UNBOUND:                -0.565
REMARK SMILES [NH3+]CCCC[C@H]([NH3+])C(=O)[O-]
REMARK SMILES IDX 4 1 3 2 2 3 1 4 5 8 6 9 7 10 8 14 9 15 10 16
REMARK H PARENT 1 5 1 6 1 7 7 11 7 12 7 13
REMARK Flexibility Score: inf
ROOT
ATOM      1  C   UNL     1      -0.547  -3.398   7.188  1.00  0.00     0.012 C 
ENDROOT
BRANCH   1   2
ATOM      2  C   UNL     1      -1.142  -2.193   6.445  1.00  0.00     0.061 C 
BRANCH   2   3
ATOM      3  C   UNL     1      -2.222  -1.466   7.263  1.00  0.00     0.258 C 
BRANCH   3   4
ATOM      4  N   UNL     1      -2.750  -2.301   8.344  1.00  0.00    -0.358 N 
ATOM      5  H   UNL     1      -2.432  -1.939   9.272  1.00  0.00     0.344 HD
ATOM      6  H   UNL     1      -2.441  -3.293   8.223  1.00  0.00     0.344 HD
ATOM      7  H   UNL     1      -3.794  -2.270   8.318  1.00  0.00     0.344 HD
ENDBRANCH   3   4
ENDBRANCH   2   3
ENDBRANCH   1   2
BRANCH   1   8
ATOM      8  C   UNL     1      -0.746  -4.692   6.384  1.00  0.00     0.072 C 
BRANCH   8   9
ATOM      9  C   UNL     1      -1.963  -5.512   6.866  1.00  0.00     0.227 C 
BRANCH   9  10
ATOM     10  N   UNL     1      -1.748  -6.955   6.699  1.00  0.00    -0.350 N 
ATOM     11  H   UNL     1      -1.197  -7.329   7.506  1.00  0.00     0.345 HD
ATOM     12  H   UNL     1      -2.662  -7.464   6.645  1.00  0.00     0.345 HD
ATOM     13  H   UNL     1      -1.198  -7.139   5.831  1.00  0.00     0.345 HD
ENDBRANCH   9  10
BRANCH   9  14
ATOM     14  C   UNL     1      -3.190  -5.082   6.105  1.00  0.00     0.099 C 
ATOM     15  O   UNL     1      -3.252  -5.246   4.858  1.00  0.00    -0.544 OA
ATOM     16  O   UNL     1      -4.269  -4.518   6.776  1.00  0.00    -0.544 OA
ENDBRANCH   9  14
ENDBRANCH   8   9
ENDBRANCH   1   8
TORSDOF 7
ENDMDL
MODEL 9
REMARK VINA RESULT:    -3.144     10.230     11.121
REMARK INTER + INTRA:          -4.813
REMARK INTER:                  -4.326
REMARK INTRA:                  -0.487
REMARK UNBOUND:                -0.565
REMARK SMILES [NH3+]CCCC[C@H]([NH3+])C(=O)[O-]
REMARK SMILES IDX 4 1 3 2 2 3 1 4 5 8 6 9 7 10 8 14 9 15 10 16
REMARK H PARENT 1 5 1 6 1 7 7 11 7 12 7 13
REMARK Flexibility Score: inf
ROOT
ATOM      1  C   UNL     1       4.745   2.249   8.021  1.00  0.00     0.012 C 
ENDROOT
BRANCH   1   2
ATOM      2  C   UNL     1       5.605   2.293   9.293  1.00  0.00     0.061 C 
BRANCH   2   3
ATOM      3  C   UNL     1       7.111   2.340   8.987  1.00  0.00     0.258 C 
BRANCH   3   4
ATOM      4  N   UNL     1       7.750   3.536   9.541  1.00  0.00    -0.358 N 
ATOM      5  H   UNL     1       7.028   4.236   9.825  1.00  0.00     0.344 HD
ATOM      6  H   UNL     1       8.401   3.959   8.840  1.00  0.00     0.344 HD
ATOM      7  H   UNL     1       8.299   3.266  10.388  1.00  0.00     0.344 HD
ENDBRANCH   3   4
ENDBRANCH   2   3
ENDBRANCH   1   2
BRANCH   1   8
ATOM      8  C   UNL     1       5.515   2.813   6.817  1.00  0.00     0.072 C 
BRANCH   8   9
ATOM      9  C   UNL     1       4.833   4.055   6.202  1.00  0.00     0.227 C 
BRANCH   9  10
ATOM     10  N   UNL     1       5.176   4.218   4.784  1.00  0.00    -0.350 N 
ATOM     11  H   UNL     1       4.468   3.730   4.187  1.00  0.00     0.345 HD
ATOM     12  H   UNL     1       5.202   5.232   4.521  1.00  0.00     0.345 HD
ATOM     13  H   UNL     1       6.106   3.785   4.586  1.00  0.00     0.345 HD
ENDBRANCH   9  10
BRANCH   9  14
ATOM     14  C   UNL     1       5.237   5.283   6.975  1.00  0.00     0.099 C 
ATOM     15  O   UNL     1       6.385   5.359   7.488  1.00  0.00    -0.544 OA
ATOM     16  O   UNL     1       4.354   6.348   7.111  1.00  0.00    -0.544 OA
ENDBRANCH   9  14
ENDBRANCH   8   9
ENDBRANCH   1   8
TORSDOF 7
ENDMDL
