MODEL 1
REMARK VINA RESULT:    -3.753      0.000      0.000
REMARK INTER + INTRA:          -3.996
REMARK INTER:                  -3.973
REMARK INTRA:                  -0.023
REMARK UNBOUND:                -0.023
REMARK SMILES O=C([O-])c1cccnc1
REMARK SMILES IDX 4 1 5 2 9 3 6 4 8 5 7 6 2 7 1 8 3 9
REMARK H PARENT
REMARK Flexibility Score: inf
ROOT
ATOM      1  C   UNL     1     -14.430  83.448  76.195  1.00  0.00     0.016 A 
ATOM      2  C   UNL     1     -15.248  83.082  75.113  1.00  0.00     0.013 A 
ATOM      3  C   UNL     1     -14.045  82.451  77.109  1.00  0.00     0.120 A 
ATOM      4  C   UNL     1     -15.662  81.758  74.964  1.00  0.00     0.021 A 
ATOM      5  N   UNL     1     -14.463  81.168  76.940  1.00  0.00    -0.264 NA
ATOM      6  C   UNL     1     -15.255  80.804  75.897  1.00  0.00     0.111 A 
ENDROOT
BRANCH   1   7
ATOM      7  C   UNL     1     -13.985  84.848  76.364  1.00  0.00     0.073 C 
ATOM      8  O   UNL     1     -12.999  85.123  77.098  1.00  0.00    -0.545 OA
ATOM      9  O   UNL     1     -14.650  85.881  75.714  1.00  0.00    -0.545 OA
ENDBRANCH   1   7
TORSDOF 1
ENDMDL
MODEL 2
REMARK VINA RESULT:    -3.743     11.040     12.364
REMARK INTER + INTRA:          -3.985
REMARK INTER:                  -3.963
REMARK INTRA:                  -0.022
REMARK UNBOUND:                -0.023
REMARK SMILES O=C([O-])c1cccnc1
REMARK SMILES IDX 4 1 5 2 9 3 6 4 8 5 7 6 2 7 1 8 3 9
REMARK H PARENT
REMARK Flexibility Score: inf
ROOT
ATOM      1  C   UNL     1     -14.367  90.103  85.443  1.00  0.00     0.016 A 
ATOM      2  C   UNL     1     -15.141  90.479  86.552  1.00  0.00     0.013 A 
ATOM      3  C   UNL     1     -14.026  91.089  84.501  1.00  0.00     0.120 A 
ATOM      4  C   UNL     1     -15.556  91.803  86.701  1.00  0.00     0.021 A 
ATOM      5  N   UNL     1     -14.443  92.373  84.670  1.00  0.00    -0.264 NA
ATOM      6  C   UNL     1     -15.193  92.746  85.740  1.00  0.00     0.111 A 
ENDROOT
BRANCH   1   7
ATOM      7  C   UNL     1     -13.922  88.703  85.273  1.00  0.00     0.073 C 
ATOM      8  O   UNL     1     -12.904  88.433  84.583  1.00  0.00    -0.545 OA
ATOM      9  O   UNL     1     -14.622  87.664  85.876  1.00  0.00    -0.545 OA
ENDBRANCH   1   7
TORSDOF 1
ENDMDL
MODEL 3
REMARK VINA RESULT:    -3.687     11.639     12.224
REMARK INTER + INTRA:          -3.925
REMARK INTER:                  -3.909
REMARK INTRA:                  -0.016
REMARK UNBOUND:                -0.023
REMARK SMILES O=C([O-])c1cccnc1
REMARK SMILES IDX 4 1 5 2 9 3 6 4 8 5 7 6 2 7 1 8 3 9
REMARK H PARENT
REMARK Flexibility Score: inf
ROOT
ATOM      1  C   UNL     1     -25.486  87.202  76.704  1.00  0.00     0.016 A 
ATOM      2  C   UNL     1     -25.557  88.594  76.883  1.00  0.00     0.013 A 
ATOM      3  C   UNL     1     -25.829  86.371  77.785  1.00  0.00     0.120 A 
ATOM      4  C   UNL     1     -25.958  89.123  78.110  1.00  0.00     0.021 A 
ATOM      5  N   UNL     1     -26.217  86.913  78.970  1.00  0.00    -0.264 NA
ATOM      6  C   UNL     1     -26.288  88.257  79.153  1.00  0.00     0.111 A 
ENDROOT
BRANCH   1   7
ATOM      7  C   UNL     1     -25.061  86.629  75.408  1.00  0.00     0.073 C 
ATOM      8  O   UNL     1     -23.845  86.395  75.179  1.00  0.00    -0.545 OA
ATOM      9  O   UNL     1     -26.001  86.340  74.425  1.00  0.00    -0.545 OA
ENDBRANCH   1   7
TORSDOF 1
ENDMDL
MODEL 4
REMARK VINA RESULT:    -3.683     14.474     14.605
REMARK INTER + INTRA:          -3.921
REMARK INTER:                  -3.905
REMARK INTRA:                  -0.016
REMARK UNBOUND:                -0.023
REMARK SMILES O=C([O-])c1cccnc1
REMARK SMILES IDX 4 1 5 2 9 3 6 4 8 5 7 6 2 7 1 8 3 9
REMARK H PARENT
REMARK Flexibility Score: inf
ROOT
ATOM      1  C   UNL     1     -25.542  86.931  84.867  1.00  0.00     0.016 A 
ATOM      2  C   UNL     1     -25.695  85.544  84.708  1.00  0.00     0.013 A 
ATOM      3  C   UNL     1     -25.780  87.762  83.759  1.00  0.00     0.120 A 
ATOM      4  C   UNL     1     -26.073  85.018  83.472  1.00  0.00     0.021 A 
ATOM      5  N   UNL     1     -26.148  87.223  82.565  1.00  0.00    -0.264 NA
ATOM      6  C   UNL     1     -26.297  85.883  82.400  1.00  0.00     0.111 A 
ENDROOT
BRANCH   1   7
ATOM      7  C   UNL     1     -25.141  87.501  86.172  1.00  0.00     0.073 C 
ATOM      8  O   UNL     1     -25.993  87.679  87.083  1.00  0.00    -0.545 OA
ATOM      9  O   UNL     1     -23.816  87.847  86.412  1.00  0.00    -0.545 OA
ENDBRANCH   1   7
TORSDOF 1
ENDMDL
MODEL 5
REMARK VINA RESULT:    -3.607     16.077     16.455
REMARK INTER + INTRA:          -3.841
REMARK INTER:                  -3.817
REMARK INTRA:                  -0.024
REMARK UNBOUND:                -0.023
REMARK SMILES O=C([O-])c1cccnc1
REMARK SMILES IDX 4 1 5 2 9 3 6 4 8 5 7 6 2 7 1 8 3 9
REMARK H PARENT
REMARK Flexibility Score: inf
ROOT
ATOM      1  C   UNL     1     -26.434  87.593  85.779  1.00  0.00     0.016 A 
ATOM      2  C   UNL     1     -27.494  88.484  86.015  1.00  0.00     0.013 A 
ATOM      3  C   UNL     1     -25.130  88.005  86.102  1.00  0.00     0.120 A 
ATOM      4  C   UNL     1     -27.241  89.746  86.557  1.00  0.00     0.021 A 
ATOM      5  N   UNL     1     -24.911  89.240  86.629  1.00  0.00    -0.264 NA
ATOM      6  C   UNL     1     -25.929  90.109  86.860  1.00  0.00     0.111 A 
ENDROOT
BRANCH   1   7
ATOM      7  C   UNL     1     -26.689  86.254  85.204  1.00  0.00     0.073 C 
ATOM      8  O   UNL     1     -27.866  85.825  85.076  1.00  0.00    -0.545 OA
ATOM      9  O   UNL     1     -25.631  85.450  84.796  1.00  0.00    -0.545 OA
ENDBRANCH   1   7
TORSDOF 1
ENDMDL
MODEL 6
REMARK VINA RESULT:    -3.594     15.307     15.378
REMARK INTER + INTRA:          -3.827
REMARK INTER:                  -3.804
REMARK INTRA:                  -0.024
REMARK UNBOUND:                -0.023
REMARK SMILES O=C([O-])c1cccnc1
REMARK SMILES IDX 4 1 5 2 9 3 6 4 8 5 7 6 2 7 1 8 3 9
REMARK H PARENT
REMARK Flexibility Score: inf
ROOT
ATOM      1  C   UNL     1     -26.360  86.493  85.320  1.00  0.00     0.016 A 
ATOM      2  C   UNL     1     -27.755  86.542  85.174  1.00  0.00     0.013 A 
ATOM      3  C   UNL     1     -25.628  85.643  84.473  1.00  0.00     0.120 A 
ATOM      4  C   UNL     1     -28.386  85.758  84.206  1.00  0.00     0.021 A 
ATOM      5  N   UNL     1     -26.267  84.890  83.538  1.00  0.00    -0.264 NA
ATOM      6  C   UNL     1     -27.617  84.930  83.389  1.00  0.00     0.111 A 
ENDROOT
BRANCH   1   7
ATOM      7  C   UNL     1     -25.680  87.318  86.343  1.00  0.00     0.073 C 
ATOM      8  O   UNL     1     -26.344  87.912  87.232  1.00  0.00    -0.545 OA
ATOM      9  O   UNL     1     -24.295  87.447  86.336  1.00  0.00    -0.545 OA
ENDBRANCH   1   7
TORSDOF 1
ENDMDL
MODEL 7
REMARK VINA RESULT:    -3.590     11.836     12.426
REMARK INTER + INTRA:          -3.823
REMARK INTER:                  -3.799
REMARK INTRA:                  -0.024
REMARK UNBOUND:                -0.023
REMARK SMILES O=C([O-])c1cccnc1
REMARK SMILES IDX 4 1 5 2 9 3 6 4 8 5 7 6 2 7 1 8 3 9
REMARK H PARENT
REMARK Flexibility Score: inf
ROOT
ATOM      1  C   UNL     1     -26.451  86.706  75.858  1.00  0.00     0.016 A 
ATOM      2  C   UNL     1     -27.550  85.862  75.628  1.00  0.00     0.013 A 
ATOM      3  C   UNL     1     -25.170  86.246  75.505  1.00  0.00     0.120 A 
ATOM      4  C   UNL     1     -27.359  84.600  75.063  1.00  0.00     0.021 A 
ATOM      5  N   UNL     1     -25.012  85.012  74.955  1.00  0.00    -0.264 NA
ATOM      6  C   UNL     1     -26.068  84.189  74.730  1.00  0.00     0.111 A 
ENDROOT
BRANCH   1   7
ATOM      7  C   UNL     1     -26.641  88.045  76.457  1.00  0.00     0.073 C 
ATOM      8  O   UNL     1     -27.796  88.523  76.604  1.00  0.00    -0.545 OA
ATOM      9  O   UNL     1     -25.543  88.794  76.869  1.00  0.00    -0.545 OA
ENDBRANCH   1   7
TORSDOF 1
ENDMDL
MODEL 8
REMARK VINA RESULT:    -3.572     16.797     17.083
REMARK INTER + INTRA:          -3.804
REMARK INTER:                  -3.786
REMARK INTRA:                  -0.018
REMARK UNBOUND:                -0.023
REMARK SMILES O=C([O-])c1cccnc1
REMARK SMILES IDX 4 1 5 2 9 3 6 4 8 5 7 6 2 7 1 8 3 9
REMARK H PARENT
REMARK Flexibility Score: inf
ROOT
ATOM      1  C   UNL     1     -26.345  89.927  86.633  1.00  0.00     0.016 A 
ATOM      2  C   UNL     1     -27.539  89.296  86.247  1.00  0.00     0.013 A 
ATOM      3  C   UNL     1     -25.166  89.163  86.667  1.00  0.00     0.120 A 
ATOM      4  C   UNL     1     -27.538  87.941  85.910  1.00  0.00     0.021 A 
ATOM      5  N   UNL     1     -25.193  87.845  86.333  1.00  0.00    -0.264 NA
ATOM      6  C   UNL     1     -26.342  87.224  85.959  1.00  0.00     0.111 A 
ENDROOT
BRANCH   1   7
ATOM      7  C   UNL     1     -26.333  91.361  86.993  1.00  0.00     0.073 C 
ATOM      8  O   UNL     1     -26.669  92.236  86.152  1.00  0.00    -0.545 OA
ATOM      9  O   UNL     1     -25.951  91.763  88.268  1.00  0.00    -0.545 OA
ENDBRANCH   1   7
TORSDOF 1
ENDMDL
MODEL 9
REMARK VINA RESULT:    -3.547     11.772     12.561
REMARK INTER + INTRA:          -3.777
REMARK INTER:                  -3.761
REMARK INTRA:                  -0.016
REMARK UNBOUND:                -0.023
REMARK SMILES O=C([O-])c1cccnc1
REMARK SMILES IDX 4 1 5 2 9 3 6 4 8 5 7 6 2 7 1 8 3 9
REMARK H PARENT
REMARK Flexibility Score: inf
ROOT
ATOM      1  C   UNL     1     -26.398  84.287  75.071  1.00  0.00     0.016 A 
ATOM      2  C   UNL     1     -27.575  84.973  75.410  1.00  0.00     0.013 A 
ATOM      3  C   UNL     1     -25.190  85.006  75.041  1.00  0.00     0.120 A 
ATOM      4  C   UNL     1     -27.531  86.337  75.706  1.00  0.00     0.021 A 
ATOM      5  N   UNL     1     -25.175  86.334  75.334  1.00  0.00    -0.264 NA
ATOM      6  C   UNL     1     -26.309  87.007  75.662  1.00  0.00     0.111 A 
ENDROOT
BRANCH   1   7
ATOM      7  C   UNL     1     -26.431  82.842  74.755  1.00  0.00     0.073 C 
ATOM      8  O   UNL     1     -26.445  82.448  73.560  1.00  0.00    -0.545 OA
ATOM      9  O   UNL     1     -26.448  81.899  75.777  1.00  0.00    -0.545 OA
ENDBRANCH   1   7
TORSDOF 1
ENDMDL
