MODEL 1
REMARK VINA RESULT:    -6.919      0.000      0.000
REMARK INTER + INTRA:          -9.828
REMARK INTER:                  -8.739
REMARK INTRA:                  -1.089
REMARK UNBOUND:                -1.089
REMARK SMILES O=C(C=Cc1ccc(O)cc1)c1ccc(O)cc1O
REMARK SMILES IDX 4 1 3 2 5 3 6 4 7 5 8 6 11 7 10 8 9 9 2 11 1 12 12 13 18 14
REMARK SMILES IDX 13 15 17 16 14 17 15 18 19 19 16 21
REMARK H PARENT 9 10 19 20 16 22
REMARK Flexibility Score: inf
ROOT
ATOM      1  C   UNL     1      75.109  -1.596  26.992  1.00  0.00     0.012 C 
ATOM      2  C   UNL     1      74.354  -2.612  26.542  1.00  0.00     0.053 C 
ENDROOT
BRANCH   1   3
ATOM      3  C   UNL     1      74.707  -0.175  27.016  1.00  0.00    -0.025 A 
ATOM      4  C   UNL     1      75.156   0.684  26.001  1.00  0.00     0.012 A 
ATOM      5  C   UNL     1      74.826   2.043  26.028  1.00  0.00     0.047 A 
ATOM      6  C   UNL     1      74.064   2.560  27.081  1.00  0.00     0.115 A 
ATOM      7  C   UNL     1      73.967   0.355  28.088  1.00  0.00     0.012 A 
ATOM      8  C   UNL     1      73.638   1.714  28.113  1.00  0.00     0.047 A 
BRANCH   6   9
ATOM      9  O   UNL     1      73.741   3.916  27.094  1.00  0.00    -0.508 OA
ATOM     10  H   UNL     1      73.761   4.456  27.951  1.00  0.00     0.293 HD
ENDBRANCH   6   9
ENDBRANCH   1   3
BRANCH   2  11
ATOM     11  C   UNL     1      73.066  -2.466  25.821  1.00  0.00     0.189 C 
ATOM     12  O   UNL     1      73.057  -2.169  24.595  1.00  0.00    -0.289 OA
BRANCH  11  13
ATOM     13  C   UNL     1      71.773  -2.700  26.508  1.00  0.00     0.064 A 
ATOM     14  C   UNL     1      70.715  -3.352  25.837  1.00  0.00     0.130 A 
ATOM     15  C   UNL     1      71.588  -2.297  27.844  1.00  0.00     0.020 A 
ATOM     16  C   UNL     1      69.501  -3.582  26.500  1.00  0.00     0.093 A 
ATOM     17  C   UNL     1      70.373  -2.529  28.494  1.00  0.00     0.047 A 
ATOM     18  C   UNL     1      69.328  -3.169  27.827  1.00  0.00     0.119 A 
BRANCH  14  19
ATOM     19  O   UNL     1      70.866  -3.755  24.510  1.00  0.00    -0.507 OA
ATOM     20  H   UNL     1      71.688  -4.260  24.197  1.00  0.00     0.293 HD
ENDBRANCH  14  19
BRANCH  18  21
ATOM     21  O   UNL     1      68.124  -3.394  28.489  1.00  0.00    -0.508 OA
ATOM     22  H   UNL     1      67.247  -3.467  27.986  1.00  0.00     0.293 HD
ENDBRANCH  18  21
ENDBRANCH  11  13
ENDBRANCH   2  11
TORSDOF 6
ENDMDL
MODEL 2
REMARK VINA RESULT:    -6.872      1.532      2.207
REMARK INTER + INTRA:          -9.769
REMARK INTER:                  -8.463
REMARK INTRA:                  -1.306
REMARK UNBOUND:                -1.089
REMARK SMILES O=C(C=Cc1ccc(O)cc1)c1ccc(O)cc1O
REMARK SMILES IDX 4 1 3 2 5 3 6 4 7 5 8 6 11 7 10 8 9 9 2 11 1 12 12 13 18 14
REMARK SMILES IDX 13 15 17 16 14 17 15 18 19 19 16 21
REMARK H PARENT 9 10 19 20 16 22
REMARK Flexibility Score: inf
ROOT
ATOM      1  C   UNL     1      74.760  -2.465  25.327  1.00  0.00     0.012 C 
ATOM      2  C   UNL     1      73.799  -3.105  24.642  1.00  0.00     0.053 C 
ENDROOT
BRANCH   1   3
ATOM      3  C   UNL     1      74.556  -1.284  26.192  1.00  0.00    -0.025 A 
ATOM      4  C   UNL     1      74.258  -1.472  27.550  1.00  0.00     0.012 A 
ATOM      5  C   UNL     1      74.015  -0.371  28.378  1.00  0.00     0.047 A 
ATOM      6  C   UNL     1      74.044   0.924  27.852  1.00  0.00     0.115 A 
ATOM      7  C   UNL     1      74.554   0.017  25.661  1.00  0.00     0.012 A 
ATOM      8  C   UNL     1      74.311   1.117  26.490  1.00  0.00     0.047 A 
BRANCH   6   9
ATOM      9  O   UNL     1      73.801   2.013  28.689  1.00  0.00    -0.508 OA
ATOM     10  H   UNL     1      73.288   2.824  28.366  1.00  0.00     0.293 HD
ENDBRANCH   6   9
ENDBRANCH   1   3
BRANCH   2  11
ATOM     11  C   UNL     1      72.401  -2.630  24.484  1.00  0.00     0.189 C 
ATOM     12  O   UNL     1      71.915  -2.470  23.332  1.00  0.00    -0.289 OA
BRANCH  11  13
ATOM     13  C   UNL     1      71.542  -2.374  25.665  1.00  0.00     0.064 A 
ATOM     14  C   UNL     1      70.995  -1.092  25.885  1.00  0.00     0.130 A 
ATOM     15  C   UNL     1      71.242  -3.410  26.570  1.00  0.00     0.020 A 
ATOM     16  C   UNL     1      70.172  -0.862  26.997  1.00  0.00     0.093 A 
ATOM     17  C   UNL     1      70.422  -3.169  27.677  1.00  0.00     0.047 A 
ATOM     18  C   UNL     1      69.887  -1.898  27.894  1.00  0.00     0.119 A 
BRANCH  14  19
ATOM     19  O   UNL     1      71.282  -0.044  25.009  1.00  0.00    -0.507 OA
ATOM     20  H   UNL     1      71.960   0.673  25.241  1.00  0.00     0.293 HD
ENDBRANCH  14  19
BRANCH  18  21
ATOM     21  O   UNL     1      69.071  -1.676  29.001  1.00  0.00    -0.508 OA
ATOM     22  H   UNL     1      69.456  -1.394  29.895  1.00  0.00     0.293 HD
ENDBRANCH  18  21
ENDBRANCH  11  13
ENDBRANCH   2  11
TORSDOF 6
ENDMDL
MODEL 3
REMARK VINA RESULT:    -6.830      3.467      6.080
REMARK INTER + INTRA:          -9.716
REMARK INTER:                  -8.818
REMARK INTRA:                  -0.898
REMARK UNBOUND:                -1.089
REMARK SMILES O=C(C=Cc1ccc(O)cc1)c1ccc(O)cc1O
REMARK SMILES IDX 4 1 3 2 5 3 6 4 7 5 8 6 11 7 10 8 9 9 2 11 1 12 12 13 18 14
REMARK SMILES IDX 13 15 17 16 14 17 15 18 19 19 16 21
REMARK H PARENT 9 10 19 20 16 22
REMARK Flexibility Score: inf
ROOT
ATOM      1  C   UNL     1      72.672  -1.062  25.595  1.00  0.00     0.012 C 
ATOM      2  C   UNL     1      72.726  -0.708  24.301  1.00  0.00     0.053 C 
ENDROOT
BRANCH   1   3
ATOM      3  C   UNL     1      71.523  -1.712  26.259  1.00  0.00    -0.025 A 
ATOM      4  C   UNL     1      70.649  -0.935  27.035  1.00  0.00     0.012 A 
ATOM      5  C   UNL     1      69.581  -1.536  27.710  1.00  0.00     0.047 A 
ATOM      6  C   UNL     1      69.390  -2.919  27.634  1.00  0.00     0.115 A 
ATOM      7  C   UNL     1      71.345  -3.105  26.210  1.00  0.00     0.012 A 
ATOM      8  C   UNL     1      70.277  -3.704  26.885  1.00  0.00     0.047 A 
BRANCH   6   9
ATOM      9  O   UNL     1      68.321  -3.505  28.310  1.00  0.00    -0.508 OA
ATOM     10  H   UNL     1      68.432  -3.894  29.239  1.00  0.00     0.293 HD
ENDBRANCH   6   9
ENDBRANCH   1   3
BRANCH   2  11
ATOM     11  C   UNL     1      71.580  -0.737  23.357  1.00  0.00     0.189 C 
ATOM     12  O   UNL     1      70.644   0.099  23.474  1.00  0.00    -0.289 OA
BRANCH  11  13
ATOM     13  C   UNL     1      71.530  -1.715  22.244  1.00  0.00     0.064 A 
ATOM     14  C   UNL     1      72.172  -1.436  21.019  1.00  0.00     0.130 A 
ATOM     15  C   UNL     1      70.860  -2.944  22.400  1.00  0.00     0.020 A 
ATOM     16  C   UNL     1      72.131  -2.373  19.976  1.00  0.00     0.093 A 
ATOM     17  C   UNL     1      70.823  -3.870  21.353  1.00  0.00     0.047 A 
ATOM     18  C   UNL     1      71.455  -3.588  20.141  1.00  0.00     0.119 A 
BRANCH  14  19
ATOM     19  O   UNL     1      72.836  -0.223  20.833  1.00  0.00    -0.507 OA
ATOM     20  H   UNL     1      72.461   0.503  20.232  1.00  0.00     0.293 HD
ENDBRANCH  14  19
BRANCH  18  21
ATOM     21  O   UNL     1      71.409  -4.522  19.109  1.00  0.00    -0.508 OA
ATOM     22  H   UNL     1      71.271  -4.241  18.145  1.00  0.00     0.293 HD
ENDBRANCH  18  21
ENDBRANCH  11  13
ENDBRANCH   2  11
TORSDOF 6
ENDMDL
MODEL 4
REMARK VINA RESULT:    -6.677      3.035      5.699
REMARK INTER + INTRA:          -9.522
REMARK INTER:                  -8.444
REMARK INTRA:                  -1.078
REMARK UNBOUND:                -1.089
REMARK SMILES O=C(C=Cc1ccc(O)cc1)c1ccc(O)cc1O
REMARK SMILES IDX 4 1 3 2 5 3 6 4 7 5 8 6 11 7 10 8 9 9 2 11 1 12 12 13 18 14
REMARK SMILES IDX 13 15 17 16 14 17 15 18 19 19 16 21
REMARK H PARENT 9 10 19 20 16 22
REMARK Flexibility Score: inf
ROOT
ATOM      1  C   UNL     1      72.068  -0.642  22.528  1.00  0.00     0.012 C 
ATOM      2  C   UNL     1      72.320  -0.191  23.767  1.00  0.00     0.053 C 
ENDROOT
BRANCH   1   3
ATOM      3  C   UNL     1      71.914  -2.062  22.148  1.00  0.00    -0.025 A 
ATOM      4  C   UNL     1      70.626  -2.611  22.054  1.00  0.00     0.012 A 
ATOM      5  C   UNL     1      70.457  -3.964  21.742  1.00  0.00     0.047 A 
ATOM      6  C   UNL     1      71.573  -4.784  21.542  1.00  0.00     0.115 A 
ATOM      7  C   UNL     1      73.032  -2.896  21.976  1.00  0.00     0.012 A 
ATOM      8  C   UNL     1      72.861  -4.248  21.663  1.00  0.00     0.047 A 
BRANCH   6   9
ATOM      9  O   UNL     1      71.389  -6.130  21.229  1.00  0.00    -0.508 OA
ATOM     10  H   UNL     1      70.703  -6.697  21.713  1.00  0.00     0.293 HD
ENDBRANCH   6   9
ENDBRANCH   1   3
BRANCH   2  11
ATOM     11  C   UNL     1      72.671  -1.040  24.933  1.00  0.00     0.189 C 
ATOM     12  O   UNL     1      73.880  -1.226  25.237  1.00  0.00    -0.289 OA
BRANCH  11  13
ATOM     13  C   UNL     1      71.618  -1.652  25.779  1.00  0.00     0.064 A 
ATOM     14  C   UNL     1      70.979  -0.894  26.783  1.00  0.00     0.130 A 
ATOM     15  C   UNL     1      71.226  -2.989  25.579  1.00  0.00     0.020 A 
ATOM     16  C   UNL     1      69.975  -1.476  27.569  1.00  0.00     0.093 A 
ATOM     17  C   UNL     1      70.225  -3.561  26.370  1.00  0.00     0.047 A 
ATOM     18  C   UNL     1      69.599  -2.810  27.365  1.00  0.00     0.119 A 
BRANCH  14  19
ATOM     19  O   UNL     1      71.353   0.432  27.009  1.00  0.00    -0.507 OA
ATOM     20  H   UNL     1      70.750   1.077  27.506  1.00  0.00     0.293 HD
ENDBRANCH  14  19
BRANCH  18  21
ATOM     21  O   UNL     1      68.603  -3.394  28.144  1.00  0.00    -0.508 OA
ATOM     22  H   UNL     1      67.689  -3.609  27.761  1.00  0.00     0.293 HD
ENDBRANCH  18  21
ENDBRANCH  11  13
ENDBRANCH   2  11
TORSDOF 6
ENDMDL
MODEL 5
REMARK VINA RESULT:    -6.651      3.682      5.618
REMARK INTER + INTRA:          -9.490
REMARK INTER:                  -8.726
REMARK INTRA:                  -0.764
REMARK UNBOUND:                -1.089
REMARK SMILES O=C(C=Cc1ccc(O)cc1)c1ccc(O)cc1O
REMARK SMILES IDX 4 1 3 2 5 3 6 4 7 5 8 6 11 7 10 8 9 9 2 11 1 12 12 13 18 14
REMARK SMILES IDX 13 15 17 16 14 17 15 18 19 19 16 21
REMARK H PARENT 9 10 19 20 16 22
REMARK Flexibility Score: inf
ROOT
ATOM      1  C   UNL     1      71.959   0.058  22.299  1.00  0.00     0.012 C 
ATOM      2  C   UNL     1      72.095   0.059  23.635  1.00  0.00     0.053 C 
ENDROOT
BRANCH   1   3
ATOM      3  C   UNL     1      71.886  -1.146  21.446  1.00  0.00    -0.025 A 
ATOM      4  C   UNL     1      72.811  -1.305  20.402  1.00  0.00     0.012 A 
ATOM      5  C   UNL     1      72.733  -2.414  19.553  1.00  0.00     0.047 A 
ATOM      6  C   UNL     1      71.718  -3.361  19.724  1.00  0.00     0.115 A 
ATOM      7  C   UNL     1      70.850  -2.084  21.596  1.00  0.00     0.012 A 
ATOM      8  C   UNL     1      70.774  -3.192  20.746  1.00  0.00     0.047 A 
BRANCH   6   9
ATOM      9  O   UNL     1      71.653  -4.462  18.872  1.00  0.00    -0.508 OA
ATOM     10  H   UNL     1      70.864  -4.606  18.253  1.00  0.00     0.293 HD
ENDBRANCH   6   9
ENDBRANCH   1   3
BRANCH   2  11
ATOM     11  C   UNL     1      72.384  -1.136  24.467  1.00  0.00     0.189 C 
ATOM     12  O   UNL     1      73.470  -1.759  24.322  1.00  0.00    -0.289 OA
BRANCH  11  13
ATOM     13  C   UNL     1      71.427  -1.597  25.502  1.00  0.00     0.064 A 
ATOM     14  C   UNL     1      70.917  -2.913  25.467  1.00  0.00     0.130 A 
ATOM     15  C   UNL     1      71.030  -0.738  26.544  1.00  0.00     0.020 A 
ATOM     16  C   UNL     1      70.024  -3.345  26.458  1.00  0.00     0.093 A 
ATOM     17  C   UNL     1      70.137  -1.178  27.525  1.00  0.00     0.047 A 
ATOM     18  C   UNL     1      69.631  -2.478  27.485  1.00  0.00     0.119 A 
BRANCH  14  19
ATOM     19  O   UNL     1      71.286  -3.784  24.441  1.00  0.00    -0.507 OA
ATOM     20  H   UNL     1      70.595  -4.272  23.883  1.00  0.00     0.293 HD
ENDBRANCH  14  19
BRANCH  18  21
ATOM     21  O   UNL     1      68.743  -2.901  28.471  1.00  0.00    -0.508 OA
ATOM     22  H   UNL     1      68.906  -2.702  29.452  1.00  0.00     0.293 HD
ENDBRANCH  18  21
ENDBRANCH  11  13
ENDBRANCH   2  11
TORSDOF 6
ENDMDL
MODEL 6
REMARK VINA RESULT:    -6.604      2.493      6.405
REMARK INTER + INTRA:          -9.430
REMARK INTER:                  -8.846
REMARK INTRA:                  -0.585
REMARK UNBOUND:                -1.089
REMARK SMILES O=C(C=Cc1ccc(O)cc1)c1ccc(O)cc1O
REMARK SMILES IDX 4 1 3 2 5 3 6 4 7 5 8 6 11 7 10 8 9 9 2 11 1 12 12 13 18 14
REMARK SMILES IDX 13 15 17 16 14 17 15 18 19 19 16 21
REMARK H PARENT 9 10 19 20 16 22
REMARK Flexibility Score: inf
ROOT
ATOM      1  C   UNL     1      71.955  -2.784  24.103  1.00  0.00     0.012 C 
ATOM      2  C   UNL     1      73.278  -2.657  23.908  1.00  0.00     0.053 C 
ENDROOT
BRANCH   1   3
ATOM      3  C   UNL     1      71.239  -2.460  25.353  1.00  0.00    -0.025 A 
ATOM      4  C   UNL     1      70.595  -3.486  26.062  1.00  0.00     0.012 A 
ATOM      5  C   UNL     1      69.872  -3.197  27.223  1.00  0.00     0.047 A 
ATOM      6  C   UNL     1      69.766  -1.877  27.675  1.00  0.00     0.115 A 
ATOM      7  C   UNL     1      71.104  -1.132  25.793  1.00  0.00     0.012 A 
ATOM      8  C   UNL     1      70.381  -0.844  26.956  1.00  0.00     0.047 A 
BRANCH   6   9
ATOM      9  O   UNL     1      69.043  -1.603  28.835  1.00  0.00    -0.508 OA
ATOM     10  H   UNL     1      69.395  -0.965  29.539  1.00  0.00     0.293 HD
ENDBRANCH   6   9
ENDBRANCH   1   3
BRANCH   2  11
ATOM     11  C   UNL     1      74.273  -2.351  24.965  1.00  0.00     0.189 C 
ATOM     12  O   UNL     1      74.227  -2.955  26.070  1.00  0.00    -0.289 OA
BRANCH  11  13
ATOM     13  C   UNL     1      75.356  -1.364  24.734  1.00  0.00     0.064 A 
ATOM     14  C   UNL     1      75.341  -0.119  25.400  1.00  0.00     0.130 A 
ATOM     15  C   UNL     1      76.423  -1.661  23.866  1.00  0.00     0.020 A 
ATOM     16  C   UNL     1      76.376   0.802  25.187  1.00  0.00     0.093 A 
ATOM     17  C   UNL     1      77.448  -0.735  23.658  1.00  0.00     0.047 A 
ATOM     18  C   UNL     1      77.429   0.497  24.314  1.00  0.00     0.119 A 
BRANCH  14  19
ATOM     19  O   UNL     1      74.292   0.206  26.260  1.00  0.00    -0.507 OA
ATOM     20  H   UNL     1      74.034   1.169  26.445  1.00  0.00     0.293 HD
ENDBRANCH  14  19
BRANCH  18  21
ATOM     21  O   UNL     1      78.459   1.409  24.097  1.00  0.00    -0.508 OA
ATOM     22  H   UNL     1      79.115   1.295  23.333  1.00  0.00     0.293 HD
ENDBRANCH  18  21
ENDBRANCH  11  13
ENDBRANCH   2  11
TORSDOF 6
ENDMDL
MODEL 7
REMARK VINA RESULT:    -6.603      2.124      3.582
REMARK INTER + INTRA:          -9.429
REMARK INTER:                  -8.080
REMARK INTRA:                  -1.349
REMARK UNBOUND:                -1.089
REMARK SMILES O=C(C=Cc1ccc(O)cc1)c1ccc(O)cc1O
REMARK SMILES IDX 4 1 3 2 5 3 6 4 7 5 8 6 11 7 10 8 9 9 2 11 1 12 12 13 18 14
REMARK SMILES IDX 13 15 17 16 14 17 15 18 19 19 16 21
REMARK H PARENT 9 10 19 20 16 22
REMARK Flexibility Score: inf
ROOT
ATOM      1  C   UNL     1      73.347  -1.749  28.123  1.00  0.00     0.012 C 
ATOM      2  C   UNL     1      72.033  -2.013  28.031  1.00  0.00     0.053 C 
ENDROOT
BRANCH   1   3
ATOM      3  C   UNL     1      74.057  -0.672  27.403  1.00  0.00    -0.025 A 
ATOM      4  C   UNL     1      73.845   0.663  27.783  1.00  0.00     0.012 A 
ATOM      5  C   UNL     1      74.470   1.702  27.086  1.00  0.00     0.047 A 
ATOM      6  C   UNL     1      75.294   1.420  25.992  1.00  0.00     0.115 A 
ATOM      7  C   UNL     1      74.861  -0.949  26.284  1.00  0.00     0.012 A 
ATOM      8  C   UNL     1      75.486   0.092  25.590  1.00  0.00     0.047 A 
BRANCH   6   9
ATOM      9  O   UNL     1      75.912   2.466  25.308  1.00  0.00    -0.508 OA
ATOM     10  H   UNL     1      75.702   3.434  25.520  1.00  0.00     0.293 HD
ENDBRANCH   6   9
ENDBRANCH   1   3
BRANCH   2  11
ATOM     11  C   UNL     1      71.103  -1.394  27.054  1.00  0.00     0.189 C 
ATOM     12  O   UNL     1      70.286  -0.512  27.432  1.00  0.00    -0.289 OA
BRANCH  11  13
ATOM     13  C   UNL     1      71.138  -1.768  25.620  1.00  0.00     0.064 A 
ATOM     14  C   UNL     1      71.471  -0.808  24.640  1.00  0.00     0.130 A 
ATOM     15  C   UNL     1      70.862  -3.088  25.216  1.00  0.00     0.020 A 
ATOM     16  C   UNL     1      71.515  -1.174  23.287  1.00  0.00     0.093 A 
ATOM     17  C   UNL     1      70.907  -3.442  23.865  1.00  0.00     0.047 A 
ATOM     18  C   UNL     1      71.232  -2.488  22.898  1.00  0.00     0.119 A 
BRANCH  14  19
ATOM     19  O   UNL     1      71.741   0.510  25.010  1.00  0.00    -0.507 OA
ATOM     20  H   UNL     1      72.383   1.090  24.482  1.00  0.00     0.293 HD
ENDBRANCH  14  19
BRANCH  18  21
ATOM     21  O   UNL     1      71.273  -2.857  21.556  1.00  0.00    -0.508 OA
ATOM     22  H   UNL     1      71.529  -3.796  21.272  1.00  0.00     0.293 HD
ENDBRANCH  18  21
ENDBRANCH  11  13
ENDBRANCH   2  11
TORSDOF 6
ENDMDL
MODEL 8
REMARK VINA RESULT:    -6.520      3.425      6.035
REMARK INTER + INTRA:          -9.325
REMARK INTER:                  -8.583
REMARK INTRA:                  -0.742
REMARK UNBOUND:                -1.089
REMARK SMILES O=C(C=Cc1ccc(O)cc1)c1ccc(O)cc1O
REMARK SMILES IDX 4 1 3 2 5 3 6 4 7 5 8 6 11 7 10 8 9 9 2 11 1 12 12 13 18 14
REMARK SMILES IDX 13 15 17 16 14 17 15 18 19 19 16 21
REMARK H PARENT 9 10 19 20 16 22
REMARK Flexibility Score: inf
ROOT
ATOM      1  C   UNL     1      72.775  -1.136  25.667  1.00  0.00     0.012 C 
ATOM      2  C   UNL     1      72.832  -0.785  24.372  1.00  0.00     0.053 C 
ENDROOT
BRANCH   1   3
ATOM      3  C   UNL     1      71.620  -1.774  26.332  1.00  0.00    -0.025 A 
ATOM      4  C   UNL     1      70.699  -0.974  27.026  1.00  0.00     0.012 A 
ATOM      5  C   UNL     1      69.624  -1.560  27.702  1.00  0.00     0.047 A 
ATOM      6  C   UNL     1      69.472  -2.950  27.709  1.00  0.00     0.115 A 
ATOM      7  C   UNL     1      71.480  -3.172  26.367  1.00  0.00     0.012 A 
ATOM      8  C   UNL     1      70.404  -3.756  27.043  1.00  0.00     0.047 A 
BRANCH   6   9
ATOM      9  O   UNL     1      68.394  -3.520  28.385  1.00  0.00    -0.508 OA
ATOM     10  H   UNL     1      67.592  -2.968  28.663  1.00  0.00     0.293 HD
ENDBRANCH   6   9
ENDBRANCH   1   3
BRANCH   2  11
ATOM     11  C   UNL     1      71.686  -0.805  23.429  1.00  0.00     0.189 C 
ATOM     12  O   UNL     1      70.678  -0.080  23.645  1.00  0.00    -0.289 OA
BRANCH  11  13
ATOM     13  C   UNL     1      71.717  -1.640  22.203  1.00  0.00     0.064 A 
ATOM     14  C   UNL     1      71.035  -2.874  22.163  1.00  0.00     0.130 A 
ATOM     15  C   UNL     1      72.409  -1.204  21.057  1.00  0.00     0.020 A 
ATOM     16  C   UNL     1      71.058  -3.651  20.996  1.00  0.00     0.093 A 
ATOM     17  C   UNL     1      72.428  -1.987  19.900  1.00  0.00     0.047 A 
ATOM     18  C   UNL     1      71.756  -3.210  19.865  1.00  0.00     0.119 A 
BRANCH  14  19
ATOM     19  O   UNL     1      70.348  -3.335  23.287  1.00  0.00    -0.507 OA
ATOM     20  H   UNL     1      69.723  -4.132  23.239  1.00  0.00     0.293 HD
ENDBRANCH  14  19
BRANCH  18  21
ATOM     21  O   UNL     1      71.784  -3.977  18.703  1.00  0.00    -0.508 OA
ATOM     22  H   UNL     1      71.744  -4.990  18.735  1.00  0.00     0.293 HD
ENDBRANCH  18  21
ENDBRANCH  11  13
ENDBRANCH   2  11
TORSDOF 6
ENDMDL
MODEL 9
REMARK VINA RESULT:    -6.499      9.558     11.789
REMARK INTER + INTRA:          -9.298
REMARK INTER:                  -8.281
REMARK INTRA:                  -1.017
REMARK UNBOUND:                -1.089
REMARK SMILES O=C(C=Cc1ccc(O)cc1)c1ccc(O)cc1O
REMARK SMILES IDX 4 1 3 2 5 3 6 4 7 5 8 6 11 7 10 8 9 9 2 11 1 12 12 13 18 14
REMARK SMILES IDX 13 15 17 16 14 17 15 18 19 19 16 21
REMARK H PARENT 9 10 19 20 16 22
REMARK Flexibility Score: inf
ROOT
ATOM      1  C   UNL     1      76.412  -4.108  19.008  1.00  0.00     0.012 C 
ATOM      2  C   UNL     1      77.292  -4.749  18.222  1.00  0.00     0.053 C 
ENDROOT
BRANCH   1   3
ATOM      3  C   UNL     1      75.104  -4.640  19.443  1.00  0.00    -0.025 A 
ATOM      4  C   UNL     1      75.065  -5.691  20.372  1.00  0.00     0.012 A 
ATOM      5  C   UNL     1      73.840  -6.242  20.763  1.00  0.00     0.047 A 
ATOM      6  C   UNL     1      72.647  -5.765  20.212  1.00  0.00     0.115 A 
ATOM      7  C   UNL     1      73.905  -4.184  18.869  1.00  0.00     0.012 A 
ATOM      8  C   UNL     1      72.681  -4.736  19.262  1.00  0.00     0.047 A 
BRANCH   6   9
ATOM      9  O   UNL     1      71.433  -6.322  20.612  1.00  0.00    -0.508 OA
ATOM     10  H   UNL     1      71.014  -6.092  21.505  1.00  0.00     0.293 HD
ENDBRANCH   6   9
ENDBRANCH   1   3
BRANCH   2  11
ATOM     11  C   UNL     1      77.028  -6.019  17.501  1.00  0.00     0.189 C 
ATOM     12  O   UNL     1      77.431  -7.113  17.981  1.00  0.00    -0.289 OA
BRANCH  11  13
ATOM     13  C   UNL     1      76.259  -6.034  16.233  1.00  0.00     0.064 A 
ATOM     14  C   UNL     1      76.897  -5.747  15.008  1.00  0.00     0.130 A 
ATOM     15  C   UNL     1      74.888  -6.356  16.231  1.00  0.00     0.020 A 
ATOM     16  C   UNL     1      76.165  -5.777  13.812  1.00  0.00     0.093 A 
ATOM     17  C   UNL     1      74.167  -6.381  15.034  1.00  0.00     0.047 A 
ATOM     18  C   UNL     1      74.800  -6.092  13.824  1.00  0.00     0.119 A 
BRANCH  14  19
ATOM     19  O   UNL     1      78.252  -5.416  14.980  1.00  0.00    -0.507 OA
ATOM     20  H   UNL     1      78.932  -5.994  14.500  1.00  0.00     0.293 HD
ENDBRANCH  14  19
BRANCH  18  21
ATOM     21  O   UNL     1      74.068  -6.122  12.640  1.00  0.00    -0.508 OA
ATOM     22  H   UNL     1      73.916  -6.987  12.133  1.00  0.00     0.293 HD
ENDBRANCH  18  21
ENDBRANCH  11  13
ENDBRANCH   2  11
TORSDOF 6
ENDMDL
