MODEL 1
REMARK VINA RESULT:    -5.882      0.000      0.000
REMARK INTER + INTRA:          -6.606
REMARK INTER:                  -6.398
REMARK INTRA:                  -0.208
REMARK UNBOUND:                -0.208
REMARK SMILES C=C1C[C@@]2(O)O[C@]3(C[C@@H]2C(C)C)[C@@H]1CC[C@@H]3C
REMARK SMILES IDX 17 1 16 2 15 3 14 4 13 5 7 6 8 7 9 8 4 9 6 10 3 11 2 12 1 13
REMARK SMILES IDX 10 14 11 15 12 16 5 17
REMARK H PARENT 5 18
REMARK Flexibility Score: inf
ROOT
ATOM      1  C   UNL     1      59.782  11.857  14.249  1.00  0.00     0.011 C 
ATOM      2  C   UNL     1      58.660  11.011  14.875  1.00  0.00     0.019 C 
ATOM      3  C   UNL     1      59.227   9.827  15.702  1.00  0.00     0.007 C 
ATOM      4  C   UNL     1      58.993  10.147  17.191  1.00  0.00     0.011 C 
ATOM      5  C   UNL     1      58.595  11.616  17.195  1.00  0.00     0.047 C 
ATOM      6  C   UNL     1      57.815  11.798  15.893  1.00  0.00     0.081 C 
ATOM      7  C   UNL     1      56.359  11.254  15.969  1.00  0.00     0.046 C 
ATOM      8  C   UNL     1      55.522  12.507  16.224  1.00  0.00     0.054 C 
ATOM      9  C   UNL     1      56.621  13.558  16.508  1.00  0.00     0.173 C 
ATOM     10  O   UNL     1      57.707  13.187  15.676  1.00  0.00    -0.342 OA
ATOM     11  C   UNL     1      57.064  13.502  18.018  1.00  0.00     0.096 C 
ATOM     12  C   UNL     1      57.801  12.207  18.334  1.00  0.00    -0.066 C 
ATOM     13  C   UNL     1      57.906  11.759  19.592  1.00  0.00     0.008 C 
ENDROOT
BRANCH   8  14
ATOM     14  C   UNL     1      54.559  12.878  15.046  1.00  0.00    -0.009 C 
ATOM     15  C   UNL     1      55.101  12.530  13.647  1.00  0.00     0.008 C 
ATOM     16  C   UNL     1      53.167  12.259  15.248  1.00  0.00     0.008 C 
ENDBRANCH   8  14
BRANCH   9  17
ATOM     17  O   UNL     1      56.212  14.862  16.184  1.00  0.00    -0.365 OA
ATOM     18  H   UNL     1      56.333  14.975  15.204  1.00  0.00     0.214 HD
ENDBRANCH   9  17
TORSDOF 2
ENDMDL
MODEL 2
REMARK VINA RESULT:    -5.693      9.489     11.670
REMARK INTER + INTRA:          -6.400
REMARK INTER:                  -6.145
REMARK INTRA:                  -0.255
REMARK UNBOUND:                -0.208
REMARK SMILES C=C1C[C@@]2(O)O[C@]3(C[C@@H]2C(C)C)[C@@H]1CC[C@@H]3C
REMARK SMILES IDX 17 1 16 2 15 3 14 4 13 5 7 6 8 7 9 8 4 9 6 10 3 11 2 12 1 13
REMARK SMILES IDX 10 14 11 15 12 16 5 17
REMARK H PARENT 5 18
REMARK Flexibility Score: inf
ROOT
ATOM      1  C   UNL     1      60.543   9.833  24.080  1.00  0.00     0.011 C 
ATOM      2  C   UNL     1      59.998  11.066  24.821  1.00  0.00     0.019 C 
ATOM      3  C   UNL     1      58.633  10.774  25.496  1.00  0.00     0.007 C 
ATOM      4  C   UNL     1      58.871  10.715  27.018  1.00  0.00     0.011 C 
ATOM      5  C   UNL     1      60.386  10.659  27.152  1.00  0.00     0.047 C 
ATOM      6  C   UNL     1      60.898  11.508  25.989  1.00  0.00     0.081 C 
ATOM      7  C   UNL     1      60.787  13.038  26.250  1.00  0.00     0.046 C 
ATOM      8  C   UNL     1      62.198  13.430  26.686  1.00  0.00     0.054 C 
ATOM      9  C   UNL     1      62.863  12.044  26.858  1.00  0.00     0.173 C 
ATOM     10  O   UNL     1      62.274  11.229  25.859  1.00  0.00    -0.342 OA
ATOM     11  C   UNL     1      62.548  11.452  28.282  1.00  0.00     0.096 C 
ATOM     12  C   UNL     1      61.074  11.095  28.423  1.00  0.00    -0.066 C 
ATOM     13  C   UNL     1      60.503  10.968  29.628  1.00  0.00     0.008 C 
ENDROOT
BRANCH   8  14
ATOM     14  C   UNL     1      62.931  14.382  25.681  1.00  0.00    -0.009 C 
ATOM     15  C   UNL     1      62.059  14.858  24.504  1.00  0.00     0.008 C 
ATOM     16  C   UNL     1      63.554  15.585  26.406  1.00  0.00     0.008 C 
ENDBRANCH   8  14
BRANCH   9  17
ATOM     17  O   UNL     1      64.253  12.089  26.662  1.00  0.00    -0.365 OA
ATOM     18  H   UNL     1      64.490  11.338  26.056  1.00  0.00     0.214 HD
ENDBRANCH   9  17
TORSDOF 2
ENDMDL
MODEL 3
REMARK VINA RESULT:    -5.579      7.743     10.176
REMARK INTER + INTRA:          -6.277
REMARK INTER:                  -5.999
REMARK INTRA:                  -0.278
REMARK UNBOUND:                -0.208
REMARK SMILES C=C1C[C@@]2(O)O[C@]3(C[C@@H]2C(C)C)[C@@H]1CC[C@@H]3C
REMARK SMILES IDX 17 1 16 2 15 3 14 4 13 5 7 6 8 7 9 8 4 9 6 10 3 11 2 12 1 13
REMARK SMILES IDX 10 14 11 15 12 16 5 17
REMARK H PARENT 5 18
REMARK Flexibility Score: inf
ROOT
ATOM      1  C   UNL     1      62.759  15.264  23.361  1.00  0.00     0.011 C 
ATOM      2  C   UNL     1      63.293  13.834  23.550  1.00  0.00     0.019 C 
ATOM      3  C   UNL     1      64.717  13.829  24.164  1.00  0.00     0.007 C 
ATOM      4  C   UNL     1      64.595  13.329  25.617  1.00  0.00     0.011 C 
ATOM      5  C   UNL     1      63.099  13.362  25.893  1.00  0.00     0.047 C 
ATOM      6  C   UNL     1      62.460  13.012  24.550  1.00  0.00     0.081 C 
ATOM      7  C   UNL     1      62.511  11.491  24.223  1.00  0.00     0.046 C 
ATOM      8  C   UNL     1      61.118  10.995  24.607  1.00  0.00     0.054 C 
ATOM      9  C   UNL     1      60.540  12.234  25.331  1.00  0.00     0.173 C 
ATOM     10  O   UNL     1      61.094  13.348  24.651  1.00  0.00    -0.342 OA
ATOM     11  C   UNL     1      60.988  12.254  26.840  1.00  0.00     0.096 C 
ATOM     12  C   UNL     1      62.485  12.504  26.972  1.00  0.00    -0.066 C 
ATOM     13  C   UNL     1      63.148  12.166  28.086  1.00  0.00     0.008 C 
ENDROOT
BRANCH   8  14
ATOM     14  C   UNL     1      60.266  10.495  23.393  1.00  0.00    -0.009 C 
ATOM     15  C   UNL     1      60.881  10.801  22.014  1.00  0.00     0.008 C 
ATOM     16  C   UNL     1      59.946   8.998  23.514  1.00  0.00     0.008 C 
ENDBRANCH   8  14
BRANCH   9  17
ATOM     17  O   UNL     1      59.138  12.293  25.254  1.00  0.00    -0.365 OA
ATOM     18  H   UNL     1      58.780  11.950  26.114  1.00  0.00     0.214 HD
ENDBRANCH   9  17
TORSDOF 2
ENDMDL
MODEL 4
REMARK VINA RESULT:    -5.560      2.761      4.740
REMARK INTER + INTRA:          -6.256
REMARK INTER:                  -5.979
REMARK INTRA:                  -0.277
REMARK UNBOUND:                -0.208
REMARK SMILES C=C1C[C@@]2(O)O[C@]3(C[C@@H]2C(C)C)[C@@H]1CC[C@@H]3C
REMARK SMILES IDX 17 1 16 2 15 3 14 4 13 5 7 6 8 7 9 8 4 9 6 10 3 11 2 12 1 13
REMARK SMILES IDX 10 14 11 15 12 16 5 17
REMARK H PARENT 5 18
REMARK Flexibility Score: inf
ROOT
ATOM      1  C   UNL     1      60.059   9.950  15.727  1.00  0.00     0.011 C 
ATOM      2  C   UNL     1      59.985  11.147  14.764  1.00  0.00     0.019 C 
ATOM      3  C   UNL     1      61.288  11.302  13.938  1.00  0.00     0.007 C 
ATOM      4  C   UNL     1      60.970  10.889  12.488  1.00  0.00     0.011 C 
ATOM      5  C   UNL     1      59.607  10.220  12.586  1.00  0.00     0.047 C 
ATOM      6  C   UNL     1      58.889  10.987  13.695  1.00  0.00     0.081 C 
ATOM      7  C   UNL     1      58.339  12.367  13.230  1.00  0.00     0.046 C 
ATOM      8  C   UNL     1      56.861  12.089  12.960  1.00  0.00     0.054 C 
ATOM      9  C   UNL     1      56.814  10.546  13.063  1.00  0.00     0.173 C 
ATOM     10  O   UNL     1      57.766  10.217  14.060  1.00  0.00    -0.342 OA
ATOM     11  C   UNL     1      57.225   9.887  11.694  1.00  0.00     0.096 C 
ATOM     12  C   UNL     1      58.698  10.120  11.385  1.00  0.00    -0.066 C 
ATOM     13  C   UNL     1      59.168  10.020  10.134  1.00  0.00     0.008 C 
ENDROOT
BRANCH   8  14
ATOM     14  C   UNL     1      55.887  12.835  13.933  1.00  0.00    -0.009 C 
ATOM     15  C   UNL     1      56.586  13.589  15.080  1.00  0.00     0.008 C 
ATOM     16  C   UNL     1      54.948  13.781  13.167  1.00  0.00     0.008 C 
ENDBRANCH   8  14
BRANCH   9  17
ATOM     17  O   UNL     1      55.549  10.074  13.454  1.00  0.00    -0.365 OA
ATOM     18  H   UNL     1      55.697   9.283  14.037  1.00  0.00     0.214 HD
ENDBRANCH   9  17
TORSDOF 2
ENDMDL
MODEL 5
REMARK VINA RESULT:    -5.560      1.956      4.466
REMARK INTER + INTRA:          -6.256
REMARK INTER:                  -5.989
REMARK INTRA:                  -0.267
REMARK UNBOUND:                -0.208
REMARK SMILES C=C1C[C@@]2(O)O[C@]3(C[C@@H]2C(C)C)[C@@H]1CC[C@@H]3C
REMARK SMILES IDX 17 1 16 2 15 3 14 4 13 5 7 6 8 7 9 8 4 9 6 10 3 11 2 12 1 13
REMARK SMILES IDX 10 14 11 15 12 16 5 17
REMARK H PARENT 5 18
REMARK Flexibility Score: inf
ROOT
ATOM      1  C   UNL     1      56.351   9.702  13.772  1.00  0.00     0.011 C 
ATOM      2  C   UNL     1      57.053  11.035  13.459  1.00  0.00     0.019 C 
ATOM      3  C   UNL     1      56.123  12.007  12.689  1.00  0.00     0.007 C 
ATOM      4  C   UNL     1      55.727  13.137  13.659  1.00  0.00     0.011 C 
ATOM      5  C   UNL     1      56.171  12.626  15.021  1.00  0.00     0.047 C 
ATOM      6  C   UNL     1      57.436  11.820  14.727  1.00  0.00     0.081 C 
ATOM      7  C   UNL     1      58.690  12.710  14.490  1.00  0.00     0.046 C 
ATOM      8  C   UNL     1      59.414  12.672  15.835  1.00  0.00     0.054 C 
ATOM      9  C   UNL     1      58.361  11.979  16.732  1.00  0.00     0.173 C 
ATOM     10  O   UNL     1      57.707  11.055  15.879  1.00  0.00    -0.342 OA
ATOM     11  C   UNL     1      57.322  13.027  17.278  1.00  0.00     0.096 C 
ATOM     12  C   UNL     1      56.446  13.578  16.161  1.00  0.00    -0.066 C 
ATOM     13  C   UNL     1      55.794  14.740  16.299  1.00  0.00     0.008 C 
ENDROOT
BRANCH   8  14
ATOM     14  C   UNL     1      60.804  11.952  15.789  1.00  0.00    -0.009 C 
ATOM     15  C   UNL     1      61.206  11.435  14.394  1.00  0.00     0.008 C 
ATOM     16  C   UNL     1      61.914  12.841  16.369  1.00  0.00     0.008 C 
ENDBRANCH   8  14
BRANCH   9  17
ATOM     17  O   UNL     1      58.945  11.287  17.806  1.00  0.00    -0.365 OA
ATOM     18  H   UNL     1      59.547  11.923  18.275  1.00  0.00     0.214 HD
ENDBRANCH   9  17
TORSDOF 2
ENDMDL
MODEL 6
REMARK VINA RESULT:    -5.559      6.856      9.929
REMARK INTER + INTRA:          -6.255
REMARK INTER:                  -5.977
REMARK INTRA:                  -0.279
REMARK UNBOUND:                -0.208
REMARK SMILES C=C1C[C@@]2(O)O[C@]3(C[C@@H]2C(C)C)[C@@H]1CC[C@@H]3C
REMARK SMILES IDX 17 1 16 2 15 3 14 4 13 5 7 6 8 7 9 8 4 9 6 10 3 11 2 12 1 13
REMARK SMILES IDX 10 14 11 15 12 16 5 17
REMARK H PARENT 5 18
REMARK Flexibility Score: inf
ROOT
ATOM      1  C   UNL     1      59.647  11.778  25.259  1.00  0.00     0.011 C 
ATOM      2  C   UNL     1      60.962  11.302  24.621  1.00  0.00     0.019 C 
ATOM      3  C   UNL     1      60.738  10.095  23.674  1.00  0.00     0.007 C 
ATOM      4  C   UNL     1      60.922  10.599  22.229  1.00  0.00     0.011 C 
ATOM      5  C   UNL     1      60.932  12.114  22.365  1.00  0.00     0.047 C 
ATOM      6  C   UNL     1      61.606  12.366  23.714  1.00  0.00     0.081 C 
ATOM      7  C   UNL     1      63.154  12.215  23.665  1.00  0.00     0.046 C 
ATOM      8  C   UNL     1      63.650  13.656  23.554  1.00  0.00     0.054 C 
ATOM      9  C   UNL     1      62.328  14.418  23.304  1.00  0.00     0.173 C 
ATOM     10  O   UNL     1      61.351  13.711  24.049  1.00  0.00    -0.342 OA
ATOM     11  C   UNL     1      61.954  14.392  21.775  1.00  0.00     0.096 C 
ATOM     12  C   UNL     1      61.579  12.988  21.318  1.00  0.00    -0.066 C 
ATOM     13  C   UNL     1      61.624  12.645  20.024  1.00  0.00     0.008 C 
ENDROOT
BRANCH   8  14
ATOM     14  C   UNL     1      64.457  14.147  24.804  1.00  0.00    -0.009 C 
ATOM     15  C   UNL     1      64.356  13.220  26.031  1.00  0.00     0.008 C 
ATOM     16  C   UNL     1      65.929  14.407  24.451  1.00  0.00     0.008 C 
ENDBRANCH   8  14
BRANCH   9  17
ATOM     17  O   UNL     1      62.383  15.748  23.754  1.00  0.00    -0.365 OA
ATOM     18  H   UNL     1      61.599  16.223  23.370  1.00  0.00     0.214 HD
ENDBRANCH   9  17
TORSDOF 2
ENDMDL
MODEL 7
REMARK VINA RESULT:    -5.557      8.208     11.259
REMARK INTER + INTRA:          -6.252
REMARK INTER:                  -5.974
REMARK INTRA:                  -0.278
REMARK UNBOUND:                -0.208
REMARK SMILES C=C1C[C@@]2(O)O[C@]3(C[C@@H]2C(C)C)[C@@H]1CC[C@@H]3C
REMARK SMILES IDX 17 1 16 2 15 3 14 4 13 5 7 6 8 7 9 8 4 9 6 10 3 11 2 12 1 13
REMARK SMILES IDX 10 14 11 15 12 16 5 17
REMARK H PARENT 5 18
REMARK Flexibility Score: inf
ROOT
ATOM      1  C   UNL     1      65.776  13.413  24.339  1.00  0.00     0.011 C 
ATOM      2  C   UNL     1      64.494  14.010  24.944  1.00  0.00     0.019 C 
ATOM      3  C   UNL     1      64.054  15.299  24.203  1.00  0.00     0.007 C 
ATOM      4  C   UNL     1      62.791  14.959  23.389  1.00  0.00     0.011 C 
ATOM      5  C   UNL     1      62.723  13.439  23.431  1.00  0.00     0.047 C 
ATOM      6  C   UNL     1      63.277  13.076  24.808  1.00  0.00     0.081 C 
ATOM      7  C   UNL     1      62.255  13.297  25.959  1.00  0.00     0.046 C 
ATOM      8  C   UNL     1      61.695  11.898  26.214  1.00  0.00     0.054 C 
ATOM      9  C   UNL     1      62.280  11.111  25.018  1.00  0.00     0.173 C 
ATOM     10  O   UNL     1      63.551  11.693  24.783  1.00  0.00    -0.342 OA
ATOM     11  C   UNL     1      61.371  11.282  23.744  1.00  0.00     0.096 C 
ATOM     12  C   UNL     1      61.420  12.709  23.214  1.00  0.00    -0.066 C 
ATOM     13  C   UNL     1      60.451  13.188  22.422  1.00  0.00     0.008 C 
ENDROOT
BRANCH   8  14
ATOM     14  C   UNL     1      62.063  11.314  27.620  1.00  0.00    -0.009 C 
ATOM     15  C   UNL     1      63.142  12.110  28.378  1.00  0.00     0.008 C 
ATOM     16  C   UNL     1      60.813  11.139  28.496  1.00  0.00     0.008 C 
ENDBRANCH   8  14
BRANCH   9  17
ATOM     17  O   UNL     1      62.440   9.744  25.304  1.00  0.00    -0.365 OA
ATOM     18  H   UNL     1      62.354   9.636  26.288  1.00  0.00     0.214 HD
ENDBRANCH   9  17
TORSDOF 2
ENDMDL
MODEL 8
REMARK VINA RESULT:    -5.542      7.761     10.689
REMARK INTER + INTRA:          -6.237
REMARK INTER:                  -5.969
REMARK INTRA:                  -0.267
REMARK UNBOUND:                -0.208
REMARK SMILES C=C1C[C@@]2(O)O[C@]3(C[C@@H]2C(C)C)[C@@H]1CC[C@@H]3C
REMARK SMILES IDX 17 1 16 2 15 3 14 4 13 5 7 6 8 7 9 8 4 9 6 10 3 11 2 12 1 13
REMARK SMILES IDX 10 14 11 15 12 16 5 17
REMARK H PARENT 5 18
REMARK Flexibility Score: inf
ROOT
ATOM      1  C   UNL     1      59.486  12.936  22.643  1.00  0.00     0.011 C 
ATOM      2  C   UNL     1      60.935  12.451  22.817  1.00  0.00     0.019 C 
ATOM      3  C   UNL     1      61.921  13.255  21.931  1.00  0.00     0.007 C 
ATOM      4  C   UNL     1      62.750  14.160  22.863  1.00  0.00     0.011 C 
ATOM      5  C   UNL     1      62.018  14.088  24.195  1.00  0.00     0.047 C 
ATOM      6  C   UNL     1      61.469  12.663  24.246  1.00  0.00     0.081 C 
ATOM      7  C   UNL     1      62.546  11.603  24.617  1.00  0.00     0.046 C 
ATOM      8  C   UNL     1      62.312  11.361  26.107  1.00  0.00     0.054 C 
ATOM      9  C   UNL     1      61.307  12.487  26.447  1.00  0.00     0.173 C 
ATOM     10  O   UNL     1      60.513  12.633  25.281  1.00  0.00    -0.342 OA
ATOM     11  C   UNL     1      62.065  13.834  26.747  1.00  0.00     0.096 C 
ATOM     12  C   UNL     1      62.725  14.392  25.493  1.00  0.00    -0.066 C 
ATOM     13  C   UNL     1      63.734  15.271  25.573  1.00  0.00     0.008 C 
ENDROOT
BRANCH   8  14
ATOM     14  C   UNL     1      61.808   9.917  26.445  1.00  0.00    -0.009 C 
ATOM     15  C   UNL     1      61.660   8.993  25.221  1.00  0.00     0.008 C 
ATOM     16  C   UNL     1      62.691   9.253  27.512  1.00  0.00     0.008 C 
ENDBRANCH   8  14
BRANCH   9  17
ATOM     17  O   UNL     1      60.481  12.158  27.534  1.00  0.00    -0.365 OA
ATOM     18  H   UNL     1      59.737  12.817  27.551  1.00  0.00     0.214 HD
ENDBRANCH   9  17
TORSDOF 2
ENDMDL
MODEL 9
REMARK VINA RESULT:    -5.387      2.230      4.460
REMARK INTER + INTRA:          -6.067
REMARK INTER:                  -5.790
REMARK INTRA:                  -0.277
REMARK UNBOUND:                -0.208
REMARK SMILES C=C1C[C@@]2(O)O[C@]3(C[C@@H]2C(C)C)[C@@H]1CC[C@@H]3C
REMARK SMILES IDX 17 1 16 2 15 3 14 4 13 5 7 6 8 7 9 8 4 9 6 10 3 11 2 12 1 13
REMARK SMILES IDX 10 14 11 15 12 16 5 17
REMARK H PARENT 5 18
REMARK Flexibility Score: inf
ROOT
ATOM      1  C   UNL     1      53.660  10.562  15.625  1.00  0.00     0.011 C 
ATOM      2  C   UNL     1      54.491  11.608  14.863  1.00  0.00     0.019 C 
ATOM      3  C   UNL     1      54.311  13.029  15.457  1.00  0.00     0.007 C 
ATOM      4  C   UNL     1      55.620  13.399  16.180  1.00  0.00     0.011 C 
ATOM      5  C   UNL     1      56.385  12.086  16.254  1.00  0.00     0.047 C 
ATOM      6  C   UNL     1      56.007  11.357  14.965  1.00  0.00     0.081 C 
ATOM      7  C   UNL     1      56.760  11.892  13.713  1.00  0.00     0.046 C 
ATOM      8  C   UNL     1      57.895  10.887  13.522  1.00  0.00     0.054 C 
ATOM      9  C   UNL     1      57.794  10.059  14.825  1.00  0.00     0.173 C 
ATOM     10  O   UNL     1      56.410  10.015  15.125  1.00  0.00    -0.342 OA
ATOM     11  C   UNL     1      58.571  10.769  15.995  1.00  0.00     0.096 C 
ATOM     12  C   UNL     1      57.886  12.064  16.412  1.00  0.00    -0.066 C 
ATOM     13  C   UNL     1      58.553  13.019  17.074  1.00  0.00     0.008 C 
ENDROOT
BRANCH   8  14
ATOM     14  C   UNL     1      57.784  10.046  12.207  1.00  0.00    -0.009 C 
ATOM     15  C   UNL     1      56.477  10.264  11.420  1.00  0.00     0.008 C 
ATOM     16  C   UNL     1      59.000  10.271  11.295  1.00  0.00     0.008 C 
ENDBRANCH   8  14
BRANCH   9  17
ATOM     17  O   UNL     1      58.276   8.749  14.665  1.00  0.00    -0.365 OA
ATOM     18  H   UNL     1      58.619   8.450  15.548  1.00  0.00     0.214 HD
ENDBRANCH   9  17
TORSDOF 2
ENDMDL
