MODEL 1
REMARK VINA RESULT:    -1.559      0.000      0.000
REMARK INTER + INTRA:          -1.880
REMARK INTER:                  -1.832
REMARK INTRA:                  -0.048
REMARK UNBOUND:                -0.048
REMARK SMILES CCCCC(=O)[O-]
REMARK SMILES IDX 4 1 5 2 6 3 7 4 3 5 2 6 1 7
REMARK H PARENT
REMARK Flexibility Score: inf
ROOT
ATOM      1  C   UNL     1      15.802   6.702   9.304  1.00  0.00     0.053 C 
ENDROOT
BRANCH   1   2
ATOM      2  C   UNL     1      17.004   7.498   9.700  1.00  0.00     0.041 C 
ATOM      3  O   UNL     1      18.079   6.916  10.005  1.00  0.00    -0.550 OA
ATOM      4  O   UNL     1      16.954   8.886   9.684  1.00  0.00    -0.550 OA
ENDBRANCH   1   2
BRANCH   1   5
ATOM      5  C   UNL     1      15.733   6.559   7.778  1.00  0.00     0.006 C 
BRANCH   5   6
ATOM      6  C   UNL     1      15.866   5.099   7.316  1.00  0.00    -0.003 C 
ATOM      7  C   UNL     1      16.949   4.911   6.255  1.00  0.00     0.004 C 
ENDBRANCH   5   6
ENDBRANCH   1   5
TORSDOF 3
ENDMDL
MODEL 2
REMARK VINA RESULT:    -1.494      0.735      1.423
REMARK INTER + INTRA:          -1.804
REMARK INTER:                  -1.876
REMARK INTRA:                   0.072
REMARK UNBOUND:                -0.048
REMARK SMILES CCCCC(=O)[O-]
REMARK SMILES IDX 4 1 5 2 6 3 7 4 3 5 2 6 1 7
REMARK H PARENT
REMARK Flexibility Score: inf
ROOT
ATOM      1  C   UNL     1      15.542   6.184   8.950  1.00  0.00     0.053 C 
ENDROOT
BRANCH   1   2
ATOM      2  C   UNL     1      16.568   7.161   9.430  1.00  0.00     0.041 C 
ATOM      3  O   UNL     1      16.253   8.364   9.632  1.00  0.00    -0.550 OA
ATOM      4  O   UNL     1      17.861   6.733   9.702  1.00  0.00    -0.550 OA
ENDBRANCH   1   2
BRANCH   1   5
ATOM      5  C   UNL     1      15.636   6.012   7.429  1.00  0.00     0.006 C 
BRANCH   5   6
ATOM      6  C   UNL     1      16.900   5.251   6.999  1.00  0.00    -0.003 C 
ATOM      7  C   UNL     1      16.634   4.250   5.875  1.00  0.00     0.004 C 
ENDBRANCH   5   6
ENDBRANCH   1   5
TORSDOF 3
ENDMDL
MODEL 3
REMARK VINA RESULT:    -0.929      2.441      3.790
REMARK INTER + INTRA:          -1.140
REMARK INTER:                  -1.049
REMARK INTRA:                  -0.091
REMARK UNBOUND:                -0.048
REMARK SMILES CCCCC(=O)[O-]
REMARK SMILES IDX 4 1 5 2 6 3 7 4 3 5 2 6 1 7
REMARK H PARENT
REMARK Flexibility Score: inf
ROOT
ATOM      1  C   UNL     1      15.625   5.955   7.226  1.00  0.00     0.053 C 
ENDROOT
BRANCH   1   2
ATOM      2  C   UNL     1      16.684   5.047   6.686  1.00  0.00     0.041 C 
ATOM      3  O   UNL     1      16.382   4.131   5.875  1.00  0.00    -0.550 OA
ATOM      4  O   UNL     1      18.013   5.241   7.041  1.00  0.00    -0.550 OA
ENDBRANCH   1   2
BRANCH   1   5
ATOM      5  C   UNL     1      15.645   5.948   8.759  1.00  0.00     0.006 C 
BRANCH   5   6
ATOM      6  C   UNL     1      15.872   7.347   9.352  1.00  0.00    -0.003 C 
ATOM      7  C   UNL     1      17.248   7.498  10.000  1.00  0.00     0.004 C 
ENDBRANCH   5   6
ENDBRANCH   1   5
TORSDOF 3
ENDMDL
MODEL 4
REMARK VINA RESULT:    -0.514     25.993     26.719
REMARK INTER + INTRA:          -0.652
REMARK INTER:                  -0.631
REMARK INTRA:                  -0.021
REMARK UNBOUND:                -0.048
REMARK SMILES CCCCC(=O)[O-]
REMARK SMILES IDX 4 1 5 2 6 3 7 4 3 5 2 6 1 7
REMARK H PARENT
REMARK Flexibility Score: inf
ROOT
ATOM      1  C   UNL     1      -0.309  -4.763  26.124  1.00  0.00     0.053 C 
ENDROOT
BRANCH   1   2
ATOM      2  C   UNL     1      -1.203  -5.835  25.588  1.00  0.00     0.041 C 
ATOM      3  O   UNL     1      -1.219  -6.975  26.123  1.00  0.00    -0.550 OA
ATOM      4  O   UNL     1      -2.057  -5.561  24.526  1.00  0.00    -0.550 OA
ENDBRANCH   1   2
BRANCH   1   5
ATOM      5  C   UNL     1       1.160  -5.096  25.834  1.00  0.00     0.006 C 
BRANCH   5   6
ATOM      6  C   UNL     1       1.918  -3.919  25.201  1.00  0.00    -0.003 C 
ATOM      7  C   UNL     1       2.000  -2.704  26.125  1.00  0.00     0.004 C 
ENDBRANCH   5   6
ENDBRANCH   1   5
TORSDOF 3
ENDMDL
MODEL 5
REMARK VINA RESULT:    -0.389     26.641     27.306
REMARK INTER + INTRA:          -0.506
REMARK INTER:                  -0.648
REMARK INTRA:                   0.143
REMARK UNBOUND:                -0.048
REMARK SMILES CCCCC(=O)[O-]
REMARK SMILES IDX 4 1 5 2 6 3 7 4 3 5 2 6 1 7
REMARK H PARENT
REMARK Flexibility Score: inf
ROOT
ATOM      1  C   UNL     1      -0.617  -4.928  26.124  1.00  0.00     0.053 C 
ENDROOT
BRANCH   1   2
ATOM      2  C   UNL     1      -1.559  -5.872  25.447  1.00  0.00     0.041 C 
ATOM      3  O   UNL     1      -2.005  -5.609  24.298  1.00  0.00    -0.550 OA
ATOM      4  O   UNL     1      -1.907  -7.067  26.063  1.00  0.00    -0.550 OA
ENDBRANCH   1   2
BRANCH   1   5
ATOM      5  C   UNL     1       0.825  -5.196  25.674  1.00  0.00     0.006 C 
BRANCH   5   6
ATOM      6  C   UNL     1       1.121  -6.695  25.505  1.00  0.00    -0.003 C 
ATOM      7  C   UNL     1       2.457  -7.106  26.123  1.00  0.00     0.004 C 
ENDBRANCH   5   6
ENDBRANCH   1   5
TORSDOF 3
ENDMDL
