MODEL 1
REMARK VINA RESULT:    -4.996      0.000      0.000
REMARK INTER + INTRA:         -11.107
REMARK INTER:                  -9.376
REMARK INTRA:                  -1.731
REMARK UNBOUND:                -1.731
REMARK SMILES O=C([O-])CCCCCCCCCCCCCCC(=O)[O-]
REMARK SMILES IDX 10 1 9 2 8 3 7 4 6 5 5 6 4 7 2 8 1 9 3 10 11 11 12 12 13 13
REMARK SMILES IDX 14 14 15 15 16 16 17 17 18 18 19 19 20 20
REMARK H PARENT
REMARK Flexibility Score: inf
ROOT
ATOM      1  C   UNL     1      23.347  -3.621  36.945  1.00  0.00     0.000 C 
ENDROOT
BRANCH   1   2
ATOM      2  C   UNL     1      23.387  -2.657  35.749  1.00  0.00     0.000 C 
BRANCH   2   3
ATOM      3  C   UNL     1      22.694  -1.318  36.048  1.00  0.00     0.000 C 
BRANCH   3   4
ATOM      4  C   UNL     1      21.538  -1.022  35.075  1.00  0.00     0.000 C 
BRANCH   4   5
ATOM      5  C   UNL     1      20.542  -2.189  34.972  1.00  0.00     0.000 C 
BRANCH   5   6
ATOM      6  C   UNL     1      20.427  -2.742  33.544  1.00  0.00     0.006 C 
BRANCH   6   7
ATOM      7  C   UNL     1      20.256  -4.264  33.558  1.00  0.00     0.053 C 
BRANCH   7   8
ATOM      8  C   UNL     1      21.187  -4.905  32.579  1.00  0.00     0.041 C 
ATOM      9  O   UNL     1      20.811  -5.123  31.398  1.00  0.00    -0.550 OA
ATOM     10  O   UNL     1      22.485  -5.222  32.958  1.00  0.00    -0.550 OA
ENDBRANCH   7   8
ENDBRANCH   6   7
ENDBRANCH   5   6
ENDBRANCH   4   5
ENDBRANCH   3   4
ENDBRANCH   2   3
ENDBRANCH   1   2
BRANCH   1  11
ATOM     11  C   UNL     1      22.945  -5.033  36.496  1.00  0.00     0.000 C 
BRANCH  11  12
ATOM     12  C   UNL     1      21.644  -5.523  37.159  1.00  0.00     0.000 C 
BRANCH  12  13
ATOM     13  C   UNL     1      21.701  -5.660  38.695  1.00  0.00     0.000 C 
BRANCH  13  14
ATOM     14  C   UNL     1      21.906  -7.093  39.219  1.00  0.00     0.000 C 
BRANCH  14  15
ATOM     15  C   UNL     1      23.382  -7.421  39.498  1.00  0.00     0.000 C 
BRANCH  15  16
ATOM     16  C   UNL     1      24.208  -6.170  39.845  1.00  0.00     0.006 C 
BRANCH  16  17
ATOM     17  C   UNL     1      25.456  -6.023  38.965  1.00  0.00     0.053 C 
BRANCH  17  18
ATOM     18  C   UNL     1      26.656  -5.728  39.808  1.00  0.00     0.041 C 
ATOM     19  O   UNL     1      27.728  -5.344  39.272  1.00  0.00    -0.550 OA
ATOM     20  O   UNL     1      26.574  -5.825  41.191  1.00  0.00    -0.550 OA
ENDBRANCH  17  18
ENDBRANCH  16  17
ENDBRANCH  15  16
ENDBRANCH  14  15
ENDBRANCH  13  14
ENDBRANCH  12  13
ENDBRANCH  11  12
ENDBRANCH   1  11
TORSDOF 15
ENDMDL
MODEL 2
REMARK VINA RESULT:    -4.990      4.567      7.515
REMARK INTER + INTRA:         -11.098
REMARK INTER:                  -8.910
REMARK INTRA:                  -2.188
REMARK UNBOUND:                -1.731
REMARK SMILES O=C([O-])CCCCCCCCCCCCCCC(=O)[O-]
REMARK SMILES IDX 10 1 9 2 8 3 7 4 6 5 5 6 4 7 2 8 1 9 3 10 11 11 12 12 13 13
REMARK SMILES IDX 14 14 15 15 16 16 17 17 18 18 19 19 20 20
REMARK H PARENT
REMARK Flexibility Score: inf
ROOT
ATOM      1  C   UNL     1      22.410  -6.520  31.833  1.00  0.00     0.000 C 
ENDROOT
BRANCH   1   2
ATOM      2  C   UNL     1      22.413  -5.406  32.892  1.00  0.00     0.000 C 
BRANCH   2   3
ATOM      3  C   UNL     1      21.660  -5.805  34.170  1.00  0.00     0.000 C 
BRANCH   3   4
ATOM      4  C   UNL     1      21.109  -4.587  34.935  1.00  0.00     0.000 C 
BRANCH   4   5
ATOM      5  C   UNL     1      19.945  -3.905  34.198  1.00  0.00     0.000 C 
BRANCH   5   6
ATOM      6  C   UNL     1      20.313  -2.510  33.676  1.00  0.00     0.006 C 
BRANCH   6   7
ATOM      7  C   UNL     1      20.214  -1.464  34.789  1.00  0.00     0.053 C 
BRANCH   7   8
ATOM      8  C   UNL     1      21.520  -0.756  34.963  1.00  0.00     0.041 C 
ATOM      9  O   UNL     1      21.595   0.488  34.788  1.00  0.00    -0.550 OA
ATOM     10  O   UNL     1      22.646  -1.464  35.364  1.00  0.00    -0.550 OA
ENDBRANCH   7   8
ENDBRANCH   6   7
ENDBRANCH   5   6
ENDBRANCH   4   5
ENDBRANCH   3   4
ENDBRANCH   2   3
ENDBRANCH   1   2
BRANCH   1  11
ATOM     11  C   UNL     1      22.182  -5.942  30.429  1.00  0.00     0.000 C 
BRANCH  11  12
ATOM     12  C   UNL     1      20.754  -6.184  29.908  1.00  0.00     0.000 C 
BRANCH  12  13
ATOM     13  C   UNL     1      19.680  -5.226  30.464  1.00  0.00     0.000 C 
BRANCH  13  14
ATOM     14  C   UNL     1      18.702  -5.851  31.474  1.00  0.00     0.000 C 
BRANCH  14  15
ATOM     15  C   UNL     1      18.851  -7.378  31.583  1.00  0.00     0.000 C 
BRANCH  15  16
ATOM     16  C   UNL     1      18.702  -7.883  33.028  1.00  0.00     0.006 C 
BRANCH  16  17
ATOM     17  C   UNL     1      17.781  -6.991  33.873  1.00  0.00     0.053 C 
BRANCH  17  18
ATOM     18  C   UNL     1      16.610  -7.776  34.371  1.00  0.00     0.041 C 
ATOM     19  O   UNL     1      16.034  -8.604  33.617  1.00  0.00    -0.550 OA
ATOM     20  O   UNL     1      16.185  -7.633  35.686  1.00  0.00    -0.550 OA
ENDBRANCH  17  18
ENDBRANCH  16  17
ENDBRANCH  15  16
ENDBRANCH  14  15
ENDBRANCH  13  14
ENDBRANCH  12  13
ENDBRANCH  11  12
ENDBRANCH   1  11
TORSDOF 15
ENDMDL
MODEL 3
REMARK VINA RESULT:    -4.969      0.953      7.434
REMARK INTER + INTRA:         -11.058
REMARK INTER:                  -9.344
REMARK INTRA:                  -1.714
REMARK UNBOUND:                -1.731
REMARK SMILES O=C([O-])CCCCCCCCCCCCCCC(=O)[O-]
REMARK SMILES IDX 10 1 9 2 8 3 7 4 6 5 5 6 4 7 2 8 1 9 3 10 11 11 12 12 13 13
REMARK SMILES IDX 14 14 15 15 16 16 17 17 18 18 19 19 20 20
REMARK H PARENT
REMARK Flexibility Score: inf
ROOT
ATOM      1  C   UNL     1      23.380  -3.445  36.867  1.00  0.00     0.000 C 
ENDROOT
BRANCH   1   2
ATOM      2  C   UNL     1      22.897  -4.887  36.651  1.00  0.00     0.000 C 
BRANCH   2   3
ATOM      3  C   UNL     1      21.608  -5.201  37.427  1.00  0.00     0.000 C 
BRANCH   3   4
ATOM      4  C   UNL     1      21.854  -6.133  38.627  1.00  0.00     0.000 C 
BRANCH   4   5
ATOM      5  C   UNL     1      23.207  -6.859  38.541  1.00  0.00     0.000 C 
BRANCH   5   6
ATOM      6  C   UNL     1      23.947  -6.889  39.886  1.00  0.00     0.006 C 
BRANCH   6   7
ATOM      7  C   UNL     1      24.839  -5.656  40.048  1.00  0.00     0.053 C 
BRANCH   7   8
ATOM      8  C   UNL     1      26.266  -5.998  39.760  1.00  0.00     0.041 C 
ATOM      9  O   UNL     1      26.671  -7.183  39.885  1.00  0.00    -0.550 OA
ATOM     10  O   UNL     1      27.139  -5.016  39.310  1.00  0.00    -0.550 OA
ENDBRANCH   7   8
ENDBRANCH   6   7
ENDBRANCH   5   6
ENDBRANCH   4   5
ENDBRANCH   3   4
ENDBRANCH   2   3
ENDBRANCH   1   2
BRANCH   1  11
ATOM     11  C   UNL     1      23.305  -2.640  35.562  1.00  0.00     0.000 C 
BRANCH  11  12
ATOM     12  C   UNL     1      22.513  -1.328  35.713  1.00  0.00     0.000 C 
BRANCH  12  13
ATOM     13  C   UNL     1      21.338  -1.154  34.729  1.00  0.00     0.000 C 
BRANCH  13  14
ATOM     14  C   UNL     1      20.305  -2.295  34.730  1.00  0.00     0.000 C 
BRANCH  14  15
ATOM     15  C   UNL     1      20.369  -3.158  33.460  1.00  0.00     0.000 C 
BRANCH  15  16
ATOM     16  C   UNL     1      20.606  -4.646  33.770  1.00  0.00     0.006 C 
BRANCH  16  17
ATOM     17  C   UNL     1      21.753  -5.246  32.945  1.00  0.00     0.053 C 
BRANCH  17  18
ATOM     18  C   UNL     1      21.229  -5.826  31.670  1.00  0.00     0.041 C 
ATOM     19  O   UNL     1      21.628  -5.385  30.561  1.00  0.00    -0.550 OA
ATOM     20  O   UNL     1      20.339  -6.892  31.705  1.00  0.00    -0.550 OA
ENDBRANCH  17  18
ENDBRANCH  16  17
ENDBRANCH  15  16
ENDBRANCH  14  15
ENDBRANCH  13  14
ENDBRANCH  12  13
ENDBRANCH  11  12
ENDBRANCH   1  11
TORSDOF 15
ENDMDL
MODEL 4
REMARK VINA RESULT:    -4.962      3.056      7.569
REMARK INTER + INTRA:         -11.044
REMARK INTER:                  -9.592
REMARK INTRA:                  -1.453
REMARK UNBOUND:                -1.731
REMARK SMILES O=C([O-])CCCCCCCCCCCCCCC(=O)[O-]
REMARK SMILES IDX 10 1 9 2 8 3 7 4 6 5 5 6 4 7 2 8 1 9 3 10 11 11 12 12 13 13
REMARK SMILES IDX 14 14 15 15 16 16 17 17 18 18 19 19 20 20
REMARK H PARENT
REMARK Flexibility Score: inf
ROOT
ATOM      1  C   UNL     1      21.011  -4.709  37.749  1.00  0.00     0.000 C 
ENDROOT
BRANCH   1   2
ATOM      2  C   UNL     1      21.134  -6.064  38.462  1.00  0.00     0.000 C 
BRANCH   2   3
ATOM      3  C   UNL     1      22.534  -6.297  39.051  1.00  0.00     0.000 C 
BRANCH   3   4
ATOM      4  C   UNL     1      23.642  -6.222  37.985  1.00  0.00     0.000 C 
BRANCH   4   5
ATOM      5  C   UNL     1      24.780  -5.268  38.383  1.00  0.00     0.000 C 
BRANCH   5   6
ATOM      6  C   UNL     1      25.177  -5.406  39.859  1.00  0.00     0.006 C 
BRANCH   6   7
ATOM      7  C   UNL     1      26.653  -5.787  39.996  1.00  0.00     0.053 C 
BRANCH   7   8
ATOM      8  C   UNL     1      26.852  -7.238  39.690  1.00  0.00     0.041 C 
ATOM      9  O   UNL     1      25.980  -8.081  40.025  1.00  0.00    -0.550 OA
ATOM     10  O   UNL     1      27.980  -7.653  38.993  1.00  0.00    -0.550 OA
ENDBRANCH   7   8
ENDBRANCH   6   7
ENDBRANCH   5   6
ENDBRANCH   4   5
ENDBRANCH   3   4
ENDBRANCH   2   3
ENDBRANCH   1   2
BRANCH   1  11
ATOM     11  C   UNL     1      20.396  -4.877  36.353  1.00  0.00     0.000 C 
BRANCH  11  12
ATOM     12  C   UNL     1      21.071  -3.990  35.291  1.00  0.00     0.000 C 
BRANCH  12  13
ATOM     13  C   UNL     1      22.613  -3.993  35.317  1.00  0.00     0.000 C 
BRANCH  13  14
ATOM     14  C   UNL     1      23.264  -2.699  35.839  1.00  0.00     0.000 C 
BRANCH  14  15
ATOM     15  C   UNL     1      22.248  -1.564  36.050  1.00  0.00     0.000 C 
BRANCH  15  16
ATOM     16  C   UNL     1      22.799  -0.193  35.624  1.00  0.00     0.006 C 
BRANCH  16  17
ATOM     17  C   UNL     1      21.785   0.627  34.815  1.00  0.00     0.053 C 
BRANCH  17  18
ATOM     18  C   UNL     1      21.346   1.826  35.594  1.00  0.00     0.041 C 
ATOM     19  O   UNL     1      21.792   2.967  35.305  1.00  0.00    -0.550 OA
ATOM     20  O   UNL     1      20.403   1.691  36.606  1.00  0.00    -0.550 OA
ENDBRANCH  17  18
ENDBRANCH  16  17
ENDBRANCH  15  16
ENDBRANCH  14  15
ENDBRANCH  13  14
ENDBRANCH  12  13
ENDBRANCH  11  12
ENDBRANCH   1  11
TORSDOF 15
ENDMDL
MODEL 5
REMARK VINA RESULT:    -4.961      4.402      6.518
REMARK INTER + INTRA:         -11.043
REMARK INTER:                  -8.807
REMARK INTRA:                  -2.235
REMARK UNBOUND:                -1.731
REMARK SMILES O=C([O-])CCCCCCCCCCCCCCC(=O)[O-]
REMARK SMILES IDX 10 1 9 2 8 3 7 4 6 5 5 6 4 7 2 8 1 9 3 10 11 11 12 12 13 13
REMARK SMILES IDX 14 14 15 15 16 16 17 17 18 18 19 19 20 20
REMARK H PARENT
REMARK Flexibility Score: inf
ROOT
ATOM      1  C   UNL     1      20.803  -6.286  30.301  1.00  0.00     0.000 C 
ENDROOT
BRANCH   1   2
ATOM      2  C   UNL     1      22.260  -5.933  30.638  1.00  0.00     0.000 C 
BRANCH   2   3
ATOM      3  C   UNL     1      22.684  -6.438  32.026  1.00  0.00     0.000 C 
BRANCH   3   4
ATOM      4  C   UNL     1      22.086  -5.596  33.168  1.00  0.00     0.000 C 
BRANCH   4   5
ATOM      5  C   UNL     1      21.336  -6.451  34.202  1.00  0.00     0.000 C 
BRANCH   5   6
ATOM      6  C   UNL     1      19.813  -6.403  34.015  1.00  0.00     0.006 C 
BRANCH   6   7
ATOM      7  C   UNL     1      19.311  -7.651  33.283  1.00  0.00     0.053 C 
BRANCH   7   8
ATOM      8  C   UNL     1      17.816  -7.708  33.309  1.00  0.00     0.041 C 
ATOM      9  O   UNL     1      17.138  -6.704  32.969  1.00  0.00    -0.550 OA
ATOM     10  O   UNL     1      17.172  -8.886  33.664  1.00  0.00    -0.550 OA
ENDBRANCH   7   8
ENDBRANCH   6   7
ENDBRANCH   5   6
ENDBRANCH   4   5
ENDBRANCH   3   4
ENDBRANCH   2   3
ENDBRANCH   1   2
BRANCH   1  11
ATOM     11  C   UNL     1      20.011  -5.031  29.909  1.00  0.00     0.000 C 
BRANCH  11  12
ATOM     12  C   UNL     1      19.110  -4.513  31.045  1.00  0.00     0.000 C 
BRANCH  12  13
ATOM     13  C   UNL     1      19.626  -3.254  31.771  1.00  0.00     0.000 C 
BRANCH  13  14
ATOM     14  C   UNL     1      18.758  -2.772  32.947  1.00  0.00     0.000 C 
BRANCH  14  15
ATOM     15  C   UNL     1      19.525  -2.739  34.280  1.00  0.00     0.000 C 
BRANCH  15  16
ATOM     16  C   UNL     1      20.774  -1.844  34.219  1.00  0.00     0.006 C 
BRANCH  16  17
ATOM     17  C   UNL     1      21.920  -2.368  35.096  1.00  0.00     0.053 C 
BRANCH  17  18
ATOM     18  C   UNL     1      22.587  -1.238  35.812  1.00  0.00     0.041 C 
ATOM     19  O   UNL     1      22.491  -0.063  35.371  1.00  0.00    -0.550 OA
ATOM     20  O   UNL     1      23.272  -1.473  36.998  1.00  0.00    -0.550 OA
ENDBRANCH  17  18
ENDBRANCH  16  17
ENDBRANCH  15  16
ENDBRANCH  14  15
ENDBRANCH  13  14
ENDBRANCH  12  13
ENDBRANCH  11  12
ENDBRANCH   1  11
TORSDOF 15
ENDMDL
MODEL 6
REMARK VINA RESULT:    -4.869      1.386      2.633
REMARK INTER + INTRA:         -10.869
REMARK INTER:                  -9.367
REMARK INTRA:                  -1.502
REMARK UNBOUND:                -1.731
REMARK SMILES O=C([O-])CCCCCCCCCCCCCCC(=O)[O-]
REMARK SMILES IDX 10 1 9 2 8 3 7 4 6 5 5 6 4 7 2 8 1 9 3 10 11 11 12 12 13 13
REMARK SMILES IDX 14 14 15 15 16 16 17 17 18 18 19 19 20 20
REMARK H PARENT
REMARK Flexibility Score: inf
ROOT
ATOM      1  C   UNL     1      21.176  -1.185  36.322  1.00  0.00     0.000 C 
ENDROOT
BRANCH   1   2
ATOM      2  C   UNL     1      21.235  -1.345  34.795  1.00  0.00     0.000 C 
BRANCH   2   3
ATOM      3  C   UNL     1      19.990  -2.044  34.226  1.00  0.00     0.000 C 
BRANCH   3   4
ATOM      4  C   UNL     1      20.345  -3.253  33.341  1.00  0.00     0.000 C 
BRANCH   4   5
ATOM      5  C   UNL     1      20.992  -4.397  34.139  1.00  0.00     0.000 C 
BRANCH   5   6
ATOM      6  C   UNL     1      22.250  -4.954  33.458  1.00  0.00     0.006 C 
BRANCH   6   7
ATOM      7  C   UNL     1      21.985  -6.341  32.867  1.00  0.00     0.053 C 
BRANCH   7   8
ATOM      8  C   UNL     1      21.494  -6.227  31.458  1.00  0.00     0.041 C 
ATOM      9  O   UNL     1      20.265  -6.325  31.206  1.00  0.00    -0.550 OA
ATOM     10  O   UNL     1      22.390  -5.967  30.429  1.00  0.00    -0.550 OA
ENDBRANCH   7   8
ENDBRANCH   6   7
ENDBRANCH   5   6
ENDBRANCH   4   5
ENDBRANCH   3   4
ENDBRANCH   2   3
ENDBRANCH   1   2
BRANCH   1  11
ATOM     11  C   UNL     1      22.536  -1.503  36.960  1.00  0.00     0.000 C 
BRANCH  11  12
ATOM     12  C   UNL     1      23.344  -2.540  36.158  1.00  0.00     0.000 C 
BRANCH  12  13
ATOM     13  C   UNL     1      23.485  -3.922  36.827  1.00  0.00     0.000 C 
BRANCH  13  14
ATOM     14  C   UNL     1      22.534  -4.180  38.010  1.00  0.00     0.000 C 
BRANCH  14  15
ATOM     15  C   UNL     1      23.076  -5.230  38.994  1.00  0.00     0.000 C 
BRANCH  15  16
ATOM     16  C   UNL     1      24.613  -5.263  39.032  1.00  0.00     0.006 C 
BRANCH  16  17
ATOM     17  C   UNL     1      25.157  -6.246  40.077  1.00  0.00     0.053 C 
BRANCH  17  18
ATOM     18  C   UNL     1      26.547  -6.668  39.722  1.00  0.00     0.041 C 
ATOM     19  O   UNL     1      26.838  -7.890  39.639  1.00  0.00    -0.550 OA
ATOM     20  O   UNL     1      27.511  -5.710  39.429  1.00  0.00    -0.550 OA
ENDBRANCH  17  18
ENDBRANCH  16  17
ENDBRANCH  15  16
ENDBRANCH  14  15
ENDBRANCH  13  14
ENDBRANCH  12  13
ENDBRANCH  11  12
ENDBRANCH   1  11
TORSDOF 15
ENDMDL
MODEL 7
REMARK VINA RESULT:    -4.868      4.548      7.294
REMARK INTER + INTRA:         -10.867
REMARK INTER:                  -8.939
REMARK INTRA:                  -1.928
REMARK UNBOUND:                -1.731
REMARK SMILES O=C([O-])CCCCCCCCCCCCCCC(=O)[O-]
REMARK SMILES IDX 10 1 9 2 8 3 7 4 6 5 5 6 4 7 2 8 1 9 3 10 11 11 12 12 13 13
REMARK SMILES IDX 14 14 15 15 16 16 17 17 18 18 19 19 20 20
REMARK H PARENT
REMARK Flexibility Score: inf
ROOT
ATOM      1  C   UNL     1      21.348  -6.782  33.271  1.00  0.00     0.000 C 
ENDROOT
BRANCH   1   2
ATOM      2  C   UNL     1      22.185  -5.498  33.390  1.00  0.00     0.000 C 
BRANCH   2   3
ATOM      3  C   UNL     1      22.243  -4.963  34.829  1.00  0.00     0.000 C 
BRANCH   3   4
ATOM      4  C   UNL     1      22.056  -3.436  34.898  1.00  0.00     0.000 C 
BRANCH   4   5
ATOM      5  C   UNL     1      23.213  -2.733  35.626  1.00  0.00     0.000 C 
BRANCH   5   6
ATOM      6  C   UNL     1      22.927  -1.248  35.893  1.00  0.00     0.006 C 
BRANCH   6   7
ATOM      7  C   UNL     1      21.704  -0.775  35.104  1.00  0.00     0.053 C 
BRANCH   7   8
ATOM      8  C   UNL     1      21.581   0.715  35.168  1.00  0.00     0.041 C 
ATOM      9  O   UNL     1      20.973   1.259  36.126  1.00  0.00    -0.550 OA
ATOM     10  O   UNL     1      22.178   1.504  34.193  1.00  0.00    -0.550 OA
ENDBRANCH   7   8
ENDBRANCH   6   7
ENDBRANCH   5   6
ENDBRANCH   4   5
ENDBRANCH   3   4
ENDBRANCH   2   3
ENDBRANCH   1   2
BRANCH   1  11
ATOM     11  C   UNL     1      20.324  -6.665  32.133  1.00  0.00     0.000 C 
BRANCH  11  12
ATOM     12  C   UNL     1      20.958  -6.221  30.802  1.00  0.00     0.000 C 
BRANCH  12  13
ATOM     13  C   UNL     1      20.518  -4.831  30.297  1.00  0.00     0.000 C 
BRANCH  13  14
ATOM     14  C   UNL     1      19.237  -4.273  30.943  1.00  0.00     0.000 C 
BRANCH  14  15
ATOM     15  C   UNL     1      19.522  -3.171  31.977  1.00  0.00     0.000 C 
BRANCH  15  16
ATOM     16  C   UNL     1      18.342  -2.946  32.939  1.00  0.00     0.006 C 
BRANCH  16  17
ATOM     17  C   UNL     1      18.667  -3.363  34.380  1.00  0.00     0.053 C 
BRANCH  17  18
ATOM     18  C   UNL     1      18.302  -4.796  34.602  1.00  0.00     0.041 C 
ATOM     19  O   UNL     1      18.779  -5.428  35.580  1.00  0.00    -0.550 OA
ATOM     20  O   UNL     1      17.391  -5.420  33.759  1.00  0.00    -0.550 OA
ENDBRANCH  17  18
ENDBRANCH  16  17
ENDBRANCH  15  16
ENDBRANCH  14  15
ENDBRANCH  13  14
ENDBRANCH  12  13
ENDBRANCH  11  12
ENDBRANCH   1  11
TORSDOF 15
ENDMDL
MODEL 8
REMARK VINA RESULT:    -4.862      1.538      7.374
REMARK INTER + INTRA:         -10.857
REMARK INTER:                  -9.241
REMARK INTRA:                  -1.616
REMARK UNBOUND:                -1.731
REMARK SMILES O=C([O-])CCCCCCCCCCCCCCC(=O)[O-]
REMARK SMILES IDX 10 1 9 2 8 3 7 4 6 5 5 6 4 7 2 8 1 9 3 10 11 11 12 12 13 13
REMARK SMILES IDX 14 14 15 15 16 16 17 17 18 18 19 19 20 20
REMARK H PARENT
REMARK Flexibility Score: inf
ROOT
ATOM      1  C   UNL     1      21.665  -1.662  35.981  1.00  0.00     0.000 C 
ENDROOT
BRANCH   1   2
ATOM      2  C   UNL     1      23.170  -1.961  35.887  1.00  0.00     0.000 C 
BRANCH   2   3
ATOM      3  C   UNL     1      23.546  -3.304  36.531  1.00  0.00     0.000 C 
BRANCH   3   4
ATOM      4  C   UNL     1      22.729  -3.598  37.802  1.00  0.00     0.000 C 
BRANCH   4   5
ATOM      5  C   UNL     1      22.820  -5.071  38.234  1.00  0.00     0.000 C 
BRANCH   5   6
ATOM      6  C   UNL     1      24.266  -5.527  38.474  1.00  0.00     0.006 C 
BRANCH   6   7
ATOM      7  C   UNL     1      24.604  -5.518  39.967  1.00  0.00     0.053 C 
BRANCH   7   8
ATOM      8  C   UNL     1      25.961  -6.102  40.203  1.00  0.00     0.041 C 
ATOM      9  O   UNL     1      26.601  -5.814  41.247  1.00  0.00    -0.550 OA
ATOM     10  O   UNL     1      26.499  -7.000  39.290  1.00  0.00    -0.550 OA
ENDBRANCH   7   8
ENDBRANCH   6   7
ENDBRANCH   5   6
ENDBRANCH   4   5
ENDBRANCH   3   4
ENDBRANCH   2   3
ENDBRANCH   1   2
BRANCH   1  11
ATOM     11  C   UNL     1      21.069  -1.409  34.589  1.00  0.00     0.000 C 
BRANCH  11  12
ATOM     12  C   UNL     1      20.495  -2.683  33.944  1.00  0.00     0.000 C 
BRANCH  12  13
ATOM     13  C   UNL     1      20.283  -3.869  34.907  1.00  0.00     0.000 C 
BRANCH  13  14
ATOM     14  C   UNL     1      20.781  -5.232  34.391  1.00  0.00     0.000 C 
BRANCH  14  15
ATOM     15  C   UNL     1      22.157  -5.145  33.712  1.00  0.00     0.000 C 
BRANCH  15  16
ATOM     16  C   UNL     1      22.387  -6.280  32.699  1.00  0.00     0.006 C 
BRANCH  16  17
ATOM     17  C   UNL     1      22.274  -5.804  31.244  1.00  0.00     0.053 C 
BRANCH  17  18
ATOM     18  C   UNL     1      20.838  -5.725  30.832  1.00  0.00     0.041 C 
ATOM     19  O   UNL     1      20.091  -6.733  30.941  1.00  0.00    -0.550 OA
ATOM     20  O   UNL     1      20.310  -4.523  30.378  1.00  0.00    -0.550 OA
ENDBRANCH  17  18
ENDBRANCH  16  17
ENDBRANCH  15  16
ENDBRANCH  14  15
ENDBRANCH  13  14
ENDBRANCH  12  13
ENDBRANCH  11  12
ENDBRANCH   1  11
TORSDOF 15
ENDMDL
MODEL 9
REMARK VINA RESULT:    -4.852      4.225      7.947
REMARK INTER + INTRA:         -10.839
REMARK INTER:                  -8.437
REMARK INTRA:                  -2.402
REMARK UNBOUND:                -1.731
REMARK SMILES O=C([O-])CCCCCCCCCCCCCCC(=O)[O-]
REMARK SMILES IDX 10 1 9 2 8 3 7 4 6 5 5 6 4 7 2 8 1 9 3 10 11 11 12 12 13 13
REMARK SMILES IDX 14 14 15 15 16 16 17 17 18 18 19 19 20 20
REMARK H PARENT
REMARK Flexibility Score: inf
ROOT
ATOM      1  C   UNL     1      22.314  -6.099  32.309  1.00  0.00     0.000 C 
ENDROOT
BRANCH   1   2
ATOM      2  C   UNL     1      21.464  -7.038  33.178  1.00  0.00     0.000 C 
BRANCH   2   3
ATOM      3  C   UNL     1      21.261  -6.501  34.604  1.00  0.00     0.000 C 
BRANCH   3   4
ATOM      4  C   UNL     1      20.133  -5.455  34.685  1.00  0.00     0.000 C 
BRANCH   4   5
ATOM      5  C   UNL     1      20.570  -4.173  35.412  1.00  0.00     0.000 C 
BRANCH   5   6
ATOM      6  C   UNL     1      21.588  -3.354  34.606  1.00  0.00     0.006 C 
BRANCH   6   7
ATOM      7  C   UNL     1      22.746  -2.893  35.494  1.00  0.00     0.053 C 
BRANCH   7   8
ATOM      8  C   UNL     1      22.615  -1.438  35.815  1.00  0.00     0.041 C 
ATOM      9  O   UNL     1      23.289  -0.933  36.750  1.00  0.00    -0.550 OA
ATOM     10  O   UNL     1      21.780  -0.631  35.053  1.00  0.00    -0.550 OA
ENDBRANCH   7   8
ENDBRANCH   6   7
ENDBRANCH   5   6
ENDBRANCH   4   5
ENDBRANCH   3   4
ENDBRANCH   2   3
ENDBRANCH   1   2
BRANCH   1  11
ATOM     11  C   UNL     1      21.563  -5.709  31.028  1.00  0.00     0.000 C 
BRANCH  11  12
ATOM     12  C   UNL     1      20.087  -6.145  31.043  1.00  0.00     0.000 C 
BRANCH  12  13
ATOM     13  C   UNL     1      19.061  -4.993  31.049  1.00  0.00     0.000 C 
BRANCH  13  14
ATOM     14  C   UNL     1      19.636  -3.604  31.381  1.00  0.00     0.000 C 
BRANCH  14  15
ATOM     15  C   UNL     1      18.765  -2.821  32.377  1.00  0.00     0.000 C 
BRANCH  15  16
ATOM     16  C   UNL     1      17.512  -3.603  32.807  1.00  0.00     0.006 C 
BRANCH  16  17
ATOM     17  C   UNL     1      16.906  -3.076  34.115  1.00  0.00     0.053 C 
BRANCH  17  18
ATOM     18  C   UNL     1      16.492  -1.647  33.958  1.00  0.00     0.041 C 
ATOM     19  O   UNL     1      15.562  -1.339  33.168  1.00  0.00    -0.550 OA
ATOM     20  O   UNL     1      17.099  -0.660  34.725  1.00  0.00    -0.550 OA
ENDBRANCH  17  18
ENDBRANCH  16  17
ENDBRANCH  15  16
ENDBRANCH  14  15
ENDBRANCH  13  14
ENDBRANCH  12  13
ENDBRANCH  11  12
ENDBRANCH   1  11
TORSDOF 15
ENDMDL
