MODEL 1
REMARK VINA RESULT:    -5.154      0.000      0.000
REMARK INTER + INTRA:          -7.277
REMARK INTER:                  -7.263
REMARK INTRA:                  -0.014
REMARK UNBOUND:                -0.014
REMARK SMILES CC1=CCC(=C(C)C)C(=O)CC(C)=CCC1
REMARK SMILES IDX 12 1 14 2 13 3 15 4 16 5 2 6 1 7 3 8 11 10 9 11 10 12 5 13
REMARK SMILES IDX 6 14 7 15 8 16 4 17
REMARK H PARENT
REMARK Flexibility Score: 60.00
ROOT
ATOM      1  C   UNL     1      -8.328  30.017  23.627  1.00  0.00    -0.070 C 
ATOM      2  C   UNL     1      -8.625  29.692  24.917  1.00  0.00    -0.027 C 
ATOM      3  C   UNL     1      -8.529  28.925  22.602  1.00  0.00     0.039 C 
ENDROOT
BRANCH   2   4
ATOM      4  C   UNL     1      -8.502  30.556  26.153  1.00  0.00     0.032 C 
BRANCH   4   5
ATOM      5  C   UNL     1      -9.421  31.800  26.196  1.00  0.00     0.034 C 
BRANCH   5   6
ATOM      6  C   UNL     1      -8.695  33.116  26.385  1.00  0.00    -0.077 C 
ATOM      7  C   UNL     1      -7.875  33.310  27.636  1.00  0.00     0.039 C 
ATOM      8  C   UNL     1      -8.699  34.108  25.469  1.00  0.00    -0.023 CG0
ATOM      9  G   UNL     1      -9.467  34.142  24.166  1.00  0.00     0.000 G0
ENDBRANCH   5   6
ENDBRANCH   4   5
ENDBRANCH   2   4
BRANCH   1  10
ATOM     10  C   UNL     1      -7.712  31.320  23.113  1.00  0.00     0.111 C 
BRANCH  10  11
ATOM     11  C   UNL     1      -8.646  32.307  22.460  1.00  0.00     0.163 C 
ATOM     12  O   UNL     1      -9.359  31.851  21.526  1.00  0.00    -0.294 OA
BRANCH  11  13
ATOM     13  C   UNL     1      -8.738  33.767  22.853  1.00  0.00    -0.002 C 
ATOM     14  C   UNL     1      -8.091  34.749  22.134  1.00  0.00    -0.069 C 
ATOM     15  C   UNL     1      -7.346  34.467  20.845  1.00  0.00     0.039 C 
ATOM     16  C   UNL     1      -8.087  36.196  22.584  1.00  0.00     0.039 C 
BRANCH  13  17
ATOM     17  C   UNL     1      -9.477  34.137  24.149  1.00  0.00     0.066 CG0
ATOM     18  G   UNL     1      -8.681  34.096  25.434  1.00  0.00     0.000 G0
ENDBRANCH  13  17
ENDBRANCH  11  13
ENDBRANCH  10  11
ENDBRANCH   1  10
TORSDOF 0
ENDMDL
MODEL 2
REMARK VINA RESULT:    -5.153      2.021      4.039
REMARK INTER + INTRA:          -7.275
REMARK INTER:                  -7.374
REMARK INTRA:                   0.098
REMARK UNBOUND:                -0.014
REMARK SMILES CC1=CCC(=C(C)C)C(=O)CC(C)=CCC1
REMARK SMILES IDX 12 1 14 2 13 3 15 4 16 5 2 6 1 7 3 8 11 10 9 11 10 12 5 13
REMARK SMILES IDX 6 14 7 15 8 16 4 17
REMARK H PARENT
REMARK Flexibility Score: 60.00
ROOT
ATOM      1  C   UNL     1      -8.407  34.489  25.913  1.00  0.00    -0.070 C 
ATOM      2  C   UNL     1      -8.346  33.923  27.151  1.00  0.00    -0.027 C 
ATOM      3  C   UNL     1      -7.865  35.895  25.796  1.00  0.00     0.039 C 
ENDROOT
BRANCH   2   4
ATOM      4  C   UNL     1      -8.829  32.554  27.579  1.00  0.00     0.032 C 
BRANCH   4   5
ATOM      5  C   UNL     1      -7.908  31.369  27.202  1.00  0.00     0.034 C 
BRANCH   5   6
ATOM      6  C   UNL     1      -8.582  30.276  26.399  1.00  0.00    -0.077 C 
ATOM      7  C   UNL     1      -9.548  29.357  27.106  1.00  0.00     0.039 C 
ATOM      8  C   UNL     1      -8.406  30.109  25.071  1.00  0.00    -0.023 CG0
ATOM      9  G   UNL     1      -7.473  30.890  24.172  1.00  0.00     0.000 G0
ENDBRANCH   5   6
ENDBRANCH   4   5
ENDBRANCH   2   4
BRANCH   1  10
ATOM     10  C   UNL     1      -9.062  33.913  24.655  1.00  0.00     0.111 C 
BRANCH  10  11
ATOM     11  C   UNL     1      -8.140  33.363  23.597  1.00  0.00     0.163 C 
ATOM     12  O   UNL     1      -7.393  34.204  23.029  1.00  0.00    -0.294 OA
BRANCH  11  13
ATOM     13  C   UNL     1      -8.098  31.903  23.192  1.00  0.00    -0.002 C 
ATOM     14  C   UNL     1      -8.697  31.459  22.032  1.00  0.00    -0.069 C 
ATOM     15  C   UNL     1      -9.332  32.397  21.025  1.00  0.00     0.039 C 
ATOM     16  C   UNL     1      -8.755  29.988  21.677  1.00  0.00     0.039 C 
BRANCH  13  17
ATOM     17  C   UNL     1      -7.471  30.887  24.159  1.00  0.00     0.066 CG0
ATOM     18  G   UNL     1      -8.412  30.128  25.069  1.00  0.00     0.000 G0
ENDBRANCH  13  17
ENDBRANCH  11  13
ENDBRANCH  10  11
ENDBRANCH   1  10
TORSDOF 0
ENDMDL
MODEL 3
REMARK VINA RESULT:    -5.009      1.738      4.733
REMARK INTER + INTRA:          -7.073
REMARK INTER:                  -7.096
REMARK INTRA:                   0.024
REMARK UNBOUND:                -0.014
REMARK SMILES CC1=CCC(=C(C)C)C(=O)CC(C)=CCC1
REMARK SMILES IDX 12 1 14 2 13 3 15 4 16 5 2 6 1 7 3 8 11 10 9 11 10 12 5 13
REMARK SMILES IDX 6 14 7 15 8 16 4 17
REMARK H PARENT
REMARK Flexibility Score: 60.00
ROOT
ATOM      1  C   UNL     1      -7.680  34.529  22.330  1.00  0.00    -0.070 C 
ATOM      2  C   UNL     1      -7.841  33.685  21.272  1.00  0.00    -0.027 C 
ATOM      3  C   UNL     1      -7.582  36.000  22.000  1.00  0.00     0.039 C 
ENDROOT
BRANCH   2   4
ATOM      4  C   UNL     1      -7.944  32.175  21.286  1.00  0.00     0.032 C 
BRANCH   4   5
ATOM      5  C   UNL     1      -9.042  31.585  22.203  1.00  0.00     0.034 C 
BRANCH   5   6
ATOM      6  C   UNL     1      -8.539  30.598  23.236  1.00  0.00    -0.077 C 
ATOM      7  C   UNL     1      -7.668  29.456  22.773  1.00  0.00     0.039 C 
ATOM      8  C   UNL     1      -8.786  30.712  24.558  1.00  0.00    -0.023 CG0
ATOM      9  G   UNL     1      -9.649  31.752  25.237  1.00  0.00     0.000 G0
ENDBRANCH   5   6
ENDBRANCH   4   5
ENDBRANCH   2   4
BRANCH   1  10
ATOM     10  C   UNL     1      -7.476  34.153  23.800  1.00  0.00     0.111 C 
BRANCH  10  11
ATOM     11  C   UNL     1      -8.703  34.127  24.675  1.00  0.00     0.163 C 
ATOM     12  O   UNL     1      -9.506  35.086  24.522  1.00  0.00    -0.294 OA
BRANCH  11  13
ATOM     13  C   UNL     1      -8.982  33.050  25.703  1.00  0.00    -0.002 C 
ATOM     14  C   UNL     1      -8.553  33.171  27.008  1.00  0.00    -0.069 C 
ATOM     15  C   UNL     1      -7.885  34.423  27.540  1.00  0.00     0.039 C 
ATOM     16  C   UNL     1      -8.731  32.051  28.013  1.00  0.00     0.039 C 
BRANCH  13  17
ATOM     17  C   UNL     1      -9.657  31.748  25.244  1.00  0.00     0.066 CG0
ATOM     18  G   UNL     1      -8.781  30.719  24.564  1.00  0.00     0.000 G0
ENDBRANCH  13  17
ENDBRANCH  11  13
ENDBRANCH  10  11
ENDBRANCH   1  10
TORSDOF 0
ENDMDL
MODEL 4
REMARK VINA RESULT:    -4.927      1.271      3.866
REMARK INTER + INTRA:          -6.957
REMARK INTER:                  -7.886
REMARK INTRA:                   0.930
REMARK UNBOUND:                -0.014
REMARK SMILES CC1=CCC(=C(C)C)C(=O)CC(C)=CCC1
REMARK SMILES IDX 12 1 14 2 13 3 15 4 16 5 2 6 1 7 3 8 11 10 9 11 10 12 5 13
REMARK SMILES IDX 6 14 7 15 8 16 4 17
REMARK H PARENT
REMARK Flexibility Score: 60.00
ROOT
ATOM      1  C   UNL     1      -7.818  34.134  21.365  1.00  0.00    -0.070 C 
ATOM      2  C   UNL     1      -7.278  35.220  21.987  1.00  0.00    -0.027 C 
ATOM      3  C   UNL     1      -7.130  33.684  20.097  1.00  0.00     0.039 C 
ENDROOT
BRANCH   2   4
ATOM      4  C   UNL     1      -7.756  35.912  23.246  1.00  0.00     0.032 C 
BRANCH   4   5
ATOM      5  C   UNL     1      -8.956  35.247  23.962  1.00  0.00     0.034 C 
BRANCH   5   6
ATOM      6  C   UNL     1      -8.634  34.662  25.322  1.00  0.00    -0.077 C 
ATOM      7  C   UNL     1      -7.985  35.553  26.352  1.00  0.00     0.039 C 
ATOM      8  C   UNL     1      -8.943  33.398  25.682  1.00  0.00    -0.023 CG0
ATOM      9  G   UNL     1      -9.566  32.330  24.810  1.00  0.00     0.000 G0
ENDBRANCH   5   6
ENDBRANCH   4   5
ENDBRANCH   2   4
BRANCH   1  10
ATOM     10  C   UNL     1      -9.101  33.388  21.738  1.00  0.00     0.111 C 
BRANCH  10  11
ATOM     11  C   UNL     1      -8.944  31.994  22.290  1.00  0.00     0.163 C 
ATOM     12  O   UNL     1      -9.085  31.057  21.459  1.00  0.00    -0.294 OA
BRANCH  11  13
ATOM     13  C   UNL     1      -8.660  31.691  23.747  1.00  0.00    -0.002 C 
ATOM     14  C   UNL     1      -7.686  30.789  24.119  1.00  0.00    -0.069 C 
ATOM     15  C   UNL     1      -6.755  30.128  23.122  1.00  0.00     0.039 C 
ATOM     16  C   UNL     1      -7.471  30.399  25.567  1.00  0.00     0.039 C 
BRANCH  13  17
ATOM     17  C   UNL     1      -9.559  32.323  24.820  1.00  0.00     0.066 CG0
ATOM     18  G   UNL     1      -8.948  33.403  25.685  1.00  0.00     0.000 G0
ENDBRANCH  13  17
ENDBRANCH  11  13
ENDBRANCH  10  11
ENDBRANCH   1  10
TORSDOF 0
ENDMDL
MODEL 5
REMARK VINA RESULT:    -4.907      1.795      3.772
REMARK INTER + INTRA:          -6.929
REMARK INTER:                  -7.270
REMARK INTRA:                   0.341
REMARK UNBOUND:                -0.014
REMARK SMILES CC1=CCC(=C(C)C)C(=O)CC(C)=CCC1
REMARK SMILES IDX 12 1 14 2 13 3 15 4 16 5 2 6 1 7 3 8 11 10 9 11 10 12 5 13
REMARK SMILES IDX 6 14 7 15 8 16 4 17
REMARK H PARENT
REMARK Flexibility Score: 60.00
ROOT
ATOM      1  C   UNL     1      -8.052  33.040  21.030  1.00  0.00    -0.070 C 
ATOM      2  C   UNL     1      -7.889  31.687  21.038  1.00  0.00    -0.027 C 
ATOM      3  C   UNL     1      -7.137  33.815  20.111  1.00  0.00     0.039 C 
ENDROOT
BRANCH   2   4
ATOM      4  C   UNL     1      -8.631  30.659  21.864  1.00  0.00     0.032 C 
BRANCH   4   5
ATOM      5  C   UNL     1      -7.909  30.179  23.146  1.00  0.00     0.034 C 
BRANCH   5   6
ATOM      6  C   UNL     1      -8.605  30.549  24.439  1.00  0.00    -0.077 C 
ATOM      7  C   UNL     1      -9.568  29.558  25.046  1.00  0.00     0.039 C 
ATOM      8  C   UNL     1      -8.373  31.699  25.109  1.00  0.00    -0.023 CG0
ATOM      9  G   UNL     1      -7.477  32.838  24.677  1.00  0.00     0.000 G0
ENDBRANCH   5   6
ENDBRANCH   4   5
ENDBRANCH   2   4
BRANCH   1  10
ATOM     10  C   UNL     1      -8.974  33.873  21.923  1.00  0.00     0.111 C 
BRANCH  10  11
ATOM     11  C   UNL     1      -8.319  34.691  23.006  1.00  0.00     0.163 C 
ATOM     12  O   UNL     1      -7.898  35.827  22.657  1.00  0.00    -0.294 OA
BRANCH  11  13
ATOM     13  C   UNL     1      -8.134  34.210  24.431  1.00  0.00    -0.002 C 
ATOM     14  C   UNL     1      -8.442  35.013  25.509  1.00  0.00    -0.069 C 
ATOM     15  C   UNL     1      -9.090  36.374  25.360  1.00  0.00     0.039 C 
ATOM     16  C   UNL     1      -8.157  34.580  26.932  1.00  0.00     0.039 C 
BRANCH  13  17
ATOM     17  C   UNL     1      -7.483  32.839  24.667  1.00  0.00     0.066 CG0
ATOM     18  G   UNL     1      -8.390  31.708  25.100  1.00  0.00     0.000 G0
ENDBRANCH  13  17
ENDBRANCH  11  13
ENDBRANCH  10  11
ENDBRANCH   1  10
TORSDOF 0
ENDMDL
MODEL 6
REMARK VINA RESULT:    -4.685      1.993      5.118
REMARK INTER + INTRA:          -6.617
REMARK INTER:                  -7.448
REMARK INTRA:                   0.831
REMARK UNBOUND:                -0.014
REMARK SMILES CC1=CCC(=C(C)C)C(=O)CC(C)=CCC1
REMARK SMILES IDX 12 1 14 2 13 3 15 4 16 5 2 6 1 7 3 8 11 10 9 11 10 12 5 13
REMARK SMILES IDX 6 14 7 15 8 16 4 17
REMARK H PARENT
REMARK Flexibility Score: 60.00
ROOT
ATOM      1  C   UNL     1      -8.457  34.840  24.797  1.00  0.00    -0.070 C 
ATOM      2  C   UNL     1      -7.627  35.512  23.950  1.00  0.00    -0.027 C 
ATOM      3  C   UNL     1      -8.065  34.848  26.257  1.00  0.00     0.039 C 
ENDROOT
BRANCH   2   4
ATOM      4  C   UNL     1      -7.741  35.659  22.448  1.00  0.00     0.032 C 
BRANCH   4   5
ATOM      5  C   UNL     1      -8.636  34.615  21.738  1.00  0.00     0.034 C 
BRANCH   5   6
ATOM      6  C   UNL     1      -7.879  33.490  21.062  1.00  0.00    -0.077 C 
ATOM      7  C   UNL     1      -6.792  33.846  20.077  1.00  0.00     0.039 C 
ATOM      8  C   UNL     1      -8.088  32.183  21.330  1.00  0.00    -0.023 CG0
ATOM      9  G   UNL     1      -9.135  31.600  22.253  1.00  0.00     0.000 G0
ENDBRANCH   5   6
ENDBRANCH   4   5
ENDBRANCH   2   4
BRANCH   1  10
ATOM     10  C   UNL     1      -9.674  33.988  24.430  1.00  0.00     0.111 C 
BRANCH  10  11
ATOM     11  C   UNL     1      -9.569  32.505  24.676  1.00  0.00     0.163 C 
ATOM     12  O   UNL     1     -10.120  32.084  25.728  1.00  0.00    -0.294 OA
BRANCH  11  13
ATOM     13  C   UNL     1      -8.836  31.548  23.758  1.00  0.00    -0.002 C 
ATOM     14  C   UNL     1      -7.837  30.722  24.228  1.00  0.00    -0.069 C 
ATOM     15  C   UNL     1      -7.480  30.618  25.697  1.00  0.00     0.039 C 
ATOM     16  C   UNL     1      -7.025  29.843  23.298  1.00  0.00     0.039 C 
BRANCH  13  17
ATOM     17  C   UNL     1      -9.141  31.591  22.253  1.00  0.00     0.066 CG0
ATOM     18  G   UNL     1      -8.078  32.175  21.349  1.00  0.00     0.000 G0
ENDBRANCH  13  17
ENDBRANCH  11  13
ENDBRANCH  10  11
ENDBRANCH   1  10
TORSDOF 0
ENDMDL
MODEL 7
REMARK VINA RESULT:    -4.531      1.335      3.948
REMARK INTER + INTRA:          -6.399
REMARK INTER:                  -7.129
REMARK INTRA:                   0.730
REMARK UNBOUND:                -0.014
REMARK SMILES CC1=CCC(=C(C)C)C(=O)CC(C)=CCC1
REMARK SMILES IDX 12 1 14 2 13 3 15 4 16 5 2 6 1 7 3 8 11 10 9 11 10 12 5 13
REMARK SMILES IDX 6 14 7 15 8 16 4 17
REMARK H PARENT
REMARK Flexibility Score: 60.00
ROOT
ATOM      1  C   UNL     1      -7.845  34.846  23.106  1.00  0.00    -0.070 C 
ATOM      2  C   UNL     1      -8.519  35.496  24.097  1.00  0.00    -0.027 C 
ATOM      3  C   UNL     1      -7.477  35.675  21.897  1.00  0.00     0.039 C 
ENDROOT
BRANCH   2   4
ATOM      4  C   UNL     1      -9.038  34.932  25.402  1.00  0.00     0.032 C 
BRANCH   4   5
ATOM      5  C   UNL     1      -8.056  34.021  26.177  1.00  0.00     0.034 C 
BRANCH   5   6
ATOM      6  C   UNL     1      -8.718  32.938  27.004  1.00  0.00    -0.077 C 
ATOM      7  C   UNL     1      -8.384  32.851  28.473  1.00  0.00     0.039 C 
ATOM      8  C   UNL     1      -9.633  32.077  26.510  1.00  0.00    -0.023 CG0
ATOM      9  G   UNL     1     -10.096  31.966  25.074  1.00  0.00     0.000 G0
ENDBRANCH   5   6
ENDBRANCH   4   5
ENDBRANCH   2   4
BRANCH   1  10
ATOM     10  C   UNL     1      -7.517  33.353  23.025  1.00  0.00     0.111 C 
BRANCH  10  11
ATOM     11  C   UNL     1      -8.682  32.403  22.915  1.00  0.00     0.163 C 
ATOM     12  O   UNL     1      -9.319  32.439  21.828  1.00  0.00    -0.294 OA
BRANCH  11  13
ATOM     13  C   UNL     1      -9.112  31.465  24.025  1.00  0.00    -0.002 C 
ATOM     14  C   UNL     1      -8.714  30.145  24.048  1.00  0.00    -0.069 C 
ATOM     15  C   UNL     1      -7.734  29.566  23.048  1.00  0.00     0.039 C 
ATOM     16  C   UNL     1      -9.228  29.175  25.091  1.00  0.00     0.039 C 
BRANCH  13  17
ATOM     17  C   UNL     1     -10.106  31.976  25.079  1.00  0.00     0.066 CG0
ATOM     18  G   UNL     1      -9.612  32.069  26.506  1.00  0.00     0.000 G0
ENDBRANCH  13  17
ENDBRANCH  11  13
ENDBRANCH  10  11
ENDBRANCH   1  10
TORSDOF 0
ENDMDL
MODEL 8
REMARK VINA RESULT:    -4.480      1.754      4.463
REMARK INTER + INTRA:          -6.327
REMARK INTER:                  -6.293
REMARK INTRA:                  -0.035
REMARK UNBOUND:                -0.014
REMARK SMILES CC1=CCC(=C(C)C)C(=O)CC(C)=CCC1
REMARK SMILES IDX 12 1 14 2 13 3 15 4 16 5 2 6 1 7 3 8 11 10 9 11 10 12 5 13
REMARK SMILES IDX 6 14 7 15 8 16 4 17
REMARK H PARENT
REMARK Flexibility Score: 60.00
ROOT
ATOM      1  C   UNL     1      -8.302  33.715  26.714  1.00  0.00    -0.070 C 
ATOM      2  C   UNL     1      -8.218  35.062  26.527  1.00  0.00    -0.027 C 
ATOM      3  C   UNL     1      -8.657  33.257  28.109  1.00  0.00     0.039 C 
ENDROOT
BRANCH   2   4
ATOM      4  C   UNL     1      -7.860  35.811  25.261  1.00  0.00     0.032 C 
BRANCH   4   5
ATOM      5  C   UNL     1      -8.861  35.668  24.090  1.00  0.00     0.034 C 
BRANCH   5   6
ATOM      6  C   UNL     1      -8.250  35.181  22.793  1.00  0.00    -0.077 C 
ATOM      7  C   UNL     1      -7.166  36.012  22.153  1.00  0.00     0.039 C 
ATOM      8  C   UNL     1      -8.587  34.015  22.201  1.00  0.00    -0.023 CG0
ATOM      9  G   UNL     1      -9.658  33.044  22.648  1.00  0.00     0.000 G0
ENDBRANCH   5   6
ENDBRANCH   4   5
ENDBRANCH   2   4
BRANCH   1  10
ATOM     10  C   UNL     1      -7.971  32.611  25.706  1.00  0.00     0.111 C 
BRANCH  10  11
ATOM     11  C   UNL     1      -9.130  31.979  24.980  1.00  0.00     0.163 C 
ATOM     12  O   UNL     1     -10.065  31.549  25.709  1.00  0.00    -0.294 OA
BRANCH  11  13
ATOM     13  C   UNL     1      -9.199  31.826  23.474  1.00  0.00    -0.002 C 
ATOM     14  C   UNL     1      -8.765  30.677  22.846  1.00  0.00    -0.069 C 
ATOM     15  C   UNL     1      -8.304  29.450  23.605  1.00  0.00     0.039 C 
ATOM     16  C   UNL     1      -8.728  30.560  21.336  1.00  0.00     0.039 C 
BRANCH  13  17
ATOM     17  C   UNL     1      -9.657  33.025  22.631  1.00  0.00     0.066 CG0
ATOM     18  G   UNL     1      -8.594  34.008  22.193  1.00  0.00     0.000 G0
ENDBRANCH  13  17
ENDBRANCH  11  13
ENDBRANCH  10  11
ENDBRANCH   1  10
TORSDOF 0
ENDMDL
MODEL 9
REMARK VINA RESULT:    -4.442      1.649      2.812
REMARK INTER + INTRA:          -6.273
REMARK INTER:                  -6.871
REMARK INTRA:                   0.598
REMARK UNBOUND:                -0.014
REMARK SMILES CC1=CCC(=C(C)C)C(=O)CC(C)=CCC1
REMARK SMILES IDX 12 1 14 2 13 3 15 4 16 5 2 6 1 7 3 8 11 10 9 11 10 12 5 13
REMARK SMILES IDX 6 14 7 15 8 16 4 17
REMARK H PARENT
REMARK Flexibility Score: 60.00
ROOT
ATOM      1  C   UNL     1      -8.229  31.041  26.309  1.00  0.00    -0.070 C 
ATOM      2  C   UNL     1      -8.856  32.064  26.956  1.00  0.00    -0.027 C 
ATOM      3  C   UNL     1      -7.882  29.835  27.150  1.00  0.00     0.039 C 
ENDROOT
BRANCH   2   4
ATOM      4  C   UNL     1      -9.301  33.396  26.392  1.00  0.00     0.032 C 
BRANCH   4   5
ATOM      5  C   UNL     1      -8.211  34.493  26.322  1.00  0.00     0.034 C 
BRANCH   5   6
ATOM      6  C   UNL     1      -8.345  35.440  25.148  1.00  0.00    -0.077 C 
ATOM      7  C   UNL     1      -9.031  36.766  25.369  1.00  0.00     0.039 C 
ATOM      8  C   UNL     1      -7.837  35.186  23.923  1.00  0.00    -0.023 CG0
ATOM      9  G   UNL     1      -7.140  33.922  23.471  1.00  0.00     0.000 G0
ENDBRANCH   5   6
ENDBRANCH   4   5
ENDBRANCH   2   4
BRANCH   1  10
ATOM     10  C   UNL     1      -7.737  31.018  24.860  1.00  0.00     0.111 C 
BRANCH  10  11
ATOM     11  C   UNL     1      -8.569  31.758  23.844  1.00  0.00     0.163 C 
ATOM     12  O   UNL     1      -9.791  31.452  23.808  1.00  0.00    -0.294 OA
BRANCH  11  13
ATOM     13  C   UNL     1      -8.009  32.794  22.891  1.00  0.00    -0.002 C 
ATOM     14  C   UNL     1      -8.180  32.685  21.527  1.00  0.00    -0.069 C 
ATOM     15  C   UNL     1      -9.030  31.604  20.890  1.00  0.00     0.039 C 
ATOM     16  C   UNL     1      -7.530  33.655  20.562  1.00  0.00     0.039 C 
BRANCH  13  17
ATOM     17  C   UNL     1      -7.136  33.923  23.458  1.00  0.00     0.066 CG0
ATOM     18  G   UNL     1      -7.844  35.179  23.918  1.00  0.00     0.000 G0
ENDBRANCH  13  17
ENDBRANCH  11  13
ENDBRANCH  10  11
ENDBRANCH   1  10
TORSDOF 0
ENDMDL
