MODEL 1
REMARK VINA RESULT:    -5.044      0.000      0.000
REMARK INTER + INTRA:          -6.141
REMARK INTER:                  -7.108
REMARK INTRA:                   0.967
REMARK UNBOUND:                 0.967
REMARK SMILES CC1=CCC(=C(C)C)C(=O)CC(C)=CCC1
REMARK SMILES IDX 12 1 14 2 13 3 15 4 16 5 2 6 1 7 3 8 11 10 9 11 10 12 5 13
REMARK SMILES IDX 6 14 7 15 8 16 4 17
REMARK H PARENT
REMARK Flexibility Score: 60.00
ROOT
ATOM      1  C   UNL     1     -14.123  12.699   0.050  1.00  0.00    -0.070 C 
ATOM      2  C   UNL     1     -14.015  13.986  -0.368  1.00  0.00    -0.027 C 
ATOM      3  C   UNL     1     -15.131  11.825  -0.658  1.00  0.00     0.039 C 
ENDROOT
BRANCH   2   4
ATOM      4  C   UNL     1     -13.153  15.056   0.258  1.00  0.00     0.032 C 
BRANCH   4   5
ATOM      5  C   UNL     1     -13.963  16.164   0.945  1.00  0.00     0.034 C 
BRANCH   5   6
ATOM      6  C   UNL     1     -15.144  15.569   1.685  1.00  0.00    -0.077 C 
ATOM      7  C   UNL     1     -16.529  15.834   1.151  1.00  0.00     0.039 C 
ATOM      8  C   UNL     1     -15.019  14.746   2.754  1.00  0.00    -0.023 CG0
ATOM      9  G   UNL     1     -13.721  14.379   3.435  1.00  0.00     0.000 G0
ENDBRANCH   5   6
ENDBRANCH   4   5
ENDBRANCH   2   4
BRANCH   1  10
ATOM     10  C   UNL     1     -13.246  12.063   1.123  1.00  0.00     0.111 C 
BRANCH  10  11
ATOM     11  C   UNL     1     -13.906  11.965   2.476  1.00  0.00     0.163 C 
ATOM     12  O   UNL     1     -14.750  11.043   2.648  1.00  0.00    -0.294 OA
BRANCH  11  13
ATOM     13  C   UNL     1     -13.554  12.872   3.619  1.00  0.00    -0.002 C 
ATOM     14  C   UNL     1     -13.142  12.357   4.819  1.00  0.00    -0.069 C 
ATOM     15  C   UNL     1     -12.881  10.878   5.003  1.00  0.00     0.039 C 
ATOM     16  C   UNL     1     -12.875  13.243   6.015  1.00  0.00     0.039 C 
BRANCH  13  17
ATOM     17  C   UNL     1     -13.718  14.380   3.436  1.00  0.00     0.066 CG0
ATOM     18  G   UNL     1     -15.030  14.734   2.777  1.00  0.00     0.000 G0
ENDBRANCH  13  17
ENDBRANCH  11  13
ENDBRANCH  10  11
ENDBRANCH   1  10
TORSDOF 0
ENDMDL
MODEL 2
REMARK VINA RESULT:    -4.442      1.387      4.469
REMARK INTER + INTRA:          -5.293
REMARK INTER:                  -7.304
REMARK INTRA:                   2.011
REMARK UNBOUND:                 0.967
REMARK SMILES CC1=CCC(=C(C)C)C(=O)CC(C)=CCC1
REMARK SMILES IDX 12 1 14 2 13 3 15 4 16 5 2 6 1 7 3 8 11 10 9 11 10 12 5 13
REMARK SMILES IDX 6 14 7 15 8 16 4 17
REMARK H PARENT
REMARK Flexibility Score: 60.00
ROOT
ATOM      1  C   UNL     1     -12.880  10.225   2.765  1.00  0.00    -0.070 C 
ATOM      2  C   UNL     1     -12.402   9.923   4.000  1.00  0.00    -0.027 C 
ATOM      3  C   UNL     1     -11.982   9.935   1.587  1.00  0.00     0.039 C 
ENDROOT
BRANCH   2   4
ATOM      4  C   UNL     1     -13.082  10.219   5.315  1.00  0.00     0.032 C 
BRANCH   4   5
ATOM      5  C   UNL     1     -13.992  11.455   5.264  1.00  0.00     0.034 C 
BRANCH   5   6
ATOM      6  C   UNL     1     -13.162  12.709   5.070  1.00  0.00    -0.077 C 
ATOM      7  C   UNL     1     -11.891  12.855   5.867  1.00  0.00     0.039 C 
ATOM      8  C   UNL     1     -13.461  13.668   4.162  1.00  0.00    -0.023 CG0
ATOM      9  G   UNL     1     -14.692  13.701   3.288  1.00  0.00     0.000 G0
ENDBRANCH   5   6
ENDBRANCH   4   5
ENDBRANCH   2   4
BRANCH   1  10
ATOM     10  C   UNL     1     -14.282  10.758   2.489  1.00  0.00     0.111 C 
BRANCH  10  11
ATOM     11  C   UNL     1     -14.326  11.861   1.461  1.00  0.00     0.163 C 
ATOM     12  O   UNL     1     -14.365  11.525   0.245  1.00  0.00    -0.294 OA
BRANCH  11  13
ATOM     13  C   UNL     1     -14.386  13.314   1.831  1.00  0.00    -0.002 C 
ATOM     14  C   UNL     1     -14.121  14.285   0.902  1.00  0.00    -0.069 C 
ATOM     15  C   UNL     1     -13.904  13.951  -0.558  1.00  0.00     0.039 C 
ATOM     16  C   UNL     1     -14.078  15.751   1.273  1.00  0.00     0.039 C 
BRANCH  13  17
ATOM     17  C   UNL     1     -14.693  13.690   3.280  1.00  0.00     0.066 CG0
ATOM     18  G   UNL     1     -13.462  13.645   4.154  1.00  0.00     0.000 G0
ENDBRANCH  13  17
ENDBRANCH  11  13
ENDBRANCH  10  11
ENDBRANCH   1  10
TORSDOF 0
ENDMDL
MODEL 3
REMARK VINA RESULT:    -4.024      1.299      2.071
REMARK INTER + INTRA:          -4.704
REMARK INTER:                  -5.238
REMARK INTRA:                   0.534
REMARK UNBOUND:                 0.967
REMARK SMILES CC1=CCC(=C(C)C)C(=O)CC(C)=CCC1
REMARK SMILES IDX 12 1 14 2 13 3 15 4 16 5 2 6 1 7 3 8 11 10 9 11 10 12 5 13
REMARK SMILES IDX 6 14 7 15 8 16 4 17
REMARK H PARENT
REMARK Flexibility Score: 60.00
ROOT
ATOM      1  C   UNL     1     -13.262  10.738   2.020  1.00  0.00    -0.070 C 
ATOM      2  C   UNL     1     -13.238  11.561   0.940  1.00  0.00    -0.027 C 
ATOM      3  C   UNL     1     -12.045   9.878   2.260  1.00  0.00     0.039 C 
ENDROOT
BRANCH   2   4
ATOM      4  C   UNL     1     -14.375  12.427   0.455  1.00  0.00     0.032 C 
BRANCH   4   5
ATOM      5  C   UNL     1     -14.013  13.917   0.373  1.00  0.00     0.034 C 
BRANCH   5   6
ATOM      6  C   UNL     1     -14.653  14.675   1.520  1.00  0.00    -0.077 C 
ATOM      7  C   UNL     1     -15.912  15.456   1.246  1.00  0.00     0.039 C 
ATOM      8  C   UNL     1     -14.197  14.625   2.794  1.00  0.00    -0.023 CG0
ATOM      9  G   UNL     1     -12.949  13.911   3.256  1.00  0.00     0.000 G0
ENDBRANCH   5   6
ENDBRANCH   4   5
ENDBRANCH   2   4
BRANCH   1  10
ATOM     10  C   UNL     1     -14.396  10.684   3.039  1.00  0.00     0.111 C 
BRANCH  10  11
ATOM     11  C   UNL     1     -14.460  11.888   3.946  1.00  0.00     0.163 C 
ATOM     12  O   UNL     1     -15.555  12.126   4.525  1.00  0.00    -0.294 OA
BRANCH  11  13
ATOM     13  C   UNL     1     -13.268  12.758   4.225  1.00  0.00    -0.002 C 
ATOM     14  C   UNL     1     -12.504  12.559   5.344  1.00  0.00    -0.069 C 
ATOM     15  C   UNL     1     -12.729  11.378   6.263  1.00  0.00     0.039 C 
ATOM     16  C   UNL     1     -11.358  13.482   5.698  1.00  0.00     0.039 C 
BRANCH  13  17
ATOM     17  C   UNL     1     -12.958  13.906   3.266  1.00  0.00     0.066 CG0
ATOM     18  G   UNL     1     -14.206  14.630   2.821  1.00  0.00     0.000 G0
ENDBRANCH  13  17
ENDBRANCH  11  13
ENDBRANCH  10  11
ENDBRANCH   1  10
TORSDOF 0
ENDMDL
MODEL 4
REMARK VINA RESULT:    -3.966      2.001      3.848
REMARK INTER + INTRA:          -4.621
REMARK INTER:                  -5.360
REMARK INTRA:                   0.738
REMARK UNBOUND:                 0.967
REMARK SMILES CC1=CCC(=C(C)C)C(=O)CC(C)=CCC1
REMARK SMILES IDX 12 1 14 2 13 3 15 4 16 5 2 6 1 7 3 8 11 10 9 11 10 12 5 13
REMARK SMILES IDX 6 14 7 15 8 16 4 17
REMARK H PARENT
REMARK Flexibility Score: 60.00
ROOT
ATOM      1  C   UNL     1     -14.124  14.199   1.628  1.00  0.00    -0.070 C 
ATOM      2  C   UNL     1     -14.484  13.444   0.558  1.00  0.00    -0.027 C 
ATOM      3  C   UNL     1     -14.783  15.550   1.772  1.00  0.00     0.039 C 
ENDROOT
BRANCH   2   4
ATOM      4  C   UNL     1     -13.885  12.115   0.164  1.00  0.00     0.032 C 
BRANCH   4   5
ATOM      5  C   UNL     1     -14.303  10.962   1.086  1.00  0.00     0.034 C 
BRANCH   5   6
ATOM      6  C   UNL     1     -13.087  10.381   1.782  1.00  0.00    -0.077 C 
ATOM      7  C   UNL     1     -11.949   9.880   0.931  1.00  0.00     0.039 C 
ATOM      8  C   UNL     1     -12.937  10.359   3.128  1.00  0.00    -0.023 CG0
ATOM      9  G   UNL     1     -13.971  10.801   4.137  1.00  0.00     0.000 G0
ENDBRANCH   5   6
ENDBRANCH   4   5
ENDBRANCH   2   4
BRANCH   1  10
ATOM     10  C   UNL     1     -13.169  13.742   2.725  1.00  0.00     0.111 C 
BRANCH  10  11
ATOM     11  C   UNL     1     -13.849  13.407   4.029  1.00  0.00     0.163 C 
ATOM     12  O   UNL     1     -14.717  14.214   4.459  1.00  0.00    -0.294 OA
BRANCH  11  13
ATOM     13  C   UNL     1     -13.575  12.139   4.784  1.00  0.00    -0.002 C 
ATOM     14  C   UNL     1     -12.952  12.173   6.003  1.00  0.00    -0.069 C 
ATOM     15  C   UNL     1     -12.648  13.477   6.707  1.00  0.00     0.039 C 
ATOM     16  C   UNL     1     -12.577  10.905   6.740  1.00  0.00     0.039 C 
BRANCH  13  17
ATOM     17  C   UNL     1     -13.954  10.806   4.142  1.00  0.00     0.066 CG0
ATOM     18  G   UNL     1     -12.935  10.356   3.121  1.00  0.00     0.000 G0
ENDBRANCH  13  17
ENDBRANCH  11  13
ENDBRANCH  10  11
ENDBRANCH   1  10
TORSDOF 0
ENDMDL
MODEL 5
REMARK VINA RESULT:    -3.679      1.623      4.263
REMARK INTER + INTRA:          -4.217
REMARK INTER:                  -5.087
REMARK INTRA:                   0.869
REMARK UNBOUND:                 0.967
REMARK SMILES CC1=CCC(=C(C)C)C(=O)CC(C)=CCC1
REMARK SMILES IDX 12 1 14 2 13 3 15 4 16 5 2 6 1 7 3 8 11 10 9 11 10 12 5 13
REMARK SMILES IDX 6 14 7 15 8 16 4 17
REMARK H PARENT
REMARK Flexibility Score: 60.00
ROOT
ATOM      1  C   UNL     1     -14.289  12.875   0.188  1.00  0.00    -0.070 C 
ATOM      2  C   UNL     1     -14.316  11.855   1.085  1.00  0.00    -0.027 C 
ATOM      3  C   UNL     1     -15.397  12.922  -0.836  1.00  0.00     0.039 C 
ENDROOT
BRANCH   2   4
ATOM      4  C   UNL     1     -13.263  11.557   2.125  1.00  0.00     0.032 C 
BRANCH   4   5
ATOM      5  C   UNL     1     -13.763  11.732   3.565  1.00  0.00     0.034 C 
BRANCH   5   6
ATOM      6  C   UNL     1     -13.342  13.084   4.105  1.00  0.00    -0.077 C 
ATOM      7  C   UNL     1     -12.116  13.154   4.979  1.00  0.00     0.039 C 
ATOM      8  C   UNL     1     -13.962  14.244   3.781  1.00  0.00    -0.023 CG0
ATOM      9  G   UNL     1     -15.207  14.370   2.935  1.00  0.00     0.000 G0
ENDBRANCH   5   6
ENDBRANCH   4   5
ENDBRANCH   2   4
BRANCH   1  10
ATOM     10  C   UNL     1     -13.269  14.008   0.200  1.00  0.00     0.111 C 
BRANCH  10  11
ATOM     11  C   UNL     1     -13.711  15.222   0.979  1.00  0.00     0.163 C 
ATOM     12  O   UNL     1     -12.968  16.241   0.944  1.00  0.00    -0.294 OA
BRANCH  11  13
ATOM     13  C   UNL     1     -15.009  15.275   1.730  1.00  0.00    -0.002 C 
ATOM     14  C   UNL     1     -15.988  16.164   1.373  1.00  0.00    -0.069 C 
ATOM     15  C   UNL     1     -15.871  17.020   0.131  1.00  0.00     0.039 C 
ATOM     16  C   UNL     1     -17.265  16.305   2.172  1.00  0.00     0.039 C 
BRANCH  13  17
ATOM     17  C   UNL     1     -15.197  14.357   2.937  1.00  0.00     0.066 CG0
ATOM     18  G   UNL     1     -13.947  14.258   3.778  1.00  0.00     0.000 G0
ENDBRANCH  13  17
ENDBRANCH  11  13
ENDBRANCH  10  11
ENDBRANCH   1  10
TORSDOF 0
ENDMDL
MODEL 6
REMARK VINA RESULT:    -3.422      1.837      5.179
REMARK INTER + INTRA:          -3.855
REMARK INTER:                  -4.037
REMARK INTRA:                   0.182
REMARK UNBOUND:                 0.967
REMARK SMILES CC1=CCC(=C(C)C)C(=O)CC(C)=CCC1
REMARK SMILES IDX 12 1 14 2 13 3 15 4 16 5 2 6 1 7 3 8 11 10 9 11 10 12 5 13
REMARK SMILES IDX 6 14 7 15 8 16 4 17
REMARK H PARENT
REMARK Flexibility Score: 60.00
ROOT
ATOM      1  C   UNL     1     -13.229  12.636   5.267  1.00  0.00    -0.070 C 
ATOM      2  C   UNL     1     -12.875  11.325   5.302  1.00  0.00    -0.027 C 
ATOM      3  C   UNL     1     -13.817  13.225   6.527  1.00  0.00     0.039 C 
ENDROOT
BRANCH   2   4
ATOM      4  C   UNL     1     -12.366  10.510   4.137  1.00  0.00     0.032 C 
BRANCH   4   5
ATOM      5  C   UNL     1     -13.434  10.247   3.067  1.00  0.00     0.034 C 
BRANCH   5   6
ATOM      6  C   UNL     1     -12.900  10.606   1.694  1.00  0.00    -0.077 C 
ATOM      7  C   UNL     1     -11.683   9.876   1.188  1.00  0.00     0.039 C 
ATOM      8  C   UNL     1     -13.504  11.492   0.866  1.00  0.00    -0.023 CG0
ATOM      9  G   UNL     1     -14.718  12.325   1.203  1.00  0.00     0.000 G0
ENDBRANCH   5   6
ENDBRANCH   4   5
ENDBRANCH   2   4
BRANCH   1  10
ATOM     10  C   UNL     1     -13.000  13.561   4.077  1.00  0.00     0.111 C 
BRANCH  10  11
ATOM     11  C   UNL     1     -14.248  13.861   3.285  1.00  0.00     0.163 C 
ATOM     12  O   UNL     1     -15.245  14.310   3.913  1.00  0.00    -0.294 OA
BRANCH  11  13
ATOM     13  C   UNL     1     -14.320  13.704   1.794  1.00  0.00    -0.002 C 
ATOM     14  C   UNL     1     -14.090  14.770   0.966  1.00  0.00    -0.069 C 
ATOM     15  C   UNL     1     -13.613  16.103   1.499  1.00  0.00     0.039 C 
ATOM     16  C   UNL     1     -14.252  14.662  -0.534  1.00  0.00     0.039 C 
BRANCH  13  17
ATOM     17  C   UNL     1     -14.710  12.344   1.218  1.00  0.00     0.066 CG0
ATOM     18  G   UNL     1     -13.504  11.498   0.885  1.00  0.00     0.000 G0
ENDBRANCH  13  17
ENDBRANCH  11  13
ENDBRANCH  10  11
ENDBRANCH   1  10
TORSDOF 0
ENDMDL
MODEL 7
REMARK VINA RESULT:    -3.126      1.474      3.938
REMARK INTER + INTRA:          -3.438
REMARK INTER:                  -4.996
REMARK INTRA:                   1.557
REMARK UNBOUND:                 0.967
REMARK SMILES CC1=CCC(=C(C)C)C(=O)CC(C)=CCC1
REMARK SMILES IDX 12 1 14 2 13 3 15 4 16 5 2 6 1 7 3 8 11 10 9 11 10 12 5 13
REMARK SMILES IDX 6 14 7 15 8 16 4 17
REMARK H PARENT
REMARK Flexibility Score: 60.00
ROOT
ATOM      1  C   UNL     1     -13.590  11.397   4.680  1.00  0.00    -0.070 C 
ATOM      2  C   UNL     1     -14.153  12.614   4.892  1.00  0.00    -0.027 C 
ATOM      3  C   UNL     1     -12.585  10.914   5.698  1.00  0.00     0.039 C 
ENDROOT
BRANCH   2   4
ATOM      4  C   UNL     1     -15.099  13.333   3.959  1.00  0.00     0.032 C 
BRANCH   4   5
ATOM      5  C   UNL     1     -14.629  14.746   3.587  1.00  0.00     0.034 C 
BRANCH   5   6
ATOM      6  C   UNL     1     -14.741  14.958   2.090  1.00  0.00    -0.077 C 
ATOM      7  C   UNL     1     -15.706  16.001   1.587  1.00  0.00     0.039 C 
ATOM      8  C   UNL     1     -13.964  14.316   1.185  1.00  0.00    -0.023 CG0
ATOM      9  G   UNL     1     -12.958  13.235   1.498  1.00  0.00     0.000 G0
ENDBRANCH   5   6
ENDBRANCH   4   5
ENDBRANCH   2   4
BRANCH   1  10
ATOM     10  C   UNL     1     -13.963  10.461   3.534  1.00  0.00     0.111 C 
BRANCH  10  11
ATOM     11  C   UNL     1     -13.208  10.728   2.256  1.00  0.00     0.163 C 
ATOM     12  O   UNL     1     -12.255   9.954   1.968  1.00  0.00    -0.294 OA
BRANCH  11  13
ATOM     13  C   UNL     1     -13.586  11.826   1.305  1.00  0.00    -0.002 C 
ATOM     14  C   UNL     1     -14.428  11.580   0.252  1.00  0.00    -0.069 C 
ATOM     15  C   UNL     1     -15.125  10.248   0.085  1.00  0.00     0.039 C 
ATOM     16  C   UNL     1     -14.747  12.643  -0.776  1.00  0.00     0.039 C 
BRANCH  13  17
ATOM     17  C   UNL     1     -12.970  13.210   1.499  1.00  0.00     0.066 CG0
ATOM     18  G   UNL     1     -13.948  14.318   1.185  1.00  0.00     0.000 G0
ENDBRANCH  13  17
ENDBRANCH  11  13
ENDBRANCH  10  11
ENDBRANCH   1  10
TORSDOF 0
ENDMDL
MODEL 8
REMARK VINA RESULT:    -2.192      1.615      2.980
REMARK INTER + INTRA:          -2.122
REMARK INTER:                  -3.352
REMARK INTRA:                   1.230
REMARK UNBOUND:                 0.967
REMARK SMILES CC1=CCC(=C(C)C)C(=O)CC(C)=CCC1
REMARK SMILES IDX 12 1 14 2 13 3 15 4 16 5 2 6 1 7 3 8 11 10 9 11 10 12 5 13
REMARK SMILES IDX 6 14 7 15 8 16 4 17
REMARK H PARENT
REMARK Flexibility Score: 60.00
ROOT
ATOM      1  C   UNL     1     -14.991  15.126   2.410  1.00  0.00    -0.070 C 
ATOM      2  C   UNL     1     -14.715  15.379   1.105  1.00  0.00    -0.027 C 
ATOM      3  C   UNL     1     -16.367  15.497   2.910  1.00  0.00     0.039 C 
ENDROOT
BRANCH   2   4
ATOM      4  C   UNL     1     -13.382  15.184   0.423  1.00  0.00     0.032 C 
BRANCH   4   5
ATOM      5  C   UNL     1     -13.306  13.895  -0.405  1.00  0.00     0.034 C 
BRANCH   5   6
ATOM      6  C   UNL     1     -14.462  12.979  -0.057  1.00  0.00    -0.077 C 
ATOM      7  C   UNL     1     -15.753  13.137  -0.818  1.00  0.00     0.039 C 
ATOM      8  C   UNL     1     -14.373  11.974   0.847  1.00  0.00    -0.023 CG0
ATOM      9  G   UNL     1     -13.172  11.673   1.713  1.00  0.00     0.000 G0
ENDBRANCH   5   6
ENDBRANCH   4   5
ENDBRANCH   2   4
BRANCH   1  10
ATOM     10  C   UNL     1     -14.039  14.424   3.374  1.00  0.00     0.111 C 
BRANCH  10  11
ATOM     11  C   UNL     1     -14.394  12.984   3.645  1.00  0.00     0.163 C 
ATOM     12  O   UNL     1     -15.500  12.750   4.205  1.00  0.00    -0.294 OA
BRANCH  11  13
ATOM     13  C   UNL     1     -13.519  11.839   3.222  1.00  0.00    -0.002 C 
ATOM     14  C   UNL     1     -13.000  10.976   4.150  1.00  0.00    -0.069 C 
ATOM     15  C   UNL     1     -13.397  11.043   5.609  1.00  0.00     0.039 C 
ATOM     16  C   UNL     1     -12.038   9.875   3.762  1.00  0.00     0.039 C 
BRANCH  13  17
ATOM     17  C   UNL     1     -13.172  11.689   1.742  1.00  0.00     0.066 CG0
ATOM     18  G   UNL     1     -14.359  11.959   0.848  1.00  0.00     0.000 G0
ENDBRANCH  13  17
ENDBRANCH  11  13
ENDBRANCH  10  11
ENDBRANCH   1  10
TORSDOF 0
ENDMDL
