MODEL 1
REMARK VINA RESULT:    -5.062      0.000      0.000
REMARK INTER + INTRA:          -7.552
REMARK INTER:                  -7.725
REMARK INTRA:                   0.173
REMARK UNBOUND:                 0.173
REMARK SMILES CC1=CCC[C@H](C)C(=O)C[C@H](C(C)C)C(=O)C1
REMARK SMILES IDX 8 1 9 2 6 3 7 4 5 5 4 6 3 7 2 8 1 9 10 11 11 12 15 13 16 14
REMARK SMILES IDX 17 15 12 17 13 18 14 19
REMARK H PARENT
REMARK Flexibility Score: 70.00
ROOT
ATOM      1  C   UNL     1     -13.612 -36.186  29.264  1.00  0.00     0.136 C 
ATOM      2  O   UNL     1     -14.703 -36.097  28.721  1.00  0.00    -0.299 OA
ENDROOT
BRANCH   1   3
ATOM      3  C   UNL     1     -13.551 -36.800  30.651  1.00  0.00     0.053 C 
ATOM      4  C   UNL     1     -12.276 -37.618  30.923  1.00  0.00     0.016 C 
BRANCH   3   5
ATOM      5  C   UNL     1     -13.809 -35.747  31.750  1.00  0.00     0.015 C 
BRANCH   5   6
ATOM      6  C   UNL     1     -13.527 -34.288  31.321  1.00  0.00     0.028 C 
BRANCH   6   7
ATOM      7  C   UNL     1     -12.368 -33.697  32.091  1.00  0.00    -0.028 C 
ATOM      8  C   UNL     1     -11.056 -33.736  31.756  1.00  0.00    -0.070 CG0
ATOM      9  C   UNL     1     -10.077 -33.098  32.711  1.00  0.00     0.039 C 
ATOM     10  G   UNL     1     -10.508 -34.352  30.480  1.00  0.00     0.000 G0
ENDBRANCH   6   7
ENDBRANCH   5   6
ENDBRANCH   3   5
ENDBRANCH   1   3
BRANCH   1  11
ATOM     11  C   UNL     1     -12.365 -35.753  28.513  1.00  0.00     0.087 C 
BRANCH  11  12
ATOM     12  C   UNL     1     -12.200 -34.216  28.428  1.00  0.00     0.066 C 
BRANCH  12  13
ATOM     13  C   UNL     1     -11.019 -33.690  29.234  1.00  0.00     0.140 C 
ATOM     14  O   UNL     1     -10.436 -32.698  28.821  1.00  0.00    -0.299 OA
BRANCH  13  15
ATOM     15  C   UNL     1     -10.492 -34.371  30.477  1.00  0.00     0.106 CG0
ATOM     16  G   UNL     1     -11.056 -33.730  31.733  1.00  0.00     0.000 G0
ENDBRANCH  13  15
ENDBRANCH  12  13
BRANCH  12  17
ATOM     17  C   UNL     1     -12.214 -33.700  26.955  1.00  0.00    -0.006 C 
ATOM     18  C   UNL     1     -11.374 -34.605  26.039  1.00  0.00     0.008 C 
ATOM     19  C   UNL     1     -13.621 -33.521  26.362  1.00  0.00     0.008 C 
ENDBRANCH  12  17
ENDBRANCH  11  12
ENDBRANCH   1  11
TORSDOF 1
ENDMDL
MODEL 2
REMARK VINA RESULT:    -5.056      2.268      4.447
REMARK INTER + INTRA:          -7.543
REMARK INTER:                  -7.597
REMARK INTRA:                   0.053
REMARK UNBOUND:                 0.173
REMARK SMILES CC1=CCC[C@H](C)C(=O)C[C@H](C(C)C)C(=O)C1
REMARK SMILES IDX 8 1 9 2 6 3 7 4 5 5 4 6 3 7 2 8 1 9 10 11 11 12 15 13 16 14
REMARK SMILES IDX 17 15 12 17 13 18 14 19
REMARK H PARENT
REMARK Flexibility Score: 70.00
ROOT
ATOM      1  C   UNL     1     -13.656 -33.115  27.730  1.00  0.00     0.136 C 
ATOM      2  O   UNL     1     -14.541 -32.421  27.251  1.00  0.00    -0.299 OA
ENDROOT
BRANCH   1   3
ATOM      3  C   UNL     1     -13.132 -34.276  26.904  1.00  0.00     0.053 C 
ATOM      4  C   UNL     1     -12.169 -33.864  25.777  1.00  0.00     0.016 C 
BRANCH   3   5
ATOM      5  C   UNL     1     -12.539 -35.387  27.796  1.00  0.00     0.015 C 
BRANCH   5   6
ATOM      6  C   UNL     1     -13.581 -36.372  28.376  1.00  0.00     0.028 C 
BRANCH   6   7
ATOM      7  C   UNL     1     -13.035 -37.119  29.571  1.00  0.00    -0.028 C 
ATOM      8  C   UNL     1     -13.177 -36.791  30.877  1.00  0.00    -0.070 CG0
ATOM      9  C   UNL     1     -12.506 -37.683  31.893  1.00  0.00     0.039 C 
ATOM     10  G   UNL     1     -13.981 -35.608  31.390  1.00  0.00     0.000 G0
ENDBRANCH   6   7
ENDBRANCH   5   6
ENDBRANCH   3   5
ENDBRANCH   1   3
BRANCH   1  11
ATOM     11  C   UNL     1     -13.070 -32.754  29.083  1.00  0.00     0.087 C 
BRANCH  11  12
ATOM     12  C   UNL     1     -13.953 -33.197  30.275  1.00  0.00     0.066 C 
BRANCH  12  13
ATOM     13  C   UNL     1     -13.316 -34.290  31.124  1.00  0.00     0.140 C 
ATOM     14  O   UNL     1     -12.179 -34.110  31.536  1.00  0.00    -0.299 OA
BRANCH  13  15
ATOM     15  C   UNL     1     -13.991 -35.609  31.423  1.00  0.00     0.106 CG0
ATOM     16  G   UNL     1     -13.167 -36.776  30.906  1.00  0.00     0.000 G0
ENDBRANCH  13  15
ENDBRANCH  12  13
BRANCH  12  17
ATOM     17  C   UNL     1     -14.462 -31.987  31.117  1.00  0.00    -0.006 C 
ATOM     18  C   UNL     1     -15.489 -31.154  30.333  1.00  0.00     0.008 C 
ATOM     19  C   UNL     1     -15.042 -32.370  32.489  1.00  0.00     0.008 C 
ENDBRANCH  12  17
ENDBRANCH  11  12
ENDBRANCH   1  11
TORSDOF 1
ENDMDL
MODEL 3
REMARK VINA RESULT:    -4.996      1.553      2.134
REMARK INTER + INTRA:          -7.451
REMARK INTER:                  -7.829
REMARK INTRA:                   0.378
REMARK UNBOUND:                 0.173
REMARK SMILES CC1=CCC[C@H](C)C(=O)C[C@H](C(C)C)C(=O)C1
REMARK SMILES IDX 8 1 9 2 6 3 7 4 5 5 4 6 3 7 2 8 1 9 10 11 11 12 15 13 16 14
REMARK SMILES IDX 17 15 12 17 13 18 14 19
REMARK H PARENT
REMARK Flexibility Score: 70.00
ROOT
ATOM      1  C   UNL     1     -13.660 -36.508  29.071  1.00  0.00     0.136 C 
ATOM      2  O   UNL     1     -13.238 -37.487  28.473  1.00  0.00    -0.299 OA
ENDROOT
BRANCH   1   3
ATOM      3  C   UNL     1     -13.616 -36.524  30.588  1.00  0.00     0.053 C 
ATOM      4  C   UNL     1     -12.834 -37.708  31.183  1.00  0.00     0.016 C 
BRANCH   3   5
ATOM      5  C   UNL     1     -13.139 -35.170  31.157  1.00  0.00     0.015 C 
BRANCH   5   6
ATOM      6  C   UNL     1     -11.626 -35.102  31.470  1.00  0.00     0.028 C 
BRANCH   6   7
ATOM      7  C   UNL     1     -11.003 -33.834  30.931  1.00  0.00    -0.028 C 
ATOM      8  C   UNL     1     -10.497 -33.633  29.690  1.00  0.00    -0.070 CG0
ATOM      9  C   UNL     1      -9.895 -32.281  29.398  1.00  0.00     0.039 C 
ATOM     10  G   UNL     1     -10.517 -34.661  28.571  1.00  0.00     0.000 G0
ENDBRANCH   6   7
ENDBRANCH   5   6
ENDBRANCH   3   5
ENDBRANCH   1   3
BRANCH   1  11
ATOM     11  C   UNL     1     -14.139 -35.300  28.285  1.00  0.00     0.087 C 
BRANCH  11  12
ATOM     12  C   UNL     1     -13.121 -34.135  28.263  1.00  0.00     0.066 C 
BRANCH  12  13
ATOM     13  C   UNL     1     -11.760 -34.533  27.706  1.00  0.00     0.140 C 
ATOM     14  O   UNL     1     -11.683 -34.811  26.517  1.00  0.00    -0.299 OA
BRANCH  13  15
ATOM     15  C   UNL     1     -10.520 -34.669  28.560  1.00  0.00     0.106 CG0
ATOM     16  G   UNL     1     -10.512 -33.644  29.681  1.00  0.00     0.000 G0
ENDBRANCH  13  15
ENDBRANCH  12  13
BRANCH  12  17
ATOM     17  C   UNL     1     -13.704 -32.852  27.596  1.00  0.00    -0.006 C 
ATOM     18  C   UNL     1     -14.799 -33.201  26.575  1.00  0.00     0.008 C 
ATOM     19  C   UNL     1     -14.235 -31.807  28.591  1.00  0.00     0.008 C 
ENDBRANCH  12  17
ENDBRANCH  11  12
ENDBRANCH   1  11
TORSDOF 1
ENDMDL
MODEL 4
REMARK VINA RESULT:    -4.884      1.598      3.640
REMARK INTER + INTRA:          -7.281
REMARK INTER:                  -7.519
REMARK INTRA:                   0.239
REMARK UNBOUND:                 0.173
REMARK SMILES CC1=CCC[C@H](C)C(=O)C[C@H](C(C)C)C(=O)C1
REMARK SMILES IDX 8 1 9 2 6 3 7 4 5 5 4 6 3 7 2 8 1 9 10 11 11 12 15 13 16 14
REMARK SMILES IDX 17 15 12 17 13 18 14 19
REMARK H PARENT
REMARK Flexibility Score: 70.00
ROOT
ATOM      1  C   UNL     1     -13.263 -34.295  27.503  1.00  0.00     0.136 C 
ATOM      2  O   UNL     1     -13.976 -33.936  26.576  1.00  0.00    -0.299 OA
ENDROOT
BRANCH   1   3
ATOM      3  C   UNL     1     -11.782 -34.491  27.232  1.00  0.00     0.053 C 
ATOM      4  C   UNL     1     -11.396 -34.390  25.746  1.00  0.00     0.016 C 
BRANCH   3   5
ATOM      5  C   UNL     1     -10.917 -33.572  28.120  1.00  0.00     0.015 C 
BRANCH   5   6
ATOM      6  C   UNL     1      -9.979 -34.319  29.097  1.00  0.00     0.028 C 
BRANCH   6   7
ATOM      7  C   UNL     1      -9.875 -33.604  30.424  1.00  0.00    -0.028 C 
ATOM      8  C   UNL     1     -10.496 -33.934  31.583  1.00  0.00    -0.070 CG0
ATOM      9  C   UNL     1     -10.259 -33.039  32.775  1.00  0.00     0.039 C 
ATOM     10  G   UNL     1     -11.389 -35.148  31.771  1.00  0.00     0.000 G0
ENDBRANCH   6   7
ENDBRANCH   5   6
ENDBRANCH   3   5
ENDBRANCH   1   3
BRANCH   1  11
ATOM     11  C   UNL     1     -13.864 -34.461  28.888  1.00  0.00     0.087 C 
BRANCH  11  12
ATOM     12  C   UNL     1     -13.112 -35.490  29.766  1.00  0.00     0.066 C 
BRANCH  12  13
ATOM     13  C   UNL     1     -12.755 -34.957  31.148  1.00  0.00     0.140 C 
ATOM     14  O   UNL     1     -13.595 -34.300  31.746  1.00  0.00    -0.299 OA
BRANCH  13  15
ATOM     15  C   UNL     1     -11.396 -35.141  31.784  1.00  0.00     0.106 CG0
ATOM     16  G   UNL     1     -10.516 -33.923  31.557  1.00  0.00     0.000 G0
ENDBRANCH  13  15
ENDBRANCH  12  13
BRANCH  12  17
ATOM     17  C   UNL     1     -13.836 -36.871  29.812  1.00  0.00    -0.006 C 
ATOM     18  C   UNL     1     -14.320 -37.294  28.415  1.00  0.00     0.008 C 
ATOM     19  C   UNL     1     -13.002 -38.002  30.437  1.00  0.00     0.008 C 
ENDBRANCH  12  17
ENDBRANCH  11  12
ENDBRANCH   1  11
TORSDOF 1
ENDMDL
MODEL 5
REMARK VINA RESULT:    -4.850      2.123      4.288
REMARK INTER + INTRA:          -7.228
REMARK INTER:                  -7.365
REMARK INTRA:                   0.137
REMARK UNBOUND:                 0.173
REMARK SMILES CC1=CCC[C@H](C)C(=O)C[C@H](C(C)C)C(=O)C1
REMARK SMILES IDX 8 1 9 2 6 3 7 4 5 5 4 6 3 7 2 8 1 9 10 11 11 12 15 13 16 14
REMARK SMILES IDX 17 15 12 17 13 18 14 19
REMARK H PARENT
REMARK Flexibility Score: 70.00
ROOT
ATOM      1  C   UNL     1     -11.377 -33.277  30.389  1.00  0.00     0.136 C 
ATOM      2  O   UNL     1     -10.768 -32.644  29.538  1.00  0.00    -0.299 OA
ENDROOT
BRANCH   1   3
ATOM      3  C   UNL     1     -10.572 -33.989  31.462  1.00  0.00     0.053 C 
ATOM      4  C   UNL     1     -10.542 -33.258  32.816  1.00  0.00     0.016 C 
BRANCH   3   5
ATOM      5  C   UNL     1     -11.004 -35.464  31.610  1.00  0.00     0.015 C 
BRANCH   5   6
ATOM      6  C   UNL     1     -10.892 -36.300  30.313  1.00  0.00     0.028 C 
BRANCH   6   7
ATOM      7  C   UNL     1     -12.225 -36.895  29.919  1.00  0.00    -0.028 C 
ATOM      8  C   UNL     1     -13.054 -36.468  28.937  1.00  0.00    -0.070 CG0
ATOM      9  C   UNL     1     -14.355 -37.211  28.755  1.00  0.00     0.039 C 
ATOM     10  G   UNL     1     -12.756 -35.314  27.993  1.00  0.00     0.000 G0
ENDBRANCH   6   7
ENDBRANCH   5   6
ENDBRANCH   3   5
ENDBRANCH   1   3
BRANCH   1  11
ATOM     11  C   UNL     1     -12.895 -33.268  30.385  1.00  0.00     0.087 C 
BRANCH  11  12
ATOM     12  C   UNL     1     -13.506 -32.950  28.999  1.00  0.00     0.066 C 
BRANCH  12  13
ATOM     13  C   UNL     1     -13.757 -34.190  28.151  1.00  0.00     0.140 C 
ATOM     14  O   UNL     1     -14.852 -34.314  27.622  1.00  0.00    -0.299 OA
BRANCH  13  15
ATOM     15  C   UNL     1     -12.747 -35.304  27.988  1.00  0.00     0.106 CG0
ATOM     16  G   UNL     1     -13.057 -36.464  28.919  1.00  0.00     0.000 G0
ENDBRANCH  13  15
ENDBRANCH  12  13
BRANCH  12  17
ATOM     17  C   UNL     1     -14.752 -32.016  29.102  1.00  0.00    -0.006 C 
ATOM     18  C   UNL     1     -15.000 -31.574  30.552  1.00  0.00     0.008 C 
ATOM     19  C   UNL     1     -14.694 -30.783  28.185  1.00  0.00     0.008 C 
ENDBRANCH  12  17
ENDBRANCH  11  12
ENDBRANCH   1  11
TORSDOF 1
ENDMDL
MODEL 6
REMARK VINA RESULT:    -4.753      1.945      2.979
REMARK INTER + INTRA:          -7.081
REMARK INTER:                  -7.576
REMARK INTRA:                   0.495
REMARK UNBOUND:                 0.173
REMARK SMILES CC1=CCC[C@H](C)C(=O)C[C@H](C(C)C)C(=O)C1
REMARK SMILES IDX 8 1 9 2 6 3 7 4 5 5 4 6 3 7 2 8 1 9 10 11 11 12 15 13 16 14
REMARK SMILES IDX 17 15 12 17 13 18 14 19
REMARK H PARENT
REMARK Flexibility Score: 70.00
ROOT
ATOM      1  C   UNL     1     -13.109 -35.267  28.045  1.00  0.00     0.136 C 
ATOM      2  O   UNL     1     -12.120 -35.445  27.350  1.00  0.00    -0.299 OA
ENDROOT
BRANCH   1   3
ATOM      3  C   UNL     1     -13.523 -36.375  28.997  1.00  0.00     0.053 C 
ATOM      4  C   UNL     1     -14.476 -37.413  28.379  1.00  0.00     0.016 C 
BRANCH   3   5
ATOM      5  C   UNL     1     -12.299 -37.037  29.664  1.00  0.00     0.015 C 
BRANCH   5   6
ATOM      6  C   UNL     1     -12.210 -36.829  31.194  1.00  0.00     0.028 C 
BRANCH   6   7
ATOM      7  C   UNL     1     -13.369 -36.008  31.712  1.00  0.00    -0.028 C 
ATOM      8  C   UNL     1     -13.417 -34.663  31.863  1.00  0.00    -0.070 CG0
ATOM      9  C   UNL     1     -14.683 -34.074  32.435  1.00  0.00     0.039 C 
ATOM     10  G   UNL     1     -12.299 -33.708  31.477  1.00  0.00     0.000 G0
ENDBRANCH   6   7
ENDBRANCH   5   6
ENDBRANCH   3   5
ENDBRANCH   1   3
BRANCH   1  11
ATOM     11  C   UNL     1     -13.836 -33.935  27.986  1.00  0.00     0.087 C 
BRANCH  11  12
ATOM     12  C   UNL     1     -13.780 -33.142  29.314  1.00  0.00     0.066 C 
BRANCH  12  13
ATOM     13  C   UNL     1     -12.440 -33.256  30.030  1.00  0.00     0.140 C 
ATOM     14  O   UNL     1     -11.425 -33.026  29.390  1.00  0.00    -0.299 OA
BRANCH  13  15
ATOM     15  C   UNL     1     -12.302 -33.706  31.467  1.00  0.00     0.106 CG0
ATOM     16  G   UNL     1     -13.419 -34.661  31.851  1.00  0.00     0.000 G0
ENDBRANCH  13  15
ENDBRANCH  12  13
BRANCH  12  17
ATOM     17  C   UNL     1     -14.260 -31.668  29.144  1.00  0.00    -0.006 C 
ATOM     18  C   UNL     1     -14.836 -31.426  27.739  1.00  0.00     0.008 C 
ATOM     19  C   UNL     1     -15.269 -31.204  30.207  1.00  0.00     0.008 C 
ENDBRANCH  12  17
ENDBRANCH  11  12
ENDBRANCH   1  11
TORSDOF 1
ENDMDL
MODEL 7
REMARK VINA RESULT:    -4.742      1.752      3.578
REMARK INTER + INTRA:          -7.063
REMARK INTER:                  -7.285
REMARK INTRA:                   0.222
REMARK UNBOUND:                 0.173
REMARK SMILES CC1=CCC[C@H](C)C(=O)C[C@H](C(C)C)C(=O)C1
REMARK SMILES IDX 8 1 9 2 6 3 7 4 5 5 4 6 3 7 2 8 1 9 10 11 11 12 15 13 16 14
REMARK SMILES IDX 17 15 12 17 13 18 14 19
REMARK H PARENT
REMARK Flexibility Score: 70.00
ROOT
ATOM      1  C   UNL     1     -11.142 -33.381  30.334  1.00  0.00     0.136 C 
ATOM      2  O   UNL     1      -9.999 -33.598  29.958  1.00  0.00    -0.299 OA
ENDROOT
BRANCH   1   3
ATOM      3  C   UNL     1     -11.524 -33.801  31.741  1.00  0.00     0.053 C 
ATOM      4  C   UNL     1     -10.483 -33.434  32.813  1.00  0.00     0.016 C 
BRANCH   3   5
ATOM      5  C   UNL     1     -12.939 -33.312  32.117  1.00  0.00     0.015 C 
BRANCH   5   6
ATOM      6  C   UNL     1     -14.064 -34.344  31.868  1.00  0.00     0.028 C 
BRANCH   6   7
ATOM      7  C   UNL     1     -13.507 -35.736  31.673  1.00  0.00    -0.028 C 
ATOM      8  C   UNL     1     -13.380 -36.411  30.505  1.00  0.00    -0.070 CG0
ATOM      9  C   UNL     1     -12.822 -37.812  30.571  1.00  0.00     0.039 C 
ATOM     10  G   UNL     1     -13.736 -35.851  29.138  1.00  0.00     0.000 G0
ENDBRANCH   6   7
ENDBRANCH   5   6
ENDBRANCH   3   5
ENDBRANCH   1   3
BRANCH   1  11
ATOM     11  C   UNL     1     -12.104 -32.645  29.418  1.00  0.00     0.087 C 
BRANCH  11  12
ATOM     12  C   UNL     1     -12.684 -33.533  28.291  1.00  0.00     0.066 C 
BRANCH  12  13
ATOM     13  C   UNL     1     -12.577 -35.024  28.582  1.00  0.00     0.140 C 
ATOM     14  O   UNL     1     -11.531 -35.592  28.300  1.00  0.00    -0.299 OA
BRANCH  13  15
ATOM     15  C   UNL     1     -13.719 -35.847  29.135  1.00  0.00     0.106 CG0
ATOM     16  G   UNL     1     -13.375 -36.410  30.504  1.00  0.00     0.000 G0
ENDBRANCH  13  15
ENDBRANCH  12  13
BRANCH  12  17
ATOM     17  C   UNL     1     -14.120 -33.093  27.871  1.00  0.00    -0.006 C 
ATOM     18  C   UNL     1     -14.484 -31.726  28.472  1.00  0.00     0.008 C 
ATOM     19  C   UNL     1     -14.356 -33.072  26.351  1.00  0.00     0.008 C 
ENDBRANCH  12  17
ENDBRANCH  11  12
ENDBRANCH   1  11
TORSDOF 1
ENDMDL
MODEL 8
REMARK VINA RESULT:    -4.683      2.165      5.011
REMARK INTER + INTRA:          -6.974
REMARK INTER:                  -7.008
REMARK INTRA:                   0.034
REMARK UNBOUND:                 0.173
REMARK SMILES CC1=CCC[C@H](C)C(=O)C[C@H](C(C)C)C(=O)C1
REMARK SMILES IDX 8 1 9 2 6 3 7 4 5 5 4 6 3 7 2 8 1 9 10 11 11 12 15 13 16 14
REMARK SMILES IDX 17 15 12 17 13 18 14 19
REMARK H PARENT
REMARK Flexibility Score: 70.00
ROOT
ATOM      1  C   UNL     1     -14.075 -32.457  29.237  1.00  0.00     0.136 C 
ATOM      2  O   UNL     1     -14.932 -31.585  29.212  1.00  0.00    -0.299 OA
ENDROOT
BRANCH   1   3
ATOM      3  C   UNL     1     -13.756 -33.183  27.943  1.00  0.00     0.053 C 
ATOM      4  C   UNL     1     -14.615 -32.741  26.745  1.00  0.00     0.016 C 
BRANCH   3   5
ATOM      5  C   UNL     1     -12.247 -33.138  27.623  1.00  0.00     0.015 C 
BRANCH   5   6
ATOM      6  C   UNL     1     -11.554 -34.521  27.595  1.00  0.00     0.028 C 
BRANCH   6   7
ATOM      7  C   UNL     1     -12.527 -35.636  27.904  1.00  0.00    -0.028 C 
ATOM      8  C   UNL     1     -12.878 -36.102  29.127  1.00  0.00    -0.070 CG0
ATOM      9  C   UNL     1     -13.851 -37.254  29.177  1.00  0.00     0.039 C 
ATOM     10  G   UNL     1     -12.380 -35.532  30.445  1.00  0.00     0.000 G0
ENDBRANCH   6   7
ENDBRANCH   5   6
ENDBRANCH   3   5
ENDBRANCH   1   3
BRANCH   1  11
ATOM     11  C   UNL     1     -13.321 -32.727  30.527  1.00  0.00     0.087 C 
BRANCH  11  12
ATOM     12  C   UNL     1     -14.042 -33.724  31.466  1.00  0.00     0.066 C 
BRANCH  12  13
ATOM     13  C   UNL     1     -13.501 -35.145  31.370  1.00  0.00     0.140 C 
ATOM     14  O   UNL     1     -13.977 -35.994  32.109  1.00  0.00    -0.299 OA
BRANCH  13  15
ATOM     15  C   UNL     1     -12.361 -35.539  30.458  1.00  0.00     0.106 CG0
ATOM     16  G   UNL     1     -12.880 -36.089  29.140  1.00  0.00     0.000 G0
ENDBRANCH  13  15
ENDBRANCH  12  13
BRANCH  12  17
ATOM     17  C   UNL     1     -14.128 -33.200  32.933  1.00  0.00    -0.006 C 
ATOM     18  C   UNL     1     -12.769 -32.667  33.415  1.00  0.00     0.008 C 
ATOM     19  C   UNL     1     -15.214 -32.136  33.162  1.00  0.00     0.008 C 
ENDBRANCH  12  17
ENDBRANCH  11  12
ENDBRANCH   1  11
TORSDOF 1
ENDMDL
MODEL 9
REMARK VINA RESULT:    -4.671      2.157      4.405
REMARK INTER + INTRA:          -6.955
REMARK INTER:                  -7.139
REMARK INTRA:                   0.184
REMARK UNBOUND:                 0.173
REMARK SMILES CC1=CCC[C@H](C)C(=O)C[C@H](C(C)C)C(=O)C1
REMARK SMILES IDX 8 1 9 2 6 3 7 4 5 5 4 6 3 7 2 8 1 9 10 11 11 12 15 13 16 14
REMARK SMILES IDX 17 15 12 17 13 18 14 19
REMARK H PARENT
REMARK Flexibility Score: 70.00
ROOT
ATOM      1  C   UNL     1     -11.944 -34.554  31.415  1.00  0.00     0.136 C 
ATOM      2  O   UNL     1     -11.505 -35.671  31.650  1.00  0.00    -0.299 OA
ENDROOT
BRANCH   1   3
ATOM      3  C   UNL     1     -10.989 -33.377  31.502  1.00  0.00     0.053 C 
ATOM      4  C   UNL     1     -10.258 -33.258  32.851  1.00  0.00     0.016 C 
BRANCH   3   5
ATOM      5  C   UNL     1     -10.011 -33.350  30.308  1.00  0.00     0.015 C 
BRANCH   5   6
ATOM      6  C   UNL     1     -10.017 -34.632  29.443  1.00  0.00     0.028 C 
BRANCH   6   7
ATOM      7  C   UNL     1     -10.347 -34.326  28.000  1.00  0.00    -0.028 C 
ATOM      8  C   UNL     1     -11.486 -34.639  27.336  1.00  0.00    -0.070 CG0
ATOM      9  C   UNL     1     -11.567 -34.254  25.879  1.00  0.00     0.039 C 
ATOM     10  G   UNL     1     -12.690 -35.325  27.959  1.00  0.00     0.000 G0
ENDBRANCH   6   7
ENDBRANCH   5   6
ENDBRANCH   3   5
ENDBRANCH   1   3
BRANCH   1  11
ATOM     11  C   UNL     1     -13.390 -34.396  30.980  1.00  0.00     0.087 C 
BRANCH  11  12
ATOM     12  C   UNL     1     -13.562 -33.515  29.719  1.00  0.00     0.066 C 
BRANCH  12  13
ATOM     13  C   UNL     1     -13.718 -34.320  28.436  1.00  0.00     0.140 C 
ATOM     14  O   UNL     1     -14.749 -34.183  27.792  1.00  0.00    -0.299 OA
BRANCH  13  15
ATOM     15  C   UNL     1     -12.697 -35.328  27.958  1.00  0.00     0.106 CG0
ATOM     16  G   UNL     1     -11.492 -34.637  27.343  1.00  0.00     0.000 G0
ENDBRANCH  13  15
ENDBRANCH  12  13
BRANCH  12  17
ATOM     17  C   UNL     1     -14.669 -32.431  29.900  1.00  0.00    -0.006 C 
ATOM     18  C   UNL     1     -14.755 -31.960  31.361  1.00  0.00     0.008 C 
ATOM     19  C   UNL     1     -14.523 -31.216  28.969  1.00  0.00     0.008 C 
ENDBRANCH  12  17
ENDBRANCH  11  12
ENDBRANCH   1  11
TORSDOF 1
ENDMDL
