MODEL 1
REMARK VINA RESULT:    -4.480      0.000      0.000
REMARK INTER + INTRA:          -5.752
REMARK INTER:                  -6.313
REMARK INTRA:                   0.562
REMARK UNBOUND:                 0.562
REMARK SMILES CC1=CCC(=C(C)C)C(=O)CC(C)=CCC1
REMARK SMILES IDX 12 1 14 2 13 3 15 4 16 5 2 6 1 7 3 8 11 10 9 11 10 12 5 13
REMARK SMILES IDX 6 14 7 15 8 16 4 17
REMARK H PARENT
REMARK Flexibility Score: 60.00
ROOT
ATOM      1  C   UNL     1      17.095 -31.393  21.901  1.00  0.00    -0.070 C 
ATOM      2  C   UNL     1      17.706 -31.827  20.773  1.00  0.00    -0.027 C 
ATOM      3  C   UNL     1      16.593 -29.972  21.935  1.00  0.00     0.039 C 
ENDROOT
BRANCH   2   4
ATOM      4  C   UNL     1      18.213 -33.232  20.543  1.00  0.00     0.032 C 
BRANCH   4   5
ATOM      5  C   UNL     1      17.413 -33.950  19.445  1.00  0.00     0.034 C 
BRANCH   5   6
ATOM      6  C   UNL     1      16.441 -34.989  19.983  1.00  0.00    -0.077 C 
ATOM      7  C   UNL     1      16.822 -36.447  19.910  1.00  0.00     0.039 C 
ATOM      8  C   UNL     1      15.250 -34.677  20.542  1.00  0.00    -0.023 CG0
ATOM      9  G   UNL     1      14.667 -33.286  20.641  1.00  0.00     0.000 G0
ENDBRANCH   5   6
ENDBRANCH   4   5
ENDBRANCH   2   4
BRANCH   1  10
ATOM     10  C   UNL     1      16.899 -32.271  23.123  1.00  0.00     0.111 C 
BRANCH  10  11
ATOM     11  C   UNL     1      15.627 -33.063  23.022  1.00  0.00     0.163 C 
ATOM     12  O   UNL     1      15.441 -34.038  23.801  1.00  0.00    -0.294 OA
BRANCH  11  13
ATOM     13  C   UNL     1      14.572 -32.707  22.039  1.00  0.00    -0.002 C 
ATOM     14  C   UNL     1      13.547 -31.886  22.399  1.00  0.00    -0.069 C 
ATOM     15  C   UNL     1      13.506 -31.243  23.768  1.00  0.00     0.039 C 
ATOM     16  C   UNL     1      12.436 -31.553  21.430  1.00  0.00     0.039 C 
BRANCH  13  17
ATOM     17  C   UNL     1      14.652 -33.271  20.624  1.00  0.00     0.066 CG0
ATOM     18  G   UNL     1      15.245 -34.659  20.556  1.00  0.00     0.000 G0
ENDBRANCH  13  17
ENDBRANCH  11  13
ENDBRANCH  10  11
ENDBRANCH   1  10
TORSDOF 0
ENDMDL
MODEL 2
REMARK VINA RESULT:    -4.429      1.633      2.549
REMARK INTER + INTRA:          -5.679
REMARK INTER:                  -6.168
REMARK INTRA:                   0.488
REMARK UNBOUND:                 0.562
REMARK SMILES CC1=CCC(=C(C)C)C(=O)CC(C)=CCC1
REMARK SMILES IDX 12 1 14 2 13 3 15 4 16 5 2 6 1 7 3 8 11 10 9 11 10 12 5 13
REMARK SMILES IDX 6 14 7 15 8 16 4 17
REMARK H PARENT
REMARK Flexibility Score: 60.00
ROOT
ATOM      1  C   UNL     1      19.542 -33.187  20.551  1.00  0.00    -0.070 C 
ATOM      2  C   UNL     1      19.331 -34.312  19.828  1.00  0.00    -0.027 C 
ATOM      3  C   UNL     1      20.845 -33.057  21.298  1.00  0.00     0.039 C 
ENDROOT
BRANCH   2   4
ATOM      4  C   UNL     1      18.115 -34.582  18.972  1.00  0.00     0.032 C 
BRANCH   4   5
ATOM      5  C   UNL     1      17.322 -35.794  19.483  1.00  0.00     0.034 C 
BRANCH   5   6
ATOM      6  C   UNL     1      17.240 -35.873  21.000  1.00  0.00    -0.077 C 
ATOM      7  C   UNL     1      18.005 -36.959  21.714  1.00  0.00     0.039 C 
ATOM      8  C   UNL     1      16.526 -35.006  21.753  1.00  0.00    -0.023 CG0
ATOM      9  G   UNL     1      15.645 -33.901  21.218  1.00  0.00     0.000 G0
ENDBRANCH   5   6
ENDBRANCH   4   5
ENDBRANCH   2   4
BRANCH   1  10
ATOM     10  C   UNL     1      18.528 -32.062  20.641  1.00  0.00     0.111 C 
BRANCH  10  11
ATOM     11  C   UNL     1      17.597 -32.265  21.802  1.00  0.00     0.163 C 
ATOM     12  O   UNL     1      18.054 -32.225  22.977  1.00  0.00    -0.294 OA
BRANCH  11  13
ATOM     13  C   UNL     1      16.143 -32.486  21.595  1.00  0.00    -0.002 C 
ATOM     14  C   UNL     1      15.266 -31.454  21.733  1.00  0.00    -0.069 C 
ATOM     15  C   UNL     1      15.750 -30.047  22.005  1.00  0.00     0.039 C 
ATOM     16  C   UNL     1      13.778 -31.669  21.578  1.00  0.00     0.039 C 
BRANCH  13  17
ATOM     17  C   UNL     1      15.648 -33.880  21.226  1.00  0.00     0.066 CG0
ATOM     18  G   UNL     1      16.514 -34.995  21.764  1.00  0.00     0.000 G0
ENDBRANCH  13  17
ENDBRANCH  11  13
ENDBRANCH  10  11
ENDBRANCH   1  10
TORSDOF 0
ENDMDL
MODEL 3
REMARK VINA RESULT:    -4.403      1.893      4.663
REMARK INTER + INTRA:          -5.644
REMARK INTER:                  -6.166
REMARK INTRA:                   0.523
REMARK UNBOUND:                 0.562
REMARK SMILES CC1=CCC(=C(C)C)C(=O)CC(C)=CCC1
REMARK SMILES IDX 12 1 14 2 13 3 15 4 16 5 2 6 1 7 3 8 11 10 9 11 10 12 5 13
REMARK SMILES IDX 6 14 7 15 8 16 4 17
REMARK H PARENT
REMARK Flexibility Score: 60.00
ROOT
ATOM      1  C   UNL     1      16.126 -33.792  23.969  1.00  0.00    -0.070 C 
ATOM      2  C   UNL     1      15.341 -32.937  24.667  1.00  0.00    -0.027 C 
ATOM      3  C   UNL     1      17.550 -33.980  24.425  1.00  0.00     0.039 C 
ENDROOT
BRANCH   2   4
ATOM      4  C   UNL     1      13.878 -32.674  24.390  1.00  0.00     0.032 C 
BRANCH   4   5
ATOM      5  C   UNL     1      13.635 -31.216  23.972  1.00  0.00     0.034 C 
BRANCH   5   6
ATOM      6  C   UNL     1      13.397 -31.043  22.479  1.00  0.00    -0.077 C 
ATOM      7  C   UNL     1      11.979 -30.940  21.976  1.00  0.00     0.039 C 
ATOM      8  C   UNL     1      14.395 -30.958  21.571  1.00  0.00    -0.023 CG0
ATOM      9  G   UNL     1      15.868 -31.108  21.873  1.00  0.00     0.000 G0
ENDBRANCH   5   6
ENDBRANCH   4   5
ENDBRANCH   2   4
BRANCH   1  10
ATOM     10  C   UNL     1      15.635 -34.559  22.756  1.00  0.00     0.111 C 
BRANCH  10  11
ATOM     11  C   UNL     1      15.603 -33.681  21.537  1.00  0.00     0.163 C 
ATOM     12  O   UNL     1      14.820 -33.966  20.590  1.00  0.00    -0.294 OA
BRANCH  11  13
ATOM     13  C   UNL     1      16.457 -32.470  21.436  1.00  0.00    -0.002 C 
ATOM     14  C   UNL     1      17.735 -32.568  20.978  1.00  0.00    -0.069 C 
ATOM     15  C   UNL     1      18.286 -33.883  20.474  1.00  0.00     0.039 C 
ATOM     16  C   UNL     1      18.637 -31.357  20.916  1.00  0.00     0.039 C 
BRANCH  13  17
ATOM     17  C   UNL     1      15.883 -31.119  21.850  1.00  0.00     0.066 CG0
ATOM     18  G   UNL     1      14.403 -30.977  21.577  1.00  0.00     0.000 G0
ENDBRANCH  13  17
ENDBRANCH  11  13
ENDBRANCH  10  11
ENDBRANCH   1  10
TORSDOF 0
ENDMDL
MODEL 4
REMARK VINA RESULT:    -4.299      1.878      3.944
REMARK INTER + INTRA:          -5.496
REMARK INTER:                  -5.886
REMARK INTRA:                   0.390
REMARK UNBOUND:                 0.562
REMARK SMILES CC1=CCC(=C(C)C)C(=O)CC(C)=CCC1
REMARK SMILES IDX 12 1 14 2 13 3 15 4 16 5 2 6 1 7 3 8 11 10 9 11 10 12 5 13
REMARK SMILES IDX 6 14 7 15 8 16 4 17
REMARK H PARENT
REMARK Flexibility Score: 60.00
ROOT
ATOM      1  C   UNL     1      14.267 -30.588  22.695  1.00  0.00    -0.070 C 
ATOM      2  C   UNL     1      13.617 -31.721  22.344  1.00  0.00    -0.027 C 
ATOM      3  C   UNL     1      13.619 -29.685  23.714  1.00  0.00     0.039 C 
ENDROOT
BRANCH   2   4
ATOM      4  C   UNL     1      14.144 -32.767  21.388  1.00  0.00     0.032 C 
BRANCH   4   5
ATOM      5  C   UNL     1      15.022 -33.801  22.108  1.00  0.00     0.034 C 
BRANCH   5   6
ATOM      6  C   UNL     1      16.204 -34.279  21.279  1.00  0.00    -0.077 C 
ATOM      7  C   UNL     1      15.953 -35.231  20.135  1.00  0.00     0.039 C 
ATOM      8  C   UNL     1      17.479 -33.882  21.499  1.00  0.00    -0.023 CG0
ATOM      9  G   UNL     1      17.935 -32.993  22.633  1.00  0.00     0.000 G0
ENDBRANCH   5   6
ENDBRANCH   4   5
ENDBRANCH   2   4
BRANCH   1  10
ATOM     10  C   UNL     1      15.608 -30.190  22.109  1.00  0.00     0.111 C 
BRANCH  10  11
ATOM     11  C   UNL     1      16.741 -30.710  22.947  1.00  0.00     0.163 C 
ATOM     12  O   UNL     1      16.740 -30.498  24.190  1.00  0.00    -0.294 OA
BRANCH  11  13
ATOM     13  C   UNL     1      17.851 -31.492  22.344  1.00  0.00    -0.002 C 
ATOM     14  C   UNL     1      18.764 -30.881  21.540  1.00  0.00    -0.069 C 
ATOM     15  C   UNL     1      18.730 -29.386  21.316  1.00  0.00     0.039 C 
ATOM     16  C   UNL     1      19.869 -31.669  20.875  1.00  0.00     0.039 C 
BRANCH  13  17
ATOM     17  C   UNL     1      17.954 -32.985  22.638  1.00  0.00     0.066 CG0
ATOM     18  G   UNL     1      17.465 -33.863  21.509  1.00  0.00     0.000 G0
ENDBRANCH  13  17
ENDBRANCH  11  13
ENDBRANCH  10  11
ENDBRANCH   1  10
TORSDOF 0
ENDMDL
MODEL 5
REMARK VINA RESULT:    -4.202      2.305      4.224
REMARK INTER + INTRA:          -5.360
REMARK INTER:                  -5.752
REMARK INTRA:                   0.392
REMARK UNBOUND:                 0.562
REMARK SMILES CC1=CCC(=C(C)C)C(=O)CC(C)=CCC1
REMARK SMILES IDX 12 1 14 2 13 3 15 4 16 5 2 6 1 7 3 8 11 10 9 11 10 12 5 13
REMARK SMILES IDX 6 14 7 15 8 16 4 17
REMARK H PARENT
REMARK Flexibility Score: 60.00
ROOT
ATOM      1  C   UNL     1      14.507 -30.976  23.746  1.00  0.00    -0.070 C 
ATOM      2  C   UNL     1      13.919 -32.125  24.153  1.00  0.00    -0.027 C 
ATOM      3  C   UNL     1      13.618 -29.822  23.356  1.00  0.00     0.039 C 
ENDROOT
BRANCH   2   4
ATOM      4  C   UNL     1      14.653 -33.355  24.637  1.00  0.00     0.032 C 
BRANCH   4   5
ATOM      5  C   UNL     1      14.996 -34.301  23.477  1.00  0.00     0.034 C 
BRANCH   5   6
ATOM      6  C   UNL     1      16.478 -34.633  23.381  1.00  0.00    -0.077 C 
ATOM      7  C   UNL     1      17.075 -35.589  24.384  1.00  0.00     0.039 C 
ATOM      8  C   UNL     1      17.295 -34.128  22.429  1.00  0.00    -0.023 CG0
ATOM      9  G   UNL     1      16.897 -33.109  21.386  1.00  0.00     0.000 G0
ENDBRANCH   5   6
ENDBRANCH   4   5
ENDBRANCH   2   4
BRANCH   1  10
ATOM     10  C   UNL     1      16.012 -30.803  23.663  1.00  0.00     0.111 C 
BRANCH  10  11
ATOM     11  C   UNL     1      16.468 -30.700  22.235  1.00  0.00     0.163 C 
ATOM     12  O   UNL     1      16.065 -29.738  21.525  1.00  0.00    -0.294 OA
BRANCH  11  13
ATOM     13  C   UNL     1      17.403 -31.693  21.649  1.00  0.00    -0.002 C 
ATOM     14  C   UNL     1      18.687 -31.343  21.366  1.00  0.00    -0.069 C 
ATOM     15  C   UNL     1      19.221 -29.973  21.724  1.00  0.00     0.039 C 
ATOM     16  C   UNL     1      19.640 -32.323  20.722  1.00  0.00     0.039 C 
BRANCH  13  17
ATOM     17  C   UNL     1      16.907 -33.109  21.372  1.00  0.00     0.066 CG0
ATOM     18  G   UNL     1      17.306 -34.111  22.430  1.00  0.00     0.000 G0
ENDBRANCH  13  17
ENDBRANCH  11  13
ENDBRANCH  10  11
ENDBRANCH   1  10
TORSDOF 0
ENDMDL
MODEL 6
REMARK VINA RESULT:    -4.143      1.710      4.326
REMARK INTER + INTRA:          -5.277
REMARK INTER:                  -5.877
REMARK INTRA:                   0.600
REMARK UNBOUND:                 0.562
REMARK SMILES CC1=CCC(=C(C)C)C(=O)CC(C)=CCC1
REMARK SMILES IDX 12 1 14 2 13 3 15 4 16 5 2 6 1 7 3 8 11 10 9 11 10 12 5 13
REMARK SMILES IDX 6 14 7 15 8 16 4 17
REMARK H PARENT
REMARK Flexibility Score: 60.00
ROOT
ATOM      1  C   UNL     1      18.999 -33.586  21.187  1.00  0.00    -0.070 C 
ATOM      2  C   UNL     1      18.295 -32.495  20.806  1.00  0.00    -0.027 C 
ATOM      3  C   UNL     1      19.853 -34.276  20.154  1.00  0.00     0.039 C 
ENDROOT
BRANCH   2   4
ATOM      4  C   UNL     1      17.439 -31.648  21.720  1.00  0.00     0.032 C 
BRANCH   4   5
ATOM      5  C   UNL     1      15.942 -31.883  21.474  1.00  0.00     0.034 C 
BRANCH   5   6
ATOM      6  C   UNL     1      15.304 -32.840  22.470  1.00  0.00    -0.077 C 
ATOM      7  C   UNL     1      14.656 -32.273  23.709  1.00  0.00     0.039 C 
ATOM      8  C   UNL     1      15.271 -34.181  22.300  1.00  0.00    -0.023 CG0
ATOM      9  G   UNL     1      15.923 -34.935  21.164  1.00  0.00     0.000 G0
ENDBRANCH   5   6
ENDBRANCH   4   5
ENDBRANCH   2   4
BRANCH   1  10
ATOM     10  C   UNL     1      18.962 -34.141  22.598  1.00  0.00     0.111 C 
BRANCH  10  11
ATOM     11  C   UNL     1      17.957 -35.252  22.717  1.00  0.00     0.163 C 
ATOM     12  O   UNL     1      17.761 -35.791  23.841  1.00  0.00    -0.294 OA
BRANCH  11  13
ATOM     13  C   UNL     1      17.172 -35.711  21.543  1.00  0.00    -0.002 C 
ATOM     14  C   UNL     1      17.582 -36.791  20.824  1.00  0.00    -0.069 C 
ATOM     15  C   UNL     1      18.783 -37.604  21.251  1.00  0.00     0.039 C 
ATOM     16  C   UNL     1      16.826 -37.243  19.595  1.00  0.00     0.039 C 
BRANCH  13  17
ATOM     17  C   UNL     1      15.903 -34.958  21.157  1.00  0.00     0.066 CG0
ATOM     18  G   UNL     1      15.287 -34.180  22.297  1.00  0.00     0.000 G0
ENDBRANCH  13  17
ENDBRANCH  11  13
ENDBRANCH  10  11
ENDBRANCH   1  10
TORSDOF 0
ENDMDL
MODEL 7
REMARK VINA RESULT:    -4.112      2.230      4.971
REMARK INTER + INTRA:          -5.233
REMARK INTER:                  -5.749
REMARK INTRA:                   0.516
REMARK UNBOUND:                 0.562
REMARK SMILES CC1=CCC(=C(C)C)C(=O)CC(C)=CCC1
REMARK SMILES IDX 12 1 14 2 13 3 15 4 16 5 2 6 1 7 3 8 11 10 9 11 10 12 5 13
REMARK SMILES IDX 6 14 7 15 8 16 4 17
REMARK H PARENT
REMARK Flexibility Score: 60.00
ROOT
ATOM      1  C   UNL     1      15.047 -33.917  20.879  1.00  0.00    -0.070 C 
ATOM      2  C   UNL     1      14.073 -33.062  20.489  1.00  0.00    -0.027 C 
ATOM      3  C   UNL     1      15.547 -34.928  19.878  1.00  0.00     0.039 C 
ENDROOT
BRANCH   2   4
ATOM      4  C   UNL     1      13.499 -31.951  21.337  1.00  0.00     0.032 C 
BRANCH   4   5
ATOM      5  C   UNL     1      14.533 -30.847  21.601  1.00  0.00     0.034 C 
BRANCH   5   6
ATOM      6  C   UNL     1      14.650 -30.460  23.067  1.00  0.00    -0.077 C 
ATOM      7  C   UNL     1      13.416 -29.990  23.796  1.00  0.00     0.039 C 
ATOM      8  C   UNL     1      15.806 -30.530  23.767  1.00  0.00    -0.023 CG0
ATOM      9  G   UNL     1      17.153 -30.909  23.196  1.00  0.00     0.000 G0
ENDBRANCH   5   6
ENDBRANCH   4   5
ENDBRANCH   2   4
BRANCH   1  10
ATOM     10  C   UNL     1      15.650 -33.903  22.271  1.00  0.00     0.111 C 
BRANCH  10  11
ATOM     11  C   UNL     1      17.036 -33.324  22.256  1.00  0.00     0.163 C 
ATOM     12  O   UNL     1      17.819 -33.619  21.312  1.00  0.00    -0.294 OA
BRANCH  11  13
ATOM     13  C   UNL     1      17.495 -32.391  23.316  1.00  0.00    -0.002 C 
ATOM     14  C   UNL     1      18.198 -32.858  24.384  1.00  0.00    -0.069 C 
ATOM     15  C   UNL     1      18.610 -34.311  24.473  1.00  0.00     0.039 C 
ATOM     16  C   UNL     1      18.629 -31.934  25.499  1.00  0.00     0.039 C 
BRANCH  13  17
ATOM     17  C   UNL     1      17.169 -30.906  23.192  1.00  0.00     0.066 CG0
ATOM     18  G   UNL     1      15.820 -30.530  23.760  1.00  0.00     0.000 G0
ENDBRANCH  13  17
ENDBRANCH  11  13
ENDBRANCH  10  11
ENDBRANCH   1  10
TORSDOF 0
ENDMDL
MODEL 8
REMARK VINA RESULT:    -4.053      1.797      4.481
REMARK INTER + INTRA:          -5.149
REMARK INTER:                  -5.722
REMARK INTRA:                   0.573
REMARK UNBOUND:                 0.562
REMARK SMILES CC1=CCC(=C(C)C)C(=O)CC(C)=CCC1
REMARK SMILES IDX 12 1 14 2 13 3 15 4 16 5 2 6 1 7 3 8 11 10 9 11 10 12 5 13
REMARK SMILES IDX 6 14 7 15 8 16 4 17
REMARK H PARENT
REMARK Flexibility Score: 60.00
ROOT
ATOM      1  C   UNL     1      17.956 -34.010  23.602  1.00  0.00    -0.070 C 
ATOM      2  C   UNL     1      16.879 -33.724  24.371  1.00  0.00    -0.027 C 
ATOM      3  C   UNL     1      18.656 -35.327  23.822  1.00  0.00     0.039 C 
ENDROOT
BRANCH   2   4
ATOM      4  C   UNL     1      16.024 -32.484  24.246  1.00  0.00     0.032 C 
BRANCH   4   5
ATOM      5  C   UNL     1      14.583 -32.828  23.843  1.00  0.00     0.034 C 
BRANCH   5   6
ATOM      6  C   UNL     1      14.241 -32.435  22.414  1.00  0.00    -0.077 C 
ATOM      7  C   UNL     1      13.431 -31.185  22.177  1.00  0.00     0.039 C 
ATOM      8  C   UNL     1      14.639 -33.142  21.331  1.00  0.00    -0.023 CG0
ATOM      9  G   UNL     1      15.393 -34.451  21.370  1.00  0.00     0.000 G0
ENDBRANCH   5   6
ENDBRANCH   4   5
ENDBRANCH   2   4
BRANCH   1  10
ATOM     10  C   UNL     1      18.486 -33.065  22.540  1.00  0.00     0.111 C 
BRANCH  10  11
ATOM     11  C   UNL     1      17.624 -33.095  21.310  1.00  0.00     0.163 C 
ATOM     12  O   UNL     1      17.557 -32.071  20.576  1.00  0.00    -0.294 OA
BRANCH  11  13
ATOM     13  C   UNL     1      16.869 -34.315  20.927  1.00  0.00    -0.002 C 
ATOM     14  C   UNL     1      17.470 -35.292  20.194  1.00  0.00    -0.069 C 
ATOM     15  C   UNL     1      18.936 -35.208  19.833  1.00  0.00     0.039 C 
ATOM     16  C   UNL     1      16.704 -36.516  19.750  1.00  0.00     0.039 C 
BRANCH  13  17
ATOM     17  C   UNL     1      15.415 -34.458  21.366  1.00  0.00     0.066 CG0
ATOM     18  G   UNL     1      14.638 -33.162  21.327  1.00  0.00     0.000 G0
ENDBRANCH  13  17
ENDBRANCH  11  13
ENDBRANCH  10  11
ENDBRANCH   1  10
TORSDOF 0
ENDMDL
MODEL 9
REMARK VINA RESULT:    -3.987      1.831      4.855
REMARK INTER + INTRA:          -5.056
REMARK INTER:                  -5.620
REMARK INTRA:                   0.564
REMARK UNBOUND:                 0.562
REMARK SMILES CC1=CCC(=C(C)C)C(=O)CC(C)=CCC1
REMARK SMILES IDX 12 1 14 2 13 3 15 4 16 5 2 6 1 7 3 8 11 10 9 11 10 12 5 13
REMARK SMILES IDX 6 14 7 15 8 16 4 17
REMARK H PARENT
REMARK Flexibility Score: 60.00
ROOT
ATOM      1  C   UNL     1      15.454 -34.434  21.350  1.00  0.00    -0.070 C 
ATOM      2  C   UNL     1      14.574 -33.474  20.983  1.00  0.00    -0.027 C 
ATOM      3  C   UNL     1      15.990 -35.352  20.280  1.00  0.00     0.039 C 
ENDROOT
BRANCH   2   4
ATOM      4  C   UNL     1      13.985 -32.433  21.907  1.00  0.00     0.032 C 
BRANCH   4   5
ATOM      5  C   UNL     1      14.484 -31.022  21.563  1.00  0.00     0.034 C 
BRANCH   5   6
ATOM      6  C   UNL     1      15.496 -30.475  22.558  1.00  0.00    -0.077 C 
ATOM      7  C   UNL     1      15.023 -29.517  23.623  1.00  0.00     0.039 C 
ATOM      8  C   UNL     1      16.805 -30.814  22.554  1.00  0.00    -0.023 CG0
ATOM      9  G   UNL     1      17.476 -31.699  21.529  1.00  0.00     0.000 G0
ENDBRANCH   5   6
ENDBRANCH   4   5
ENDBRANCH   2   4
BRANCH   1  10
ATOM     10  C   UNL     1      15.917 -34.626  22.781  1.00  0.00     0.111 C 
BRANCH  10  11
ATOM     11  C   UNL     1      17.057 -33.704  23.110  1.00  0.00     0.163 C 
ATOM     12  O   UNL     1      17.340 -33.475  24.317  1.00  0.00    -0.294 OA
BRANCH  11  13
ATOM     13  C   UNL     1      17.874 -33.075  22.040  1.00  0.00    -0.002 C 
ATOM     14  C   UNL     1      18.956 -33.726  21.532  1.00  0.00    -0.069 C 
ATOM     15  C   UNL     1      19.299 -35.133  21.969  1.00  0.00     0.039 C 
ATOM     16  C   UNL     1      19.830 -33.082  20.480  1.00  0.00     0.039 C 
BRANCH  13  17
ATOM     17  C   UNL     1      17.484 -31.696  21.520  1.00  0.00     0.066 CG0
ATOM     18  G   UNL     1      16.795 -30.830  22.549  1.00  0.00     0.000 G0
ENDBRANCH  13  17
ENDBRANCH  11  13
ENDBRANCH  10  11
ENDBRANCH   1  10
TORSDOF 0
ENDMDL
