MODEL 1
REMARK VINA RESULT:    -2.974      0.000      0.000
REMARK INTER + INTRA:          -3.617
REMARK INTER:                  -3.496
REMARK INTRA:                  -0.121
REMARK UNBOUND:                -0.121
REMARK SMILES O=C([O-])CCC(=O)[O-]
REMARK SMILES IDX 4 1 2 2 1 3 3 4 5 5 6 6 7 7 8 8
REMARK H PARENT
REMARK Flexibility Score: inf
ROOT
ATOM      1  C   UNL     1       3.273   0.868 400.272  1.00  0.00     0.059 C 
ENDROOT
BRANCH   1   2
ATOM      2  C   UNL     1       3.661   1.908 401.277  1.00  0.00     0.042 C 
ATOM      3  O   UNL     1       3.614   3.130 400.977  1.00  0.00    -0.550 OA
ATOM      4  O   UNL     1       4.112   1.526 402.534  1.00  0.00    -0.550 OA
ENDBRANCH   1   2
BRANCH   1   5
ATOM      5  C   UNL     1       4.397  -0.149 400.050  1.00  0.00     0.059 C 
BRANCH   5   6
ATOM      6  C   UNL     1       4.011  -1.512 400.538  1.00  0.00     0.042 C 
ATOM      7  O   UNL     1       4.085  -1.791 401.763  1.00  0.00    -0.550 OA
ATOM      8  O   UNL     1       3.607  -2.486 399.632  1.00  0.00    -0.550 OA
ENDBRANCH   5   6
ENDBRANCH   1   5
TORSDOF 3
ENDMDL
MODEL 2
REMARK VINA RESULT:    -2.970      0.665      1.628
REMARK INTER + INTRA:          -3.611
REMARK INTER:                  -3.491
REMARK INTRA:                  -0.121
REMARK UNBOUND:                -0.121
REMARK SMILES O=C([O-])CCC(=O)[O-]
REMARK SMILES IDX 4 1 2 2 1 3 3 4 5 5 6 6 7 7 8 8
REMARK H PARENT
REMARK Flexibility Score: inf
ROOT
ATOM      1  C   UNL     1       3.294   0.861 400.455  1.00  0.00     0.059 C 
ENDROOT
BRANCH   1   2
ATOM      2  C   UNL     1       4.095   1.990 401.026  1.00  0.00     0.042 C 
ATOM      3  O   UNL     1       5.265   1.788 401.448  1.00  0.00    -0.550 OA
ATOM      4  O   UNL     1       3.536   3.258 401.129  1.00  0.00    -0.550 OA
ENDBRANCH   1   2
BRANCH   1   5
ATOM      5  C   UNL     1       4.195  -0.264 399.935  1.00  0.00     0.059 C 
BRANCH   5   6
ATOM      6  C   UNL     1       4.014  -1.524 400.725  1.00  0.00     0.042 C 
ATOM      7  O   UNL     1       3.785  -2.614 400.138  1.00  0.00    -0.550 OA
ATOM      8  O   UNL     1       4.058  -1.486 402.114  1.00  0.00    -0.550 OA
ENDBRANCH   5   6
ENDBRANCH   1   5
TORSDOF 3
ENDMDL
MODEL 3
REMARK VINA RESULT:    -2.951      0.169      3.918
REMARK INTER + INTRA:          -3.589
REMARK INTER:                  -3.471
REMARK INTRA:                  -0.119
REMARK UNBOUND:                -0.121
REMARK SMILES O=C([O-])CCC(=O)[O-]
REMARK SMILES IDX 4 1 2 2 1 3 3 4 5 5 6 6 7 7 8 8
REMARK H PARENT
REMARK Flexibility Score: inf
ROOT
ATOM      1  C   UNL     1       4.394  -0.300 400.099  1.00  0.00     0.059 C 
ENDROOT
BRANCH   1   2
ATOM      2  C   UNL     1       3.985  -1.640 400.627  1.00  0.00     0.042 C 
ATOM      3  O   UNL     1       3.601  -2.543 399.837  1.00  0.00    -0.550 OA
ATOM      4  O   UNL     1       3.989  -1.880 401.995  1.00  0.00    -0.550 OA
ENDBRANCH   1   2
BRANCH   1   5
ATOM      5  C   UNL     1       3.273   0.733 400.253  1.00  0.00     0.059 C 
BRANCH   5   6
ATOM      6  C   UNL     1       3.635   1.795 401.247  1.00  0.00     0.042 C 
ATOM      7  O   UNL     1       3.599   3.010 400.919  1.00  0.00    -0.550 OA
ATOM      8  O   UNL     1       4.050   1.438 402.524  1.00  0.00    -0.550 OA
ENDBRANCH   5   6
ENDBRANCH   1   5
TORSDOF 3
ENDMDL
MODEL 4
REMARK VINA RESULT:    -2.949      0.198      1.160
REMARK INTER + INTRA:          -3.587
REMARK INTER:                  -3.469
REMARK INTRA:                  -0.118
REMARK UNBOUND:                -0.121
REMARK SMILES O=C([O-])CCC(=O)[O-]
REMARK SMILES IDX 4 1 2 2 1 3 3 4 5 5 6 6 7 7 8 8
REMARK H PARENT
REMARK Flexibility Score: inf
ROOT
ATOM      1  C   UNL     1       3.371   0.756 400.253  1.00  0.00     0.059 C 
ENDROOT
BRANCH   1   2
ATOM      2  C   UNL     1       3.621   1.790 401.307  1.00  0.00     0.042 C 
ATOM      3  O   UNL     1       3.621   3.014 401.008  1.00  0.00    -0.550 OA
ATOM      4  O   UNL     1       3.895   1.401 402.612  1.00  0.00    -0.550 OA
ENDBRANCH   1   2
BRANCH   1   5
ATOM      5  C   UNL     1       4.496  -0.284 400.204  1.00  0.00     0.059 C 
BRANCH   5   6
ATOM      6  C   UNL     1       4.016  -1.636 400.636  1.00  0.00     0.042 C 
ATOM      7  O   UNL     1       3.621  -2.471 399.780  1.00  0.00    -0.550 OA
ATOM      8  O   UNL     1       3.967  -1.957 401.986  1.00  0.00    -0.550 OA
ENDBRANCH   5   6
ENDBRANCH   1   5
TORSDOF 3
ENDMDL
MODEL 5
REMARK VINA RESULT:    -2.824      8.509      9.109
REMARK INTER + INTRA:          -3.440
REMARK INTER:                  -3.367
REMARK INTRA:                  -0.073
REMARK UNBOUND:                -0.121
REMARK SMILES O=C([O-])CCC(=O)[O-]
REMARK SMILES IDX 4 1 2 2 1 3 3 4 5 5 6 6 7 7 8 8
REMARK H PARENT
REMARK Flexibility Score: inf
ROOT
ATOM      1  C   UNL     1       4.675   7.888 402.445  1.00  0.00     0.059 C 
ENDROOT
BRANCH   1   2
ATOM      2  C   UNL     1       6.001   8.584 402.457  1.00  0.00     0.042 C 
ATOM      3  O   UNL     1       6.443   9.088 403.524  1.00  0.00    -0.550 OA
ATOM      4  O   UNL     1       6.731   8.710 401.283  1.00  0.00    -0.550 OA
ENDBRANCH   1   2
BRANCH   1   5
ATOM      5  C   UNL     1       4.267   7.425 403.847  1.00  0.00     0.059 C 
BRANCH   5   6
ATOM      6  C   UNL     1       3.010   8.099 404.306  1.00  0.00     0.042 C 
ATOM      7  O   UNL     1       2.031   8.216 403.523  1.00  0.00    -0.550 OA
ATOM      8  O   UNL     1       2.935   8.634 405.586  1.00  0.00    -0.550 OA
ENDBRANCH   5   6
ENDBRANCH   1   5
TORSDOF 3
ENDMDL
MODEL 6
REMARK VINA RESULT:    -2.820      8.562      8.996
REMARK INTER + INTRA:          -3.436
REMARK INTER:                  -3.402
REMARK INTRA:                  -0.034
REMARK UNBOUND:                -0.121
REMARK SMILES O=C([O-])CCC(=O)[O-]
REMARK SMILES IDX 4 1 2 2 1 3 3 4 5 5 6 6 7 7 8 8
REMARK H PARENT
REMARK Flexibility Score: inf
ROOT
ATOM      1  C   UNL     1       4.470   7.961 404.144  1.00  0.00     0.059 C 
ENDROOT
BRANCH   1   2
ATOM      2  C   UNL     1       3.025   8.170 404.481  1.00  0.00     0.042 C 
ATOM      3  O   UNL     1       2.667   8.311 405.680  1.00  0.00    -0.550 OA
ATOM      4  O   UNL     1       2.069   8.168 403.473  1.00  0.00    -0.550 OA
ENDBRANCH   1   2
BRANCH   1   5
ATOM      5  C   UNL     1       4.706   7.990 402.630  1.00  0.00     0.059 C 
BRANCH   5   6
ATOM      6  C   UNL     1       6.130   8.323 402.302  1.00  0.00     0.042 C 
ATOM      7  O   UNL     1       6.416   8.869 401.204  1.00  0.00    -0.550 OA
ATOM      8  O   UNL     1       7.144   7.994 403.193  1.00  0.00    -0.550 OA
ENDBRANCH   5   6
ENDBRANCH   1   5
TORSDOF 3
ENDMDL
MODEL 7
REMARK VINA RESULT:    -2.757      1.538      3.693
REMARK INTER + INTRA:          -3.361
REMARK INTER:                  -3.216
REMARK INTRA:                  -0.145
REMARK UNBOUND:                -0.121
REMARK SMILES O=C([O-])CCC(=O)[O-]
REMARK SMILES IDX 4 1 2 2 1 3 3 4 5 5 6 6 7 7 8 8
REMARK H PARENT
REMARK Flexibility Score: inf
ROOT
ATOM      1  C   UNL     1       3.303   1.088 400.369  1.00  0.00     0.059 C 
ENDROOT
BRANCH   1   2
ATOM      2  C   UNL     1       4.272  -0.044 400.218  1.00  0.00     0.042 C 
ATOM      3  O   UNL     1       4.012  -1.172 400.713  1.00  0.00    -0.550 OA
ATOM      4  O   UNL     1       5.481   0.159 399.565  1.00  0.00    -0.550 OA
ENDBRANCH   1   2
BRANCH   1   5
ATOM      5  C   UNL     1       3.967   2.322 400.988  1.00  0.00     0.059 C 
BRANCH   5   6
ATOM      6  C   UNL     1       4.609   2.000 402.303  1.00  0.00     0.042 C 
ATOM      7  O   UNL     1       3.919   1.540 403.250  1.00  0.00    -0.550 OA
ATOM      8  O   UNL     1       5.963   2.248 402.494  1.00  0.00    -0.550 OA
ENDBRANCH   5   6
ENDBRANCH   1   5
TORSDOF 3
ENDMDL
MODEL 8
REMARK VINA RESULT:    -2.748      7.881      8.746
REMARK INTER + INTRA:          -3.351
REMARK INTER:                  -3.264
REMARK INTRA:                  -0.086
REMARK UNBOUND:                -0.121
REMARK SMILES O=C([O-])CCC(=O)[O-]
REMARK SMILES IDX 4 1 2 2 1 3 3 4 5 5 6 6 7 7 8 8
REMARK H PARENT
REMARK Flexibility Score: inf
ROOT
ATOM      1  C   UNL     1       4.079   7.213 403.029  1.00  0.00     0.059 C 
ENDROOT
BRANCH   1   2
ATOM      2  C   UNL     1       3.062   7.962 403.833  1.00  0.00     0.042 C 
ATOM      3  O   UNL     1       3.406   8.576 404.878  1.00  0.00    -0.550 OA
ATOM      4  O   UNL     1       1.727   7.950 403.451  1.00  0.00    -0.550 OA
ENDBRANCH   1   2
BRANCH   1   5
ATOM      5  C   UNL     1       5.072   8.161 402.350  1.00  0.00     0.059 C 
BRANCH   5   6
ATOM      6  C   UNL     1       6.434   8.070 402.969  1.00  0.00     0.042 C 
ATOM      7  O   UNL     1       6.836   6.981 403.457  1.00  0.00    -0.550 OA
ATOM      8  O   UNL     1       7.241   9.198 403.044  1.00  0.00    -0.550 OA
ENDBRANCH   5   6
ENDBRANCH   1   5
TORSDOF 3
ENDMDL
MODEL 9
REMARK VINA RESULT:    -2.638      2.323      3.402
REMARK INTER + INTRA:          -3.222
REMARK INTER:                  -3.100
REMARK INTRA:                  -0.122
REMARK UNBOUND:                -0.121
REMARK SMILES O=C([O-])CCC(=O)[O-]
REMARK SMILES IDX 4 1 2 2 1 3 3 4 5 5 6 6 7 7 8 8
REMARK H PARENT
REMARK Flexibility Score: inf
ROOT
ATOM      1  C   UNL     1       4.013  -2.555 400.177  1.00  0.00     0.059 C 
ENDROOT
BRANCH   1   2
ATOM      2  C   UNL     1       4.038  -1.110 400.570  1.00  0.00     0.042 C 
ATOM      3  O   UNL     1       4.022  -0.212 399.686  1.00  0.00    -0.550 OA
ATOM      4  O   UNL     1       4.120  -0.755 401.910  1.00  0.00    -0.550 OA
ENDBRANCH   1   2
BRANCH   1   5
ATOM      5  C   UNL     1       3.193  -3.394 401.164  1.00  0.00     0.059 C 
BRANCH   5   6
ATOM      6  C   UNL     1       4.054  -4.370 401.905  1.00  0.00     0.042 C 
ATOM      7  O   UNL     1       3.895  -5.608 401.741  1.00  0.00    -0.550 OA
ATOM      8  O   UNL     1       5.005  -3.912 402.809  1.00  0.00    -0.550 OA
ENDBRANCH   5   6
ENDBRANCH   1   5
TORSDOF 3
ENDMDL
