MODEL 1
REMARK VINA RESULT:    -4.926      0.000      0.000
REMARK INTER + INTRA:          -4.823
REMARK INTER:                  -5.358
REMARK INTRA:                   0.535
REMARK UNBOUND:                 0.535
REMARK SMILES C[C@@H]1[C@H](C)CC[C@@]2(C(=O)[O-])CC[C@]3(C)C(=CC[C@@H]4[C@@]5(C)CC[C@H](O)C(C)(C)[C@H]5CC[C@@]43C)[C@H]12
REMARK SMILES IDX 7 1 6 2 11 3 33 4 5 5 12 6 15 7 2 8 3 9 13 10 16 11 1 12
REMARK SMILES IDX 4 13 14 14 31 15 17 16 18 17 30 18 32 19 19 20 29 21 28 22
REMARK SMILES IDX 21 23 20 24 25 25 22 26 23 27 26 28 27 29 8 30 9 31 10 32
REMARK SMILES IDX 24 33
REMARK H PARENT 24 34
REMARK Flexibility Score: inf
ROOT
ATOM      1  C   UNL     1      51.944  47.824  70.763  1.00  0.00     0.017 C 
ATOM      2  C   UNL     1      51.443  47.896  69.286  1.00  0.00     0.014 C 
ATOM      3  C   UNL     1      51.219  48.943  71.585  1.00  0.00     0.014 C 
ATOM      4  C   UNL     1      51.588  46.401  71.320  1.00  0.00     0.030 C 
ATOM      5  C   UNL     1      52.010  46.779  68.400  1.00  0.00     0.004 C 
ATOM      6  C   UNL     1      50.408  48.450  72.799  1.00  0.00     0.013 C 
ATOM      7  C   UNL     1      51.748  46.315  72.853  1.00  0.00    -0.063 C 
ATOM      8  C   UNL     1      52.156  45.228  70.438  1.00  0.00    -0.003 C 
ATOM      9  C   UNL     1      51.665  45.392  68.969  1.00  0.00    -0.011 C 
ATOM     10  C   UNL     1      51.171  47.435  73.733  1.00  0.00    -0.006 C 
ATOM     11  C   UNL     1      52.104  45.161  73.443  1.00  0.00    -0.027 C 
ATOM     12  C   UNL     1      53.687  45.020  70.530  1.00  0.00     0.008 C 
ATOM     13  C   UNL     1      52.170  44.279  68.039  1.00  0.00     0.008 C 
ATOM     14  C   UNL     1      52.350  48.199  74.406  1.00  0.00     0.017 C 
ATOM     15  C   UNL     1      50.212  46.786  74.865  1.00  0.00    -0.020 C 
ATOM     16  C   UNL     1      52.073  44.938  74.923  1.00  0.00     0.032 C 
ATOM     17  C   UNL     1      51.046  45.780  75.773  1.00  0.00     0.006 C 
ATOM     18  C   UNL     1      49.059  45.971  74.204  1.00  0.00     0.008 C 
ATOM     19  C   UNL     1      49.601  47.935  75.745  1.00  0.00     0.012 C 
ATOM     20  C   UNL     1      50.224  44.846  76.798  1.00  0.00    -0.025 C 
ATOM     21  C   UNL     1      48.241  45.106  75.170  1.00  0.00     0.005 C 
ATOM     22  C   UNL     1      49.067  44.094  76.027  1.00  0.00     0.003 C 
ATOM     23  C   UNL     1      49.596  45.654  77.982  1.00  0.00     0.010 C 
ATOM     24  C   UNL     1      51.264  43.860  77.451  1.00  0.00     0.012 C 
ATOM     25  C   UNL     1      48.110  43.226  76.967  1.00  0.00    -0.006 C 
ATOM     26  C   UNL     1      48.708  44.815  78.922  1.00  0.00     0.033 C 
ATOM     27  C   UNL     1      47.587  44.081  78.165  1.00  0.00     0.120 C 
ATOM     28  C   UNL     1      46.873  42.713  76.172  1.00  0.00     0.014 C 
ATOM     29  C   UNL     1      48.824  41.940  77.477  1.00  0.00     0.014 C 
ENDROOT
BRANCH   1  30
ATOM     30  C   UNL     1      53.444  48.109  70.817  1.00  0.00     0.048 C 
ATOM     31  O   UNL     1      54.071  48.430  69.771  1.00  0.00    -0.550 OA
ATOM     32  O   UNL     1      54.125  48.135  72.028  1.00  0.00    -0.550 OA
ENDBRANCH   1  30
BRANCH  27  33
ATOM     33  O   UNL     1      46.872  43.268  79.064  1.00  0.00    -0.393 OA
ATOM     34  H   UNL     1      46.082  43.790  79.363  1.00  0.00     0.210 HD
ENDBRANCH  27  33
TORSDOF 2
ENDMDL
MODEL 2
REMARK VINA RESULT:    -4.881      1.351      7.801
REMARK INTER + INTRA:          -4.774
REMARK INTER:                  -5.848
REMARK INTRA:                   1.074
REMARK UNBOUND:                 0.535
REMARK SMILES C[C@@H]1[C@H](C)CC[C@@]2(C(=O)[O-])CC[C@]3(C)C(=CC[C@@H]4[C@@]5(C)CC[C@H](O)C(C)(C)[C@H]5CC[C@@]43C)[C@H]12
REMARK SMILES IDX 7 1 6 2 11 3 33 4 5 5 12 6 15 7 2 8 3 9 13 10 16 11 1 12
REMARK SMILES IDX 4 13 14 14 31 15 17 16 18 17 30 18 32 19 19 20 29 21 28 22
REMARK SMILES IDX 21 23 20 24 25 25 22 26 23 27 26 28 27 29 8 30 9 31 10 32
REMARK SMILES IDX 24 33
REMARK H PARENT 24 34
REMARK Flexibility Score: inf
ROOT
ATOM      1  C   UNL     1      49.776  43.949  77.105  1.00  0.00     0.017 C 
ATOM      2  C   UNL     1      49.671  42.450  77.532  1.00  0.00     0.014 C 
ATOM      3  C   UNL     1      51.245  44.431  77.356  1.00  0.00     0.014 C 
ATOM      4  C   UNL     1      49.410  44.038  75.582  1.00  0.00     0.030 C 
ATOM      5  C   UNL     1      48.297  41.832  77.238  1.00  0.00     0.004 C 
ATOM      6  C   UNL     1      51.981  44.977  76.117  1.00  0.00     0.013 C 
ATOM      7  C   UNL     1      49.777  45.408  74.972  1.00  0.00    -0.063 C 
ATOM      8  C   UNL     1      48.005  43.416  75.242  1.00  0.00    -0.003 C 
ATOM      9  C   UNL     1      47.948  41.943  75.744  1.00  0.00    -0.011 C 
ATOM     10  C   UNL     1      51.158  46.016  75.265  1.00  0.00    -0.006 C 
ATOM     11  C   UNL     1      49.054  45.928  73.965  1.00  0.00    -0.027 C 
ATOM     12  C   UNL     1      46.788  44.248  75.714  1.00  0.00     0.008 C 
ATOM     13  C   UNL     1      46.608  41.257  75.444  1.00  0.00     0.008 C 
ATOM     14  C   UNL     1      50.965  47.297  76.130  1.00  0.00     0.017 C 
ATOM     15  C   UNL     1      51.884  46.394  73.868  1.00  0.00    -0.020 C 
ATOM     16  C   UNL     1      49.463  47.135  73.181  1.00  0.00     0.032 C 
ATOM     17  C   UNL     1      51.005  47.449  73.064  1.00  0.00     0.006 C 
ATOM     18  C   UNL     1      52.033  45.129  72.969  1.00  0.00     0.008 C 
ATOM     19  C   UNL     1      53.307  46.988  74.171  1.00  0.00     0.012 C 
ATOM     20  C   UNL     1      51.428  47.766  71.542  1.00  0.00    -0.025 C 
ATOM     21  C   UNL     1      52.472  45.408  71.527  1.00  0.00     0.005 C 
ATOM     22  C   UNL     1      51.577  46.415  70.736  1.00  0.00     0.003 C 
ATOM     23  C   UNL     1      52.772  48.562  71.441  1.00  0.00     0.010 C 
ATOM     24  C   UNL     1      50.320  48.713  70.948  1.00  0.00     0.012 C 
ATOM     25  C   UNL     1      52.109  46.600  69.240  1.00  0.00    -0.006 C 
ATOM     26  C   UNL     1      53.270  48.787  70.001  1.00  0.00     0.033 C 
ATOM     27  C   UNL     1      53.408  47.468  69.218  1.00  0.00     0.120 C 
ATOM     28  C   UNL     1      52.447  45.221  68.600  1.00  0.00     0.014 C 
ATOM     29  C   UNL     1      51.018  47.217  68.318  1.00  0.00     0.014 C 
ENDROOT
BRANCH   1  30
ATOM     30  C   UNL     1      48.853  44.801  77.974  1.00  0.00     0.048 C 
ATOM     31  O   UNL     1      47.715  44.373  78.309  1.00  0.00    -0.550 OA
ATOM     32  O   UNL     1      49.287  46.008  78.510  1.00  0.00    -0.550 OA
ENDBRANCH   1  30
BRANCH  27  33
ATOM     33  O   UNL     1      53.779  47.750  67.891  1.00  0.00    -0.393 OA
ATOM     34  H   UNL     1      53.385  47.039  67.321  1.00  0.00     0.210 HD
ENDBRANCH  27  33
TORSDOF 2
ENDMDL
MODEL 3
REMARK VINA RESULT:    -3.573      2.459      3.918
REMARK INTER + INTRA:          -3.350
REMARK INTER:                  -3.914
REMARK INTRA:                   0.563
REMARK UNBOUND:                 0.535
REMARK SMILES C[C@@H]1[C@H](C)CC[C@@]2(C(=O)[O-])CC[C@]3(C)C(=CC[C@@H]4[C@@]5(C)CC[C@H](O)C(C)(C)[C@H]5CC[C@@]43C)[C@H]12
REMARK SMILES IDX 7 1 6 2 11 3 33 4 5 5 12 6 15 7 2 8 3 9 13 10 16 11 1 12
REMARK SMILES IDX 4 13 14 14 31 15 17 16 18 17 30 18 32 19 19 20 29 21 28 22
REMARK SMILES IDX 21 23 20 24 25 25 22 26 23 27 26 28 27 29 8 30 9 31 10 32
REMARK SMILES IDX 24 33
REMARK H PARENT 24 34
REMARK Flexibility Score: inf
ROOT
ATOM      1  C   UNL     1      50.985  48.080  68.987  1.00  0.00     0.017 C 
ATOM      2  C   UNL     1      49.974  49.125  68.418  1.00  0.00     0.014 C 
ATOM      3  C   UNL     1      52.257  48.847  69.486  1.00  0.00     0.014 C 
ATOM      4  C   UNL     1      50.282  47.331  70.173  1.00  0.00     0.030 C 
ATOM      5  C   UNL     1      48.639  48.502  67.988  1.00  0.00     0.004 C 
ATOM      6  C   UNL     1      52.614  48.637  70.971  1.00  0.00     0.013 C 
ATOM      7  C   UNL     1      51.277  46.500  71.011  1.00  0.00    -0.063 C 
ATOM      8  C   UNL     1      48.910  46.676  69.768  1.00  0.00    -0.003 C 
ATOM      9  C   UNL     1      47.972  47.758  69.158  1.00  0.00    -0.011 C 
ATOM     10  C   UNL     1      52.609  47.134  71.445  1.00  0.00    -0.006 C 
ATOM     11  C   UNL     1      50.886  45.366  71.618  1.00  0.00    -0.027 C 
ATOM     12  C   UNL     1      49.022  45.418  68.872  1.00  0.00     0.008 C 
ATOM     13  C   UNL     1      46.602  47.202  68.742  1.00  0.00     0.008 C 
ATOM     14  C   UNL     1      53.772  46.399  70.715  1.00  0.00     0.017 C 
ATOM     15  C   UNL     1      52.777  46.984  73.048  1.00  0.00    -0.020 C 
ATOM     16  C   UNL     1      51.719  44.623  72.614  1.00  0.00     0.032 C 
ATOM     17  C   UNL     1      52.770  45.446  73.455  1.00  0.00     0.006 C 
ATOM     18  C   UNL     1      51.588  47.668  73.789  1.00  0.00     0.008 C 
ATOM     19  C   UNL     1      54.125  47.659  73.491  1.00  0.00     0.012 C 
ATOM     20  C   UNL     1      52.677  45.090  75.024  1.00  0.00    -0.025 C 
ATOM     21  C   UNL     1      51.505  47.372  75.292  1.00  0.00     0.005 C 
ATOM     22  C   UNL     1      51.459  45.859  75.675  1.00  0.00     0.003 C 
ATOM     23  C   UNL     1      53.981  45.461  75.806  1.00  0.00     0.010 C 
ATOM     24  C   UNL     1      52.540  43.526  75.131  1.00  0.00     0.012 C 
ATOM     25  C   UNL     1      51.339  45.674  77.259  1.00  0.00    -0.006 C 
ATOM     26  C   UNL     1      53.891  45.242  77.329  1.00  0.00     0.033 C 
ATOM     27  C   UNL     1      52.700  45.988  77.957  1.00  0.00     0.120 C 
ATOM     28  C   UNL     1      50.267  46.639  77.847  1.00  0.00     0.014 C 
ATOM     29  C   UNL     1      50.844  44.245  77.631  1.00  0.00     0.014 C 
ENDROOT
BRANCH   1  30
ATOM     30  C   UNL     1      51.424  47.127  67.877  1.00  0.00     0.048 C 
ATOM     31  O   UNL     1      51.503  47.528  66.684  1.00  0.00    -0.550 OA
ATOM     32  O   UNL     1      51.856  45.839  68.170  1.00  0.00    -0.550 OA
ENDBRANCH   1  30
BRANCH  27  33
ATOM     33  O   UNL     1      52.624  45.676  79.327  1.00  0.00    -0.393 OA
ATOM     34  H   UNL     1      53.553  45.523  79.643  1.00  0.00     0.210 HD
ENDBRANCH  27  33
TORSDOF 2
ENDMDL
MODEL 4
REMARK VINA RESULT:    -3.230      1.875      7.816
REMARK INTER + INTRA:          -2.978
REMARK INTER:                  -3.570
REMARK INTRA:                   0.592
REMARK UNBOUND:                 0.535
REMARK SMILES C[C@@H]1[C@H](C)CC[C@@]2(C(=O)[O-])CC[C@]3(C)C(=CC[C@@H]4[C@@]5(C)CC[C@H](O)C(C)(C)[C@H]5CC[C@@]43C)[C@H]12
REMARK SMILES IDX 7 1 6 2 11 3 33 4 5 5 12 6 15 7 2 8 3 9 13 10 16 11 1 12
REMARK SMILES IDX 4 13 14 14 31 15 17 16 18 17 30 18 32 19 19 20 29 21 28 22
REMARK SMILES IDX 21 23 20 24 25 25 22 26 23 27 26 28 27 29 8 30 9 31 10 32
REMARK SMILES IDX 24 33
REMARK H PARENT 24 34
REMARK Flexibility Score: inf
ROOT
ATOM      1  C   UNL     1      51.080  45.255  76.948  1.00  0.00     0.017 C 
ATOM      2  C   UNL     1      51.139  43.987  77.858  1.00  0.00     0.014 C 
ATOM      3  C   UNL     1      52.512  45.887  76.889  1.00  0.00     0.014 C 
ATOM      4  C   UNL     1      50.610  44.798  75.522  1.00  0.00     0.030 C 
ATOM      5  C   UNL     1      49.811  43.220  77.913  1.00  0.00     0.004 C 
ATOM      6  C   UNL     1      53.115  46.025  75.477  1.00  0.00     0.013 C 
ATOM      7  C   UNL     1      50.812  45.899  74.459  1.00  0.00    -0.063 C 
ATOM      8  C   UNL     1      49.249  44.009  75.539  1.00  0.00    -0.003 C 
ATOM      9  C   UNL     1      49.359  42.794  76.506  1.00  0.00    -0.011 C 
ATOM     10  C   UNL     1      52.147  46.658  74.406  1.00  0.00    -0.006 C 
ATOM     11  C   UNL     1      49.981  45.999  73.407  1.00  0.00    -0.027 C 
ATOM     12  C   UNL     1      47.994  44.872  75.815  1.00  0.00     0.008 C 
ATOM     13  C   UNL     1      48.070  41.962  76.575  1.00  0.00     0.008 C 
ATOM     14  C   UNL     1      51.895  48.142  74.808  1.00  0.00     0.017 C 
ATOM     15  C   UNL     1      52.746  46.585  72.903  1.00  0.00    -0.020 C 
ATOM     16  C   UNL     1      50.228  46.892  72.232  1.00  0.00     0.032 C 
ATOM     17  C   UNL     1      51.724  47.245  71.877  1.00  0.00     0.006 C 
ATOM     18  C   UNL     1      52.951  45.102  72.468  1.00  0.00     0.008 C 
ATOM     19  C   UNL     1      54.125  47.336  72.859  1.00  0.00     0.012 C 
ATOM     20  C   UNL     1      52.018  47.052  70.305  1.00  0.00    -0.025 C 
ATOM     21  C   UNL     1      53.270  44.901  70.982  1.00  0.00     0.005 C 
ATOM     22  C   UNL     1      52.238  45.520  69.985  1.00  0.00     0.003 C 
ATOM     23  C   UNL     1      53.275  47.851  69.822  1.00  0.00     0.010 C 
ATOM     24  C   UNL     1      50.793  47.668  69.532  1.00  0.00     0.012 C 
ATOM     25  C   UNL     1      52.654  45.220  68.471  1.00  0.00    -0.006 C 
ATOM     26  C   UNL     1      53.657  47.604  68.350  1.00  0.00     0.033 C 
ATOM     27  C   UNL     1      53.864  46.110  68.043  1.00  0.00     0.120 C 
ATOM     28  C   UNL     1      53.074  43.730  68.300  1.00  0.00     0.014 C 
ATOM     29  C   UNL     1      51.454  45.416  67.499  1.00  0.00     0.014 C 
ENDROOT
BRANCH   1  30
ATOM     30  C   UNL     1      50.141  46.291  77.563  1.00  0.00     0.048 C 
ATOM     31  O   UNL     1      49.508  46.031  78.622  1.00  0.00    -0.550 OA
ATOM     32  O   UNL     1      50.052  47.576  77.040  1.00  0.00    -0.550 OA
ENDBRANCH   1  30
BRANCH  27  33
ATOM     33  O   UNL     1      54.122  45.947  66.670  1.00  0.00    -0.393 OA
ATOM     34  H   UNL     1      54.964  45.427  66.591  1.00  0.00     0.210 HD
ENDBRANCH  27  33
TORSDOF 2
ENDMDL
MODEL 5
REMARK VINA RESULT:    -2.160      2.786      3.893
REMARK INTER + INTRA:          -1.814
REMARK INTER:                  -2.434
REMARK INTRA:                   0.620
REMARK UNBOUND:                 0.535
REMARK SMILES C[C@@H]1[C@H](C)CC[C@@]2(C(=O)[O-])CC[C@]3(C)C(=CC[C@@H]4[C@@]5(C)CC[C@H](O)C(C)(C)[C@H]5CC[C@@]43C)[C@H]12
REMARK SMILES IDX 7 1 6 2 11 3 33 4 5 5 12 6 15 7 2 8 3 9 13 10 16 11 1 12
REMARK SMILES IDX 4 13 14 14 31 15 17 16 18 17 30 18 32 19 19 20 29 21 28 22
REMARK SMILES IDX 21 23 20 24 25 25 22 26 23 27 26 28 27 29 8 30 9 31 10 32
REMARK SMILES IDX 24 33
REMARK H PARENT 24 34
REMARK Flexibility Score: inf
ROOT
ATOM      1  C   UNL     1      48.364  46.990  69.740  1.00  0.00     0.017 C 
ATOM      2  C   UNL     1      47.101  46.246  69.204  1.00  0.00     0.014 C 
ATOM      3  C   UNL     1      47.890  48.183  70.637  1.00  0.00     0.014 C 
ATOM      4  C   UNL     1      49.207  45.963  70.574  1.00  0.00     0.030 C 
ATOM      5  C   UNL     1      47.439  44.990  68.389  1.00  0.00     0.004 C 
ATOM      6  C   UNL     1      48.412  48.166  72.088  1.00  0.00     0.013 C 
ATOM      7  C   UNL     1      50.308  46.650  71.409  1.00  0.00    -0.063 C 
ATOM      8  C   UNL     1      49.575  44.662  69.769  1.00  0.00    -0.003 C 
ATOM      9  C   UNL     1      48.278  44.002  69.217  1.00  0.00    -0.011 C 
ATOM     10  C   UNL     1      49.960  47.903  72.228  1.00  0.00    -0.006 C 
ATOM     11  C   UNL     1      51.465  46.019  71.674  1.00  0.00    -0.027 C 
ATOM     12  C   UNL     1      50.654  44.851  68.675  1.00  0.00     0.008 C 
ATOM     13  C   UNL     1      48.549  42.716  68.422  1.00  0.00     0.008 C 
ATOM     14  C   UNL     1      50.709  49.124  71.617  1.00  0.00     0.017 C 
ATOM     15  C   UNL     1      50.418  47.683  73.766  1.00  0.00    -0.020 C 
ATOM     16  C   UNL     1      52.487  46.523  72.644  1.00  0.00     0.032 C 
ATOM     17  C   UNL     1      51.988  47.429  73.835  1.00  0.00     0.006 C 
ATOM     18  C   UNL     1      49.716  46.430  74.372  1.00  0.00     0.008 C 
ATOM     19  C   UNL     1      50.034  48.953  74.606  1.00  0.00     0.012 C 
ATOM     20  C   UNL     1      52.603  46.943  75.243  1.00  0.00    -0.025 C 
ATOM     21  C   UNL     1      50.263  45.975  75.730  1.00  0.00     0.005 C 
ATOM     22  C   UNL     1      51.798  45.691  75.774  1.00  0.00     0.003 C 
ATOM     23  C   UNL     1      52.569  48.063  76.336  1.00  0.00     0.010 C 
ATOM     24  C   UNL     1      54.125  46.630  74.992  1.00  0.00     0.012 C 
ATOM     25  C   UNL     1      52.246  45.193  77.225  1.00  0.00    -0.006 C 
ATOM     26  C   UNL     1      53.043  47.605  77.728  1.00  0.00     0.033 C 
ATOM     27  C   UNL     1      52.260  46.382  78.239  1.00  0.00     0.120 C 
ATOM     28  C   UNL     1      51.260  44.116  77.768  1.00  0.00     0.014 C 
ATOM     29  C   UNL     1      53.633  44.486  77.184  1.00  0.00     0.014 C 
ENDROOT
BRANCH   1  30
ATOM     30  C   UNL     1      49.155  47.576  68.571  1.00  0.00     0.048 C 
ATOM     31  O   UNL     1      48.556  48.045  67.566  1.00  0.00    -0.550 OA
ATOM     32  O   UNL     1      50.537  47.710  68.638  1.00  0.00    -0.550 OA
ENDBRANCH   1  30
BRANCH  27  33
ATOM     33  O   UNL     1      52.800  45.962  79.468  1.00  0.00    -0.393 OA
ATOM     34  H   UNL     1      52.121  45.383  79.902  1.00  0.00     0.210 HD
ENDBRANCH  27  33
TORSDOF 2
ENDMDL
