MODEL 1
REMARK VINA RESULT:    -3.674      0.000      0.000
REMARK INTER + INTRA:          -8.268
REMARK INTER:                  -6.681
REMARK INTRA:                  -1.588
REMARK UNBOUND:                -1.588
REMARK SMILES CCCCCCCCCCCCCCCC(=O)[O-]
REMARK SMILES IDX 9 1 10 2 11 3 12 4 13 5 14 6 15 7 16 8 17 9 18 10 8 11 7 12
REMARK SMILES IDX 6 13 5 14 4 15 3 16 2 17 1 18
REMARK H PARENT
REMARK Flexibility Score: inf
ROOT
ATOM      1  C   UNL     1     -16.387 -12.359   0.247  1.00  0.00     0.000 C 
ENDROOT
BRANCH   1   2
ATOM      2  C   UNL     1     -16.152 -13.875   0.152  1.00  0.00     0.000 C 
BRANCH   2   3
ATOM      3  C   UNL     1     -17.322 -14.567  -0.562  1.00  0.00     0.000 C 
BRANCH   3   4
ATOM      4  C   UNL     1     -16.998 -14.936  -2.021  1.00  0.00     0.000 C 
BRANCH   4   5
ATOM      5  C   UNL     1     -17.644 -14.023  -3.084  1.00  0.00     0.000 C 
BRANCH   5   6
ATOM      6  C   UNL     1     -18.714 -13.050  -2.550  1.00  0.00     0.006 C 
BRANCH   6   7
ATOM      7  C   UNL     1     -19.949 -12.906  -3.455  1.00  0.00     0.053 C 
BRANCH   7   8
ATOM      8  C   UNL     1     -19.766 -11.837  -4.486  1.00  0.00     0.041 C 
ATOM      9  O   UNL     1     -19.471 -10.663  -4.136  1.00  0.00    -0.550 OA
ATOM     10  O   UNL     1     -19.886 -12.142  -5.836  1.00  0.00    -0.550 OA
ENDBRANCH   7   8
ENDBRANCH   6   7
ENDBRANCH   5   6
ENDBRANCH   4   5
ENDBRANCH   3   4
ENDBRANCH   2   3
ENDBRANCH   1   2
BRANCH   1  11
ATOM     11  C   UNL     1     -15.702 -11.579  -0.887  1.00  0.00     0.000 C 
BRANCH  11  12
ATOM     12  C   UNL     1     -14.474 -10.789  -0.402  1.00  0.00    -0.000 C 
BRANCH  12  13
ATOM     13  C   UNL     1     -14.282 -10.873   1.122  1.00  0.00    -0.000 C 
BRANCH  13  14
ATOM     14  C   UNL     1     -12.827 -11.171   1.524  1.00  0.00    -0.000 C 
BRANCH  14  15
ATOM     15  C   UNL     1     -12.196 -12.274   0.647  1.00  0.00    -0.000 C 
BRANCH  15  16
ATOM     16  C   UNL     1     -12.477 -13.698   1.153  1.00  0.00    -0.000 C 
BRANCH  16  17
ATOM     17  C   UNL     1     -12.785 -13.750   2.656  1.00  0.00    -0.003 C 
ATOM     18  C   UNL     1     -11.538 -14.095   3.462  1.00  0.00     0.004 C 
ENDBRANCH  16  17
ENDBRANCH  15  16
ENDBRANCH  14  15
ENDBRANCH  13  14
ENDBRANCH  12  13
ENDBRANCH  11  12
ENDBRANCH   1  11
TORSDOF 14
ENDMDL
MODEL 2
REMARK VINA RESULT:    -3.646      8.840     11.031
REMARK INTER + INTRA:          -8.218
REMARK INTER:                  -6.110
REMARK INTRA:                  -2.108
REMARK UNBOUND:                -1.588
REMARK SMILES CCCCCCCCCCCCCCCC(=O)[O-]
REMARK SMILES IDX 9 1 10 2 11 3 12 4 13 5 14 6 15 7 16 8 17 9 18 10 8 11 7 12
REMARK SMILES IDX 6 13 5 14 4 15 3 16 2 17 1 18
REMARK H PARENT
REMARK Flexibility Score: inf
ROOT
ATOM      1  C   UNL     1     -15.900 -19.552   4.073  1.00  0.00     0.000 C 
ENDROOT
BRANCH   1   2
ATOM      2  C   UNL     1     -16.225 -20.551   5.194  1.00  0.00     0.000 C 
BRANCH   2   3
ATOM      3  C   UNL     1     -17.733 -20.580   5.482  1.00  0.00     0.000 C 
BRANCH   3   4
ATOM      4  C   UNL     1     -18.358 -21.968   5.253  1.00  0.00     0.000 C 
BRANCH   4   5
ATOM      5  C   UNL     1     -18.893 -22.216   3.828  1.00  0.00     0.000 C 
BRANCH   5   6
ATOM      6  C   UNL     1     -20.202 -21.478   3.481  1.00  0.00     0.006 C 
BRANCH   6   7
ATOM      7  C   UNL     1     -21.332 -22.393   2.980  1.00  0.00     0.053 C 
BRANCH   7   8
ATOM      8  C   UNL     1     -21.751 -23.385   4.019  1.00  0.00     0.041 C 
ATOM      9  O   UNL     1     -22.089 -22.994   5.169  1.00  0.00    -0.550 OA
ATOM     10  O   UNL     1     -21.803 -24.739   3.710  1.00  0.00    -0.550 OA
ENDBRANCH   7   8
ENDBRANCH   6   7
ENDBRANCH   5   6
ENDBRANCH   4   5
ENDBRANCH   3   4
ENDBRANCH   2   3
ENDBRANCH   1   2
BRANCH   1  11
ATOM     11  C   UNL     1     -16.139 -20.133   2.670  1.00  0.00     0.000 C 
BRANCH  11  12
ATOM     12  C   UNL     1     -17.281 -19.423   1.923  1.00  0.00    -0.000 C 
BRANCH  12  13
ATOM     13  C   UNL     1     -17.821 -18.205   2.691  1.00  0.00    -0.000 C 
BRANCH  13  14
ATOM     14  C   UNL     1     -19.340 -18.021   2.523  1.00  0.00    -0.000 C 
BRANCH  14  15
ATOM     15  C   UNL     1     -19.791 -18.215   1.059  1.00  0.00    -0.000 C 
BRANCH  15  16
ATOM     16  C   UNL     1     -21.109 -18.994   0.920  1.00  0.00    -0.000 C 
BRANCH  16  17
ATOM     17  C   UNL     1     -20.988 -20.217   0.001  1.00  0.00    -0.003 C 
ATOM     18  C   UNL     1     -21.838 -20.048  -1.254  1.00  0.00     0.004 C 
ENDBRANCH  16  17
ENDBRANCH  15  16
ENDBRANCH  14  15
ENDBRANCH  13  14
ENDBRANCH  12  13
ENDBRANCH  11  12
ENDBRANCH   1  11
TORSDOF 14
ENDMDL
MODEL 3
REMARK VINA RESULT:    -3.637      5.478      7.248
REMARK INTER + INTRA:          -8.202
REMARK INTER:                  -6.666
REMARK INTRA:                  -1.536
REMARK UNBOUND:                -1.588
REMARK SMILES CCCCCCCCCCCCCCCC(=O)[O-]
REMARK SMILES IDX 9 1 10 2 11 3 12 4 13 5 14 6 15 7 16 8 17 9 18 10 8 11 7 12
REMARK SMILES IDX 6 13 5 14 4 15 3 16 2 17 1 18
REMARK H PARENT
REMARK Flexibility Score: inf
ROOT
ATOM      1  C   UNL     1     -18.053 -14.940  -0.313  1.00  0.00     0.000 C 
ENDROOT
BRANCH   1   2
ATOM      2  C   UNL     1     -17.650 -14.538   1.114  1.00  0.00     0.000 C 
BRANCH   2   3
ATOM      3  C   UNL     1     -17.501 -15.776   2.011  1.00  0.00     0.000 C 
BRANCH   3   4
ATOM      4  C   UNL     1     -18.155 -17.033   1.409  1.00  0.00     0.000 C 
BRANCH   4   5
ATOM      5  C   UNL     1     -18.081 -18.294   2.292  1.00  0.00     0.000 C 
BRANCH   5   6
ATOM      6  C   UNL     1     -17.136 -19.400   1.779  1.00  0.00     0.006 C 
BRANCH   6   7
ATOM      7  C   UNL     1     -16.914 -20.555   2.769  1.00  0.00     0.053 C 
BRANCH   7   8
ATOM      8  C   UNL     1     -15.898 -20.209   3.814  1.00  0.00     0.041 C 
ATOM      9  O   UNL     1     -14.707 -19.969   3.483  1.00  0.00    -0.550 OA
ATOM     10  O   UNL     1     -16.274 -20.118   5.148  1.00  0.00    -0.550 OA
ENDBRANCH   7   8
ENDBRANCH   6   7
ENDBRANCH   5   6
ENDBRANCH   4   5
ENDBRANCH   3   4
ENDBRANCH   2   3
ENDBRANCH   1   2
BRANCH   1  11
ATOM     11  C   UNL     1     -16.934 -14.697  -1.338  1.00  0.00     0.000 C 
BRANCH  11  12
ATOM     12  C   UNL     1     -17.473 -14.228  -2.700  1.00  0.00    -0.000 C 
BRANCH  12  13
ATOM     13  C   UNL     1     -17.678 -12.705  -2.762  1.00  0.00    -0.000 C 
BRANCH  13  14
ATOM     14  C   UNL     1     -16.513 -11.921  -2.132  1.00  0.00    -0.000 C 
BRANCH  14  15
ATOM     15  C   UNL     1     -16.980 -11.023  -0.966  1.00  0.00    -0.000 C 
BRANCH  15  16
ATOM     16  C   UNL     1     -16.171 -11.223   0.327  1.00  0.00    -0.000 C 
BRANCH  16  17
ATOM     17  C   UNL     1     -14.760 -11.770   0.070  1.00  0.00    -0.003 C 
ATOM     18  C   UNL     1     -14.435 -12.919   1.019  1.00  0.00     0.004 C 
ENDBRANCH  16  17
ENDBRANCH  15  16
ENDBRANCH  14  15
ENDBRANCH  13  14
ENDBRANCH  12  13
ENDBRANCH  11  12
ENDBRANCH   1  11
TORSDOF 14
ENDMDL
MODEL 4
REMARK VINA RESULT:    -3.601      4.520      7.986
REMARK INTER + INTRA:          -8.136
REMARK INTER:                  -6.348
REMARK INTRA:                  -1.788
REMARK UNBOUND:                -1.588
REMARK SMILES CCCCCCCCCCCCCCCC(=O)[O-]
REMARK SMILES IDX 9 1 10 2 11 3 12 4 13 5 14 6 15 7 16 8 17 9 18 10 8 11 7 12
REMARK SMILES IDX 6 13 5 14 4 15 3 16 2 17 1 18
REMARK H PARENT
REMARK Flexibility Score: inf
ROOT
ATOM      1  C   UNL     1     -16.035 -12.182   1.348  1.00  0.00     0.000 C 
ENDROOT
BRANCH   1   2
ATOM      2  C   UNL     1     -14.853 -11.200   1.308  1.00  0.00     0.000 C 
BRANCH   2   3
ATOM      3  C   UNL     1     -13.859 -11.585   0.203  1.00  0.00     0.000 C 
BRANCH   3   4
ATOM      4  C   UNL     1     -12.450 -11.887   0.744  1.00  0.00     0.000 C 
BRANCH   4   5
ATOM      5  C   UNL     1     -12.100 -13.384   0.857  1.00  0.00     0.000 C 
BRANCH   5   6
ATOM      6  C   UNL     1     -12.367 -14.019   2.236  1.00  0.00     0.006 C 
BRANCH   6   7
ATOM      7  C   UNL     1     -11.516 -13.437   3.377  1.00  0.00     0.053 C 
BRANCH   7   8
ATOM      8  C   UNL     1     -10.857 -14.510   4.188  1.00  0.00     0.041 C 
ATOM      9  O   UNL     1      -9.953 -14.215   5.013  1.00  0.00    -0.550 OA
ATOM     10  O   UNL     1     -11.266 -15.832   4.057  1.00  0.00    -0.550 OA
ENDBRANCH   7   8
ENDBRANCH   6   7
ENDBRANCH   5   6
ENDBRANCH   4   5
ENDBRANCH   3   4
ENDBRANCH   2   3
ENDBRANCH   1   2
BRANCH   1  11
ATOM     11  C   UNL     1     -15.781 -13.454   0.524  1.00  0.00     0.000 C 
BRANCH  11  12
ATOM     12  C   UNL     1     -16.859 -14.528   0.748  1.00  0.00    -0.000 C 
BRANCH  12  13
ATOM     13  C   UNL     1     -17.733 -14.755  -0.496  1.00  0.00    -0.000 C 
BRANCH  13  14
ATOM     14  C   UNL     1     -16.910 -14.866  -1.791  1.00  0.00    -0.000 C 
BRANCH  14  15
ATOM     15  C   UNL     1     -17.350 -13.833  -2.850  1.00  0.00    -0.000 C 
BRANCH  15  16
ATOM     16  C   UNL     1     -18.423 -12.854  -2.346  1.00  0.00    -0.000 C 
BRANCH  16  17
ATOM     17  C   UNL     1     -18.017 -11.383  -2.512  1.00  0.00    -0.003 C 
ATOM     18  C   UNL     1     -16.506 -11.214  -2.399  1.00  0.00     0.004 C 
ENDBRANCH  16  17
ENDBRANCH  15  16
ENDBRANCH  14  15
ENDBRANCH  13  14
ENDBRANCH  12  13
ENDBRANCH  11  12
ENDBRANCH   1  11
TORSDOF 14
ENDMDL
MODEL 5
REMARK VINA RESULT:    -3.588      7.643      9.164
REMARK INTER + INTRA:          -8.112
REMARK INTER:                  -5.752
REMARK INTRA:                  -2.360
REMARK UNBOUND:                -1.588
REMARK SMILES CCCCCCCCCCCCCCCC(=O)[O-]
REMARK SMILES IDX 9 1 10 2 11 3 12 4 13 5 14 6 15 7 16 8 17 9 18 10 8 11 7 12
REMARK SMILES IDX 6 13 5 14 4 15 3 16 2 17 1 18
REMARK H PARENT
REMARK Flexibility Score: inf
ROOT
ATOM      1  C   UNL     1     -20.484 -18.526   2.716  1.00  0.00     0.000 C 
ENDROOT
BRANCH   1   2
ATOM      2  C   UNL     1     -21.454 -19.714   2.618  1.00  0.00     0.000 C 
BRANCH   2   3
ATOM      3  C   UNL     1     -20.906 -20.793   1.674  1.00  0.00     0.000 C 
BRANCH   3   4
ATOM      4  C   UNL     1     -22.008 -21.700   1.097  1.00  0.00     0.000 C 
BRANCH   4   5
ATOM      5  C   UNL     1     -22.156 -21.653  -0.437  1.00  0.00     0.000 C 
BRANCH   5   6
ATOM      6  C   UNL     1     -21.519 -20.426  -1.120  1.00  0.00     0.006 C 
BRANCH   6   7
ATOM      7  C   UNL     1     -22.530 -19.375  -1.607  1.00  0.00     0.053 C 
BRANCH   7   8
ATOM      8  C   UNL     1     -23.071 -18.554  -0.478  1.00  0.00     0.041 C 
ATOM      9  O   UNL     1     -22.454 -17.526  -0.090  1.00  0.00    -0.550 OA
ATOM     10  O   UNL     1     -24.274 -18.902   0.123  1.00  0.00    -0.550 OA
ENDBRANCH   7   8
ENDBRANCH   6   7
ENDBRANCH   5   6
ENDBRANCH   4   5
ENDBRANCH   3   4
ENDBRANCH   2   3
ENDBRANCH   1   2
BRANCH   1  11
ATOM     11  C   UNL     1     -19.441 -18.516   1.587  1.00  0.00     0.000 C 
BRANCH  11  12
ATOM     12  C   UNL     1     -18.009 -18.302   2.109  1.00  0.00    -0.000 C 
BRANCH  12  13
ATOM     13  C   UNL     1     -17.044 -19.410   1.655  1.00  0.00    -0.000 C 
BRANCH  13  14
ATOM     14  C   UNL     1     -16.594 -20.319   2.813  1.00  0.00    -0.000 C 
BRANCH  14  15
ATOM     15  C   UNL     1     -17.677 -21.351   3.196  1.00  0.00    -0.000 C 
BRANCH  15  16
ATOM     16  C   UNL     1     -18.258 -21.138   4.604  1.00  0.00    -0.000 C 
BRANCH  16  17
ATOM     17  C   UNL     1     -19.497 -22.002   4.877  1.00  0.00    -0.003 C 
ATOM     18  C   UNL     1     -20.478 -21.283   5.797  1.00  0.00     0.004 C 
ENDBRANCH  16  17
ENDBRANCH  15  16
ENDBRANCH  14  15
ENDBRANCH  13  14
ENDBRANCH  12  13
ENDBRANCH  11  12
ENDBRANCH   1  11
TORSDOF 14
ENDMDL
MODEL 6
REMARK VINA RESULT:    -3.579      8.898     11.998
REMARK INTER + INTRA:          -8.097
REMARK INTER:                  -6.660
REMARK INTRA:                  -1.437
REMARK UNBOUND:                -1.588
REMARK SMILES CCCCCCCCCCCCCCCC(=O)[O-]
REMARK SMILES IDX 9 1 10 2 11 3 12 4 13 5 14 6 15 7 16 8 17 9 18 10 8 11 7 12
REMARK SMILES IDX 6 13 5 14 4 15 3 16 2 17 1 18
REMARK H PARENT
REMARK Flexibility Score: inf
ROOT
ATOM      1  C   UNL     1     -19.471 -20.101   3.034  1.00  0.00     0.000 C 
ENDROOT
BRANCH   1   2
ATOM      2  C   UNL     1     -19.132 -19.090   1.926  1.00  0.00     0.000 C 
BRANCH   2   3
ATOM      3  C   UNL     1     -17.658 -18.668   2.002  1.00  0.00     0.000 C 
BRANCH   3   4
ATOM      4  C   UNL     1     -16.689 -19.816   1.670  1.00  0.00     0.000 C 
BRANCH   4   5
ATOM      5  C   UNL     1     -15.701 -20.184   2.796  1.00  0.00     0.000 C 
BRANCH   5   6
ATOM      6  C   UNL     1     -16.017 -19.565   4.173  1.00  0.00     0.006 C 
BRANCH   6   7
ATOM      7  C   UNL     1     -16.499 -20.575   5.227  1.00  0.00     0.053 C 
BRANCH   7   8
ATOM      8  C   UNL     1     -15.554 -20.669   6.385  1.00  0.00     0.041 C 
ATOM      9  O   UNL     1     -14.596 -21.487   6.356  1.00  0.00    -0.550 OA
ATOM     10  O   UNL     1     -15.710 -19.831   7.482  1.00  0.00    -0.550 OA
ENDBRANCH   7   8
ENDBRANCH   6   7
ENDBRANCH   5   6
ENDBRANCH   4   5
ENDBRANCH   3   4
ENDBRANCH   2   3
ENDBRANCH   1   2
BRANCH   1  11
ATOM     11  C   UNL     1     -20.159 -21.365   2.495  1.00  0.00     0.000 C 
BRANCH  11  12
ATOM     12  C   UNL     1     -21.227 -21.912   3.458  1.00  0.00    -0.000 C 
BRANCH  12  13
ATOM     13  C   UNL     1     -22.639 -21.889   2.849  1.00  0.00    -0.000 C 
BRANCH  13  14
ATOM     14  C   UNL     1     -22.789 -20.840   1.733  1.00  0.00    -0.000 C 
BRANCH  14  15
ATOM     15  C   UNL     1     -23.290 -21.464   0.413  1.00  0.00    -0.000 C 
BRANCH  15  16
ATOM     16  C   UNL     1     -22.163 -21.781  -0.584  1.00  0.00    -0.000 C 
BRANCH  16  17
ATOM     17  C   UNL     1     -21.465 -20.523  -1.119  1.00  0.00    -0.003 C 
ATOM     18  C   UNL     1     -22.482 -19.475  -1.559  1.00  0.00     0.004 C 
ENDBRANCH  16  17
ENDBRANCH  15  16
ENDBRANCH  14  15
ENDBRANCH  13  14
ENDBRANCH  12  13
ENDBRANCH  11  12
ENDBRANCH   1  11
TORSDOF 14
ENDMDL
MODEL 7
REMARK VINA RESULT:    -3.575      4.834      6.994
REMARK INTER + INTRA:          -8.089
REMARK INTER:                  -6.520
REMARK INTRA:                  -1.569
REMARK UNBOUND:                -1.588
REMARK SMILES CCCCCCCCCCCCCCCC(=O)[O-]
REMARK SMILES IDX 9 1 10 2 11 3 12 4 13 5 14 6 15 7 16 8 17 9 18 10 8 11 7 12
REMARK SMILES IDX 6 13 5 14 4 15 3 16 2 17 1 18
REMARK H PARENT
REMARK Flexibility Score: inf
ROOT
ATOM      1  C   UNL     1     -20.174 -16.843   1.370  1.00  0.00     0.000 C 
ENDROOT
BRANCH   1   2
ATOM      2  C   UNL     1     -18.897 -17.091   2.189  1.00  0.00     0.000 C 
BRANCH   2   3
ATOM      3  C   UNL     1     -17.720 -16.283   1.626  1.00  0.00     0.000 C 
BRANCH   3   4
ATOM      4  C   UNL     1     -18.127 -15.369   0.456  1.00  0.00     0.000 C 
BRANCH   4   5
ATOM      5  C   UNL     1     -16.953 -14.748  -0.327  1.00  0.00     0.000 C 
BRANCH   5   6
ATOM      6  C   UNL     1     -17.302 -14.239  -1.740  1.00  0.00     0.006 C 
BRANCH   6   7
ATOM      7  C   UNL     1     -18.734 -13.696  -1.882  1.00  0.00     0.053 C 
BRANCH   7   8
ATOM      8  C   UNL     1     -19.090 -13.423  -3.311  1.00  0.00     0.041 C 
ATOM      9  O   UNL     1     -19.547 -12.298  -3.645  1.00  0.00    -0.550 OA
ATOM     10  O   UNL     1     -18.884 -14.398  -4.279  1.00  0.00    -0.550 OA
ENDBRANCH   7   8
ENDBRANCH   6   7
ENDBRANCH   5   6
ENDBRANCH   4   5
ENDBRANCH   3   4
ENDBRANCH   2   3
ENDBRANCH   1   2
BRANCH   1  11
ATOM     11  C   UNL     1     -21.011 -18.117   1.172  1.00  0.00     0.000 C 
BRANCH  11  12
ATOM     12  C   UNL     1     -20.140 -19.373   0.995  1.00  0.00    -0.000 C 
BRANCH  12  13
ATOM     13  C   UNL     1     -20.602 -20.541   1.881  1.00  0.00    -0.000 C 
BRANCH  13  14
ATOM     14  C   UNL     1     -19.969 -20.512   3.283  1.00  0.00    -0.000 C 
BRANCH  14  15
ATOM     15  C   UNL     1     -18.552 -21.124   3.295  1.00  0.00    -0.000 C 
BRANCH  15  16
ATOM     16  C   UNL     1     -17.481 -20.188   3.878  1.00  0.00    -0.000 C 
BRANCH  16  17
ATOM     17  C   UNL     1     -16.192 -20.160   3.047  1.00  0.00    -0.003 C 
ATOM     18  C   UNL     1     -16.497 -19.969   1.565  1.00  0.00     0.004 C 
ENDBRANCH  16  17
ENDBRANCH  15  16
ENDBRANCH  14  15
ENDBRANCH  13  14
ENDBRANCH  12  13
ENDBRANCH  11  12
ENDBRANCH   1  11
TORSDOF 14
ENDMDL
MODEL 8
REMARK VINA RESULT:    -3.565      5.266      7.300
REMARK INTER + INTRA:          -8.071
REMARK INTER:                  -6.733
REMARK INTRA:                  -1.338
REMARK UNBOUND:                -1.588
REMARK SMILES CCCCCCCCCCCCCCCC(=O)[O-]
REMARK SMILES IDX 9 1 10 2 11 3 12 4 13 5 14 6 15 7 16 8 17 9 18 10 8 11 7 12
REMARK SMILES IDX 6 13 5 14 4 15 3 16 2 17 1 18
REMARK H PARENT
REMARK Flexibility Score: inf
ROOT
ATOM      1  C   UNL     1     -16.844 -13.809   1.101  1.00  0.00     0.000 C 
ENDROOT
BRANCH   1   2
ATOM      2  C   UNL     1     -17.359 -15.057   0.366  1.00  0.00     0.000 C 
BRANCH   2   3
ATOM      3  C   UNL     1     -18.279 -15.886   1.273  1.00  0.00     0.000 C 
BRANCH   3   4
ATOM      4  C   UNL     1     -17.639 -16.218   2.633  1.00  0.00     0.000 C 
BRANCH   4   5
ATOM      5  C   UNL     1     -17.714 -17.701   3.045  1.00  0.00     0.000 C 
BRANCH   5   6
ATOM      6  C   UNL     1     -17.773 -18.705   1.877  1.00  0.00     0.006 C 
BRANCH   6   7
ATOM      7  C   UNL     1     -16.589 -19.685   1.821  1.00  0.00     0.053 C 
BRANCH   7   8
ATOM      8  C   UNL     1     -16.216 -20.189   3.181  1.00  0.00     0.041 C 
ATOM      9  O   UNL     1     -15.024 -20.106   3.582  1.00  0.00    -0.550 OA
ATOM     10  O   UNL     1     -17.188 -20.719   4.019  1.00  0.00    -0.550 OA
ENDBRANCH   7   8
ENDBRANCH   6   7
ENDBRANCH   5   6
ENDBRANCH   4   5
ENDBRANCH   3   4
ENDBRANCH   2   3
ENDBRANCH   1   2
BRANCH   1  11
ATOM     11  C   UNL     1     -15.320 -13.642   0.995  1.00  0.00     0.000 C 
BRANCH  11  12
ATOM     12  C   UNL     1     -14.915 -12.281   0.403  1.00  0.00    -0.000 C 
BRANCH  12  13
ATOM     13  C   UNL     1     -16.127 -11.381   0.108  1.00  0.00    -0.000 C 
BRANCH  13  14
ATOM     14  C   UNL     1     -16.156 -10.879  -1.347  1.00  0.00    -0.000 C 
BRANCH  14  15
ATOM     15  C   UNL     1     -16.484 -12.011  -2.345  1.00  0.00    -0.000 C 
BRANCH  15  16
ATOM     16  C   UNL     1     -17.984 -12.136  -2.662  1.00  0.00    -0.000 C 
BRANCH  16  17
ATOM     17  C   UNL     1     -18.435 -13.590  -2.855  1.00  0.00    -0.003 C 
ATOM     18  C   UNL     1     -17.239 -14.514  -3.060  1.00  0.00     0.004 C 
ENDBRANCH  16  17
ENDBRANCH  15  16
ENDBRANCH  14  15
ENDBRANCH  13  14
ENDBRANCH  12  13
ENDBRANCH  11  12
ENDBRANCH   1  11
TORSDOF 14
ENDMDL
MODEL 9
REMARK VINA RESULT:    -3.526      7.783      9.556
REMARK INTER + INTRA:          -8.000
REMARK INTER:                  -5.724
REMARK INTRA:                  -2.276
REMARK UNBOUND:                -1.588
REMARK SMILES CCCCCCCCCCCCCCCC(=O)[O-]
REMARK SMILES IDX 9 1 10 2 11 3 12 4 13 5 14 6 15 7 16 8 17 9 18 10 8 11 7 12
REMARK SMILES IDX 6 13 5 14 4 15 3 16 2 17 1 18
REMARK H PARENT
REMARK Flexibility Score: inf
ROOT
ATOM      1  C   UNL     1     -18.711 -21.049   5.749  1.00  0.00     0.000 C 
ENDROOT
BRANCH   1   2
ATOM      2  C   UNL     1     -18.519 -22.131   4.674  1.00  0.00     0.000 C 
BRANCH   2   3
ATOM      3  C   UNL     1     -19.302 -21.783   3.400  1.00  0.00     0.000 C 
BRANCH   3   4
ATOM      4  C   UNL     1     -20.696 -21.203   3.695  1.00  0.00     0.000 C 
BRANCH   4   5
ATOM      5  C   UNL     1     -20.907 -19.745   3.239  1.00  0.00     0.000 C 
BRANCH   5   6
ATOM      6  C   UNL     1     -21.715 -19.575   1.937  1.00  0.00     0.006 C 
BRANCH   6   7
ATOM      7  C   UNL     1     -21.018 -20.126   0.682  1.00  0.00     0.053 C 
BRANCH   7   8
ATOM      8  C   UNL     1     -21.791 -21.247   0.059  1.00  0.00     0.041 C 
ATOM      9  O   UNL     1     -21.742 -21.435  -1.186  1.00  0.00    -0.550 OA
ATOM     10  O   UNL     1     -22.537 -22.106   0.856  1.00  0.00    -0.550 OA
ENDBRANCH   7   8
ENDBRANCH   6   7
ENDBRANCH   5   6
ENDBRANCH   4   5
ENDBRANCH   3   4
ENDBRANCH   2   3
ENDBRANCH   1   2
BRANCH   1  11
ATOM     11  C   UNL     1     -17.626 -19.962   5.700  1.00  0.00     0.000 C 
BRANCH  11  12
ATOM     12  C   UNL     1     -16.311 -20.467   5.081  1.00  0.00    -0.000 C 
BRANCH  12  13
ATOM     13  C   UNL     1     -15.823 -19.580   3.924  1.00  0.00    -0.000 C 
BRANCH  13  14
ATOM     14  C   UNL     1     -16.108 -20.193   2.542  1.00  0.00    -0.000 C 
BRANCH  14  15
ATOM     15  C   UNL     1     -17.147 -19.373   1.746  1.00  0.00    -0.000 C 
BRANCH  15  16
ATOM     16  C   UNL     1     -17.669 -18.140   2.502  1.00  0.00    -0.000 C 
BRANCH  16  17
ATOM     17  C   UNL     1     -18.175 -17.034   1.567  1.00  0.00    -0.003 C 
ATOM     18  C   UNL     1     -19.537 -16.516   2.014  1.00  0.00     0.004 C 
ENDBRANCH  16  17
ENDBRANCH  15  16
ENDBRANCH  14  15
ENDBRANCH  13  14
ENDBRANCH  12  13
ENDBRANCH  11  12
ENDBRANCH   1  11
TORSDOF 14
ENDMDL
