MODEL 1
REMARK VINA RESULT:    -4.340      0.000      0.000
REMARK INTER + INTRA:         -10.098
REMARK INTER:                  -8.145
REMARK INTRA:                  -1.953
REMARK UNBOUND:                -1.953
REMARK SMILES O=C([O-])CCCCCCCCCCCCCCC(=O)[O-]
REMARK SMILES IDX 10 1 9 2 8 3 7 4 6 5 5 6 4 7 2 8 1 9 3 10 11 11 12 12 13 13
REMARK SMILES IDX 14 14 15 15 16 16 17 17 18 18 19 19 20 20
REMARK H PARENT
REMARK Flexibility Score: inf
ROOT
ATOM      1  C   UNL     1      53.381  23.952  49.738  1.00  0.00     0.000 C 
ENDROOT
BRANCH   1   2
ATOM      2  C   UNL     1      53.720  23.883  48.240  1.00  0.00     0.000 C 
BRANCH   2   3
ATOM      3  C   UNL     1      54.689  24.995  47.801  1.00  0.00     0.000 C 
BRANCH   3   4
ATOM      4  C   UNL     1      55.945  24.441  47.108  1.00  0.00     0.000 C 
BRANCH   4   5
ATOM      5  C   UNL     1      56.779  23.524  48.023  1.00  0.00     0.000 C 
BRANCH   5   6
ATOM      6  C   UNL     1      56.730  22.027  47.667  1.00  0.00     0.006 C 
BRANCH   6   7
ATOM      7  C   UNL     1      56.143  21.164  48.792  1.00  0.00     0.053 C 
BRANCH   7   8
ATOM      8  C   UNL     1      56.536  19.732  48.609  1.00  0.00     0.041 C 
ATOM      9  O   UNL     1      55.759  18.930  48.024  1.00  0.00    -0.550 OA
ATOM     10  O   UNL     1      57.779  19.291  49.041  1.00  0.00    -0.550 OA
ENDBRANCH   7   8
ENDBRANCH   6   7
ENDBRANCH   5   6
ENDBRANCH   4   5
ENDBRANCH   3   4
ENDBRANCH   2   3
ENDBRANCH   1   2
BRANCH   1  11
ATOM     11  C   UNL     1      54.205  25.039  50.438  1.00  0.00     0.000 C 
BRANCH  11  12
ATOM     12  C   UNL     1      54.805  24.515  51.751  1.00  0.00     0.000 C 
BRANCH  12  13
ATOM     13  C   UNL     1      56.184  23.865  51.555  1.00  0.00     0.000 C 
BRANCH  13  14
ATOM     14  C   UNL     1      56.287  22.482  52.216  1.00  0.00     0.000 C 
BRANCH  14  15
ATOM     15  C   UNL     1      54.894  21.941  52.572  1.00  0.00     0.000 C 
BRANCH  15  16
ATOM     16  C   UNL     1      54.818  21.398  54.008  1.00  0.00     0.006 C 
BRANCH  16  17
ATOM     17  C   UNL     1      56.194  21.019  54.570  1.00  0.00     0.053 C 
BRANCH  17  18
ATOM     18  C   UNL     1      56.505  21.837  55.784  1.00  0.00     0.041 C 
ATOM     19  O   UNL     1      56.020  22.991  55.911  1.00  0.00    -0.550 OA
ATOM     20  O   UNL     1      57.373  21.345  56.750  1.00  0.00    -0.550 OA
ENDBRANCH  17  18
ENDBRANCH  16  17
ENDBRANCH  15  16
ENDBRANCH  14  15
ENDBRANCH  13  14
ENDBRANCH  12  13
ENDBRANCH  11  12
ENDBRANCH   1  11
TORSDOF 15
ENDMDL
MODEL 2
REMARK VINA RESULT:    -4.271      1.780      2.384
REMARK INTER + INTRA:          -9.969
REMARK INTER:                  -7.760
REMARK INTRA:                  -2.208
REMARK UNBOUND:                -1.953
REMARK SMILES O=C([O-])CCCCCCCCCCCCCCC(=O)[O-]
REMARK SMILES IDX 10 1 9 2 8 3 7 4 6 5 5 6 4 7 2 8 1 9 3 10 11 11 12 12 13 13
REMARK SMILES IDX 14 14 15 15 16 16 17 17 18 18 19 19 20 20
REMARK H PARENT
REMARK Flexibility Score: inf
ROOT
ATOM      1  C   UNL     1      53.357  24.389  50.355  1.00  0.00     0.000 C 
ENDROOT
BRANCH   1   2
ATOM      2  C   UNL     1      53.771  24.942  48.982  1.00  0.00     0.000 C 
BRANCH   2   3
ATOM      3  C   UNL     1      54.102  23.831  47.971  1.00  0.00     0.000 C 
BRANCH   3   4
ATOM      4  C   UNL     1      55.602  23.766  47.638  1.00  0.00     0.000 C 
BRANCH   4   5
ATOM      5  C   UNL     1      56.235  22.405  47.984  1.00  0.00     0.000 C 
BRANCH   5   6
ATOM      6  C   UNL     1      56.023  21.936  49.435  1.00  0.00     0.006 C 
BRANCH   6   7
ATOM      7  C   UNL     1      55.510  20.493  49.529  1.00  0.00     0.053 C 
BRANCH   7   8
ATOM      8  C   UNL     1      56.362  19.582  48.701  1.00  0.00     0.041 C 
ATOM      9  O   UNL     1      57.606  19.529  48.893  1.00  0.00    -0.550 OA
ATOM     10  O   UNL     1      55.777  18.757  47.750  1.00  0.00    -0.550 OA
ENDBRANCH   7   8
ENDBRANCH   6   7
ENDBRANCH   5   6
ENDBRANCH   4   5
ENDBRANCH   3   4
ENDBRANCH   2   3
ENDBRANCH   1   2
BRANCH   1  11
ATOM     11  C   UNL     1      54.242  24.965  51.467  1.00  0.00     0.000 C 
BRANCH  11  12
ATOM     12  C   UNL     1      55.693  25.125  50.990  1.00  0.00     0.000 C 
BRANCH  12  13
ATOM     13  C   UNL     1      56.716  24.626  52.023  1.00  0.00     0.000 C 
BRANCH  13  14
ATOM     14  C   UNL     1      56.069  23.807  53.149  1.00  0.00     0.000 C 
BRANCH  14  15
ATOM     15  C   UNL     1      56.482  22.330  53.058  1.00  0.00     0.000 C 
BRANCH  15  16
ATOM     16  C   UNL     1      55.368  21.373  53.508  1.00  0.00     0.006 C 
BRANCH  16  17
ATOM     17  C   UNL     1      54.029  21.659  52.818  1.00  0.00     0.053 C 
BRANCH  17  18
ATOM     18  C   UNL     1      52.890  21.310  53.723  1.00  0.00     0.041 C 
ATOM     19  O   UNL     1      52.255  20.236  53.558  1.00  0.00    -0.550 OA
ATOM     20  O   UNL     1      52.497  22.195  54.719  1.00  0.00    -0.550 OA
ENDBRANCH  17  18
ENDBRANCH  16  17
ENDBRANCH  15  16
ENDBRANCH  14  15
ENDBRANCH  13  14
ENDBRANCH  12  13
ENDBRANCH  11  12
ENDBRANCH   1  11
TORSDOF 15
ENDMDL
MODEL 3
REMARK VINA RESULT:    -4.259      1.908      5.918
REMARK INTER + INTRA:          -9.947
REMARK INTER:                  -8.088
REMARK INTRA:                  -1.859
REMARK UNBOUND:                -1.953
REMARK SMILES O=C([O-])CCCCCCCCCCCCCCC(=O)[O-]
REMARK SMILES IDX 10 1 9 2 8 3 7 4 6 5 5 6 4 7 2 8 1 9 3 10 11 11 12 12 13 13
REMARK SMILES IDX 14 14 15 15 16 16 17 17 18 18 19 19 20 20
REMARK H PARENT
REMARK Flexibility Score: inf
ROOT
ATOM      1  C   UNL     1      53.613  23.753  50.538  1.00  0.00     0.000 C 
ENDROOT
BRANCH   1   2
ATOM      2  C   UNL     1      54.683  24.710  51.087  1.00  0.00     0.000 C 
BRANCH   2   3
ATOM      3  C   UNL     1      55.779  23.980  51.881  1.00  0.00     0.000 C 
BRANCH   3   4
ATOM      4  C   UNL     1      55.680  22.451  51.753  1.00  0.00     0.000 C 
BRANCH   4   5
ATOM      5  C   UNL     1      55.922  21.720  53.088  1.00  0.00     0.000 C 
BRANCH   5   6
ATOM      6  C   UNL     1      54.661  21.470  53.934  1.00  0.00     0.006 C 
BRANCH   6   7
ATOM      7  C   UNL     1      53.389  21.337  53.087  1.00  0.00     0.053 C 
BRANCH   7   8
ATOM      8  C   UNL     1      52.275  20.765  53.905  1.00  0.00     0.041 C 
ATOM      9  O   UNL     1      51.143  21.318  53.912  1.00  0.00    -0.550 OA
ATOM     10  O   UNL     1      52.472  19.593  54.625  1.00  0.00    -0.550 OA
ENDBRANCH   7   8
ENDBRANCH   6   7
ENDBRANCH   5   6
ENDBRANCH   4   5
ENDBRANCH   3   4
ENDBRANCH   2   3
ENDBRANCH   1   2
BRANCH   1  11
ATOM     11  C   UNL     1      53.393  23.979  49.037  1.00  0.00     0.000 C 
BRANCH  11  12
ATOM     12  C   UNL     1      54.364  25.036  48.491  1.00  0.00     0.000 C 
BRANCH  12  13
ATOM     13  C   UNL     1      54.818  24.737  47.054  1.00  0.00     0.000 C 
BRANCH  13  14
ATOM     14  C   UNL     1      56.340  24.556  46.938  1.00  0.00     0.000 C 
BRANCH  14  15
ATOM     15  C   UNL     1      56.863  23.609  48.029  1.00  0.00     0.000 C 
BRANCH  15  16
ATOM     16  C   UNL     1      56.804  22.132  47.610  1.00  0.00     0.006 C 
BRANCH  16  17
ATOM     17  C   UNL     1      56.080  21.254  48.638  1.00  0.00     0.053 C 
BRANCH  17  18
ATOM     18  C   UNL     1      56.515  19.829  48.505  1.00  0.00     0.041 C 
ATOM     19  O   UNL     1      55.770  18.990  47.935  1.00  0.00    -0.550 OA
ATOM     20  O   UNL     1      57.721  19.416  49.058  1.00  0.00    -0.550 OA
ENDBRANCH  17  18
ENDBRANCH  16  17
ENDBRANCH  15  16
ENDBRANCH  14  15
ENDBRANCH  13  14
ENDBRANCH  12  13
ENDBRANCH  11  12
ENDBRANCH   1  11
TORSDOF 15
ENDMDL
MODEL 4
REMARK VINA RESULT:    -4.259      2.623      4.323
REMARK INTER + INTRA:          -9.947
REMARK INTER:                  -7.941
REMARK INTRA:                  -2.006
REMARK UNBOUND:                -1.953
REMARK SMILES O=C([O-])CCCCCCCCCCCCCCC(=O)[O-]
REMARK SMILES IDX 10 1 9 2 8 3 7 4 6 5 5 6 4 7 2 8 1 9 3 10 11 11 12 12 13 13
REMARK SMILES IDX 14 14 15 15 16 16 17 17 18 18 19 19 20 20
REMARK H PARENT
REMARK Flexibility Score: inf
ROOT
ATOM      1  C   UNL     1      55.276  23.691  47.626  1.00  0.00     0.000 C 
ENDROOT
BRANCH   1   2
ATOM      2  C   UNL     1      53.875  23.767  48.254  1.00  0.00     0.000 C 
BRANCH   2   3
ATOM      3  C   UNL     1      53.768  24.858  49.332  1.00  0.00     0.000 C 
BRANCH   3   4
ATOM      4  C   UNL     1      53.066  24.359  50.607  1.00  0.00     0.000 C 
BRANCH   4   5
ATOM      5  C   UNL     1      53.794  24.783  51.897  1.00  0.00     0.000 C 
BRANCH   5   6
ATOM      6  C   UNL     1      53.479  23.927  53.136  1.00  0.00     0.006 C 
BRANCH   6   7
ATOM      7  C   UNL     1      52.648  22.679  52.806  1.00  0.00     0.053 C 
BRANCH   7   8
ATOM      8  C   UNL     1      52.697  21.705  53.941  1.00  0.00     0.041 C 
ATOM      9  O   UNL     1      52.314  20.517  53.774  1.00  0.00    -0.550 OA
ATOM     10  O   UNL     1      53.210  22.096  55.171  1.00  0.00    -0.550 OA
ENDBRANCH   7   8
ENDBRANCH   6   7
ENDBRANCH   5   6
ENDBRANCH   4   5
ENDBRANCH   3   4
ENDBRANCH   2   3
ENDBRANCH   1   2
BRANCH   1  11
ATOM     11  C   UNL     1      56.257  22.971  48.559  1.00  0.00     0.000 C 
BRANCH  11  12
ATOM     12  C   UNL     1      56.067  21.448  48.489  1.00  0.00     0.000 C 
BRANCH  12  13
ATOM     13  C   UNL     1      55.871  20.811  49.874  1.00  0.00     0.000 C 
BRANCH  13  14
ATOM     14  C   UNL     1      55.632  21.853  50.978  1.00  0.00     0.000 C 
BRANCH  14  15
ATOM     15  C   UNL     1      56.200  21.368  52.321  1.00  0.00     0.000 C 
BRANCH  15  16
ATOM     16  C   UNL     1      56.856  22.497  53.129  1.00  0.00     0.006 C 
BRANCH  16  17
ATOM     17  C   UNL     1      56.614  22.363  54.637  1.00  0.00     0.053 C 
BRANCH  17  18
ATOM     18  C   UNL     1      57.324  23.451  55.379  1.00  0.00     0.041 C 
ATOM     19  O   UNL     1      57.877  23.210  56.483  1.00  0.00    -0.550 OA
ATOM     20  O   UNL     1      57.330  24.746  54.875  1.00  0.00    -0.550 OA
ENDBRANCH  17  18
ENDBRANCH  16  17
ENDBRANCH  15  16
ENDBRANCH  14  15
ENDBRANCH  13  14
ENDBRANCH  12  13
ENDBRANCH  11  12
ENDBRANCH   1  11
TORSDOF 15
ENDMDL
MODEL 5
REMARK VINA RESULT:    -4.208      2.787      5.052
REMARK INTER + INTRA:          -9.850
REMARK INTER:                  -7.664
REMARK INTRA:                  -2.186
REMARK UNBOUND:                -1.953
REMARK SMILES O=C([O-])CCCCCCCCCCCCCCC(=O)[O-]
REMARK SMILES IDX 10 1 9 2 8 3 7 4 6 5 5 6 4 7 2 8 1 9 3 10 11 11 12 12 13 13
REMARK SMILES IDX 14 14 15 15 16 16 17 17 18 18 19 19 20 20
REMARK H PARENT
REMARK Flexibility Score: inf
ROOT
ATOM      1  C   UNL     1      53.867  23.692  48.381  1.00  0.00     0.000 C 
ENDROOT
BRANCH   1   2
ATOM      2  C   UNL     1      53.426  24.926  49.184  1.00  0.00     0.000 C 
BRANCH   2   3
ATOM      3  C   UNL     1      53.758  24.808  50.681  1.00  0.00     0.000 C 
BRANCH   3   4
ATOM      4  C   UNL     1      52.941  23.708  51.381  1.00  0.00     0.000 C 
BRANCH   4   5
ATOM      5  C   UNL     1      52.997  23.805  52.917  1.00  0.00     0.000 C 
BRANCH   5   6
ATOM      6  C   UNL     1      52.893  22.462  53.661  1.00  0.00     0.006 C 
BRANCH   6   7
ATOM      7  C   UNL     1      51.735  21.588  53.160  1.00  0.00     0.053 C 
BRANCH   7   8
ATOM      8  C   UNL     1      50.423  22.165  53.591  1.00  0.00     0.041 C 
ATOM      9  O   UNL     1      50.185  22.355  54.814  1.00  0.00    -0.550 OA
ATOM     10  O   UNL     1      49.481  22.536  52.642  1.00  0.00    -0.550 OA
ENDBRANCH   7   8
ENDBRANCH   6   7
ENDBRANCH   5   6
ENDBRANCH   4   5
ENDBRANCH   3   4
ENDBRANCH   2   3
ENDBRANCH   1   2
BRANCH   1  11
ATOM     11  C   UNL     1      55.283  23.878  47.823  1.00  0.00     0.000 C 
BRANCH  11  12
ATOM     12  C   UNL     1      56.286  22.971  48.553  1.00  0.00     0.000 C 
BRANCH  12  13
ATOM     13  C   UNL     1      56.058  21.479  48.261  1.00  0.00     0.000 C 
BRANCH  13  14
ATOM     14  C   UNL     1      56.087  20.615  49.530  1.00  0.00     0.000 C 
BRANCH  14  15
ATOM     15  C   UNL     1      55.234  21.246  50.641  1.00  0.00     0.000 C 
BRANCH  15  16
ATOM     16  C   UNL     1      55.987  21.360  51.976  1.00  0.00     0.006 C 
BRANCH  16  17
ATOM     17  C   UNL     1      56.435  22.795  52.280  1.00  0.00     0.053 C 
BRANCH  17  18
ATOM     18  C   UNL     1      56.781  22.936  53.729  1.00  0.00     0.041 C 
ATOM     19  O   UNL     1      56.395  22.074  54.560  1.00  0.00    -0.550 OA
ATOM     20  O   UNL     1      57.487  24.049  54.170  1.00  0.00    -0.550 OA
ENDBRANCH  17  18
ENDBRANCH  16  17
ENDBRANCH  15  16
ENDBRANCH  14  15
ENDBRANCH  13  14
ENDBRANCH  12  13
ENDBRANCH  11  12
ENDBRANCH   1  11
TORSDOF 15
ENDMDL
MODEL 6
REMARK VINA RESULT:    -4.199      2.826      4.188
REMARK INTER + INTRA:          -9.834
REMARK INTER:                  -7.854
REMARK INTRA:                  -1.980
REMARK UNBOUND:                -1.953
REMARK SMILES O=C([O-])CCCCCCCCCCCCCCC(=O)[O-]
REMARK SMILES IDX 10 1 9 2 8 3 7 4 6 5 5 6 4 7 2 8 1 9 3 10 11 11 12 12 13 13
REMARK SMILES IDX 14 14 15 15 16 16 17 17 18 18 19 19 20 20
REMARK H PARENT
REMARK Flexibility Score: inf
ROOT
ATOM      1  C   UNL     1      55.636  21.377  50.993  1.00  0.00     0.000 C 
ENDROOT
BRANCH   1   2
ATOM      2  C   UNL     1      54.557  22.111  50.180  1.00  0.00     0.000 C 
BRANCH   2   3
ATOM      3  C   UNL     1      54.238  23.506  50.743  1.00  0.00     0.000 C 
BRANCH   3   4
ATOM      4  C   UNL     1      53.711  24.469  49.665  1.00  0.00     0.000 C 
BRANCH   4   5
ATOM      5  C   UNL     1      53.751  23.864  48.249  1.00  0.00     0.000 C 
BRANCH   5   6
ATOM      6  C   UNL     1      54.724  24.549  47.273  1.00  0.00     0.006 C 
BRANCH   6   7
ATOM      7  C   UNL     1      56.146  24.676  47.836  1.00  0.00     0.053 C 
BRANCH   7   8
ATOM      8  C   UNL     1      57.042  23.645  47.226  1.00  0.00     0.041 C 
ATOM      9  O   UNL     1      56.968  22.442  47.594  1.00  0.00    -0.550 OA
ATOM     10  O   UNL     1      57.928  24.002  46.218  1.00  0.00    -0.550 OA
ENDBRANCH   7   8
ENDBRANCH   6   7
ENDBRANCH   5   6
ENDBRANCH   4   5
ENDBRANCH   3   4
ENDBRANCH   2   3
ENDBRANCH   1   2
BRANCH   1  11
ATOM     11  C   UNL     1      56.105  22.230  52.178  1.00  0.00     0.000 C 
BRANCH  11  12
ATOM     12  C   UNL     1      56.844  21.372  53.216  1.00  0.00     0.000 C 
BRANCH  12  13
ATOM     13  C   UNL     1      55.944  20.953  54.389  1.00  0.00     0.000 C 
BRANCH  13  14
ATOM     14  C   UNL     1      54.716  21.863  54.547  1.00  0.00     0.000 C 
BRANCH  14  15
ATOM     15  C   UNL     1      53.421  21.036  54.562  1.00  0.00     0.000 C 
BRANCH  15  16
ATOM     16  C   UNL     1      52.600  21.195  53.273  1.00  0.00     0.006 C 
BRANCH  16  17
ATOM     17  C   UNL     1      51.743  22.467  53.271  1.00  0.00     0.053 C 
BRANCH  17  18
ATOM     18  C   UNL     1      50.863  22.504  54.480  1.00  0.00     0.041 C 
ATOM     19  O   UNL     1      49.926  21.674  54.608  1.00  0.00    -0.550 OA
ATOM     20  O   UNL     1      51.045  23.490  55.442  1.00  0.00    -0.550 OA
ENDBRANCH  17  18
ENDBRANCH  16  17
ENDBRANCH  15  16
ENDBRANCH  14  15
ENDBRANCH  13  14
ENDBRANCH  12  13
ENDBRANCH  11  12
ENDBRANCH   1  11
TORSDOF 15
ENDMDL
MODEL 7
REMARK VINA RESULT:    -4.192      2.332      5.451
REMARK INTER + INTRA:          -9.822
REMARK INTER:                  -7.759
REMARK INTRA:                  -2.063
REMARK UNBOUND:                -1.953
REMARK SMILES O=C([O-])CCCCCCCCCCCCCCC(=O)[O-]
REMARK SMILES IDX 10 1 9 2 8 3 7 4 6 5 5 6 4 7 2 8 1 9 3 10 11 11 12 12 13 13
REMARK SMILES IDX 14 14 15 15 16 16 17 17 18 18 19 19 20 20
REMARK H PARENT
REMARK Flexibility Score: inf
ROOT
ATOM      1  C   UNL     1      56.229  21.549  48.293  1.00  0.00     0.000 C 
ENDROOT
BRANCH   1   2
ATOM      2  C   UNL     1      56.001  20.566  49.452  1.00  0.00     0.000 C 
BRANCH   2   3
ATOM      3  C   UNL     1      55.197  21.188  50.606  1.00  0.00     0.000 C 
BRANCH   3   4
ATOM      4  C   UNL     1      55.982  21.205  51.929  1.00  0.00     0.000 C 
BRANCH   4   5
ATOM      5  C   UNL     1      56.416  22.622  52.351  1.00  0.00     0.000 C 
BRANCH   5   6
ATOM      6  C   UNL     1      56.833  22.765  53.825  1.00  0.00     0.006 C 
BRANCH   6   7
ATOM      7  C   UNL     1      56.217  21.688  54.729  1.00  0.00     0.053 C 
BRANCH   7   8
ATOM      8  C   UNL     1      56.519  21.978  56.165  1.00  0.00     0.041 C 
ATOM      9  O   UNL     1      55.782  22.760  56.823  1.00  0.00    -0.550 OA
ATOM     10  O   UNL     1      57.587  21.350  56.792  1.00  0.00    -0.550 OA
ENDBRANCH   7   8
ENDBRANCH   6   7
ENDBRANCH   5   6
ENDBRANCH   4   5
ENDBRANCH   3   4
ENDBRANCH   2   3
ENDBRANCH   1   2
BRANCH   1  11
ATOM     11  C   UNL     1      55.925  22.988  48.726  1.00  0.00     0.000 C 
BRANCH  11  12
ATOM     12  C   UNL     1      54.643  23.506  48.057  1.00  0.00     0.000 C 
BRANCH  12  13
ATOM     13  C   UNL     1      53.748  24.298  49.023  1.00  0.00     0.000 C 
BRANCH  13  14
ATOM     14  C   UNL     1      54.523  24.855  50.227  1.00  0.00     0.000 C 
BRANCH  14  15
ATOM     15  C   UNL     1      53.639  24.882  51.482  1.00  0.00     0.000 C 
BRANCH  15  16
ATOM     16  C   UNL     1      52.935  23.541  51.741  1.00  0.00     0.006 C 
BRANCH  16  17
ATOM     17  C   UNL     1      52.920  23.157  53.225  1.00  0.00     0.053 C 
BRANCH  17  18
ATOM     18  C   UNL     1      52.149  21.891  53.429  1.00  0.00     0.041 C 
ATOM     19  O   UNL     1      52.719  20.776  53.310  1.00  0.00    -0.550 OA
ATOM     20  O   UNL     1      50.787  21.943  53.700  1.00  0.00    -0.550 OA
ENDBRANCH  17  18
ENDBRANCH  16  17
ENDBRANCH  15  16
ENDBRANCH  14  15
ENDBRANCH  13  14
ENDBRANCH  12  13
ENDBRANCH  11  12
ENDBRANCH   1  11
TORSDOF 15
ENDMDL
MODEL 8
REMARK VINA RESULT:    -4.159      3.177      5.081
REMARK INTER + INTRA:          -9.760
REMARK INTER:                  -7.723
REMARK INTRA:                  -2.037
REMARK UNBOUND:                -1.953
REMARK SMILES O=C([O-])CCCCCCCCCCCCCCC(=O)[O-]
REMARK SMILES IDX 10 1 9 2 8 3 7 4 6 5 5 6 4 7 2 8 1 9 3 10 11 11 12 12 13 13
REMARK SMILES IDX 14 14 15 15 16 16 17 17 18 18 19 19 20 20
REMARK H PARENT
REMARK Flexibility Score: inf
ROOT
ATOM      1  C   UNL     1      54.582  23.547  48.005  1.00  0.00     0.000 C 
ENDROOT
BRANCH   1   2
ATOM      2  C   UNL     1      55.876  23.096  48.702  1.00  0.00     0.000 C 
BRANCH   2   3
ATOM      3  C   UNL     1      56.267  21.652  48.347  1.00  0.00     0.000 C 
BRANCH   3   4
ATOM      4  C   UNL     1      55.999  20.669  49.499  1.00  0.00     0.000 C 
BRANCH   4   5
ATOM      5  C   UNL     1      55.450  21.360  50.761  1.00  0.00     0.000 C 
BRANCH   5   6
ATOM      6  C   UNL     1      56.348  21.256  52.006  1.00  0.00     0.006 C 
BRANCH   6   7
ATOM      7  C   UNL     1      56.348  22.535  52.855  1.00  0.00     0.053 C 
BRANCH   7   8
ATOM      8  C   UNL     1      56.267  22.195  54.310  1.00  0.00     0.041 C 
ATOM      9  O   UNL     1      57.117  22.658  55.117  1.00  0.00    -0.550 OA
ATOM     10  O   UNL     1      55.228  21.406  54.783  1.00  0.00    -0.550 OA
ENDBRANCH   7   8
ENDBRANCH   6   7
ENDBRANCH   5   6
ENDBRANCH   4   5
ENDBRANCH   3   4
ENDBRANCH   2   3
ENDBRANCH   1   2
BRANCH   1  11
ATOM     11  C   UNL     1      53.721  24.399  48.945  1.00  0.00     0.000 C 
BRANCH  11  12
ATOM     12  C   UNL     1      54.579  25.047  50.042  1.00  0.00     0.000 C 
BRANCH  12  13
ATOM     13  C   UNL     1      53.939  24.943  51.435  1.00  0.00     0.000 C 
BRANCH  13  14
ATOM     14  C   UNL     1      52.981  23.748  51.560  1.00  0.00     0.000 C 
BRANCH  14  15
ATOM     15  C   UNL     1      52.819  23.328  53.029  1.00  0.00     0.000 C 
BRANCH  15  16
ATOM     16  C   UNL     1      52.002  22.036  53.189  1.00  0.00     0.006 C 
BRANCH  16  17
ATOM     17  C   UNL     1      50.853  22.184  54.194  1.00  0.00     0.053 C 
BRANCH  17  18
ATOM     18  C   UNL     1      49.536  22.180  53.485  1.00  0.00     0.041 C 
ATOM     19  O   UNL     1      48.526  21.662  54.027  1.00  0.00    -0.550 OA
ATOM     20  O   UNL     1      49.436  22.703  52.201  1.00  0.00    -0.550 OA
ENDBRANCH  17  18
ENDBRANCH  16  17
ENDBRANCH  15  16
ENDBRANCH  14  15
ENDBRANCH  13  14
ENDBRANCH  12  13
ENDBRANCH  11  12
ENDBRANCH   1  11
TORSDOF 15
ENDMDL
MODEL 9
REMARK VINA RESULT:    -4.151      2.068      2.764
REMARK INTER + INTRA:          -9.743
REMARK INTER:                  -7.932
REMARK INTRA:                  -1.811
REMARK UNBOUND:                -1.953
REMARK SMILES O=C([O-])CCCCCCCCCCCCCCC(=O)[O-]
REMARK SMILES IDX 10 1 9 2 8 3 7 4 6 5 5 6 4 7 2 8 1 9 3 10 11 11 12 12 13 13
REMARK SMILES IDX 14 14 15 15 16 16 17 17 18 18 19 19 20 20
REMARK H PARENT
REMARK Flexibility Score: inf
ROOT
ATOM      1  C   UNL     1      53.889  23.962  51.229  1.00  0.00     0.000 C 
ENDROOT
BRANCH   1   2
ATOM      2  C   UNL     1      53.373  24.494  49.883  1.00  0.00     0.000 C 
BRANCH   2   3
ATOM      3  C   UNL     1      53.763  23.591  48.700  1.00  0.00     0.000 C 
BRANCH   3   4
ATOM      4  C   UNL     1      54.507  24.357  47.594  1.00  0.00     0.000 C 
BRANCH   4   5
ATOM      5  C   UNL     1      55.952  23.864  47.391  1.00  0.00     0.000 C 
BRANCH   5   6
ATOM      6  C   UNL     1      56.426  22.799  48.396  1.00  0.00     0.006 C 
BRANCH   6   7
ATOM      7  C   UNL     1      56.780  21.462  47.730  1.00  0.00     0.053 C 
BRANCH   7   8
ATOM      8  C   UNL     1      56.576  20.332  48.689  1.00  0.00     0.041 C 
ATOM      9  O   UNL     1      55.524  20.269  49.381  1.00  0.00    -0.550 OA
ATOM     10  O   UNL     1      57.524  19.322  48.785  1.00  0.00    -0.550 OA
ENDBRANCH   7   8
ENDBRANCH   6   7
ENDBRANCH   5   6
ENDBRANCH   4   5
ENDBRANCH   3   4
ENDBRANCH   2   3
ENDBRANCH   1   2
BRANCH   1  11
ATOM     11  C   UNL     1      55.125  24.744  51.692  1.00  0.00     0.000 C 
BRANCH  11  12
ATOM     12  C   UNL     1      56.328  23.809  51.883  1.00  0.00     0.000 C 
BRANCH  12  13
ATOM     13  C   UNL     1      55.913  22.344  52.095  1.00  0.00     0.000 C 
BRANCH  13  14
ATOM     14  C   UNL     1      56.304  21.812  53.482  1.00  0.00     0.000 C 
BRANCH  14  15
ATOM     15  C   UNL     1      55.065  21.339  54.256  1.00  0.00     0.000 C 
BRANCH  15  16
ATOM     16  C   UNL     1      53.841  21.137  53.350  1.00  0.00     0.006 C 
BRANCH  16  17
ATOM     17  C   UNL     1      52.545  20.927  54.144  1.00  0.00     0.053 C 
BRANCH  17  18
ATOM     18  C   UNL     1      51.607  22.071  53.921  1.00  0.00     0.041 C 
ATOM     19  O   UNL     1      50.582  21.920  53.207  1.00  0.00    -0.550 OA
ATOM     20  O   UNL     1      51.891  23.319  54.462  1.00  0.00    -0.550 OA
ENDBRANCH  17  18
ENDBRANCH  16  17
ENDBRANCH  15  16
ENDBRANCH  14  15
ENDBRANCH  13  14
ENDBRANCH  12  13
ENDBRANCH  11  12
ENDBRANCH   1  11
TORSDOF 15
ENDMDL
