MODEL 1
REMARK VINA RESULT:    -5.966      0.000      0.000
REMARK INTER + INTRA:         -12.806
REMARK INTER:                 -11.546
REMARK INTRA:                  -1.261
REMARK UNBOUND:                -1.261
REMARK SMILES CCCCCCCCCCCCCCCCCC(=O)[O-]
REMARK SMILES IDX 10 1 11 2 12 3 13 4 14 5 15 6 16 7 17 8 18 9 19 10 20 11
REMARK SMILES IDX 9 12 8 13 7 14 6 15 5 16 4 17 3 18 2 19 1 20
REMARK H PARENT
REMARK Flexibility Score: inf
ROOT
ATOM      1  C   UNL     1     -10.635  -1.861  -8.652  1.00  0.00     0.000 C 
ENDROOT
BRANCH   1   2
ATOM      2  C   UNL     1     -10.277  -2.953  -9.680  1.00  0.00     0.000 C 
BRANCH   2   3
ATOM      3  C   UNL     1     -10.724  -4.376  -9.299  1.00  0.00     0.000 C 
BRANCH   3   4
ATOM      4  C   UNL     1      -9.710  -5.100  -8.400  1.00  0.00     0.000 C 
BRANCH   4   5
ATOM      5  C   UNL     1     -10.423  -5.937  -7.332  1.00  0.00     0.000 C 
BRANCH   5   6
ATOM      6  C   UNL     1     -11.001  -5.045  -6.228  1.00  0.00     0.000 C 
BRANCH   6   7
ATOM      7  C   UNL     1     -11.848  -5.866  -5.243  1.00  0.00     0.006 C 
BRANCH   7   8
ATOM      8  C   UNL     1     -12.506  -7.079  -5.913  1.00  0.00     0.053 C 
BRANCH   8   9
ATOM      9  C   UNL     1     -13.901  -6.774  -6.367  1.00  0.00     0.041 C 
ATOM     10  O   UNL     1     -14.108  -6.347  -7.534  1.00  0.00    -0.550 OA
ATOM     11  O   UNL     1     -14.968  -6.929  -5.492  1.00  0.00    -0.550 OA
ENDBRANCH   8   9
ENDBRANCH   7   8
ENDBRANCH   6   7
ENDBRANCH   5   6
ENDBRANCH   4   5
ENDBRANCH   3   4
ENDBRANCH   2   3
ENDBRANCH   1   2
BRANCH   1  12
ATOM     12  C   UNL     1     -11.109  -0.525  -9.257  1.00  0.00     0.000 C 
BRANCH  12  13
ATOM     13  C   UNL     1     -11.968  -0.658 -10.530  1.00  0.00    -0.000 C 
BRANCH  13  14
ATOM     14  C   UNL     1     -13.435  -1.069 -10.287  1.00  0.00    -0.000 C 
BRANCH  14  15
ATOM     15  C   UNL     1     -14.476   0.018 -10.609  1.00  0.00    -0.000 C 
BRANCH  15  16
ATOM     16  C   UNL     1     -15.076   0.661  -9.350  1.00  0.00    -0.000 C 
BRANCH  16  17
ATOM     17  C   UNL     1     -14.740   2.159  -9.283  1.00  0.00    -0.000 C 
BRANCH  17  18
ATOM     18  C   UNL     1     -13.231   2.428  -9.456  1.00  0.00    -0.000 C 
BRANCH  18  19
ATOM     19  C   UNL     1     -12.748   3.702  -8.742  1.00  0.00    -0.003 C 
ATOM     20  C   UNL     1     -13.732   4.210  -7.692  1.00  0.00     0.004 C 
ENDBRANCH  18  19
ENDBRANCH  17  18
ENDBRANCH  16  17
ENDBRANCH  15  16
ENDBRANCH  14  15
ENDBRANCH  13  14
ENDBRANCH  12  13
ENDBRANCH   1  12
TORSDOF 16
ENDMDL
MODEL 2
REMARK VINA RESULT:    -5.905      3.534      8.230
REMARK INTER + INTRA:         -12.688
REMARK INTER:                 -11.424
REMARK INTRA:                  -1.264
REMARK UNBOUND:                -1.261
REMARK SMILES CCCCCCCCCCCCCCCCCC(=O)[O-]
REMARK SMILES IDX 10 1 11 2 12 3 13 4 14 5 15 6 16 7 17 8 18 9 19 10 20 11
REMARK SMILES IDX 9 12 8 13 7 14 6 15 5 16 4 17 3 18 2 19 1 20
REMARK H PARENT
REMARK Flexibility Score: inf
ROOT
ATOM      1  C   UNL     1     -10.680  -1.700  -8.912  1.00  0.00     0.000 C 
ENDROOT
BRANCH   1   2
ATOM      2  C   UNL     1     -11.291  -0.411  -9.496  1.00  0.00     0.000 C 
BRANCH   2   3
ATOM      3  C   UNL     1     -12.220  -0.619 -10.705  1.00  0.00     0.000 C 
BRANCH   3   4
ATOM      4  C   UNL     1     -13.616  -1.122 -10.306  1.00  0.00     0.000 C 
BRANCH   4   5
ATOM      5  C   UNL     1     -14.689  -0.076 -10.626  1.00  0.00     0.000 C 
BRANCH   5   6
ATOM      6  C   UNL     1     -15.107   0.688  -9.365  1.00  0.00     0.000 C 
BRANCH   6   7
ATOM      7  C   UNL     1     -14.777   2.184  -9.492  1.00  0.00     0.006 C 
BRANCH   7   8
ATOM      8  C   UNL     1     -13.284   2.468  -9.284  1.00  0.00     0.053 C 
BRANCH   8   9
ATOM      9  C   UNL     1     -13.062   3.703  -8.466  1.00  0.00     0.041 C 
ATOM     10  O   UNL     1     -13.957   4.586  -8.396  1.00  0.00    -0.550 OA
ATOM     11  O   UNL     1     -11.854   3.894  -7.807  1.00  0.00    -0.550 OA
ENDBRANCH   8   9
ENDBRANCH   7   8
ENDBRANCH   6   7
ENDBRANCH   5   6
ENDBRANCH   4   5
ENDBRANCH   3   4
ENDBRANCH   2   3
ENDBRANCH   1   2
BRANCH   1  12
ATOM     12  C   UNL     1     -10.033  -2.643  -9.945  1.00  0.00     0.000 C 
BRANCH  12  13
ATOM     13  C   UNL     1     -10.289  -4.144  -9.704  1.00  0.00    -0.000 C 
BRANCH  13  14
ATOM     14  C   UNL     1     -11.192  -4.466  -8.496  1.00  0.00    -0.000 C 
BRANCH  14  15
ATOM     15  C   UNL     1     -10.443  -4.788  -7.191  1.00  0.00    -0.000 C 
BRANCH  15  16
ATOM     16  C   UNL     1     -10.828  -6.152  -6.602  1.00  0.00    -0.000 C 
BRANCH  16  17
ATOM     17  C   UNL     1     -11.805  -5.989  -5.427  1.00  0.00    -0.000 C 
BRANCH  17  18
ATOM     18  C   UNL     1     -13.066  -6.865  -5.588  1.00  0.00    -0.000 C 
BRANCH  18  19
ATOM     19  C   UNL     1     -13.865  -6.563  -6.867  1.00  0.00    -0.003 C 
ATOM     20  C   UNL     1     -13.930  -7.749  -7.827  1.00  0.00     0.004 C 
ENDBRANCH  18  19
ENDBRANCH  17  18
ENDBRANCH  16  17
ENDBRANCH  15  16
ENDBRANCH  14  15
ENDBRANCH  13  14
ENDBRANCH  12  13
ENDBRANCH   1  12
TORSDOF 16
ENDMDL
MODEL 3
REMARK VINA RESULT:    -5.639      3.603      8.192
REMARK INTER + INTRA:         -12.175
REMARK INTER:                 -10.739
REMARK INTRA:                  -1.435
REMARK UNBOUND:                -1.261
REMARK SMILES CCCCCCCCCCCCCCCCCC(=O)[O-]
REMARK SMILES IDX 10 1 11 2 12 3 13 4 14 5 15 6 16 7 17 8 18 9 19 10 20 11
REMARK SMILES IDX 9 12 8 13 7 14 6 15 5 16 4 17 3 18 2 19 1 20
REMARK H PARENT
REMARK Flexibility Score: inf
ROOT
ATOM      1  C   UNL     1     -10.301  -2.139  -8.392  1.00  0.00     0.000 C 
ENDROOT
BRANCH   1   2
ATOM      2  C   UNL     1     -10.857  -1.816  -9.794  1.00  0.00     0.000 C 
BRANCH   2   3
ATOM      3  C   UNL     1     -11.748  -0.563  -9.867  1.00  0.00     0.000 C 
BRANCH   3   4
ATOM      4  C   UNL     1     -12.989  -0.764 -10.750  1.00  0.00     0.000 C 
BRANCH   4   5
ATOM      5  C   UNL     1     -14.269  -0.407  -9.986  1.00  0.00     0.000 C 
BRANCH   5   6
ATOM      6  C   UNL     1     -14.756   0.999 -10.355  1.00  0.00     0.000 C 
BRANCH   6   7
ATOM      7  C   UNL     1     -14.409   2.010  -9.251  1.00  0.00     0.006 C 
BRANCH   7   8
ATOM      8  C   UNL     1     -13.114   2.776  -9.552  1.00  0.00     0.053 C 
BRANCH   8   9
ATOM      9  C   UNL     1     -12.714   3.661  -8.411  1.00  0.00     0.041 C 
ATOM     10  O   UNL     1     -13.593   4.250  -7.729  1.00  0.00    -0.550 OA
ATOM     11  O   UNL     1     -11.370   3.862  -8.124  1.00  0.00    -0.550 OA
ENDBRANCH   8   9
ENDBRANCH   7   8
ENDBRANCH   6   7
ENDBRANCH   5   6
ENDBRANCH   4   5
ENDBRANCH   3   4
ENDBRANCH   2   3
ENDBRANCH   1   2
BRANCH   1  12
ATOM     12  C   UNL     1     -10.286  -3.636  -8.024  1.00  0.00     0.000 C 
BRANCH  12  13
ATOM     13  C   UNL     1     -10.702  -4.588  -9.163  1.00  0.00    -0.000 C 
BRANCH  13  14
ATOM     14  C   UNL     1     -10.469  -6.086  -8.879  1.00  0.00    -0.000 C 
BRANCH  14  15
ATOM     15  C   UNL     1     -11.747  -6.941  -8.812  1.00  0.00    -0.000 C 
BRANCH  15  16
ATOM     16  C   UNL     1     -13.008  -6.110  -8.538  1.00  0.00    -0.000 C 
BRANCH  16  17
ATOM     17  C   UNL     1     -13.534  -6.358  -7.116  1.00  0.00    -0.000 C 
BRANCH  17  18
ATOM     18  C   UNL     1     -12.843  -7.560  -6.438  1.00  0.00    -0.000 C 
BRANCH  18  19
ATOM     19  C   UNL     1     -12.136  -7.201  -5.121  1.00  0.00    -0.003 C 
ATOM     20  C   UNL     1     -11.373  -5.880  -5.191  1.00  0.00     0.004 C 
ENDBRANCH  18  19
ENDBRANCH  17  18
ENDBRANCH  16  17
ENDBRANCH  15  16
ENDBRANCH  14  15
ENDBRANCH  13  14
ENDBRANCH  12  13
ENDBRANCH   1  12
TORSDOF 16
ENDMDL
MODEL 4
REMARK VINA RESULT:    -5.280      1.403      2.990
REMARK INTER + INTRA:         -11.480
REMARK INTER:                 -10.171
REMARK INTRA:                  -1.310
REMARK UNBOUND:                -1.261
REMARK SMILES CCCCCCCCCCCCCCCCCC(=O)[O-]
REMARK SMILES IDX 10 1 11 2 12 3 13 4 14 5 15 6 16 7 17 8 18 9 19 10 20 11
REMARK SMILES IDX 9 12 8 13 7 14 6 15 5 16 4 17 3 18 2 19 1 20
REMARK H PARENT
REMARK Flexibility Score: inf
ROOT
ATOM      1  C   UNL     1     -10.698  -4.071  -6.914  1.00  0.00     0.000 C 
ENDROOT
BRANCH   1   2
ATOM      2  C   UNL     1     -10.790  -5.387  -6.115  1.00  0.00     0.000 C 
BRANCH   2   3
ATOM      3  C   UNL     1     -10.559  -6.666  -6.939  1.00  0.00     0.000 C 
BRANCH   3   4
ATOM      4  C   UNL     1     -10.933  -7.945  -6.174  1.00  0.00     0.000 C 
BRANCH   4   5
ATOM      5  C   UNL     1     -11.986  -7.653  -5.099  1.00  0.00     0.000 C 
BRANCH   5   6
ATOM      6  C   UNL     1     -13.389  -8.035  -5.584  1.00  0.00     0.000 C 
BRANCH   6   7
ATOM      7  C   UNL     1     -14.171  -6.794  -6.041  1.00  0.00     0.006 C 
BRANCH   7   8
ATOM      8  C   UNL     1     -14.767  -6.967  -7.443  1.00  0.00     0.053 C 
BRANCH   8   9
ATOM      9  C   UNL     1     -13.769  -6.651  -8.515  1.00  0.00     0.041 C 
ATOM     10  O   UNL     1     -13.415  -5.460  -8.717  1.00  0.00    -0.550 OA
ATOM     11  O   UNL     1     -13.257  -7.667  -9.311  1.00  0.00    -0.550 OA
ENDBRANCH   8   9
ENDBRANCH   7   8
ENDBRANCH   6   7
ENDBRANCH   5   6
ENDBRANCH   4   5
ENDBRANCH   3   4
ENDBRANCH   2   3
ENDBRANCH   1   2
BRANCH   1  12
ATOM     12  C   UNL     1     -10.021  -4.189  -8.293  1.00  0.00     0.000 C 
BRANCH  12  13
ATOM     13  C   UNL     1      -9.971  -2.880  -9.106  1.00  0.00    -0.000 C 
BRANCH  13  14
ATOM     14  C   UNL     1     -11.340  -2.360  -9.589  1.00  0.00    -0.000 C 
BRANCH  14  15
ATOM     15  C   UNL     1     -11.332  -0.921 -10.136  1.00  0.00    -0.000 C 
BRANCH  15  16
ATOM     16  C   UNL     1     -12.716  -0.257 -10.089  1.00  0.00    -0.000 C 
BRANCH  16  17
ATOM     17  C   UNL     1     -12.626   1.161  -9.503  1.00  0.00    -0.000 C 
BRANCH  17  18
ATOM     18  C   UNL     1     -13.983   1.895  -9.539  1.00  0.00    -0.000 C 
BRANCH  18  19
ATOM     19  C   UNL     1     -14.009   3.181  -8.696  1.00  0.00    -0.003 C 
ATOM     20  C   UNL     1     -12.665   3.906  -8.667  1.00  0.00     0.004 C 
ENDBRANCH  18  19
ENDBRANCH  17  18
ENDBRANCH  16  17
ENDBRANCH  15  16
ENDBRANCH  14  15
ENDBRANCH  13  14
ENDBRANCH  12  13
ENDBRANCH   1  12
TORSDOF 16
ENDMDL
MODEL 5
REMARK VINA RESULT:    -5.221      1.760      2.732
REMARK INTER + INTRA:         -11.366
REMARK INTER:                 -10.190
REMARK INTRA:                  -1.176
REMARK UNBOUND:                -1.261
REMARK SMILES CCCCCCCCCCCCCCCCCC(=O)[O-]
REMARK SMILES IDX 10 1 11 2 12 3 13 4 14 5 15 6 16 7 17 8 18 9 19 10 20 11
REMARK SMILES IDX 9 12 8 13 7 14 6 15 5 16 4 17 3 18 2 19 1 20
REMARK H PARENT
REMARK Flexibility Score: inf
ROOT
ATOM      1  C   UNL     1     -10.714  -4.279  -7.558  1.00  0.00     0.000 C 
ENDROOT
BRANCH   1   2
ATOM      2  C   UNL     1     -11.065  -5.368  -8.592  1.00  0.00     0.000 C 
BRANCH   2   3
ATOM      3  C   UNL     1     -12.539  -5.810  -8.597  1.00  0.00     0.000 C 
BRANCH   3   4
ATOM      4  C   UNL     1     -12.709  -7.318  -8.837  1.00  0.00     0.000 C 
BRANCH   4   5
ATOM      5  C   UNL     1     -13.821  -7.892  -7.952  1.00  0.00     0.000 C 
BRANCH   5   6
ATOM      6  C   UNL     1     -14.345  -6.838  -6.972  1.00  0.00     0.000 C 
BRANCH   6   7
ATOM      7  C   UNL     1     -14.261  -7.343  -5.523  1.00  0.00     0.006 C 
BRANCH   7   8
ATOM      8  C   UNL     1     -12.969  -8.125  -5.254  1.00  0.00     0.053 C 
BRANCH   8   9
ATOM      9  C   UNL     1     -11.762  -7.239  -5.302  1.00  0.00     0.041 C 
ATOM     10  O   UNL     1     -11.785  -6.108  -4.750  1.00  0.00    -0.550 OA
ATOM     11  O   UNL     1     -10.624  -7.649  -5.985  1.00  0.00    -0.550 OA
ENDBRANCH   8   9
ENDBRANCH   7   8
ENDBRANCH   6   7
ENDBRANCH   5   6
ENDBRANCH   4   5
ENDBRANCH   3   4
ENDBRANCH   2   3
ENDBRANCH   1   2
BRANCH   1  12
ATOM     12  C   UNL     1     -10.321  -2.913  -8.155  1.00  0.00     0.000 C 
BRANCH  12  13
ATOM     13  C   UNL     1     -10.817  -2.668  -9.594  1.00  0.00    -0.000 C 
BRANCH  13  14
ATOM     14  C   UNL     1     -10.918  -1.184 -10.005  1.00  0.00    -0.000 C 
BRANCH  14  15
ATOM     15  C   UNL     1     -12.345  -0.684 -10.289  1.00  0.00    -0.000 C 
BRANCH  15  16
ATOM     16  C   UNL     1     -12.659   0.651  -9.599  1.00  0.00    -0.000 C 
BRANCH  16  17
ATOM     17  C   UNL     1     -14.045   1.171 -10.010  1.00  0.00    -0.000 C 
BRANCH  17  18
ATOM     18  C   UNL     1     -14.488   2.386  -9.167  1.00  0.00    -0.000 C 
BRANCH  18  19
ATOM     19  C   UNL     1     -13.358   3.396  -8.905  1.00  0.00    -0.003 C 
ATOM     20  C   UNL     1     -13.591   4.243  -7.655  1.00  0.00     0.004 C 
ENDBRANCH  18  19
ENDBRANCH  17  18
ENDBRANCH  16  17
ENDBRANCH  15  16
ENDBRANCH  14  15
ENDBRANCH  13  14
ENDBRANCH  12  13
ENDBRANCH   1  12
TORSDOF 16
ENDMDL
MODEL 6
REMARK VINA RESULT:    -4.959      2.113      3.449
REMARK INTER + INTRA:         -10.859
REMARK INTER:                  -9.783
REMARK INTRA:                  -1.076
REMARK UNBOUND:                -1.261
REMARK SMILES CCCCCCCCCCCCCCCCCC(=O)[O-]
REMARK SMILES IDX 10 1 11 2 12 3 13 4 14 5 15 6 16 7 17 8 18 9 19 10 20 11
REMARK SMILES IDX 9 12 8 13 7 14 6 15 5 16 4 17 3 18 2 19 1 20
REMARK H PARENT
REMARK Flexibility Score: inf
ROOT
ATOM      1  C   UNL     1     -14.421  -4.353  -9.372  1.00  0.00     0.000 C 
ENDROOT
BRANCH   1   2
ATOM      2  C   UNL     1     -15.035  -5.754  -9.182  1.00  0.00     0.000 C 
BRANCH   2   3
ATOM      3  C   UNL     1     -14.065  -6.823  -8.647  1.00  0.00     0.000 C 
BRANCH   3   4
ATOM      4  C   UNL     1     -14.209  -7.056  -7.135  1.00  0.00     0.000 C 
BRANCH   4   5
ATOM      5  C   UNL     1     -12.836  -7.196  -6.468  1.00  0.00     0.000 C 
BRANCH   5   6
ATOM      6  C   UNL     1     -12.486  -5.940  -5.662  1.00  0.00     0.000 C 
BRANCH   6   7
ATOM      7  C   UNL     1     -11.055  -5.471  -5.968  1.00  0.00     0.006 C 
BRANCH   7   8
ATOM      8  C   UNL     1     -10.527  -6.041  -7.290  1.00  0.00     0.053 C 
BRANCH   8   9
ATOM      9  C   UNL     1     -10.182  -4.956  -8.265  1.00  0.00     0.041 C 
ATOM     10  O   UNL     1      -8.978  -4.660  -8.483  1.00  0.00    -0.550 OA
ATOM     11  O   UNL     1     -11.192  -4.250  -8.906  1.00  0.00    -0.550 OA
ENDBRANCH   8   9
ENDBRANCH   7   8
ENDBRANCH   6   7
ENDBRANCH   5   6
ENDBRANCH   4   5
ENDBRANCH   3   4
ENDBRANCH   2   3
ENDBRANCH   1   2
BRANCH   1  12
ATOM     12  C   UNL     1     -15.125  -3.467 -10.419  1.00  0.00     0.000 C 
BRANCH  12  13
ATOM     13  C   UNL     1     -14.949  -1.950 -10.209  1.00  0.00    -0.000 C 
BRANCH  13  14
ATOM     14  C   UNL     1     -13.526  -1.416 -10.470  1.00  0.00    -0.000 C 
BRANCH  14  15
ATOM     15  C   UNL     1     -13.320   0.073 -10.144  1.00  0.00    -0.000 C 
BRANCH  15  16
ATOM     16  C   UNL     1     -14.617   0.776  -9.716  1.00  0.00    -0.000 C 
BRANCH  16  17
ATOM     17  C   UNL     1     -14.373   2.270  -9.456  1.00  0.00    -0.000 C 
BRANCH  17  18
ATOM     18  C   UNL     1     -12.871   2.611  -9.362  1.00  0.00    -0.000 C 
BRANCH  18  19
ATOM     19  C   UNL     1     -12.583   3.925  -8.617  1.00  0.00    -0.003 C 
ATOM     20  C   UNL     1     -13.658   4.280  -7.592  1.00  0.00     0.004 C 
ENDBRANCH  18  19
ENDBRANCH  17  18
ENDBRANCH  16  17
ENDBRANCH  15  16
ENDBRANCH  14  15
ENDBRANCH  13  14
ENDBRANCH  12  13
ENDBRANCH   1  12
TORSDOF 16
ENDMDL
MODEL 7
REMARK VINA RESULT:    -4.833     16.083     18.930
REMARK INTER + INTRA:         -10.614
REMARK INTER:                  -8.338
REMARK INTRA:                  -2.275
REMARK UNBOUND:                -1.261
REMARK SMILES CCCCCCCCCCCCCCCCCC(=O)[O-]
REMARK SMILES IDX 10 1 11 2 12 3 13 4 14 5 15 6 16 7 17 8 18 9 19 10 20 11
REMARK SMILES IDX 9 12 8 13 7 14 6 15 5 16 4 17 3 18 2 19 1 20
REMARK H PARENT
REMARK Flexibility Score: inf
ROOT
ATOM      1  C   UNL     1     -11.593   3.522   6.033  1.00  0.00     0.000 C 
ENDROOT
BRANCH   1   2
ATOM      2  C   UNL     1     -10.910   4.651   5.235  1.00  0.00     0.000 C 
BRANCH   2   3
ATOM      3  C   UNL     1      -9.790   5.393   5.986  1.00  0.00     0.000 C 
BRANCH   3   4
ATOM      4  C   UNL     1     -10.068   6.896   6.140  1.00  0.00     0.000 C 
BRANCH   4   5
ATOM      5  C   UNL     1      -8.761   7.683   6.294  1.00  0.00     0.000 C 
BRANCH   5   6
ATOM      6  C   UNL     1      -8.771   8.942   5.420  1.00  0.00     0.000 C 
BRANCH   6   7
ATOM      7  C   UNL     1      -7.340   9.414   5.118  1.00  0.00     0.006 C 
BRANCH   7   8
ATOM      8  C   UNL     1      -7.105  10.868   5.546  1.00  0.00     0.053 C 
BRANCH   8   9
ATOM      9  C   UNL     1      -6.666  10.963   6.975  1.00  0.00     0.041 C 
ATOM     10  O   UNL     1      -5.446  11.097   7.255  1.00  0.00    -0.550 OA
ATOM     11  O   UNL     1      -7.601  10.870   7.998  1.00  0.00    -0.550 OA
ENDBRANCH   8   9
ENDBRANCH   7   8
ENDBRANCH   6   7
ENDBRANCH   5   6
ENDBRANCH   4   5
ENDBRANCH   3   4
ENDBRANCH   2   3
ENDBRANCH   1   2
BRANCH   1  12
ATOM     12  C   UNL     1     -11.229   3.466   7.529  1.00  0.00     0.000 C 
BRANCH  12  13
ATOM     13  C   UNL     1     -12.284   4.070   8.477  1.00  0.00    -0.000 C 
BRANCH  13  14
ATOM     14  C   UNL     1     -11.890   5.416   9.118  1.00  0.00    -0.000 C 
BRANCH  14  15
ATOM     15  C   UNL     1     -12.916   6.548   8.934  1.00  0.00    -0.000 C 
BRANCH  15  16
ATOM     16  C   UNL     1     -13.686   6.447   7.609  1.00  0.00    -0.000 C 
BRANCH  16  17
ATOM     17  C   UNL     1     -13.493   7.715   6.762  1.00  0.00    -0.000 C 
BRANCH  17  18
ATOM     18  C   UNL     1     -13.676   7.444   5.254  1.00  0.00    -0.000 C 
BRANCH  18  19
ATOM     19  C   UNL     1     -14.136   6.010   4.938  1.00  0.00    -0.003 C 
ATOM     20  C   UNL     1     -14.104   5.686   3.446  1.00  0.00     0.004 C 
ENDBRANCH  18  19
ENDBRANCH  17  18
ENDBRANCH  16  17
ENDBRANCH  15  16
ENDBRANCH  14  15
ENDBRANCH  13  14
ENDBRANCH  12  13
ENDBRANCH   1  12
TORSDOF 16
ENDMDL
MODEL 8
REMARK VINA RESULT:    -4.671     15.942     18.197
REMARK INTER + INTRA:         -10.300
REMARK INTER:                  -7.849
REMARK INTRA:                  -2.451
REMARK UNBOUND:                -1.261
REMARK SMILES CCCCCCCCCCCCCCCCCC(=O)[O-]
REMARK SMILES IDX 10 1 11 2 12 3 13 4 14 5 15 6 16 7 17 8 18 9 19 10 20 11
REMARK SMILES IDX 9 12 8 13 7 14 6 15 5 16 4 17 3 18 2 19 1 20
REMARK H PARENT
REMARK Flexibility Score: inf
ROOT
ATOM      1  C   UNL     1      -9.509   6.354   5.461  1.00  0.00     0.000 C 
ENDROOT
BRANCH   1   2
ATOM      2  C   UNL     1      -9.481   5.305   6.590  1.00  0.00     0.000 C 
BRANCH   2   3
ATOM      3  C   UNL     1      -9.975   5.808   7.958  1.00  0.00     0.000 C 
BRANCH   3   4
ATOM      4  C   UNL     1     -10.792   4.756   8.722  1.00  0.00     0.000 C 
BRANCH   4   5
ATOM      5  C   UNL     1     -12.229   5.237   8.952  1.00  0.00     0.000 C 
BRANCH   5   6
ATOM      6  C   UNL     1     -12.468   6.596   8.285  1.00  0.00     0.000 C 
BRANCH   6   7
ATOM      7  C   UNL     1     -13.597   6.510   7.247  1.00  0.00     0.006 C 
BRANCH   7   8
ATOM      8  C   UNL     1     -13.080   6.664   5.811  1.00  0.00     0.053 C 
BRANCH   8   9
ATOM      9  C   UNL     1     -13.126   5.367   5.062  1.00  0.00     0.041 C 
ATOM     10  O   UNL     1     -13.687   5.306   3.936  1.00  0.00    -0.550 OA
ATOM     11  O   UNL     1     -12.578   4.219   5.621  1.00  0.00    -0.550 OA
ENDBRANCH   8   9
ENDBRANCH   7   8
ENDBRANCH   6   7
ENDBRANCH   5   6
ENDBRANCH   4   5
ENDBRANCH   3   4
ENDBRANCH   2   3
ENDBRANCH   1   2
BRANCH   1  12
ATOM     12  C   UNL     1      -9.441   7.821   5.929  1.00  0.00     0.000 C 
BRANCH  12  13
ATOM     13  C   UNL     1      -8.381   8.682   5.213  1.00  0.00    -0.000 C 
BRANCH  13  14
ATOM     14  C   UNL     1      -7.479   9.515   6.147  1.00  0.00    -0.000 C 
BRANCH  14  15
ATOM     15  C   UNL     1      -7.534  11.036   5.917  1.00  0.00    -0.000 C 
BRANCH  15  16
ATOM     16  C   UNL     1      -8.935  11.531   5.530  1.00  0.00    -0.000 C 
BRANCH  16  17
ATOM     17  C   UNL     1      -9.804  11.755   6.778  1.00  0.00    -0.000 C 
BRANCH  17  18
ATOM     18  C   UNL     1     -11.196  11.100   6.648  1.00  0.00    -0.000 C 
BRANCH  18  19
ATOM     19  C   UNL     1     -11.581  10.760   5.198  1.00  0.00    -0.003 C 
ATOM     20  C   UNL     1     -13.039  10.329   5.052  1.00  0.00     0.004 C 
ENDBRANCH  18  19
ENDBRANCH  17  18
ENDBRANCH  16  17
ENDBRANCH  15  16
ENDBRANCH  14  15
ENDBRANCH  13  14
ENDBRANCH  12  13
ENDBRANCH   1  12
TORSDOF 16
ENDMDL
MODEL 9
REMARK VINA RESULT:    -4.611     16.661     18.937
REMARK INTER + INTRA:         -10.184
REMARK INTER:                  -7.943
REMARK INTRA:                  -2.242
REMARK UNBOUND:                -1.261
REMARK SMILES CCCCCCCCCCCCCCCCCC(=O)[O-]
REMARK SMILES IDX 10 1 11 2 12 3 13 4 14 5 15 6 16 7 17 8 18 9 19 10 20 11
REMARK SMILES IDX 9 12 8 13 7 14 6 15 5 16 4 17 3 18 2 19 1 20
REMARK H PARENT
REMARK Flexibility Score: inf
ROOT
ATOM      1  C   UNL     1     -11.292   3.486   7.410  1.00  0.00     0.000 C 
ENDROOT
BRANCH   1   2
ATOM      2  C   UNL     1     -12.013   3.893   8.711  1.00  0.00     0.000 C 
BRANCH   2   3
ATOM      3  C   UNL     1     -11.892   5.381   9.084  1.00  0.00     0.000 C 
BRANCH   3   4
ATOM      4  C   UNL     1     -13.198   6.160   8.864  1.00  0.00     0.000 C 
BRANCH   4   5
ATOM      5  C   UNL     1     -12.958   7.397   7.992  1.00  0.00     0.000 C 
BRANCH   5   6
ATOM      6  C   UNL     1     -13.699   7.280   6.655  1.00  0.00     0.000 C 
BRANCH   6   7
ATOM      7  C   UNL     1     -13.442   8.512   5.773  1.00  0.00     0.006 C 
BRANCH   7   8
ATOM      8  C   UNL     1     -12.282   9.369   6.295  1.00  0.00     0.053 C 
BRANCH   8   9
ATOM      9  C   UNL     1     -11.958  10.494   5.361  1.00  0.00     0.041 C 
ATOM     10  O   UNL     1     -10.758  10.795   5.124  1.00  0.00    -0.550 OA
ATOM     11  O   UNL     1     -12.980  11.232   4.778  1.00  0.00    -0.550 OA
ENDBRANCH   8   9
ENDBRANCH   7   8
ENDBRANCH   6   7
ENDBRANCH   5   6
ENDBRANCH   4   5
ENDBRANCH   3   4
ENDBRANCH   2   3
ENDBRANCH   1   2
BRANCH   1  12
ATOM     12  C   UNL     1     -11.944   4.005   6.113  1.00  0.00     0.000 C 
BRANCH  12  13
ATOM     13  C   UNL     1     -11.159   5.120   5.394  1.00  0.00    -0.000 C 
BRANCH  13  14
ATOM     14  C   UNL     1      -9.737   5.371   5.937  1.00  0.00    -0.000 C 
BRANCH  14  15
ATOM     15  C   UNL     1      -9.528   6.744   6.600  1.00  0.00    -0.000 C 
BRANCH  15  16
ATOM     16  C   UNL     1      -9.046   7.817   5.614  1.00  0.00    -0.000 C 
BRANCH  16  17
ATOM     17  C   UNL     1      -8.023   8.753   6.275  1.00  0.00    -0.000 C 
BRANCH  17  18
ATOM     18  C   UNL     1      -7.211   9.558   5.239  1.00  0.00    -0.000 C 
BRANCH  18  19
ATOM     19  C   UNL     1      -6.696  10.906   5.773  1.00  0.00    -0.003 C 
ATOM     20  C   UNL     1      -5.308  10.811   6.401  1.00  0.00     0.004 C 
ENDBRANCH  18  19
ENDBRANCH  17  18
ENDBRANCH  16  17
ENDBRANCH  15  16
ENDBRANCH  14  15
ENDBRANCH  13  14
ENDBRANCH  12  13
ENDBRANCH   1  12
TORSDOF 16
ENDMDL
