MODEL 1
REMARK VINA RESULT:    -1.475      0.000      0.000
REMARK INTER + INTRA:          -1.894
REMARK INTER:                  -1.777
REMARK INTRA:                  -0.117
REMARK UNBOUND:                -0.117
REMARK SMILES CC[C@@H](C)[C@@H]([NH3+])C(=O)[O-]
REMARK SMILES IDX 3 1 4 2 5 3 6 4 7 8 8 9 9 10 2 11 1 12
REMARK H PARENT 6 5 6 6 6 7
REMARK Flexibility Score: inf
ROOT
ATOM      1  C   UNL     1     152.347 136.858  94.961  1.00  0.00     0.050 C 
ATOM      2  C   UNL     1     151.890 135.763  93.981  1.00  0.00     0.014 C 
ENDROOT
BRANCH   1   3
ATOM      3  C   UNL     1     152.532 136.268  96.400  1.00  0.00     0.230 C 
BRANCH   3   4
ATOM      4  N   UNL     1     153.017 134.879  96.390  1.00  0.00    -0.350 N 
ATOM      5  H   UNL     1     152.459 134.286  95.734  1.00  0.00     0.345 HD
ATOM      6  H   UNL     1     154.016 134.861  96.082  1.00  0.00     0.345 HD
ATOM      7  H   UNL     1     152.974 134.467  97.349  1.00  0.00     0.345 HD
ENDBRANCH   3   4
BRANCH   3   8
ATOM      8  C   UNL     1     153.407 137.148  97.263  1.00  0.00     0.099 C 
ATOM      9  O   UNL     1     152.954 138.230  97.719  1.00  0.00    -0.544 OA
ATOM     10  O   UNL     1     154.703 136.765  97.592  1.00  0.00    -0.544 OA
ENDBRANCH   3   8
ENDBRANCH   1   3
BRANCH   1  11
ATOM     11  C   UNL     1     153.588 137.582  94.377  1.00  0.00     0.006 C 
ATOM     12  C   UNL     1     153.314 139.024  93.952  1.00  0.00     0.004 C 
ENDBRANCH   1  11
TORSDOF 4
ENDMDL
MODEL 2
REMARK VINA RESULT:    -1.383      1.633      2.068
REMARK INTER + INTRA:          -1.783
REMARK INTER:                  -1.660
REMARK INTRA:                  -0.123
REMARK UNBOUND:                -0.117
REMARK SMILES CC[C@@H](C)[C@@H]([NH3+])C(=O)[O-]
REMARK SMILES IDX 3 1 4 2 5 3 6 4 7 8 8 9 9 10 2 11 1 12
REMARK H PARENT 6 5 6 6 6 7
REMARK Flexibility Score: inf
ROOT
ATOM      1  C   UNL     1     153.668 137.400  95.859  1.00  0.00     0.050 C 
ATOM      2  C   UNL     1     153.591 138.572  96.852  1.00  0.00     0.014 C 
ENDROOT
BRANCH   1   3
ATOM      3  C   UNL     1     152.613 136.300  96.220  1.00  0.00     0.230 C 
BRANCH   3   4
ATOM      4  N   UNL     1     152.492 135.263  95.182  1.00  0.00    -0.350 N 
ATOM      5  H   UNL     1     152.871 134.347  95.514  1.00  0.00     0.345 HD
ATOM      6  H   UNL     1     151.484 135.134  94.935  1.00  0.00     0.345 HD
ATOM      7  H   UNL     1     152.996 135.552  94.314  1.00  0.00     0.345 HD
ENDBRANCH   3   4
BRANCH   3   8
ATOM      8  C   UNL     1     152.874 135.690  97.577  1.00  0.00     0.099 C 
ATOM      9  O   UNL     1     151.983 135.731  98.466  1.00  0.00    -0.544 OA
ATOM     10  O   UNL     1     154.077 135.050  97.854  1.00  0.00    -0.544 OA
ENDBRANCH   3   8
ENDBRANCH   1   3
BRANCH   1  11
ATOM     11  C   UNL     1     153.583 137.949  94.411  1.00  0.00     0.006 C 
ATOM     12  C   UNL     1     152.395 138.882  94.176  1.00  0.00     0.004 C 
ENDBRANCH   1  11
TORSDOF 4
ENDMDL
MODEL 3
REMARK VINA RESULT:    -1.371      1.572      1.700
REMARK INTER + INTRA:          -1.768
REMARK INTER:                  -1.621
REMARK INTRA:                  -0.147
REMARK UNBOUND:                -0.117
REMARK SMILES CC[C@@H](C)[C@@H]([NH3+])C(=O)[O-]
REMARK SMILES IDX 3 1 4 2 5 3 6 4 7 8 8 9 9 10 2 11 1 12
REMARK H PARENT 6 5 6 6 6 7
REMARK Flexibility Score: inf
ROOT
ATOM      1  C   UNL     1     152.735 137.773  95.860  1.00  0.00     0.050 C 
ATOM      2  C   UNL     1     151.440 136.951  95.731  1.00  0.00     0.014 C 
ENDROOT
BRANCH   1   3
ATOM      3  C   UNL     1     153.519 137.368  97.154  1.00  0.00     0.230 C 
BRANCH   3   4
ATOM      4  N   UNL     1     154.609 136.416  96.886  1.00  0.00    -0.350 N 
ATOM      5  H   UNL     1     154.243 135.444  96.765  1.00  0.00     0.345 HD
ATOM      6  H   UNL     1     155.106 136.693  96.008  1.00  0.00     0.345 HD
ATOM      7  H   UNL     1     155.307 136.428  97.663  1.00  0.00     0.345 HD
ENDBRANCH   3   4
BRANCH   3   8
ATOM      8  C   UNL     1     154.020 138.575  97.912  1.00  0.00     0.099 C 
ATOM      9  O   UNL     1     153.882 139.726  97.421  1.00  0.00    -0.544 OA
ATOM     10  O   UNL     1     154.605 138.440  99.166  1.00  0.00    -0.544 OA
ENDBRANCH   3   8
ENDBRANCH   1   3
BRANCH   1  11
ATOM     11  C   UNL     1     153.539 137.670  94.538  1.00  0.00     0.006 C 
ATOM     12  C   UNL     1     153.848 139.024  93.900  1.00  0.00     0.004 C 
ENDBRANCH   1  11
TORSDOF 4
ENDMDL
MODEL 4
REMARK VINA RESULT:    -1.354      2.403      3.809
REMARK INTER + INTRA:          -1.748
REMARK INTER:                  -1.618
REMARK INTRA:                  -0.129
REMARK UNBOUND:                -0.117
REMARK SMILES CC[C@@H](C)[C@@H]([NH3+])C(=O)[O-]
REMARK SMILES IDX 3 1 4 2 5 3 6 4 7 8 8 9 9 10 2 11 1 12
REMARK H PARENT 6 5 6 6 6 7
REMARK Flexibility Score: inf
ROOT
ATOM      1  C   UNL     1     153.544 137.205  97.473  1.00  0.00     0.050 C 
ATOM      2  C   UNL     1     153.871 138.696  97.661  1.00  0.00     0.014 C 
ENDROOT
BRANCH   1   3
ATOM      3  C   UNL     1     152.811 136.968  96.109  1.00  0.00     0.230 C 
BRANCH   3   4
ATOM      4  N   UNL     1     153.695 137.154  94.947  1.00  0.00    -0.350 N 
ATOM      5  H   UNL     1     154.555 137.689  95.205  1.00  0.00     0.345 HD
ATOM      6  H   UNL     1     153.986 136.220  94.577  1.00  0.00     0.345 HD
ATOM      7  H   UNL     1     153.193 137.656  94.180  1.00  0.00     0.345 HD
ENDBRANCH   3   4
BRANCH   3   8
ATOM      8  C   UNL     1     152.122 135.624  96.063  1.00  0.00     0.099 C 
ATOM      9  O   UNL     1     151.539 135.183  97.088  1.00  0.00    -0.544 OA
ATOM     10  O   UNL     1     152.091 134.875  94.892  1.00  0.00    -0.544 OA
ENDBRANCH   3   8
ENDBRANCH   1   3
BRANCH   1  11
ATOM     11  C   UNL     1     154.831 136.368  97.687  1.00  0.00     0.006 C 
ATOM     12  C   UNL     1     154.788 135.482  98.932  1.00  0.00     0.004 C 
ENDBRANCH   1  11
TORSDOF 4
ENDMDL
MODEL 5
REMARK VINA RESULT:    -1.336      2.612      3.527
REMARK INTER + INTRA:          -1.727
REMARK INTER:                  -1.565
REMARK INTRA:                  -0.162
REMARK UNBOUND:                -0.117
REMARK SMILES CC[C@@H](C)[C@@H]([NH3+])C(=O)[O-]
REMARK SMILES IDX 3 1 4 2 5 3 6 4 7 8 8 9 9 10 2 11 1 12
REMARK H PARENT 6 5 6 6 6 7
REMARK Flexibility Score: inf
ROOT
ATOM      1  C   UNL     1     152.962 138.896  94.642  1.00  0.00     0.050 C 
ATOM      2  C   UNL     1     154.037 139.688  93.878  1.00  0.00     0.014 C 
ENDROOT
BRANCH   1   3
ATOM      3  C   UNL     1     153.313 137.370  94.665  1.00  0.00     0.230 C 
BRANCH   3   4
ATOM      4  N   UNL     1     153.926 136.945  95.934  1.00  0.00    -0.350 N 
ATOM      5  H   UNL     1     154.208 135.939  95.902  1.00  0.00     0.345 HD
ATOM      6  H   UNL     1     154.779 137.522  96.119  1.00  0.00     0.345 HD
ATOM      7  H   UNL     1     153.265 137.093  96.729  1.00  0.00     0.345 HD
ENDBRANCH   3   4
BRANCH   3   8
ATOM      8  C   UNL     1     152.119 136.510  94.318  1.00  0.00     0.099 C 
ATOM      9  O   UNL     1     152.184 135.261  94.459  1.00  0.00    -0.544 OA
ATOM     10  O   UNL     1     150.931 137.081  93.875  1.00  0.00    -0.544 OA
ENDBRANCH   3   8
ENDBRANCH   1   3
BRANCH   1  11
ATOM     11  C   UNL     1     152.740 139.546  96.032  1.00  0.00     0.006 C 
ATOM     12  C   UNL     1     151.303 139.434  96.540  1.00  0.00     0.004 C 
ENDBRANCH   1  11
TORSDOF 4
ENDMDL
MODEL 6
REMARK VINA RESULT:    -1.333      1.822      2.498
REMARK INTER + INTRA:          -1.723
REMARK INTER:                  -1.651
REMARK INTRA:                  -0.071
REMARK UNBOUND:                -0.117
REMARK SMILES CC[C@@H](C)[C@@H]([NH3+])C(=O)[O-]
REMARK SMILES IDX 3 1 4 2 5 3 6 4 7 8 8 9 9 10 2 11 1 12
REMARK H PARENT 6 5 6 6 6 7
REMARK Flexibility Score: inf
ROOT
ATOM      1  C   UNL     1     153.417 139.020  95.239  1.00  0.00     0.050 C 
ATOM      2  C   UNL     1     152.360 140.018  95.742  1.00  0.00     0.014 C 
ENDROOT
BRANCH   1   3
ATOM      3  C   UNL     1     152.847 137.561  95.245  1.00  0.00     0.230 C 
BRANCH   3   4
ATOM      4  N   UNL     1     153.250 136.785  94.061  1.00  0.00    -0.350 N 
ATOM      5  H   UNL     1     152.478 136.162  93.734  1.00  0.00     0.345 HD
ATOM      6  H   UNL     1     153.498 137.440  93.284  1.00  0.00     0.345 HD
ATOM      7  H   UNL     1     154.095 136.208  94.270  1.00  0.00     0.345 HD
ENDBRANCH   3   4
BRANCH   3   8
ATOM      8  C   UNL     1     153.185 136.827  96.522  1.00  0.00     0.099 C 
ATOM      9  O   UNL     1     152.412 135.934  96.956  1.00  0.00    -0.544 OA
ATOM     10  O   UNL     1     154.360 137.101  97.215  1.00  0.00    -0.544 OA
ENDBRANCH   3   8
ENDBRANCH   1   3
BRANCH   1  11
ATOM     11  C   UNL     1     153.973 139.507  93.875  1.00  0.00     0.006 C 
ATOM     12  C   UNL     1     154.750 140.820  93.962  1.00  0.00     0.004 C 
ENDBRANCH   1  11
TORSDOF 4
ENDMDL
MODEL 7
REMARK VINA RESULT:    -1.297      1.936      2.928
REMARK INTER + INTRA:          -1.679
REMARK INTER:                  -1.545
REMARK INTRA:                  -0.134
REMARK UNBOUND:                -0.117
REMARK SMILES CC[C@@H](C)[C@@H]([NH3+])C(=O)[O-]
REMARK SMILES IDX 3 1 4 2 5 3 6 4 7 8 8 9 9 10 2 11 1 12
REMARK H PARENT 6 5 6 6 6 7
REMARK Flexibility Score: inf
ROOT
ATOM      1  C   UNL     1     152.942 137.304  95.684  1.00  0.00     0.050 C 
ATOM      2  C   UNL     1     153.626 137.664  94.354  1.00  0.00     0.014 C 
ENDROOT
BRANCH   1   3
ATOM      3  C   UNL     1     151.869 136.183  95.468  1.00  0.00     0.230 C 
BRANCH   3   4
ATOM      4  N   UNL     1     152.465 134.884  95.115  1.00  0.00    -0.350 N 
ATOM      5  H   UNL     1     151.858 134.356  94.448  1.00  0.00     0.345 HD
ATOM      6  H   UNL     1     153.396 135.039  94.665  1.00  0.00     0.345 HD
ATOM      7  H   UNL     1     152.619 134.307  95.972  1.00  0.00     0.345 HD
ENDBRANCH   3   4
BRANCH   3   8
ATOM      8  C   UNL     1     150.937 136.057  96.651  1.00  0.00     0.099 C 
ATOM      9  O   UNL     1     150.519 134.922  97.001  1.00  0.00    -0.544 OA
ATOM     10  O   UNL     1     150.557 137.174  97.385  1.00  0.00    -0.544 OA
ENDBRANCH   3   8
ENDBRANCH   1   3
BRANCH   1  11
ATOM     11  C   UNL     1     154.026 136.987  96.747  1.00  0.00     0.006 C 
ATOM     12  C   UNL     1     154.034 137.960  97.925  1.00  0.00     0.004 C 
ENDBRANCH   1  11
TORSDOF 4
ENDMDL
MODEL 8
REMARK VINA RESULT:    -1.282      1.842      2.355
REMARK INTER + INTRA:          -1.662
REMARK INTER:                  -1.573
REMARK INTRA:                  -0.089
REMARK UNBOUND:                -0.117
REMARK SMILES CC[C@@H](C)[C@@H]([NH3+])C(=O)[O-]
REMARK SMILES IDX 3 1 4 2 5 3 6 4 7 8 8 9 9 10 2 11 1 12
REMARK H PARENT 6 5 6 6 6 7
REMARK Flexibility Score: inf
ROOT
ATOM      1  C   UNL     1     152.830 136.812  96.819  1.00  0.00     0.050 C 
ATOM      2  C   UNL     1     151.718 136.044  96.084  1.00  0.00     0.014 C 
ENDROOT
BRANCH   1   3
ATOM      3  C   UNL     1     153.685 135.839  97.699  1.00  0.00     0.230 C 
BRANCH   3   4
ATOM      4  N   UNL     1     155.114 135.855  97.344  1.00  0.00    -0.350 N 
ATOM      5  H   UNL     1     155.594 134.983  97.661  1.00  0.00     0.345 HD
ATOM      6  H   UNL     1     155.214 135.929  96.306  1.00  0.00     0.345 HD
ATOM      7  H   UNL     1     155.588 136.684  97.768  1.00  0.00     0.345 HD
ENDBRANCH   3   4
BRANCH   3   8
ATOM      8  C   UNL     1     153.484 136.089  99.176  1.00  0.00     0.099 C 
ATOM      9  O   UNL     1     154.471 136.058  99.957  1.00  0.00    -0.544 OA
ATOM     10  O   UNL     1     152.226 136.387  99.686  1.00  0.00    -0.544 OA
ENDBRANCH   3   8
ENDBRANCH   1   3
BRANCH   1  11
ATOM     11  C   UNL     1     153.632 137.655  95.793  1.00  0.00     0.006 C 
ATOM     12  C   UNL     1     153.209 137.424  94.343  1.00  0.00     0.004 C 
ENDBRANCH   1  11
TORSDOF 4
ENDMDL
MODEL 9
REMARK VINA RESULT:    -1.265      2.375      3.763
REMARK INTER + INTRA:          -1.641
REMARK INTER:                  -1.550
REMARK INTRA:                  -0.090
REMARK UNBOUND:                -0.117
REMARK SMILES CC[C@@H](C)[C@@H]([NH3+])C(=O)[O-]
REMARK SMILES IDX 3 1 4 2 5 3 6 4 7 8 8 9 9 10 2 11 1 12
REMARK H PARENT 6 5 6 6 6 7
REMARK Flexibility Score: inf
ROOT
ATOM      1  C   UNL     1     153.008 137.226  96.437  1.00  0.00     0.050 C 
ATOM      2  C   UNL     1     154.095 137.663  97.434  1.00  0.00     0.014 C 
ENDROOT
BRANCH   1   3
ATOM      3  C   UNL     1     153.499 137.420  94.963  1.00  0.00     0.230 C 
BRANCH   3   4
ATOM      4  N   UNL     1     152.919 136.438  94.034  1.00  0.00    -0.350 N 
ATOM      5  H   UNL     1     152.577 136.897  93.159  1.00  0.00     0.345 HD
ATOM      6  H   UNL     1     153.646 135.732  93.774  1.00  0.00     0.345 HD
ATOM      7  H   UNL     1     152.129 135.926  94.487  1.00  0.00     0.345 HD
ENDBRANCH   3   4
BRANCH   3   8
ATOM      8  C   UNL     1     153.278 138.834  94.476  1.00  0.00     0.099 C 
ATOM      9  O   UNL     1     154.202 139.442  93.875  1.00  0.00    -0.544 OA
ATOM     10  O   UNL     1     152.053 139.467  94.650  1.00  0.00    -0.544 OA
ENDBRANCH   3   8
ENDBRANCH   1   3
BRANCH   1  11
ATOM     11  C   UNL     1     152.534 135.792  96.794  1.00  0.00     0.006 C 
ATOM     12  C   UNL     1     153.427 135.086  97.813  1.00  0.00     0.004 C 
ENDBRANCH   1  11
TORSDOF 4
ENDMDL
