MODEL 1
REMARK VINA RESULT:     9.786      0.000      0.000
REMARK INTER + INTRA:          18.340
REMARK INTER:                  18.939
REMARK INTRA:                  -0.599
REMARK UNBOUND:                -0.599
REMARK SMILES CCCCCCCCCCCCCCCCCC(=O)[O-]
REMARK SMILES IDX 10 1 11 2 12 3 13 4 14 5 15 6 16 7 17 8 18 9 19 10 20 11
REMARK SMILES IDX 9 12 8 13 7 14 6 15 5 16 4 17 3 18 2 19 1 20
REMARK H PARENT
REMARK Flexibility Score: inf
ROOT
ATOM      1  C   UNL     1      27.225  30.391  -0.071  1.00  0.00     0.000 C 
ENDROOT
BRANCH   1   2
ATOM      2  C   UNL     1      26.413  30.133  -1.352  1.00  0.00     0.000 C 
BRANCH   2   3
ATOM      3  C   UNL     1      26.439  31.269  -2.392  1.00  0.00     0.000 C 
BRANCH   3   4
ATOM      4  C   UNL     1      27.308  30.941  -3.618  1.00  0.00     0.000 C 
BRANCH   4   5
ATOM      5  C   UNL     1      26.492  30.380  -4.797  1.00  0.00     0.000 C 
BRANCH   5   6
ATOM      6  C   UNL     1      25.725  31.430  -5.627  1.00  0.00     0.000 C 
BRANCH   6   7
ATOM      7  C   UNL     1      25.962  31.363  -7.147  1.00  0.00     0.006 C 
BRANCH   7   8
ATOM      8  C   UNL     1      25.000  32.257  -7.939  1.00  0.00     0.053 C 
BRANCH   8   9
ATOM      9  C   UNL     1      23.632  31.652  -7.967  1.00  0.00     0.041 C 
ATOM     10  O   UNL     1      22.611  32.389  -7.918  1.00  0.00    -0.550 OA
ATOM     11  O   UNL     1      23.483  30.271  -7.991  1.00  0.00    -0.550 OA
ENDBRANCH   8   9
ENDBRANCH   7   8
ENDBRANCH   6   7
ENDBRANCH   5   6
ENDBRANCH   4   5
ENDBRANCH   3   4
ENDBRANCH   2   3
ENDBRANCH   1   2
BRANCH   1  12
ATOM     12  C   UNL     1      26.856  29.437   1.079  1.00  0.00     0.000 C 
BRANCH  12  13
ATOM     13  C   UNL     1      27.866  28.293   1.244  1.00  0.00    -0.000 C 
BRANCH  13  14
ATOM     14  C   UNL     1      28.233  28.028   2.715  1.00  0.00    -0.000 C 
BRANCH  14  15
ATOM     15  C   UNL     1      27.557  29.015   3.682  1.00  0.00    -0.000 C 
BRANCH  15  16
ATOM     16  C   UNL     1      28.366  29.336   4.957  1.00  0.00    -0.000 C 
BRANCH  16  17
ATOM     17  C   UNL     1      27.520  29.722   6.183  1.00  0.00    -0.000 C 
BRANCH  17  18
ATOM     18  C   UNL     1      28.362  30.327   7.319  1.00  0.00    -0.000 C 
BRANCH  18  19
ATOM     19  C   UNL     1      29.252  31.484   6.838  1.00  0.00    -0.003 C 
ATOM     20  C   UNL     1      30.298  31.893   7.874  1.00  0.00     0.004 C 
ENDBRANCH  18  19
ENDBRANCH  17  18
ENDBRANCH  16  17
ENDBRANCH  15  16
ENDBRANCH  14  15
ENDBRANCH  13  14
ENDBRANCH  12  13
ENDBRANCH   1  12
TORSDOF 16
ENDMDL
MODEL 2
REMARK VINA RESULT:    10.086     13.699     15.904
REMARK INTER + INTRA:          18.922
REMARK INTER:                  19.784
REMARK INTRA:                  -0.863
REMARK UNBOUND:                -0.599
REMARK SMILES CCCCCCCCCCCCCCCCCC(=O)[O-]
REMARK SMILES IDX 10 1 11 2 12 3 13 4 14 5 15 6 16 7 17 8 18 9 19 10 20 11
REMARK SMILES IDX 9 12 8 13 7 14 6 15 5 16 4 17 3 18 2 19 1 20
REMARK H PARENT
REMARK Flexibility Score: inf
ROOT
ATOM      1  C   UNL     1      25.878  42.834   3.731  1.00  0.00     0.000 C 
ENDROOT
BRANCH   1   2
ATOM      2  C   UNL     1      24.842  43.367   2.724  1.00  0.00     0.000 C 
BRANCH   2   3
ATOM      3  C   UNL     1      23.861  42.319   2.166  1.00  0.00     0.000 C 
BRANCH   3   4
ATOM      4  C   UNL     1      22.698  42.016   3.125  1.00  0.00     0.000 C 
BRANCH   4   5
ATOM      5  C   UNL     1      22.992  42.439   4.576  1.00  0.00     0.000 C 
BRANCH   5   6
ATOM      6  C   UNL     1      23.036  41.288   5.603  1.00  0.00     0.000 C 
BRANCH   6   7
ATOM      7  C   UNL     1      24.313  40.430   5.568  1.00  0.00     0.006 C 
BRANCH   7   8
ATOM      8  C   UNL     1      24.489  39.574   6.829  1.00  0.00     0.053 C 
BRANCH   8   9
ATOM      9  C   UNL     1      25.662  38.659   6.677  1.00  0.00     0.041 C 
ATOM     10  O   UNL     1      25.724  37.861   5.705  1.00  0.00    -0.550 OA
ATOM     11  O   UNL     1      26.662  38.646   7.641  1.00  0.00    -0.550 OA
ENDBRANCH   8   9
ENDBRANCH   7   8
ENDBRANCH   6   7
ENDBRANCH   5   6
ENDBRANCH   4   5
ENDBRANCH   3   4
ENDBRANCH   2   3
ENDBRANCH   1   2
BRANCH   1  12
ATOM     12  C   UNL     1      26.607  43.953   4.495  1.00  0.00     0.000 C 
BRANCH  12  13
ATOM     13  C   UNL     1      27.936  44.350   3.835  1.00  0.00    -0.000 C 
BRANCH  13  14
ATOM     14  C   UNL     1      28.354  45.795   4.160  1.00  0.00    -0.000 C 
BRANCH  14  15
ATOM     15  C   UNL     1      27.285  46.558   4.960  1.00  0.00    -0.000 C 
BRANCH  15  16
ATOM     16  C   UNL     1      27.837  47.541   6.013  1.00  0.00    -0.000 C 
BRANCH  16  17
ATOM     17  C   UNL     1      27.157  47.466   7.392  1.00  0.00    -0.000 C 
BRANCH  17  18
ATOM     18  C   UNL     1      26.079  46.371   7.465  1.00  0.00    -0.000 C 
BRANCH  18  19
ATOM     19  C   UNL     1      24.657  46.950   7.532  1.00  0.00    -0.003 C 
ATOM     20  C   UNL     1      23.904  46.516   8.788  1.00  0.00     0.004 C 
ENDBRANCH  18  19
ENDBRANCH  17  18
ENDBRANCH  16  17
ENDBRANCH  15  16
ENDBRANCH  14  15
ENDBRANCH  13  14
ENDBRANCH  12  13
ENDBRANCH   1  12
TORSDOF 16
ENDMDL
MODEL 3
REMARK VINA RESULT:    10.394     13.218     15.555
REMARK INTER + INTRA:          19.517
REMARK INTER:                  20.394
REMARK INTRA:                  -0.877
REMARK UNBOUND:                -0.599
REMARK SMILES CCCCCCCCCCCCCCCCCC(=O)[O-]
REMARK SMILES IDX 10 1 11 2 12 3 13 4 14 5 15 6 16 7 17 8 18 9 19 10 20 11
REMARK SMILES IDX 9 12 8 13 7 14 6 15 5 16 4 17 3 18 2 19 1 20
REMARK H PARENT
REMARK Flexibility Score: inf
ROOT
ATOM      1  C   UNL     1      25.082  42.329   2.759  1.00  0.00     0.000 C 
ENDROOT
BRANCH   1   2
ATOM      2  C   UNL     1      23.654  42.286   2.184  1.00  0.00     0.000 C 
BRANCH   2   3
ATOM      3  C   UNL     1      22.522  42.494   3.208  1.00  0.00     0.000 C 
BRANCH   3   4
ATOM      4  C   UNL     1      23.033  42.606   4.653  1.00  0.00     0.000 C 
BRANCH   4   5
ATOM      5  C   UNL     1      22.964  41.271   5.418  1.00  0.00     0.000 C 
BRANCH   5   6
ATOM      6  C   UNL     1      24.327  40.637   5.765  1.00  0.00     0.000 C 
BRANCH   6   7
ATOM      7  C   UNL     1      24.326  39.726   7.006  1.00  0.00     0.006 C 
BRANCH   7   8
ATOM      8  C   UNL     1      25.715  39.160   7.328  1.00  0.00     0.053 C 
BRANCH   8   9
ATOM      9  C   UNL     1      26.135  38.182   6.278  1.00  0.00     0.041 C 
ATOM     10  O   UNL     1      25.335  37.294   5.882  1.00  0.00    -0.550 OA
ATOM     11  O   UNL     1      27.430  38.215   5.776  1.00  0.00    -0.550 OA
ENDBRANCH   8   9
ENDBRANCH   7   8
ENDBRANCH   6   7
ENDBRANCH   5   6
ENDBRANCH   4   5
ENDBRANCH   3   4
ENDBRANCH   2   3
ENDBRANCH   1   2
BRANCH   1  12
ATOM     12  C   UNL     1      25.500  43.733   3.230  1.00  0.00     0.000 C 
BRANCH  12  13
ATOM     13  C   UNL     1      26.544  43.691   4.356  1.00  0.00    -0.000 C 
BRANCH  13  14
ATOM     14  C   UNL     1      27.946  44.119   3.886  1.00  0.00    -0.000 C 
BRANCH  14  15
ATOM     15  C   UNL     1      28.239  45.603   4.166  1.00  0.00    -0.000 C 
BRANCH  15  16
ATOM     16  C   UNL     1      27.174  46.329   5.015  1.00  0.00    -0.000 C 
BRANCH  16  17
ATOM     17  C   UNL     1      27.730  47.371   6.002  1.00  0.00    -0.000 C 
BRANCH  17  18
ATOM     18  C   UNL     1      27.012  47.344   7.362  1.00  0.00    -0.000 C 
BRANCH  18  19
ATOM     19  C   UNL     1      25.933  46.252   7.434  1.00  0.00    -0.003 C 
ATOM     20  C   UNL     1      24.573  46.795   7.871  1.00  0.00     0.004 C 
ENDBRANCH  18  19
ENDBRANCH  17  18
ENDBRANCH  16  17
ENDBRANCH  15  16
ENDBRANCH  14  15
ENDBRANCH  13  14
ENDBRANCH  12  13
ENDBRANCH   1  12
TORSDOF 16
ENDMDL
MODEL 4
REMARK VINA RESULT:    10.412     12.215     13.603
REMARK INTER + INTRA:          19.553
REMARK INTER:                  20.089
REMARK INTRA:                  -0.536
REMARK UNBOUND:                -0.599
REMARK SMILES CCCCCCCCCCCCCCCCCC(=O)[O-]
REMARK SMILES IDX 10 1 11 2 12 3 13 4 14 5 15 6 16 7 17 8 18 9 19 10 20 11
REMARK SMILES IDX 9 12 8 13 7 14 6 15 5 16 4 17 3 18 2 19 1 20
REMARK H PARENT
REMARK Flexibility Score: inf
ROOT
ATOM      1  C   UNL     1      26.017  43.101   4.078  1.00  0.00     0.000 C 
ENDROOT
BRANCH   1   2
ATOM      2  C   UNL     1      26.739  44.274   4.766  1.00  0.00     0.000 C 
BRANCH   2   3
ATOM      3  C   UNL     1      27.620  45.139   3.847  1.00  0.00     0.000 C 
BRANCH   3   4
ATOM      4  C   UNL     1      28.978  44.490   3.532  1.00  0.00     0.000 C 
BRANCH   4   5
ATOM      5  C   UNL     1      29.398  44.661   2.060  1.00  0.00     0.000 C 
BRANCH   5   6
ATOM      6  C   UNL     1      29.700  43.351   1.303  1.00  0.00     0.000 C 
BRANCH   6   7
ATOM      7  C   UNL     1      30.351  43.532  -0.080  1.00  0.00     0.006 C 
BRANCH   7   8
ATOM      8  C   UNL     1      30.244  42.277  -0.956  1.00  0.00     0.053 C 
BRANCH   8   9
ATOM      9  C   UNL     1      29.460  42.574  -2.195  1.00  0.00     0.041 C 
ATOM     10  O   UNL     1      29.667  43.636  -2.838  1.00  0.00    -0.550 OA
ATOM     11  O   UNL     1      28.462  41.702  -2.610  1.00  0.00    -0.550 OA
ENDBRANCH   8   9
ENDBRANCH   7   8
ENDBRANCH   6   7
ENDBRANCH   5   6
ENDBRANCH   4   5
ENDBRANCH   3   4
ENDBRANCH   2   3
ENDBRANCH   1   2
BRANCH   1  12
ATOM     12  C   UNL     1      25.180  43.538   2.863  1.00  0.00     0.000 C 
BRANCH  12  13
ATOM     13  C   UNL     1      24.214  42.443   2.387  1.00  0.00    -0.000 C 
BRANCH  13  14
ATOM     14  C   UNL     1      22.849  42.503   3.094  1.00  0.00    -0.000 C 
BRANCH  14  15
ATOM     15  C   UNL     1      22.976  42.572   4.626  1.00  0.00    -0.000 C 
BRANCH  15  16
ATOM     16  C   UNL     1      23.020  41.204   5.339  1.00  0.00    -0.000 C 
BRANCH  16  17
ATOM     17  C   UNL     1      24.384  40.492   5.296  1.00  0.00    -0.000 C 
BRANCH  17  18
ATOM     18  C   UNL     1      24.637  39.617   6.536  1.00  0.00    -0.000 C 
BRANCH  18  19
ATOM     19  C   UNL     1      25.809  38.643   6.337  1.00  0.00    -0.003 C 
ATOM     20  C   UNL     1      26.601  38.404   7.621  1.00  0.00     0.004 C 
ENDBRANCH  18  19
ENDBRANCH  17  18
ENDBRANCH  16  17
ENDBRANCH  15  16
ENDBRANCH  14  15
ENDBRANCH  13  14
ENDBRANCH  12  13
ENDBRANCH   1  12
TORSDOF 16
ENDMDL
MODEL 5
REMARK VINA RESULT:    10.449     12.670     15.298
REMARK INTER + INTRA:          19.624
REMARK INTER:                  20.304
REMARK INTRA:                  -0.679
REMARK UNBOUND:                -0.599
REMARK SMILES CCCCCCCCCCCCCCCCCC(=O)[O-]
REMARK SMILES IDX 10 1 11 2 12 3 13 4 14 5 15 6 16 7 17 8 18 9 19 10 20 11
REMARK SMILES IDX 9 12 8 13 7 14 6 15 5 16 4 17 3 18 2 19 1 20
REMARK H PARENT
REMARK Flexibility Score: inf
ROOT
ATOM      1  C   UNL     1      26.116  43.270   4.238  1.00  0.00     0.000 C 
ENDROOT
BRANCH   1   2
ATOM      2  C   UNL     1      25.252  43.665   3.027  1.00  0.00     0.000 C 
BRANCH   2   3
ATOM      3  C   UNL     1      24.556  42.498   2.302  1.00  0.00     0.000 C 
BRANCH   3   4
ATOM      4  C   UNL     1      23.191  42.142   2.913  1.00  0.00     0.000 C 
BRANCH   4   5
ATOM      5  C   UNL     1      23.091  42.500   4.407  1.00  0.00     0.000 C 
BRANCH   5   6
ATOM      6  C   UNL     1      23.070  41.299   5.375  1.00  0.00     0.000 C 
BRANCH   6   7
ATOM      7  C   UNL     1      24.437  40.636   5.622  1.00  0.00     0.006 C 
BRANCH   7   8
ATOM      8  C   UNL     1      24.387  39.562   6.717  1.00  0.00     0.053 C 
BRANCH   8   9
ATOM      9  C   UNL     1      25.597  38.686   6.643  1.00  0.00     0.041 C 
ATOM     10  O   UNL     1      26.550  38.851   7.449  1.00  0.00    -0.550 OA
ATOM     11  O   UNL     1      25.697  37.723   5.647  1.00  0.00    -0.550 OA
ENDBRANCH   8   9
ENDBRANCH   7   8
ENDBRANCH   6   7
ENDBRANCH   5   6
ENDBRANCH   4   5
ENDBRANCH   3   4
ENDBRANCH   2   3
ENDBRANCH   1   2
BRANCH   1  12
ATOM     12  C   UNL     1      26.803  44.474   4.906  1.00  0.00     0.000 C 
BRANCH  12  13
ATOM     13  C   UNL     1      27.787  45.189   3.967  1.00  0.00    -0.000 C 
BRANCH  13  14
ATOM     14  C   UNL     1      28.942  44.280   3.510  1.00  0.00    -0.000 C 
BRANCH  14  15
ATOM     15  C   UNL     1      29.338  44.516   2.042  1.00  0.00    -0.000 C 
BRANCH  15  16
ATOM     16  C   UNL     1      29.725  43.244   1.260  1.00  0.00    -0.000 C 
BRANCH  16  17
ATOM     17  C   UNL     1      30.373  43.498  -0.113  1.00  0.00    -0.000 C 
BRANCH  17  18
ATOM     18  C   UNL     1      30.049  42.396  -1.137  1.00  0.00    -0.000 C 
BRANCH  18  19
ATOM     19  C   UNL     1      29.590  42.968  -2.488  1.00  0.00    -0.003 C 
ATOM     20  C   UNL     1      28.833  41.945  -3.333  1.00  0.00     0.004 C 
ENDBRANCH  18  19
ENDBRANCH  17  18
ENDBRANCH  16  17
ENDBRANCH  15  16
ENDBRANCH  14  15
ENDBRANCH  13  14
ENDBRANCH  12  13
ENDBRANCH   1  12
TORSDOF 16
ENDMDL
MODEL 6
REMARK VINA RESULT:    10.478      0.999      1.551
REMARK INTER + INTRA:          19.680
REMARK INTER:                  20.286
REMARK INTRA:                  -0.605
REMARK UNBOUND:                -0.599
REMARK SMILES CCCCCCCCCCCCCCCCCC(=O)[O-]
REMARK SMILES IDX 10 1 11 2 12 3 13 4 14 5 15 6 16 7 17 8 18 9 19 10 20 11
REMARK SMILES IDX 9 12 8 13 7 14 6 15 5 16 4 17 3 18 2 19 1 20
REMARK H PARENT
REMARK Flexibility Score: inf
ROOT
ATOM      1  C   UNL     1      26.976  30.882  -1.141  1.00  0.00     0.000 C 
ENDROOT
BRANCH   1   2
ATOM      2  C   UNL     1      26.219  31.140  -2.457  1.00  0.00     0.000 C 
BRANCH   2   3
ATOM      3  C   UNL     1      27.078  31.093  -3.734  1.00  0.00     0.000 C 
BRANCH   3   4
ATOM      4  C   UNL     1      26.662  29.967  -4.695  1.00  0.00     0.000 C 
BRANCH   4   5
ATOM      5  C   UNL     1      25.800  30.468  -5.868  1.00  0.00     0.000 C 
BRANCH   5   6
ATOM      6  C   UNL     1      26.434  31.584  -6.724  1.00  0.00     0.000 C 
BRANCH   6   7
ATOM      7  C   UNL     1      25.608  32.016  -7.950  1.00  0.00     0.006 C 
BRANCH   7   8
ATOM      8  C   UNL     1      24.098  31.850  -7.737  1.00  0.00     0.053 C 
BRANCH   8   9
ATOM      9  C   UNL     1      23.399  33.160  -7.923  1.00  0.00     0.041 C 
ATOM     10  O   UNL     1      24.044  34.239  -7.848  1.00  0.00    -0.550 OA
ATOM     11  O   UNL     1      22.025  33.192  -8.123  1.00  0.00    -0.550 OA
ENDBRANCH   8   9
ENDBRANCH   7   8
ENDBRANCH   6   7
ENDBRANCH   5   6
ENDBRANCH   4   5
ENDBRANCH   3   4
ENDBRANCH   2   3
ENDBRANCH   1   2
BRANCH   1  12
ATOM     12  C   UNL     1      26.415  29.689  -0.347  1.00  0.00     0.000 C 
BRANCH  12  13
ATOM     13  C   UNL     1      26.868  29.692   1.120  1.00  0.00    -0.000 C 
BRANCH  13  14
ATOM     14  C   UNL     1      27.869  28.567   1.438  1.00  0.00    -0.000 C 
BRANCH  14  15
ATOM     15  C   UNL     1      27.980  28.278   2.944  1.00  0.00    -0.000 C 
BRANCH  15  16
ATOM     16  C   UNL     1      27.464  29.404   3.864  1.00  0.00    -0.000 C 
BRANCH  16  17
ATOM     17  C   UNL     1      28.040  29.393   5.291  1.00  0.00    -0.000 C 
BRANCH  17  18
ATOM     18  C   UNL     1      28.216  30.806   5.873  1.00  0.00    -0.000 C 
BRANCH  18  19
ATOM     19  C   UNL     1      28.632  30.784   7.352  1.00  0.00    -0.003 C 
ATOM     20  C   UNL     1      29.847  31.666   7.635  1.00  0.00     0.004 C 
ENDBRANCH  18  19
ENDBRANCH  17  18
ENDBRANCH  16  17
ENDBRANCH  15  16
ENDBRANCH  14  15
ENDBRANCH  13  14
ENDBRANCH  12  13
ENDBRANCH   1  12
TORSDOF 16
ENDMDL
MODEL 7
REMARK VINA RESULT:    10.520      5.333     11.855
REMARK INTER + INTRA:          19.762
REMARK INTER:                  20.319
REMARK INTRA:                  -0.557
REMARK UNBOUND:                -0.599
REMARK SMILES CCCCCCCCCCCCCCCCCC(=O)[O-]
REMARK SMILES IDX 10 1 11 2 12 3 13 4 14 5 15 6 16 7 17 8 18 9 19 10 20 11
REMARK SMILES IDX 9 12 8 13 7 14 6 15 5 16 4 17 3 18 2 19 1 20
REMARK H PARENT
REMARK Flexibility Score: inf
ROOT
ATOM      1  C   UNL     1      27.378  30.278  -0.284  1.00  0.00     0.000 C 
ENDROOT
BRANCH   1   2
ATOM      2  C   UNL     1      26.817  29.342   0.802  1.00  0.00     0.000 C 
BRANCH   2   3
ATOM      3  C   UNL     1      27.626  28.055   1.048  1.00  0.00     0.000 C 
BRANCH   3   4
ATOM      4  C   UNL     1      28.093  27.910   2.506  1.00  0.00     0.000 C 
BRANCH   4   5
ATOM      5  C   UNL     1      27.803  29.161   3.355  1.00  0.00     0.000 C 
BRANCH   5   6
ATOM      6  C   UNL     1      27.758  28.929   4.879  1.00  0.00     0.000 C 
BRANCH   6   7
ATOM      7  C   UNL     1      27.672  30.207   5.733  1.00  0.00     0.006 C 
BRANCH   7   8
ATOM      8  C   UNL     1      28.535  30.136   6.999  1.00  0.00     0.053 C 
BRANCH   8   9
ATOM      9  C   UNL     1      29.000  31.503   7.390  1.00  0.00     0.041 C 
ATOM     10  O   UNL     1      30.222  31.721   7.600  1.00  0.00    -0.550 OA
ATOM     11  O   UNL     1      28.077  32.523   7.577  1.00  0.00    -0.550 OA
ENDBRANCH   8   9
ENDBRANCH   7   8
ENDBRANCH   6   7
ENDBRANCH   5   6
ENDBRANCH   4   5
ENDBRANCH   3   4
ENDBRANCH   2   3
ENDBRANCH   1   2
BRANCH   1  12
ATOM     12  C   UNL     1      26.410  30.483  -1.462  1.00  0.00     0.000 C 
BRANCH  12  13
ATOM     13  C   UNL     1      27.084  31.148  -2.671  1.00  0.00    -0.000 C 
BRANCH  13  14
ATOM     14  C   UNL     1      26.835  30.387  -3.986  1.00  0.00    -0.000 C 
BRANCH  14  15
ATOM     15  C   UNL     1      25.985  31.190  -4.986  1.00  0.00    -0.000 C 
BRANCH  15  16
ATOM     16  C   UNL     1      26.364  30.993  -6.468  1.00  0.00    -0.000 C 
BRANCH  16  17
ATOM     17  C   UNL     1      25.218  31.228  -7.469  1.00  0.00    -0.000 C 
BRANCH  17  18
ATOM     18  C   UNL     1      24.542  32.597  -7.287  1.00  0.00    -0.000 C 
BRANCH  18  19
ATOM     19  C   UNL     1      23.260  32.734  -8.124  1.00  0.00    -0.003 C 
ATOM     20  C   UNL     1      22.180  31.733  -7.715  1.00  0.00     0.004 C 
ENDBRANCH  18  19
ENDBRANCH  17  18
ENDBRANCH  16  17
ENDBRANCH  15  16
ENDBRANCH  14  15
ENDBRANCH  13  14
ENDBRANCH  12  13
ENDBRANCH   1  12
TORSDOF 16
ENDMDL
MODEL 8
REMARK VINA RESULT:    10.849     14.044     16.396
REMARK INTER + INTRA:          20.399
REMARK INTER:                  20.910
REMARK INTRA:                  -0.511
REMARK UNBOUND:                -0.599
REMARK SMILES CCCCCCCCCCCCCCCCCC(=O)[O-]
REMARK SMILES IDX 10 1 11 2 12 3 13 4 14 5 15 6 16 7 17 8 18 9 19 10 20 11
REMARK SMILES IDX 9 12 8 13 7 14 6 15 5 16 4 17 3 18 2 19 1 20
REMARK H PARENT
REMARK Flexibility Score: inf
ROOT
ATOM      1  C   UNL     1      25.516  43.784   3.415  1.00  0.00     0.000 C 
ENDROOT
BRANCH   1   2
ATOM      2  C   UNL     1      26.806  43.672   4.247  1.00  0.00     0.000 C 
BRANCH   2   3
ATOM      3  C   UNL     1      28.059  44.304   3.612  1.00  0.00     0.000 C 
BRANCH   3   4
ATOM      4  C   UNL     1      28.375  45.702   4.170  1.00  0.00     0.000 C 
BRANCH   4   5
ATOM      5  C   UNL     1      27.231  46.277   5.026  1.00  0.00     0.000 C 
BRANCH   5   6
ATOM      6  C   UNL     1      27.628  47.432   5.968  1.00  0.00     0.000 C 
BRANCH   6   7
ATOM      7  C   UNL     1      27.044  47.346   7.389  1.00  0.00     0.006 C 
BRANCH   7   8
ATOM      8  C   UNL     1      26.026  46.210   7.546  1.00  0.00     0.053 C 
BRANCH   8   9
ATOM      9  C   UNL     1      24.700  46.754   7.975  1.00  0.00     0.041 C 
ATOM     10  O   UNL     1      24.268  47.831   7.487  1.00  0.00    -0.550 OA
ATOM     11  O   UNL     1      23.967  46.100   8.957  1.00  0.00    -0.550 OA
ENDBRANCH   8   9
ENDBRANCH   7   8
ENDBRANCH   6   7
ENDBRANCH   5   6
ENDBRANCH   4   5
ENDBRANCH   3   4
ENDBRANCH   2   3
ENDBRANCH   1   2
BRANCH   1  12
ATOM     12  C   UNL     1      25.134  42.468   2.714  1.00  0.00     0.000 C 
BRANCH  12  13
ATOM     13  C   UNL     1      23.638  42.390   2.377  1.00  0.00    -0.000 C 
BRANCH  13  14
ATOM     14  C   UNL     1      22.739  42.814   3.552  1.00  0.00    -0.000 C 
BRANCH  14  15
ATOM     15  C   UNL     1      22.734  41.786   4.697  1.00  0.00    -0.000 C 
BRANCH  15  16
ATOM     16  C   UNL     1      24.105  41.544   5.362  1.00  0.00    -0.000 C 
BRANCH  16  17
ATOM     17  C   UNL     1      24.481  40.065   5.557  1.00  0.00    -0.000 C 
BRANCH  17  18
ATOM     18  C   UNL     1      25.159  39.797   6.911  1.00  0.00    -0.000 C 
BRANCH  18  19
ATOM     19  C   UNL     1      26.100  38.582   6.866  1.00  0.00    -0.003 C 
ATOM     20  C   UNL     1      25.679  37.550   5.821  1.00  0.00     0.004 C 
ENDBRANCH  18  19
ENDBRANCH  17  18
ENDBRANCH  16  17
ENDBRANCH  15  16
ENDBRANCH  14  15
ENDBRANCH  13  14
ENDBRANCH  12  13
ENDBRANCH   1  12
TORSDOF 16
ENDMDL
MODEL 9
REMARK VINA RESULT:    11.091     13.956     15.821
REMARK INTER + INTRA:          20.866
REMARK INTER:                  21.349
REMARK INTRA:                  -0.484
REMARK UNBOUND:                -0.599
REMARK SMILES CCCCCCCCCCCCCCCCCC(=O)[O-]
REMARK SMILES IDX 10 1 11 2 12 3 13 4 14 5 15 6 16 7 17 8 18 9 19 10 20 11
REMARK SMILES IDX 9 12 8 13 7 14 6 15 5 16 4 17 3 18 2 19 1 20
REMARK H PARENT
REMARK Flexibility Score: inf
ROOT
ATOM      1  C   UNL     1      30.037  43.994   1.068  1.00  0.00     0.000 C 
ENDROOT
BRANCH   1   2
ATOM      2  C   UNL     1      29.017  43.739   2.193  1.00  0.00     0.000 C 
BRANCH   2   3
ATOM      3  C   UNL     1      28.952  44.823   3.285  1.00  0.00     0.000 C 
BRANCH   3   4
ATOM      4  C   UNL     1      27.544  44.990   3.881  1.00  0.00     0.000 C 
BRANCH   4   5
ATOM      5  C   UNL     1      27.000  43.692   4.506  1.00  0.00     0.000 C 
BRANCH   5   6
ATOM      6  C   UNL     1      25.466  43.621   4.649  1.00  0.00     0.000 C 
BRANCH   6   7
ATOM      7  C   UNL     1      24.855  42.224   4.439  1.00  0.00     0.006 C 
BRANCH   7   8
ATOM      8  C   UNL     1      23.365  42.275   4.074  1.00  0.00     0.053 C 
BRANCH   8   9
ATOM      9  C   UNL     1      23.193  42.297   2.589  1.00  0.00     0.041 C 
ATOM     10  O   UNL     1      22.124  41.885   2.068  1.00  0.00    -0.550 OA
ATOM     11  O   UNL     1      24.237  42.720   1.775  1.00  0.00    -0.550 OA
ENDBRANCH   8   9
ENDBRANCH   7   8
ENDBRANCH   6   7
ENDBRANCH   5   6
ENDBRANCH   4   5
ENDBRANCH   3   4
ENDBRANCH   2   3
ENDBRANCH   1   2
BRANCH   1  12
ATOM     12  C   UNL     1      29.874  43.033  -0.122  1.00  0.00     0.000 C 
BRANCH  12  13
ATOM     13  C   UNL     1      31.218  42.491  -0.632  1.00  0.00    -0.000 C 
BRANCH  13  14
ATOM     14  C   UNL     1      32.388  43.453  -0.365  1.00  0.00    -0.000 C 
BRANCH  14  15
ATOM     15  C   UNL     1      33.761  42.800  -0.604  1.00  0.00    -0.000 C 
BRANCH  15  16
ATOM     16  C   UNL     1      34.973  43.728  -0.377  1.00  0.00    -0.000 C 
BRANCH  16  17
ATOM     17  C   UNL     1      36.330  43.140  -0.801  1.00  0.00    -0.000 C 
BRANCH  17  18
ATOM     18  C   UNL     1      37.124  44.081  -1.722  1.00  0.00    -0.000 C 
BRANCH  18  19
ATOM     19  C   UNL     1      38.595  43.657  -1.867  1.00  0.00    -0.003 C 
ATOM     20  C   UNL     1      38.750  42.172  -2.192  1.00  0.00     0.004 C 
ENDBRANCH  18  19
ENDBRANCH  17  18
ENDBRANCH  16  17
ENDBRANCH  15  16
ENDBRANCH  14  15
ENDBRANCH  13  14
ENDBRANCH  12  13
ENDBRANCH   1  12
TORSDOF 16
ENDMDL
