MODEL 1
REMARK VINA RESULT:    -7.251      0.000      0.000
REMARK INTER + INTRA:         -12.657
REMARK INTER:                 -10.642
REMARK INTRA:                  -2.015
REMARK UNBOUND:                -2.015
REMARK SMILES O=c1c(O[C@@H]2O[C@@H](CO)[C@@H](O)[C@H](O)[C@@H]2O)c(-c2ccc(O)c(O)c2)oc2cc(O)cc(O)c12
REMARK SMILES IDX 4 1 3 2 16 3 25 4 2 5 26 6 1 7 33 8 27 9 31 10 28 11 30 12
REMARK SMILES IDX 17 13 18 14 19 15 20 16 24 17 22 18 21 19 23 21 32 23 29 25
REMARK SMILES IDX 5 27 14 28 6 29 12 30 7 31 10 32 15 33 13 35 8 37 9 38 11 40
REMARK H PARENT 21 20 23 22 32 24 29 26 15 34 13 36 9 39 11 41
REMARK Flexibility Score: inf
ROOT
ATOM      1  O   UNL     1     -37.680   5.074  82.002  1.00  0.00    -0.454 OA
ENDROOT
BRANCH   1   2
ATOM      2  C   UNL     1     -38.542   4.699  80.948  1.00  0.00     0.214 A 
ATOM      3  C   UNL     1     -38.041   4.758  79.634  1.00  0.00     0.180 A 
ATOM      4  O   UNL     1     -38.770   4.317  78.619  1.00  0.00    -0.452 OA
ATOM      5  C   UNL     1     -39.865   4.229  81.137  1.00  0.00     0.239 A 
ATOM      6  C   UNL     1     -40.008   3.862  78.751  1.00  0.00     0.146 A 
ATOM      7  O   UNL     1     -40.328   4.115  82.299  1.00  0.00    -0.285 OA
ATOM      8  C   UNL     1     -40.644   3.847  80.017  1.00  0.00     0.111 A 
ATOM      9  C   UNL     1     -40.673   3.395  77.614  1.00  0.00     0.094 A 
ATOM     10  C   UNL     1     -42.001   3.408  80.089  1.00  0.00     0.134 A 
ATOM     11  C   UNL     1     -41.975   2.903  77.709  1.00  0.00     0.123 A 
ATOM     12  C   UNL     1     -42.628   2.910  78.941  1.00  0.00     0.093 A 
BRANCH   3  13
ATOM     13  C   UNL     1     -36.691   5.280  79.340  1.00  0.00     0.025 A 
ATOM     14  C   UNL     1     -35.571   4.452  79.513  1.00  0.00     0.016 A 
ATOM     15  C   UNL     1     -34.291   4.927  79.218  1.00  0.00     0.051 A 
ATOM     16  C   UNL     1     -34.114   6.225  78.727  1.00  0.00     0.157 A 
ATOM     17  C   UNL     1     -36.514   6.575  78.828  1.00  0.00     0.062 A 
ATOM     18  C   UNL     1     -35.231   7.053  78.526  1.00  0.00     0.158 A 
BRANCH  16  19
ATOM     19  O   UNL     1     -32.824   6.671  78.441  1.00  0.00    -0.504 OA
ATOM     20  H   UNL     1     -32.002   6.224  78.827  1.00  0.00     0.293 HD
ENDBRANCH  16  19
BRANCH  18  21
ATOM     21  O   UNL     1     -35.065   8.343  78.025  1.00  0.00    -0.504 OA
ATOM     22  H   UNL     1     -35.567   9.133  78.412  1.00  0.00     0.293 HD
ENDBRANCH  18  21
ENDBRANCH   3  13
BRANCH  10  23
ATOM     23  O   UNL     1     -42.780   3.473  81.249  1.00  0.00    -0.507 OA
ATOM     24  H   UNL     1     -42.772   4.244  81.901  1.00  0.00     0.293 HD
ENDBRANCH  10  23
BRANCH  11  25
ATOM     25  O   UNL     1     -42.634   2.414  76.583  1.00  0.00    -0.508 OA
ATOM     26  H   UNL     1     -42.124   2.037  75.792  1.00  0.00     0.293 HD
ENDBRANCH  11  25
ENDBRANCH   1   2
BRANCH   1  27
ATOM     27  C   UNL     1     -37.648   6.330  82.691  1.00  0.00     0.339 C 
ATOM     28  C   UNL     1     -37.805   6.128  84.215  1.00  0.00     0.214 C 
ATOM     29  O   UNL     1     -36.469   7.060  82.387  1.00  0.00    -0.332 OA
ATOM     30  C   UNL     1     -36.542   5.497  84.833  1.00  0.00     0.180 C 
ATOM     31  C   UNL     1     -35.304   6.374  82.819  1.00  0.00     0.179 C 
ATOM     32  C   UNL     1     -35.287   6.251  84.360  1.00  0.00     0.177 C 
BRANCH  28  33
ATOM     33  O   UNL     1     -38.924   5.326  84.492  1.00  0.00    -0.384 OA
ATOM     34  H   UNL     1     -39.285   5.024  83.617  1.00  0.00     0.211 HD
ENDBRANCH  28  33
BRANCH  30  35
ATOM     35  O   UNL     1     -36.434   4.144  84.471  1.00  0.00    -0.387 OA
ATOM     36  H   UNL     1     -37.259   3.908  83.972  1.00  0.00     0.211 HD
ENDBRANCH  30  35
BRANCH  31  37
ATOM     37  C   UNL     1     -34.073   7.133  82.298  1.00  0.00     0.191 C 
BRANCH  37  38
ATOM     38  O   UNL     1     -33.036   7.119  83.242  1.00  0.00    -0.394 OA
ATOM     39  H   UNL     1     -33.459   7.248  84.131  1.00  0.00     0.210 HD
ENDBRANCH  37  38
ENDBRANCH  31  37
BRANCH  32  40
ATOM     40  O   UNL     1     -35.247   7.531  84.940  1.00  0.00    -0.387 OA
ATOM     41  H   UNL     1     -34.489   8.013  84.518  1.00  0.00     0.211 HD
ENDBRANCH  32  40
ENDBRANCH   1  27
TORSDOF 12
ENDMDL
MODEL 2
REMARK VINA RESULT:    -6.563      1.215      1.919
REMARK INTER + INTRA:         -11.647
REMARK INTER:                 -10.294
REMARK INTRA:                  -1.352
REMARK UNBOUND:                -2.015
REMARK SMILES O=c1c(O[C@@H]2O[C@@H](CO)[C@@H](O)[C@H](O)[C@@H]2O)c(-c2ccc(O)c(O)c2)oc2cc(O)cc(O)c12
REMARK SMILES IDX 4 1 3 2 16 3 25 4 2 5 26 6 1 7 33 8 27 9 31 10 28 11 30 12
REMARK SMILES IDX 17 13 18 14 19 15 20 16 24 17 22 18 21 19 23 21 32 23 29 25
REMARK SMILES IDX 5 27 14 28 6 29 12 30 7 31 10 32 15 33 13 35 8 37 9 38 11 40
REMARK H PARENT 21 20 23 22 32 24 29 26 15 34 13 36 9 39 11 41
REMARK Flexibility Score: inf
ROOT
ATOM      1  O   UNL     1     -37.720   5.091  82.007  1.00  0.00    -0.454 OA
ENDROOT
BRANCH   1   2
ATOM      2  C   UNL     1     -38.567   4.706  80.945  1.00  0.00     0.214 A 
ATOM      3  C   UNL     1     -38.051   4.761  79.637  1.00  0.00     0.180 A 
ATOM      4  O   UNL     1     -38.766   4.311  78.615  1.00  0.00    -0.452 OA
ATOM      5  C   UNL     1     -39.889   4.230  81.121  1.00  0.00     0.239 A 
ATOM      6  C   UNL     1     -40.002   3.850  78.735  1.00  0.00     0.146 A 
ATOM      7  O   UNL     1     -40.366   4.118  82.278  1.00  0.00    -0.285 OA
ATOM      8  C   UNL     1     -40.653   3.837  79.994  1.00  0.00     0.111 A 
ATOM      9  C   UNL     1     -40.651   3.374  77.593  1.00  0.00     0.094 A 
ATOM     10  C   UNL     1     -42.008   3.391  80.052  1.00  0.00     0.134 A 
ATOM     11  C   UNL     1     -41.952   2.875  77.675  1.00  0.00     0.123 A 
ATOM     12  C   UNL     1     -42.619   2.883  78.900  1.00  0.00     0.093 A 
BRANCH   3  13
ATOM     13  C   UNL     1     -36.701   5.290  79.356  1.00  0.00     0.025 A 
ATOM     14  C   UNL     1     -35.582   4.456  79.506  1.00  0.00     0.016 A 
ATOM     15  C   UNL     1     -34.302   4.938  79.222  1.00  0.00     0.051 A 
ATOM     16  C   UNL     1     -34.123   6.248  78.767  1.00  0.00     0.157 A 
ATOM     17  C   UNL     1     -36.523   6.598  78.879  1.00  0.00     0.062 A 
ATOM     18  C   UNL     1     -35.240   7.083  78.590  1.00  0.00     0.158 A 
BRANCH  16  19
ATOM     19  O   UNL     1     -32.834   6.701  78.492  1.00  0.00    -0.504 OA
ATOM     20  H   UNL     1     -32.371   6.503  77.613  1.00  0.00     0.293 HD
ENDBRANCH  16  19
BRANCH  18  21
ATOM     21  O   UNL     1     -35.072   8.386  78.123  1.00  0.00    -0.504 OA
ATOM     22  H   UNL     1     -35.516   9.174  78.578  1.00  0.00     0.293 HD
ENDBRANCH  18  21
ENDBRANCH   3  13
BRANCH  10  23
ATOM     23  O   UNL     1     -42.801   3.457  81.203  1.00  0.00    -0.507 OA
ATOM     24  H   UNL     1     -43.684   2.980  81.316  1.00  0.00     0.293 HD
ENDBRANCH  10  23
BRANCH  11  25
ATOM     25  O   UNL     1     -42.594   2.377  76.544  1.00  0.00    -0.508 OA
ATOM     26  H   UNL     1     -42.076   1.947  75.785  1.00  0.00     0.293 HD
ENDBRANCH  11  25
ENDBRANCH   1   2
BRANCH   1  27
ATOM     27  C   UNL     1     -38.077   5.842  83.174  1.00  0.00     0.339 C 
ATOM     28  C   UNL     1     -36.866   6.001  84.121  1.00  0.00     0.214 C 
ATOM     29  O   UNL     1     -38.632   7.104  82.831  1.00  0.00    -0.332 OA
ATOM     30  C   UNL     1     -35.819   6.970  83.540  1.00  0.00     0.180 C 
ATOM     31  C   UNL     1     -37.694   7.917  82.144  1.00  0.00     0.179 C 
ATOM     32  C   UNL     1     -36.501   8.265  83.064  1.00  0.00     0.177 C 
BRANCH  28  33
ATOM     33  O   UNL     1     -36.275   4.753  84.376  1.00  0.00    -0.384 OA
ATOM     34  H   UNL     1     -36.740   4.370  85.166  1.00  0.00     0.211 HD
ENDBRANCH  28  33
BRANCH  30  35
ATOM     35  O   UNL     1     -35.141   6.379  82.461  1.00  0.00    -0.387 OA
ATOM     36  H   UNL     1     -35.619   5.538  82.240  1.00  0.00     0.211 HD
ENDBRANCH  30  35
BRANCH  31  37
ATOM     37  C   UNL     1     -38.416   9.181  81.652  1.00  0.00     0.191 C 
BRANCH  37  38
ATOM     38  O   UNL     1     -39.465   9.531  82.517  1.00  0.00    -0.394 OA
ATOM     39  H   UNL     1     -40.190   9.901  81.948  1.00  0.00     0.210 HD
ENDBRANCH  37  38
ENDBRANCH  31  37
BRANCH  32  40
ATOM     40  O   UNL     1     -36.952   9.005  84.170  1.00  0.00    -0.387 OA
ATOM     41  H   UNL     1     -37.744   8.528  84.531  1.00  0.00     0.211 HD
ENDBRANCH  32  40
ENDBRANCH   1  27
TORSDOF 12
ENDMDL
MODEL 3
REMARK VINA RESULT:    -6.444      1.936      7.668
REMARK INTER + INTRA:         -11.473
REMARK INTER:                  -9.518
REMARK INTRA:                  -1.955
REMARK UNBOUND:                -2.015
REMARK SMILES O=c1c(O[C@@H]2O[C@@H](CO)[C@@H](O)[C@H](O)[C@@H]2O)c(-c2ccc(O)c(O)c2)oc2cc(O)cc(O)c12
REMARK SMILES IDX 4 1 3 2 16 3 25 4 2 5 26 6 1 7 33 8 27 9 31 10 28 11 30 12
REMARK SMILES IDX 17 13 18 14 19 15 20 16 24 17 22 18 21 19 23 21 32 23 29 25
REMARK SMILES IDX 5 27 14 28 6 29 12 30 7 31 10 32 15 33 13 35 8 37 9 38 11 40
REMARK H PARENT 21 20 23 22 32 24 29 26 15 34 13 36 9 39 11 41
REMARK Flexibility Score: inf
ROOT
ATOM      1  O   UNL     1     -38.354   4.966  79.612  1.00  0.00    -0.454 OA
ENDROOT
BRANCH   1   2
ATOM      2  C   UNL     1     -37.190   5.660  80.009  1.00  0.00     0.214 A 
ATOM      3  C   UNL     1     -36.765   5.524  81.344  1.00  0.00     0.180 A 
ATOM      4  O   UNL     1     -35.623   6.067  81.742  1.00  0.00    -0.452 OA
ATOM      5  C   UNL     1     -36.405   6.452  79.136  1.00  0.00     0.239 A 
ATOM      6  C   UNL     1     -34.853   6.807  80.957  1.00  0.00     0.146 A 
ATOM      7  O   UNL     1     -36.725   6.555  77.926  1.00  0.00    -0.285 OA
ATOM      8  C   UNL     1     -35.234   7.087  79.621  1.00  0.00     0.111 A 
ATOM      9  C   UNL     1     -33.655   7.305  81.475  1.00  0.00     0.094 A 
ATOM     10  C   UNL     1     -34.399   7.945  78.843  1.00  0.00     0.134 A 
ATOM     11  C   UNL     1     -32.812   8.085  80.683  1.00  0.00     0.123 A 
ATOM     12  C   UNL     1     -33.186   8.396  79.376  1.00  0.00     0.093 A 
BRANCH   3  13
ATOM     13  C   UNL     1     -37.548   4.758  82.334  1.00  0.00     0.025 A 
ATOM     14  C   UNL     1     -38.366   5.436  83.251  1.00  0.00     0.016 A 
ATOM     15  C   UNL     1     -39.128   4.720  84.178  1.00  0.00     0.051 A 
ATOM     16  C   UNL     1     -39.101   3.322  84.189  1.00  0.00     0.157 A 
ATOM     17  C   UNL     1     -37.538   3.353  82.331  1.00  0.00     0.062 A 
ATOM     18  C   UNL     1     -38.305   2.633  83.257  1.00  0.00     0.158 A 
BRANCH  16  19
ATOM     19  O   UNL     1     -39.873   2.636  85.125  1.00  0.00    -0.504 OA
ATOM     20  H   UNL     1     -40.202   3.075  85.976  1.00  0.00     0.293 HD
ENDBRANCH  16  19
BRANCH  18  21
ATOM     21  O   UNL     1     -38.283   1.240  83.252  1.00  0.00    -0.504 OA
ATOM     22  H   UNL     1     -37.558   0.718  83.729  1.00  0.00     0.293 HD
ENDBRANCH  18  21
ENDBRANCH   3  13
BRANCH  10  23
ATOM     23  O   UNL     1     -34.731   8.404  77.564  1.00  0.00    -0.507 OA
ATOM     24  H   UNL     1     -35.647   8.730  77.294  1.00  0.00     0.293 HD
ENDBRANCH  10  23
BRANCH  11  25
ATOM     25  O   UNL     1     -31.605   8.565  81.187  1.00  0.00    -0.508 OA
ATOM     26  H   UNL     1     -30.718   8.152  80.921  1.00  0.00     0.293 HD
ENDBRANCH  11  25
ENDBRANCH   1   2
BRANCH   1  27
ATOM     27  C   UNL     1     -39.672   5.504  79.446  1.00  0.00     0.339 C 
ATOM     28  C   UNL     1     -40.221   5.198  78.035  1.00  0.00     0.214 C 
ATOM     29  O   UNL     1     -40.555   5.037  80.455  1.00  0.00    -0.332 OA
ATOM     30  C   UNL     1     -40.564   3.705  77.875  1.00  0.00     0.180 C 
ATOM     31  C   UNL     1     -40.722   3.629  80.391  1.00  0.00     0.179 C 
ATOM     32  C   UNL     1     -41.411   3.225  79.066  1.00  0.00     0.177 C 
BRANCH  28  33
ATOM     33  O   UNL     1     -39.294   5.584  77.052  1.00  0.00    -0.384 OA
ATOM     34  H   UNL     1     -39.018   6.513  77.267  1.00  0.00     0.211 HD
ENDBRANCH  28  33
BRANCH  30  35
ATOM     35  O   UNL     1     -39.394   2.932  77.797  1.00  0.00    -0.387 OA
ATOM     36  H   UNL     1     -39.031   2.855  78.717  1.00  0.00     0.211 HD
ENDBRANCH  30  35
BRANCH  31  37
ATOM     37  C   UNL     1     -41.539   3.182  81.613  1.00  0.00     0.191 C 
BRANCH  37  38
ATOM     38  O   UNL     1     -42.748   3.889  81.698  1.00  0.00    -0.394 OA
ATOM     39  H   UNL     1     -42.510   4.852  81.748  1.00  0.00     0.210 HD
ENDBRANCH  37  38
ENDBRANCH  31  37
BRANCH  32  40
ATOM     40  O   UNL     1     -42.695   3.793  79.004  1.00  0.00    -0.387 OA
ATOM     41  H   UNL     1     -42.633   4.576  78.398  1.00  0.00     0.211 HD
ENDBRANCH  32  40
ENDBRANCH   1  27
TORSDOF 12
ENDMDL
MODEL 4
REMARK VINA RESULT:    -6.366      1.961      6.446
REMARK INTER + INTRA:         -11.358
REMARK INTER:                  -9.649
REMARK INTRA:                  -1.709
REMARK UNBOUND:                -2.015
REMARK SMILES O=c1c(O[C@@H]2O[C@@H](CO)[C@@H](O)[C@H](O)[C@@H]2O)c(-c2ccc(O)c(O)c2)oc2cc(O)cc(O)c12
REMARK SMILES IDX 4 1 3 2 16 3 25 4 2 5 26 6 1 7 33 8 27 9 31 10 28 11 30 12
REMARK SMILES IDX 17 13 18 14 19 15 20 16 24 17 22 18 21 19 23 21 32 23 29 25
REMARK SMILES IDX 5 27 14 28 6 29 12 30 7 31 10 32 15 33 13 35 8 37 9 38 11 40
REMARK H PARENT 21 20 23 22 32 24 29 26 15 34 13 36 9 39 11 41
REMARK Flexibility Score: inf
ROOT
ATOM      1  O   UNL     1     -38.092   5.674  81.809  1.00  0.00    -0.454 OA
ENDROOT
BRANCH   1   2
ATOM      2  C   UNL     1     -37.295   6.288  80.818  1.00  0.00     0.214 A 
ATOM      3  C   UNL     1     -37.539   5.951  79.473  1.00  0.00     0.180 A 
ATOM      4  O   UNL     1     -36.894   6.575  78.498  1.00  0.00    -0.452 OA
ATOM      5  C   UNL     1     -36.293   7.251  81.093  1.00  0.00     0.239 A 
ATOM      6  C   UNL     1     -35.956   7.487  78.710  1.00  0.00     0.146 A 
ATOM      7  O   UNL     1     -36.082   7.614  82.277  1.00  0.00    -0.285 OA
ATOM      8  C   UNL     1     -35.564   7.834  80.027  1.00  0.00     0.111 A 
ATOM      9  C   UNL     1     -35.361   8.102  77.605  1.00  0.00     0.094 A 
ATOM     10  C   UNL     1     -34.503   8.774  80.193  1.00  0.00     0.134 A 
ATOM     11  C   UNL     1     -34.373   9.071  77.782  1.00  0.00     0.123 A 
ATOM     12  C   UNL     1     -33.954   9.403  79.070  1.00  0.00     0.093 A 
BRANCH   3  13
ATOM     13  C   UNL     1     -38.531   4.922  79.098  1.00  0.00     0.025 A 
ATOM     14  C   UNL     1     -39.889   5.263  79.014  1.00  0.00     0.016 A 
ATOM     15  C   UNL     1     -40.833   4.304  78.639  1.00  0.00     0.051 A 
ATOM     16  C   UNL     1     -40.433   3.002  78.324  1.00  0.00     0.157 A 
ATOM     17  C   UNL     1     -38.126   3.620  78.761  1.00  0.00     0.062 A 
ATOM     18  C   UNL     1     -39.072   2.658  78.380  1.00  0.00     0.158 A 
BRANCH  16  19
ATOM     19  O   UNL     1     -41.398   2.067  77.952  1.00  0.00    -0.504 OA
ATOM     20  H   UNL     1     -41.816   2.063  77.030  1.00  0.00     0.293 HD
ENDBRANCH  16  19
BRANCH  18  21
ATOM     21  O   UNL     1     -38.663   1.366  78.054  1.00  0.00    -0.504 OA
ATOM     22  H   UNL     1     -38.801   0.588  78.689  1.00  0.00     0.293 HD
ENDBRANCH  18  21
ENDBRANCH   3  13
BRANCH  10  23
ATOM     23  O   UNL     1     -33.936   9.097  81.430  1.00  0.00    -0.507 OA
ATOM     24  H   UNL     1     -34.403   8.990  82.319  1.00  0.00     0.293 HD
ENDBRANCH  10  23
BRANCH  11  25
ATOM     25  O   UNL     1     -33.794   9.705  76.684  1.00  0.00    -0.508 OA
ATOM     26  H   UNL     1     -33.291  10.579  76.781  1.00  0.00     0.293 HD
ENDBRANCH  11  25
ENDBRANCH   1   2
BRANCH   1  27
ATOM     27  C   UNL     1     -37.885   4.394  82.419  1.00  0.00     0.339 C 
ATOM     28  C   UNL     1     -37.675   4.537  83.944  1.00  0.00     0.214 C 
ATOM     29  O   UNL     1     -38.949   3.501  82.127  1.00  0.00    -0.332 OA
ATOM     30  C   UNL     1     -38.984   4.921  84.660  1.00  0.00     0.180 C 
ATOM     31  C   UNL     1     -40.181   3.965  82.656  1.00  0.00     0.179 C 
ATOM     32  C   UNL     1     -40.129   4.001  84.202  1.00  0.00     0.177 C 
BRANCH  28  33
ATOM     33  O   UNL     1     -36.682   5.493  84.216  1.00  0.00    -0.384 OA
ATOM     34  H   UNL     1     -37.130   6.379  84.220  1.00  0.00     0.211 HD
ENDBRANCH  28  33
BRANCH  30  35
ATOM     35  O   UNL     1     -39.325   6.256  84.388  1.00  0.00    -0.387 OA
ATOM     36  H   UNL     1     -40.251   6.255  84.031  1.00  0.00     0.211 HD
ENDBRANCH  30  35
BRANCH  31  37
ATOM     37  C   UNL     1     -41.304   3.047  82.149  1.00  0.00     0.191 C 
BRANCH  37  38
ATOM     38  O   UNL     1     -42.430   3.791  81.767  1.00  0.00    -0.394 OA
ATOM     39  H   UNL     1     -42.832   3.320  80.991  1.00  0.00     0.210 HD
ENDBRANCH  37  38
ENDBRANCH  31  37
BRANCH  32  40
ATOM     40  O   UNL     1     -39.932   2.702  84.702  1.00  0.00    -0.387 OA
ATOM     41  H   UNL     1     -39.836   2.786  85.687  1.00  0.00     0.211 HD
ENDBRANCH  32  40
ENDBRANCH   1  27
TORSDOF 12
ENDMDL
MODEL 5
REMARK VINA RESULT:    -6.350      1.305      2.354
REMARK INTER + INTRA:         -11.335
REMARK INTER:                 -10.101
REMARK INTRA:                  -1.234
REMARK UNBOUND:                -2.015
REMARK SMILES O=c1c(O[C@@H]2O[C@@H](CO)[C@@H](O)[C@H](O)[C@@H]2O)c(-c2ccc(O)c(O)c2)oc2cc(O)cc(O)c12
REMARK SMILES IDX 4 1 3 2 16 3 25 4 2 5 26 6 1 7 33 8 27 9 31 10 28 11 30 12
REMARK SMILES IDX 17 13 18 14 19 15 20 16 24 17 22 18 21 19 23 21 32 23 29 25
REMARK SMILES IDX 5 27 14 28 6 29 12 30 7 31 10 32 15 33 13 35 8 37 9 38 11 40
REMARK H PARENT 21 20 23 22 32 24 29 26 15 34 13 36 9 39 11 41
REMARK Flexibility Score: inf
ROOT
ATOM      1  O   UNL     1     -37.968   5.787  81.381  1.00  0.00    -0.454 OA
ENDROOT
BRANCH   1   2
ATOM      2  C   UNL     1     -38.845   5.222  80.430  1.00  0.00     0.214 A 
ATOM      3  C   UNL     1     -38.467   5.266  79.075  1.00  0.00     0.180 A 
ATOM      4  O   UNL     1     -39.200   4.658  78.153  1.00  0.00    -0.452 OA
ATOM      5  C   UNL     1     -40.063   4.579  80.761  1.00  0.00     0.239 A 
ATOM      6  C   UNL     1     -40.341   4.039  78.420  1.00  0.00     0.146 A 
ATOM      7  O   UNL     1     -40.409   4.475  81.964  1.00  0.00    -0.285 OA
ATOM      8  C   UNL     1     -40.864   4.015  79.737  1.00  0.00     0.111 A 
ATOM      9  C   UNL     1     -41.018   3.407  77.373  1.00  0.00     0.094 A 
ATOM     10  C   UNL     1     -42.129   3.390  79.953  1.00  0.00     0.134 A 
ATOM     11  C   UNL     1     -42.220   2.738  77.610  1.00  0.00     0.123 A 
ATOM     12  C   UNL     1     -42.765   2.731  78.894  1.00  0.00     0.093 A 
BRANCH   3  13
ATOM     13  C   UNL     1     -37.238   5.958  78.634  1.00  0.00     0.025 A 
ATOM     14  C   UNL     1     -36.043   5.235  78.498  1.00  0.00     0.016 A 
ATOM     15  C   UNL     1     -34.880   5.874  78.061  1.00  0.00     0.051 A 
ATOM     16  C   UNL     1     -34.899   7.234  77.735  1.00  0.00     0.157 A 
ATOM     17  C   UNL     1     -37.262   7.318  78.286  1.00  0.00     0.062 A 
ATOM     18  C   UNL     1     -36.097   7.960  77.843  1.00  0.00     0.158 A 
BRANCH  16  19
ATOM     19  O   UNL     1     -33.722   7.844  77.301  1.00  0.00    -0.504 OA
ATOM     20  H   UNL     1     -32.866   7.806  77.840  1.00  0.00     0.293 HD
ENDBRANCH  16  19
BRANCH  18  21
ATOM     21  O   UNL     1     -36.128   9.313  77.507  1.00  0.00    -0.504 OA
ATOM     22  H   UNL     1     -35.292   9.809  77.222  1.00  0.00     0.293 HD
ENDBRANCH  18  21
ENDBRANCH   3  13
BRANCH  10  23
ATOM     23  O   UNL     1     -42.813   3.417  81.173  1.00  0.00    -0.507 OA
ATOM     24  H   UNL     1     -42.616   2.806  81.952  1.00  0.00     0.293 HD
ENDBRANCH  10  23
BRANCH  11  25
ATOM     25  O   UNL     1     -42.886   2.086  76.575  1.00  0.00    -0.508 OA
ATOM     26  H   UNL     1     -42.809   2.400  75.614  1.00  0.00     0.293 HD
ENDBRANCH  11  25
ENDBRANCH   1   2
BRANCH   1  27
ATOM     27  C   UNL     1     -36.721   5.249  81.838  1.00  0.00     0.339 C 
ATOM     28  C   UNL     1     -35.867   6.339  82.523  1.00  0.00     0.214 C 
ATOM     29  O   UNL     1     -36.918   4.134  82.695  1.00  0.00    -0.332 OA
ATOM     30  C   UNL     1     -36.455   6.740  83.889  1.00  0.00     0.180 C 
ATOM     31  C   UNL     1     -37.614   4.500  83.875  1.00  0.00     0.179 C 
ATOM     32  C   UNL     1     -36.771   5.484  84.720  1.00  0.00     0.177 C 
BRANCH  28  33
ATOM     33  O   UNL     1     -35.759   7.470  81.698  1.00  0.00    -0.384 OA
ATOM     34  H   UNL     1     -35.004   8.011  82.048  1.00  0.00     0.211 HD
ENDBRANCH  28  33
BRANCH  30  35
ATOM     35  O   UNL     1     -37.629   7.493  83.723  1.00  0.00    -0.387 OA
ATOM     36  H   UNL     1     -38.280   7.174  84.400  1.00  0.00     0.211 HD
ENDBRANCH  30  35
BRANCH  31  37
ATOM     37  C   UNL     1     -37.945   3.221  84.660  1.00  0.00     0.191 C 
BRANCH  37  38
ATOM     38  O   UNL     1     -37.817   2.084  83.848  1.00  0.00    -0.394 OA
ATOM     39  H   UNL     1     -38.692   1.958  83.396  1.00  0.00     0.210 HD
ENDBRANCH  37  38
ENDBRANCH  31  37
BRANCH  32  40
ATOM     40  O   UNL     1     -35.577   4.862  85.125  1.00  0.00    -0.387 OA
ATOM     41  H   UNL     1     -35.450   4.074  84.535  1.00  0.00     0.211 HD
ENDBRANCH  32  40
ENDBRANCH   1  27
TORSDOF 12
ENDMDL
MODEL 6
REMARK VINA RESULT:    -5.968      2.659      4.914
REMARK INTER + INTRA:         -10.774
REMARK INTER:                  -8.753
REMARK INTRA:                  -2.021
REMARK UNBOUND:                -2.015
REMARK SMILES O=c1c(O[C@@H]2O[C@@H](CO)[C@@H](O)[C@H](O)[C@@H]2O)c(-c2ccc(O)c(O)c2)oc2cc(O)cc(O)c12
REMARK SMILES IDX 4 1 3 2 16 3 25 4 2 5 26 6 1 7 33 8 27 9 31 10 28 11 30 12
REMARK SMILES IDX 17 13 18 14 19 15 20 16 24 17 22 18 21 19 23 21 32 23 29 25
REMARK SMILES IDX 5 27 14 28 6 29 12 30 7 31 10 32 15 33 13 35 8 37 9 38 11 40
REMARK H PARENT 21 20 23 22 32 24 29 26 15 34 13 36 9 39 11 41
REMARK Flexibility Score: inf
ROOT
ATOM      1  O   UNL     1     -38.642   6.404  80.008  1.00  0.00    -0.454 OA
ENDROOT
BRANCH   1   2
ATOM      2  C   UNL     1     -38.581   5.246  80.815  1.00  0.00     0.214 A 
ATOM      3  C   UNL     1     -37.312   4.706  81.097  1.00  0.00     0.180 A 
ATOM      4  O   UNL     1     -37.190   3.685  81.934  1.00  0.00    -0.452 OA
ATOM      5  C   UNL     1     -39.715   4.621  81.388  1.00  0.00     0.239 A 
ATOM      6  C   UNL     1     -38.222   3.076  82.499  1.00  0.00     0.146 A 
ATOM      7  O   UNL     1     -40.859   5.105  81.200  1.00  0.00    -0.285 OA
ATOM      8  C   UNL     1     -39.550   3.479  82.210  1.00  0.00     0.111 A 
ATOM      9  C   UNL     1     -37.973   2.028  83.389  1.00  0.00     0.094 A 
ATOM     10  C   UNL     1     -40.624   2.743  82.797  1.00  0.00     0.134 A 
ATOM     11  C   UNL     1     -39.030   1.362  84.011  1.00  0.00     0.123 A 
ATOM     12  C   UNL     1     -40.344   1.724  83.715  1.00  0.00     0.093 A 
BRANCH   3  13
ATOM     13  C   UNL     1     -36.080   5.264  80.503  1.00  0.00     0.025 A 
ATOM     14  C   UNL     1     -35.575   4.723  79.312  1.00  0.00     0.016 A 
ATOM     15  C   UNL     1     -34.423   5.257  78.729  1.00  0.00     0.051 A 
ATOM     16  C   UNL     1     -33.774   6.348  79.315  1.00  0.00     0.157 A 
ATOM     17  C   UNL     1     -35.441   6.374  81.079  1.00  0.00     0.062 A 
ATOM     18  C   UNL     1     -34.288   6.914  80.494  1.00  0.00     0.158 A 
BRANCH  16  19
ATOM     19  O   UNL     1     -32.627   6.860  78.709  1.00  0.00    -0.504 OA
ATOM     20  H   UNL     1     -32.671   7.550  77.970  1.00  0.00     0.293 HD
ENDBRANCH  16  19
BRANCH  18  21
ATOM     21  O   UNL     1     -33.655   8.011  81.077  1.00  0.00    -0.504 OA
ATOM     22  H   UNL     1     -32.808   7.908  81.623  1.00  0.00     0.293 HD
ENDBRANCH  18  21
ENDBRANCH   3  13
BRANCH  10  23
ATOM     23  O   UNL     1     -41.972   2.953  82.487  1.00  0.00    -0.507 OA
ATOM     24  H   UNL     1     -42.411   3.861  82.432  1.00  0.00     0.293 HD
ENDBRANCH  10  23
BRANCH  11  25
ATOM     25  O   UNL     1     -38.787   0.332  84.917  1.00  0.00    -0.508 OA
ATOM     26  H   UNL     1     -39.397   0.169  85.710  1.00  0.00     0.293 HD
ENDBRANCH  11  25
ENDBRANCH   1   2
BRANCH   1  27
ATOM     27  C   UNL     1     -38.928   6.470  78.605  1.00  0.00     0.339 C 
ATOM     28  C   UNL     1     -40.162   7.360  78.335  1.00  0.00     0.214 C 
ATOM     29  O   UNL     1     -37.800   6.914  77.865  1.00  0.00    -0.332 OA
ATOM     30  C   UNL     1     -39.847   8.849  78.573  1.00  0.00     0.180 C 
ATOM     31  C   UNL     1     -37.425   8.234  78.227  1.00  0.00     0.179 C 
ATOM     32  C   UNL     1     -38.543   9.236  77.854  1.00  0.00     0.177 C 
BRANCH  28  33
ATOM     33  O   UNL     1     -41.240   6.964  79.143  1.00  0.00    -0.384 OA
ATOM     34  H   UNL     1     -41.029   7.257  80.068  1.00  0.00     0.211 HD
ENDBRANCH  28  33
BRANCH  30  35
ATOM     35  O   UNL     1     -39.716   9.116  79.945  1.00  0.00    -0.387 OA
ATOM     36  H   UNL     1     -39.811  10.096  80.063  1.00  0.00     0.211 HD
ENDBRANCH  30  35
BRANCH  31  37
ATOM     37  C   UNL     1     -36.103   8.572  77.521  1.00  0.00     0.191 C 
BRANCH  37  38
ATOM     38  O   UNL     1     -36.081   9.913  77.109  1.00  0.00    -0.394 OA
ATOM     39  H   UNL     1     -35.791  10.447  77.895  1.00  0.00     0.210 HD
ENDBRANCH  37  38
ENDBRANCH  31  37
BRANCH  32  40
ATOM     40  O   UNL     1     -38.741   9.233  76.462  1.00  0.00    -0.387 OA
ATOM     41  H   UNL     1     -39.108   8.342  76.227  1.00  0.00     0.211 HD
ENDBRANCH  32  40
ENDBRANCH   1  27
TORSDOF 12
ENDMDL
MODEL 7
REMARK VINA RESULT:    -5.895      2.973      7.578
REMARK INTER + INTRA:         -10.667
REMARK INTER:                  -9.812
REMARK INTRA:                  -0.855
REMARK UNBOUND:                -2.015
REMARK SMILES O=c1c(O[C@@H]2O[C@@H](CO)[C@@H](O)[C@H](O)[C@@H]2O)c(-c2ccc(O)c(O)c2)oc2cc(O)cc(O)c12
REMARK SMILES IDX 4 1 3 2 16 3 25 4 2 5 26 6 1 7 33 8 27 9 31 10 28 11 30 12
REMARK SMILES IDX 17 13 18 14 19 15 20 16 24 17 22 18 21 19 23 21 32 23 29 25
REMARK SMILES IDX 5 27 14 28 6 29 12 30 7 31 10 32 15 33 13 35 8 37 9 38 11 40
REMARK H PARENT 21 20 23 22 32 24 29 26 15 34 13 36 9 39 11 41
REMARK Flexibility Score: inf
ROOT
ATOM      1  O   UNL     1     -38.714   7.169  79.206  1.00  0.00    -0.454 OA
ENDROOT
BRANCH   1   2
ATOM      2  C   UNL     1     -37.864   6.419  80.048  1.00  0.00     0.214 A 
ATOM      3  C   UNL     1     -38.172   5.061  80.256  1.00  0.00     0.180 A 
ATOM      4  O   UNL     1     -37.351   4.286  80.949  1.00  0.00    -0.452 OA
ATOM      5  C   UNL     1     -36.700   6.940  80.663  1.00  0.00     0.239 A 
ATOM      6  C   UNL     1     -36.248   4.729  81.534  1.00  0.00     0.146 A 
ATOM      7  O   UNL     1     -36.365   8.133  80.459  1.00  0.00    -0.285 OA
ATOM      8  C   UNL     1     -35.891   6.099  81.468  1.00  0.00     0.111 A 
ATOM      9  C   UNL     1     -35.440   3.816  82.217  1.00  0.00     0.094 A 
ATOM     10  C   UNL     1     -34.727   6.532  82.173  1.00  0.00     0.134 A 
ATOM     11  C   UNL     1     -34.267   4.239  82.843  1.00  0.00     0.123 A 
ATOM     12  C   UNL     1     -33.917   5.588  82.815  1.00  0.00     0.093 A 
BRANCH   3  13
ATOM     13  C   UNL     1     -39.392   4.447  79.693  1.00  0.00     0.025 A 
ATOM     14  C   UNL     1     -39.400   4.009  78.360  1.00  0.00     0.016 A 
ATOM     15  C   UNL     1     -40.541   3.406  77.823  1.00  0.00     0.051 A 
ATOM     16  C   UNL     1     -41.678   3.215  78.614  1.00  0.00     0.157 A 
ATOM     17  C   UNL     1     -40.527   4.235  80.492  1.00  0.00     0.062 A 
ATOM     18  C   UNL     1     -41.671   3.627  79.957  1.00  0.00     0.158 A 
BRANCH  16  19
ATOM     19  O   UNL     1     -42.801   2.610  78.050  1.00  0.00    -0.504 OA
ATOM     20  H   UNL     1     -43.633   2.410  78.592  1.00  0.00     0.293 HD
ENDBRANCH  16  19
BRANCH  18  21
ATOM     21  O   UNL     1     -42.796   3.427  80.756  1.00  0.00    -0.504 OA
ATOM     22  H   UNL     1     -42.857   3.807  81.693  1.00  0.00     0.293 HD
ENDBRANCH  18  21
ENDBRANCH   3  13
BRANCH  10  23
ATOM     23  O   UNL     1     -34.346   7.872  82.298  1.00  0.00    -0.507 OA
ATOM     24  H   UNL     1     -33.432   8.181  82.597  1.00  0.00     0.293 HD
ENDBRANCH  10  23
BRANCH  11  25
ATOM     25  O   UNL     1     -33.446   3.328  83.505  1.00  0.00    -0.508 OA
ATOM     26  H   UNL     1     -33.590   3.097  84.481  1.00  0.00     0.293 HD
ENDBRANCH  11  25
ENDBRANCH   1   2
BRANCH   1  27
ATOM     27  C   UNL     1     -38.515   8.510  78.744  1.00  0.00     0.339 C 
ATOM     28  C   UNL     1     -37.835   8.521  77.356  1.00  0.00     0.214 C 
ATOM     29  O   UNL     1     -39.732   9.241  78.727  1.00  0.00    -0.332 OA
ATOM     30  C   UNL     1     -38.797   8.042  76.253  1.00  0.00     0.180 C 
ATOM     31  C   UNL     1     -40.667   8.676  77.821  1.00  0.00     0.179 C 
ATOM     32  C   UNL     1     -40.145   8.775  76.369  1.00  0.00     0.177 C 
BRANCH  28  33
ATOM     33  O   UNL     1     -36.682   7.719  77.367  1.00  0.00    -0.384 OA
ATOM     34  H   UNL     1     -36.982   6.787  77.536  1.00  0.00     0.211 HD
ENDBRANCH  28  33
BRANCH  30  35
ATOM     35  O   UNL     1     -39.013   6.657  76.349  1.00  0.00    -0.387 OA
ATOM     36  H   UNL     1     -39.556   6.390  75.563  1.00  0.00     0.211 HD
ENDBRANCH  30  35
BRANCH  31  37
ATOM     37  C   UNL     1     -42.008   9.406  77.991  1.00  0.00     0.191 C 
BRANCH  37  38
ATOM     38  O   UNL     1     -42.619   9.633  76.748  1.00  0.00    -0.394 OA
ATOM     39  H   UNL     1     -42.405   8.849  76.179  1.00  0.00     0.210 HD
ENDBRANCH  37  38
ENDBRANCH  31  37
BRANCH  32  40
ATOM     40  O   UNL     1     -39.991  10.125  76.009  1.00  0.00    -0.387 OA
ATOM     41  H   UNL     1     -40.774  10.363  75.447  1.00  0.00     0.211 HD
ENDBRANCH  32  40
ENDBRANCH   1  27
TORSDOF 12
ENDMDL
MODEL 8
REMARK VINA RESULT:    -5.737      3.161      5.748
REMARK INTER + INTRA:         -10.436
REMARK INTER:                  -8.948
REMARK INTRA:                  -1.488
REMARK UNBOUND:                -2.015
REMARK SMILES O=c1c(O[C@@H]2O[C@@H](CO)[C@@H](O)[C@H](O)[C@@H]2O)c(-c2ccc(O)c(O)c2)oc2cc(O)cc(O)c12
REMARK SMILES IDX 4 1 3 2 16 3 25 4 2 5 26 6 1 7 33 8 27 9 31 10 28 11 30 12
REMARK SMILES IDX 17 13 18 14 19 15 20 16 24 17 22 18 21 19 23 21 32 23 29 25
REMARK SMILES IDX 5 27 14 28 6 29 12 30 7 31 10 32 15 33 13 35 8 37 9 38 11 40
REMARK H PARENT 21 20 23 22 32 24 29 26 15 34 13 36 9 39 11 41
REMARK Flexibility Score: inf
ROOT
ATOM      1  O   UNL     1     -37.081   6.027  79.496  1.00  0.00    -0.454 OA
ENDROOT
BRANCH   1   2
ATOM      2  C   UNL     1     -38.303   6.657  79.174  1.00  0.00     0.214 A 
ATOM      3  C   UNL     1     -39.387   6.482  80.055  1.00  0.00     0.180 A 
ATOM      4  O   UNL     1     -40.523   7.135  79.858  1.00  0.00    -0.452 OA
ATOM      5  C   UNL     1     -38.492   7.486  78.042  1.00  0.00     0.239 A 
ATOM      6  C   UNL     1     -40.740   7.926  78.818  1.00  0.00     0.146 A 
ATOM      7  O   UNL     1     -37.533   7.707  77.261  1.00  0.00    -0.285 OA
ATOM      8  C   UNL     1     -39.750   8.100  77.819  1.00  0.00     0.111 A 
ATOM      9  C   UNL     1     -41.967   8.588  78.726  1.00  0.00     0.094 A 
ATOM     10  C   UNL     1     -40.063   8.911  76.687  1.00  0.00     0.134 A 
ATOM     11  C   UNL     1     -42.236   9.434  77.650  1.00  0.00     0.123 A 
ATOM     12  C   UNL     1     -41.285   9.593  76.642  1.00  0.00     0.093 A 
BRANCH   3  13
ATOM     13  C   UNL     1     -39.294   5.597  81.235  1.00  0.00     0.025 A 
ATOM     14  C   UNL     1     -39.179   6.155  82.517  1.00  0.00     0.016 A 
ATOM     15  C   UNL     1     -39.112   5.328  83.641  1.00  0.00     0.051 A 
ATOM     16  C   UNL     1     -39.180   3.938  83.503  1.00  0.00     0.157 A 
ATOM     17  C   UNL     1     -39.384   4.202  81.098  1.00  0.00     0.062 A 
ATOM     18  C   UNL     1     -39.322   3.370  82.225  1.00  0.00     0.158 A 
BRANCH  16  19
ATOM     19  O   UNL     1     -39.112   3.139  84.643  1.00  0.00    -0.504 OA
ATOM     20  H   UNL     1     -38.410   2.418  84.754  1.00  0.00     0.293 HD
ENDBRANCH  16  19
BRANCH  18  21
ATOM     21  O   UNL     1     -39.405   1.987  82.080  1.00  0.00    -0.504 OA
ATOM     22  H   UNL     1     -39.124   1.357  82.822  1.00  0.00     0.293 HD
ENDBRANCH  18  21
ENDBRANCH   3  13
BRANCH  10  23
ATOM     23  O   UNL     1     -39.227   9.053  75.575  1.00  0.00    -0.507 OA
ATOM     24  H   UNL     1     -39.209   8.418  74.789  1.00  0.00     0.293 HD
ENDBRANCH  10  23
BRANCH  11  25
ATOM     25  O   UNL     1     -43.449  10.115  77.567  1.00  0.00    -0.508 OA
ATOM     26  H   UNL     1     -44.325   9.671  77.817  1.00  0.00     0.293 HD
ENDBRANCH  11  25
ENDBRANCH   1   2
BRANCH   1  27
ATOM     27  C   UNL     1     -36.015   6.557  80.294  1.00  0.00     0.339 C 
ATOM     28  C   UNL     1     -35.068   5.432  80.768  1.00  0.00     0.214 C 
ATOM     29  O   UNL     1     -35.304   7.574  79.604  1.00  0.00    -0.332 OA
ATOM     30  C   UNL     1     -34.225   4.878  79.604  1.00  0.00     0.180 C 
ATOM     31  C   UNL     1     -34.673   7.068  78.438  1.00  0.00     0.179 C 
ATOM     32  C   UNL     1     -33.587   6.033  78.813  1.00  0.00     0.177 C 
BRANCH  28  33
ATOM     33  O   UNL     1     -35.799   4.393  81.367  1.00  0.00    -0.384 OA
ATOM     34  H   UNL     1     -35.967   4.664  82.307  1.00  0.00     0.211 HD
ENDBRANCH  28  33
BRANCH  30  35
ATOM     35  O   UNL     1     -35.019   4.107  78.739  1.00  0.00    -0.387 OA
ATOM     36  H   UNL     1     -34.658   4.230  77.822  1.00  0.00     0.211 HD
ENDBRANCH  30  35
BRANCH  31  37
ATOM     37  C   UNL     1     -34.081   8.251  77.656  1.00  0.00     0.191 C 
BRANCH  37  38
ATOM     38  O   UNL     1     -35.035   9.263  77.472  1.00  0.00    -0.394 OA
ATOM     39  H   UNL     1     -34.855   9.665  76.582  1.00  0.00     0.210 HD
ENDBRANCH  37  38
ENDBRANCH  31  37
BRANCH  32  40
ATOM     40  O   UNL     1     -32.587   6.650  79.585  1.00  0.00    -0.387 OA
ATOM     41  H   UNL     1     -31.900   5.958  79.771  1.00  0.00     0.211 HD
ENDBRANCH  32  40
ENDBRANCH   1  27
TORSDOF 12
ENDMDL
MODEL 9
REMARK VINA RESULT:    -5.721      3.019      5.780
REMARK INTER + INTRA:         -10.411
REMARK INTER:                  -8.496
REMARK INTRA:                  -1.915
REMARK UNBOUND:                -2.015
REMARK SMILES O=c1c(O[C@@H]2O[C@@H](CO)[C@@H](O)[C@H](O)[C@@H]2O)c(-c2ccc(O)c(O)c2)oc2cc(O)cc(O)c12
REMARK SMILES IDX 4 1 3 2 16 3 25 4 2 5 26 6 1 7 33 8 27 9 31 10 28 11 30 12
REMARK SMILES IDX 17 13 18 14 19 15 20 16 24 17 22 18 21 19 23 21 32 23 29 25
REMARK SMILES IDX 5 27 14 28 6 29 12 30 7 31 10 32 15 33 13 35 8 37 9 38 11 40
REMARK H PARENT 21 20 23 22 32 24 29 26 15 34 13 36 9 39 11 41
REMARK Flexibility Score: inf
ROOT
ATOM      1  O   UNL     1     -36.922   6.574  80.412  1.00  0.00    -0.454 OA
ENDROOT
BRANCH   1   2
ATOM      2  C   UNL     1     -37.998   7.074  79.645  1.00  0.00     0.214 A 
ATOM      3  C   UNL     1     -39.305   6.818  80.099  1.00  0.00     0.180 A 
ATOM      4  O   UNL     1     -40.347   7.353  79.478  1.00  0.00    -0.452 OA
ATOM      5  C   UNL     1     -37.839   7.851  78.472  1.00  0.00     0.239 A 
ATOM      6  C   UNL     1     -40.243   8.092  78.382  1.00  0.00     0.146 A 
ATOM      7  O   UNL     1     -36.686   8.142  78.066  1.00  0.00    -0.285 OA
ATOM      8  C   UNL     1     -38.981   8.334  77.786  1.00  0.00     0.111 A 
ATOM      9  C   UNL     1     -41.408   8.630  77.828  1.00  0.00     0.094 A 
ATOM     10  C   UNL     1     -38.937   9.082  76.571  1.00  0.00     0.134 A 
ATOM     11  C   UNL     1     -41.344   9.418  76.678  1.00  0.00     0.123 A 
ATOM     12  C   UNL     1     -40.114   9.641  76.060  1.00  0.00     0.093 A 
BRANCH   3  13
ATOM     13  C   UNL     1     -39.566   5.978  81.285  1.00  0.00     0.025 A 
ATOM     14  C   UNL     1     -39.338   6.496  82.569  1.00  0.00     0.016 A 
ATOM     15  C   UNL     1     -39.601   5.718  83.699  1.00  0.00     0.051 A 
ATOM     16  C   UNL     1     -40.113   4.424  83.564  1.00  0.00     0.157 A 
ATOM     17  C   UNL     1     -40.100   4.686  81.151  1.00  0.00     0.062 A 
ATOM     18  C   UNL     1     -40.370   3.905  82.283  1.00  0.00     0.158 A 
BRANCH  16  19
ATOM     19  O   UNL     1     -40.367   3.672  84.711  1.00  0.00    -0.504 OA
ATOM     20  H   UNL     1     -41.302   3.383  84.968  1.00  0.00     0.293 HD
ENDBRANCH  16  19
BRANCH  18  21
ATOM     21  O   UNL     1     -40.893   2.621  82.140  1.00  0.00    -0.504 OA
ATOM     22  H   UNL     1     -41.866   2.419  82.338  1.00  0.00     0.293 HD
ENDBRANCH  18  21
ENDBRANCH   3  13
BRANCH  10  23
ATOM     23  O   UNL     1     -37.775   9.273  75.816  1.00  0.00    -0.507 OA
ATOM     24  H   UNL     1     -37.156   8.532  75.521  1.00  0.00     0.293 HD
ENDBRANCH  10  23
BRANCH  11  25
ATOM     25  O   UNL     1     -42.499   9.976  76.134  1.00  0.00    -0.508 OA
ATOM     26  H   UNL     1     -42.485  10.878  75.672  1.00  0.00     0.293 HD
ENDBRANCH  11  25
ENDBRANCH   1   2
BRANCH   1  27
ATOM     27  C   UNL     1     -36.067   5.470  80.090  1.00  0.00     0.339 C 
ATOM     28  C   UNL     1     -34.579   5.864  80.236  1.00  0.00     0.214 C 
ATOM     29  O   UNL     1     -36.376   4.327  80.873  1.00  0.00    -0.332 OA
ATOM     30  C   UNL     1     -34.184   6.034  81.715  1.00  0.00     0.180 C 
ATOM     31  C   UNL     1     -36.162   4.566  82.255  1.00  0.00     0.179 C 
ATOM     32  C   UNL     1     -34.663   4.824  82.535  1.00  0.00     0.177 C 
BRANCH  28  33
ATOM     33  O   UNL     1     -34.313   7.048  79.530  1.00  0.00    -0.384 OA
ATOM     34  H   UNL     1     -33.683   7.579  80.085  1.00  0.00     0.211 HD
ENDBRANCH  28  33
BRANCH  30  35
ATOM     35  O   UNL     1     -34.744   7.206  82.247  1.00  0.00    -0.387 OA
ATOM     36  H   UNL     1     -35.310   6.937  83.016  1.00  0.00     0.211 HD
ENDBRANCH  30  35
BRANCH  31  37
ATOM     37  C   UNL     1     -36.685   3.356  83.044  1.00  0.00     0.191 C 
BRANCH  37  38
ATOM     38  O   UNL     1     -35.765   2.958  84.025  1.00  0.00    -0.394 OA
ATOM     39  H   UNL     1     -35.046   3.643  84.035  1.00  0.00     0.210 HD
ENDBRANCH  37  38
ENDBRANCH  31  37
BRANCH  32  40
ATOM     40  O   UNL     1     -33.912   3.685  82.196  1.00  0.00    -0.387 OA
ATOM     41  H   UNL     1     -34.270   3.352  81.332  1.00  0.00     0.211 HD
ENDBRANCH  32  40
ENDBRANCH   1  27
TORSDOF 12
ENDMDL
