MODEL 1
REMARK VINA RESULT:    -2.654      0.000      0.000
REMARK INTER + INTRA:          -2.732
REMARK INTER:                  -2.732
REMARK INTRA:                   0.000
REMARK UNBOUND:                 0.000
REMARK SMILES CC1(C)[C@@H]2CC[C@@]1(C)[C@@H](O)C2
REMARK SMILES IDX 1 1 2 2 4 3 5 4 6 5 7 6 9 7 11 8 8 9 3 10 10 11
REMARK H PARENT 10 12
REMARK Flexibility Score: inf
ROOT
ATOM      1  C   UNL     1     122.450 117.979 105.973  1.00  0.00     0.012 C 
ATOM      2  C   UNL     1     122.044 118.358 107.431  1.00  0.00    -0.025 C 
ATOM      3  C   UNL     1     122.349 117.263 108.466  1.00  0.00    -0.002 C 
ATOM      4  C   UNL     1     121.441 116.091 108.022  1.00  0.00     0.005 C 
ATOM      5  C   UNL     1     120.180 116.811 107.504  1.00  0.00     0.010 C 
ATOM      6  C   UNL     1     120.527 118.309 107.735  1.00  0.00    -0.001 C 
ATOM      7  C   UNL     1     120.476 118.573 109.270  1.00  0.00     0.121 C 
ATOM      8  C   UNL     1     121.728 117.816 109.774  1.00  0.00     0.036 C 
ATOM      9  C   UNL     1     119.651 119.269 106.920  1.00  0.00     0.015 C 
ATOM     10  C   UNL     1     122.751 119.717 107.729  1.00  0.00     0.012 C 
ENDROOT
BRANCH   7  11
ATOM     11  O   UNL     1     119.299 118.076 109.854  1.00  0.00    -0.393 OA
ATOM     12  H   UNL     1     119.239 118.484 110.758  1.00  0.00     0.210 HD
ENDBRANCH   7  11
TORSDOF 1
ENDMDL
MODEL 2
REMARK VINA RESULT:    -2.641      9.887     11.472
REMARK INTER + INTRA:          -2.718
REMARK INTER:                  -2.718
REMARK INTRA:                   0.000
REMARK UNBOUND:                 0.000
REMARK SMILES CC1(C)[C@@H]2CC[C@@]1(C)[C@@H](O)C2
REMARK SMILES IDX 1 1 2 2 4 3 5 4 6 5 7 6 9 7 11 8 8 9 3 10 10 11
REMARK H PARENT 10 12
REMARK Flexibility Score: inf
ROOT
ATOM      1  C   UNL     1     109.613 114.028 105.915  1.00  0.00     0.012 C 
ATOM      2  C   UNL     1     109.993 113.665 107.384  1.00  0.00    -0.025 C 
ATOM      3  C   UNL     1     109.707 114.787 108.396  1.00  0.00    -0.002 C 
ATOM      4  C   UNL     1     110.652 115.926 107.941  1.00  0.00     0.005 C 
ATOM      5  C   UNL     1     111.898 115.163 107.450  1.00  0.00     0.010 C 
ATOM      6  C   UNL     1     111.507 113.679 107.704  1.00  0.00    -0.001 C 
ATOM      7  C   UNL     1     111.535 113.442 109.245  1.00  0.00     0.121 C 
ATOM      8  C   UNL     1     110.299 114.242 109.721  1.00  0.00     0.036 C 
ATOM      9  C   UNL     1     112.365 112.681 106.917  1.00  0.00     0.015 C 
ATOM     10  C   UNL     1     109.246 112.332 107.699  1.00  0.00     0.012 C 
ENDROOT
BRANCH   7  11
ATOM     11  O   UNL     1     112.719 113.918 109.833  1.00  0.00    -0.393 OA
ATOM     12  H   UNL     1     113.027 113.210 110.457  1.00  0.00     0.210 HD
ENDBRANCH   7  11
TORSDOF 1
ENDMDL
MODEL 3
REMARK VINA RESULT:    -2.641      6.519      8.125
REMARK INTER + INTRA:          -2.718
REMARK INTER:                  -2.718
REMARK INTRA:                   0.000
REMARK UNBOUND:                 0.000
REMARK SMILES CC1(C)[C@@H]2CC[C@@]1(C)[C@@H](O)C2
REMARK SMILES IDX 1 1 2 2 4 3 5 4 6 5 7 6 9 7 11 8 8 9 3 10 10 11
REMARK H PARENT 10 12
REMARK Flexibility Score: inf
ROOT
ATOM      1  C   UNL     1     117.993 109.680 105.981  1.00  0.00     0.012 C 
ATOM      2  C   UNL     1     118.322 110.014 107.470  1.00  0.00    -0.025 C 
ATOM      3  C   UNL     1     117.178 109.696 108.446  1.00  0.00    -0.002 C 
ATOM      4  C   UNL     1     116.048 110.653 107.995  1.00  0.00     0.005 C 
ATOM      5  C   UNL     1     116.821 111.915 107.560  1.00  0.00     0.010 C 
ATOM      6  C   UNL     1     118.300 111.518 107.836  1.00  0.00    -0.001 C 
ATOM      7  C   UNL     1     118.501 111.498 109.381  1.00  0.00     0.121 C 
ATOM      8  C   UNL     1     117.692 110.247 109.801  1.00  0.00     0.036 C 
ATOM      9  C   UNL     1     119.314 112.400 107.098  1.00  0.00     0.015 C 
ATOM     10  C   UNL     1     119.649 109.258 107.791  1.00  0.00     0.012 C 
ENDROOT
BRANCH   7  11
ATOM     11  O   UNL     1     118.010 112.662 109.995  1.00  0.00    -0.393 OA
ATOM     12  H   UNL     1     117.019 112.600 109.963  1.00  0.00     0.210 HD
ENDBRANCH   7  11
TORSDOF 1
ENDMDL
MODEL 4
REMARK VINA RESULT:    -2.639      6.488      8.101
REMARK INTER + INTRA:          -2.716
REMARK INTER:                  -2.716
REMARK INTRA:                   0.000
REMARK UNBOUND:                 0.000
REMARK SMILES CC1(C)[C@@H]2CC[C@@]1(C)[C@@H](O)C2
REMARK SMILES IDX 1 1 2 2 4 3 5 4 6 5 7 6 9 7 11 8 8 9 3 10 10 11
REMARK H PARENT 10 12
REMARK Flexibility Score: inf
ROOT
ATOM      1  C   UNL     1     113.996 122.343 105.988  1.00  0.00     0.012 C 
ATOM      2  C   UNL     1     113.664 122.002 107.474  1.00  0.00    -0.025 C 
ATOM      3  C   UNL     1     114.800 122.330 108.457  1.00  0.00    -0.002 C 
ATOM      4  C   UNL     1     115.942 121.386 108.009  1.00  0.00     0.005 C 
ATOM      5  C   UNL     1     115.185 120.118 107.568  1.00  0.00     0.010 C 
ATOM      6  C   UNL     1     113.701 120.499 107.838  1.00  0.00    -0.001 C 
ATOM      7  C   UNL     1     113.492 120.513 109.382  1.00  0.00     0.121 C 
ATOM      8  C   UNL     1     114.286 121.772 109.808  1.00  0.00     0.036 C 
ATOM      9  C   UNL     1     112.699 119.606 107.094  1.00  0.00     0.015 C 
ATOM     10  C   UNL     1     112.327 122.743 107.792  1.00  0.00     0.012 C 
ENDROOT
BRANCH   7  11
ATOM     11  O   UNL     1     113.993 119.352 109.996  1.00  0.00    -0.393 OA
ATOM     12  H   UNL     1     114.321 118.767 109.263  1.00  0.00     0.210 HD
ENDBRANCH   7  11
TORSDOF 1
ENDMDL
MODEL 5
REMARK VINA RESULT:    -2.627      1.504      2.843
REMARK INTER + INTRA:          -2.704
REMARK INTER:                  -2.704
REMARK INTRA:                   0.000
REMARK UNBOUND:                 0.000
REMARK SMILES CC1(C)[C@@H]2CC[C@@]1(C)[C@@H](O)C2
REMARK SMILES IDX 1 1 2 2 4 3 5 4 6 5 7 6 9 7 11 8 8 9 3 10 10 11
REMARK H PARENT 10 12
REMARK Flexibility Score: inf
ROOT
ATOM      1  C   UNL     1     122.083 116.678 106.357  1.00  0.00     0.012 C 
ATOM      2  C   UNL     1     121.928 117.091 107.854  1.00  0.00    -0.025 C 
ATOM      3  C   UNL     1     120.561 117.709 108.189  1.00  0.00    -0.002 C 
ATOM      4  C   UNL     1     120.540 119.007 107.346  1.00  0.00     0.005 C 
ATOM      5  C   UNL     1     122.010 119.468 107.391  1.00  0.00     0.010 C 
ATOM      6  C   UNL     1     122.681 118.376 108.273  1.00  0.00    -0.001 C 
ATOM      7  C   UNL     1     122.199 118.594 109.740  1.00  0.00     0.121 C 
ATOM      8  C   UNL     1     120.716 118.157 109.665  1.00  0.00     0.036 C 
ATOM      9  C   UNL     1     124.207 118.333 108.131  1.00  0.00     0.015 C 
ATOM     10  C   UNL     1     122.258 115.811 108.684  1.00  0.00     0.012 C 
ENDROOT
BRANCH   7  11
ATOM     11  O   UNL     1     122.326 119.932 110.146  1.00  0.00    -0.393 OA
ATOM     12  H   UNL     1     122.974 120.355 109.523  1.00  0.00     0.210 HD
ENDBRANCH   7  11
TORSDOF 1
ENDMDL
MODEL 6
REMARK VINA RESULT:    -2.621     10.830     11.994
REMARK INTER + INTRA:          -2.698
REMARK INTER:                  -2.698
REMARK INTRA:                   0.000
REMARK UNBOUND:                 0.000
REMARK SMILES CC1(C)[C@@H]2CC[C@@]1(C)[C@@H](O)C2
REMARK SMILES IDX 1 1 2 2 4 3 5 4 6 5 7 6 9 7 11 8 8 9 3 10 10 11
REMARK H PARENT 10 12
REMARK Flexibility Score: inf
ROOT
ATOM      1  C   UNL     1     109.929 115.286 106.333  1.00  0.00     0.012 C 
ATOM      2  C   UNL     1     110.069 114.889 107.836  1.00  0.00    -0.025 C 
ATOM      3  C   UNL     1     111.428 114.262 108.189  1.00  0.00    -0.002 C 
ATOM      4  C   UNL     1     111.442 112.954 107.361  1.00  0.00     0.005 C 
ATOM      5  C   UNL     1     109.967 112.507 107.400  1.00  0.00     0.010 C 
ATOM      6  C   UNL     1     109.301 113.616 108.264  1.00  0.00    -0.001 C 
ATOM      7  C   UNL     1     109.769 113.411 109.737  1.00  0.00     0.121 C 
ATOM      8  C   UNL     1     111.257 113.832 109.668  1.00  0.00     0.036 C 
ATOM      9  C   UNL     1     107.776 113.673 108.110  1.00  0.00     0.015 C 
ATOM     10  C   UNL     1     109.745 116.182 108.648  1.00  0.00     0.012 C 
ENDROOT
BRANCH   7  11
ATOM     11  O   UNL     1     109.626 112.078 110.157  1.00  0.00    -0.393 OA
ATOM     12  H   UNL     1     108.743 111.771 109.822  1.00  0.00     0.210 HD
ENDBRANCH   7  11
TORSDOF 1
ENDMDL
MODEL 7
REMARK VINA RESULT:    -2.605      7.389      9.087
REMARK INTER + INTRA:          -2.682
REMARK INTER:                  -2.682
REMARK INTRA:                   0.000
REMARK UNBOUND:                 0.000
REMARK SMILES CC1(C)[C@@H]2CC[C@@]1(C)[C@@H](O)C2
REMARK SMILES IDX 1 1 2 2 4 3 5 4 6 5 7 6 9 7 11 8 8 9 3 10 10 11
REMARK H PARENT 10 12
REMARK Flexibility Score: inf
ROOT
ATOM      1  C   UNL     1     116.609 109.872 106.370  1.00  0.00     0.012 C 
ATOM      2  C   UNL     1     117.029 110.040 107.864  1.00  0.00    -0.025 C 
ATOM      3  C   UNL     1     117.654 111.408 108.183  1.00  0.00    -0.002 C 
ATOM      4  C   UNL     1     118.948 111.415 107.334  1.00  0.00     0.005 C 
ATOM      5  C   UNL     1     119.404 109.944 107.391  1.00  0.00     0.010 C 
ATOM      6  C   UNL     1     118.313 109.286 108.284  1.00  0.00    -0.001 C 
ATOM      7  C   UNL     1     118.539 109.781 109.745  1.00  0.00     0.121 C 
ATOM      8  C   UNL     1     118.108 111.265 109.658  1.00  0.00     0.036 C 
ATOM      9  C   UNL     1     118.263 107.759 108.157  1.00  0.00     0.015 C 
ATOM     10  C   UNL     1     115.751 109.723 108.703  1.00  0.00     0.012 C 
ENDROOT
BRANCH   7  11
ATOM     11  O   UNL     1     119.879 109.653 110.146  1.00  0.00    -0.393 OA
ATOM     12  H   UNL     1     119.863 109.438 111.116  1.00  0.00     0.210 HD
ENDBRANCH   7  11
TORSDOF 1
ENDMDL
MODEL 8
REMARK VINA RESULT:    -2.575      7.198      8.786
REMARK INTER + INTRA:          -2.651
REMARK INTER:                  -2.651
REMARK INTRA:                   0.000
REMARK UNBOUND:                 0.000
REMARK SMILES CC1(C)[C@@H]2CC[C@@]1(C)[C@@H](O)C2
REMARK SMILES IDX 1 1 2 2 4 3 5 4 6 5 7 6 9 7 11 8 8 9 3 10 10 11
REMARK H PARENT 10 12
REMARK Flexibility Score: inf
ROOT
ATOM      1  C   UNL     1     117.459 111.028 105.996  1.00  0.00     0.012 C 
ATOM      2  C   UNL     1     118.461 110.210 106.870  1.00  0.00    -0.025 C 
ATOM      3  C   UNL     1     117.966 108.799 107.228  1.00  0.00    -0.002 C 
ATOM      4  C   UNL     1     116.710 109.070 108.091  1.00  0.00     0.005 C 
ATOM      5  C   UNL     1     117.098 110.343 108.870  1.00  0.00     0.010 C 
ATOM      6  C   UNL     1     118.539 110.627 108.359  1.00  0.00    -0.001 C 
ATOM      7  C   UNL     1     119.477 109.542 108.970  1.00  0.00     0.121 C 
ATOM      8  C   UNL     1     119.049 108.269 108.200  1.00  0.00     0.036 C 
ATOM      9  C   UNL     1     119.009 112.062 108.628  1.00  0.00     0.015 C 
ATOM     10  C   UNL     1     119.813 110.222 106.091  1.00  0.00     0.012 C 
ENDROOT
BRANCH   7  11
ATOM     11  O   UNL     1     119.289 109.398 110.354  1.00  0.00    -0.393 OA
ATOM     12  H   UNL     1     119.512 108.454 110.572  1.00  0.00     0.210 HD
ENDBRANCH   7  11
TORSDOF 1
ENDMDL
MODEL 9
REMARK VINA RESULT:    -2.562      1.620      2.080
REMARK INTER + INTRA:          -2.636
REMARK INTER:                  -2.636
REMARK INTRA:                   0.000
REMARK UNBOUND:                 0.000
REMARK SMILES CC1(C)[C@@H]2CC[C@@]1(C)[C@@H](O)C2
REMARK SMILES IDX 1 1 2 2 4 3 5 4 6 5 7 6 9 7 11 8 8 9 3 10 10 11
REMARK H PARENT 10 12
REMARK Flexibility Score: inf
ROOT
ATOM      1  C   UNL     1     120.825 117.411 106.109  1.00  0.00     0.012 C 
ATOM      2  C   UNL     1     121.689 118.428 106.918  1.00  0.00    -0.025 C 
ATOM      3  C   UNL     1     123.115 117.935 107.214  1.00  0.00    -0.002 C 
ATOM      4  C   UNL     1     122.885 116.700 108.118  1.00  0.00     0.005 C 
ATOM      5  C   UNL     1     121.654 117.111 108.952  1.00  0.00     0.010 C 
ATOM      6  C   UNL     1     121.350 118.542 108.423  1.00  0.00    -0.001 C 
ATOM      7  C   UNL     1     122.467 119.489 108.957  1.00  0.00     0.121 C 
ATOM      8  C   UNL     1     123.698 119.038 108.133  1.00  0.00     0.036 C 
ATOM      9  C   UNL     1     119.932 119.023 108.754  1.00  0.00     0.015 C 
ATOM     10  C   UNL     1     121.642 119.762 106.109  1.00  0.00     0.012 C 
ENDROOT
BRANCH   7  11
ATOM     11  O   UNL     1     122.681 119.331 110.336  1.00  0.00    -0.393 OA
ATOM     12  H   UNL     1     122.215 120.088 110.781  1.00  0.00     0.210 HD
ENDBRANCH   7  11
TORSDOF 1
ENDMDL
