MODEL 1
REMARK VINA RESULT:    -7.503      0.000      0.000
REMARK INTER + INTRA:          -8.957
REMARK INTER:                  -8.819
REMARK INTRA:                  -0.139
REMARK UNBOUND:                -0.139
REMARK SMILES O=c1c(O)c(-c2ccc(O)cc2)oc2cc(O)cc(O)c12
REMARK SMILES IDX 5 1 3 2 2 3 1 4 21 5 19 6 18 7 16 8 15 9 14 10 13 11 6 12
REMARK SMILES IDX 7 13 8 14 9 15 12 16 11 17 10 18 4 20 20 22 17 24
REMARK H PARENT 10 19 4 21 20 23 17 25
REMARK Flexibility Score: inf
ROOT
ATOM      1  C   UNL     1     -24.844  60.951  31.730  1.00  0.00     0.180 A 
ATOM      2  C   UNL     1     -25.266  60.098  30.696  1.00  0.00     0.208 A 
ATOM      3  C   UNL     1     -24.394  59.843  29.625  1.00  0.00     0.238 A 
ATOM      4  O   UNL     1     -24.749  59.019  28.742  1.00  0.00    -0.285 OA
ATOM      5  C   UNL     1     -23.135  60.489  29.571  1.00  0.00     0.111 A 
ATOM      6  C   UNL     1     -22.190  60.341  28.510  1.00  0.00     0.134 A 
ATOM      7  C   UNL     1     -20.932  60.946  28.617  1.00  0.00     0.093 A 
ATOM      8  C   UNL     1     -20.608  61.747  29.714  1.00  0.00     0.123 A 
ATOM      9  C   UNL     1     -21.543  61.943  30.727  1.00  0.00     0.094 A 
ATOM     10  C   UNL     1     -22.793  61.321  30.669  1.00  0.00     0.146 A 
ATOM     11  O   UNL     1     -23.645  61.517  31.667  1.00  0.00    -0.452 OA
ENDROOT
BRANCH   1  12
ATOM     12  C   UNL     1     -25.700  61.257  32.899  1.00  0.00     0.021 A 
ATOM     13  C   UNL     1     -26.877  62.001  32.718  1.00  0.00     0.016 A 
ATOM     14  C   UNL     1     -27.689  62.321  33.810  1.00  0.00     0.047 A 
ATOM     15  C   UNL     1     -27.325  61.913  35.099  1.00  0.00     0.115 A 
ATOM     16  C   UNL     1     -25.330  60.868  34.199  1.00  0.00     0.016 A 
ATOM     17  C   UNL     1     -26.144  61.190  35.290  1.00  0.00     0.047 A 
BRANCH  15  18
ATOM     18  O   UNL     1     -28.125  62.225  36.197  1.00  0.00    -0.508 OA
ATOM     19  H   UNL     1     -27.766  62.177  37.143  1.00  0.00     0.293 HD
ENDBRANCH  15  18
ENDBRANCH   1  12
BRANCH   2  20
ATOM     20  O   UNL     1     -26.543  59.529  30.730  1.00  0.00    -0.502 OA
ATOM     21  H   UNL     1     -27.259  59.840  31.374  1.00  0.00     0.293 HD
ENDBRANCH   2  20
BRANCH   6  22
ATOM     22  O   UNL     1     -22.444  59.637  27.329  1.00  0.00    -0.507 OA
ATOM     23  H   UNL     1     -23.025  58.817  27.258  1.00  0.00     0.293 HD
ENDBRANCH   6  22
BRANCH   8  24
ATOM     24  O   UNL     1     -19.360  62.360  29.803  1.00  0.00    -0.508 OA
ATOM     25  H   UNL     1     -18.516  61.823  29.961  1.00  0.00     0.293 HD
ENDBRANCH   8  24
TORSDOF 5
ENDMDL
MODEL 2
REMARK VINA RESULT:    -6.927      1.725      1.899
REMARK INTER + INTRA:          -8.281
REMARK INTER:                  -8.124
REMARK INTRA:                  -0.156
REMARK UNBOUND:                -0.139
REMARK SMILES O=c1c(O)c(-c2ccc(O)cc2)oc2cc(O)cc(O)c12
REMARK SMILES IDX 5 1 3 2 2 3 1 4 21 5 19 6 18 7 16 8 15 9 14 10 13 11 6 12
REMARK SMILES IDX 7 13 8 14 9 15 12 16 11 17 10 18 4 20 20 22 17 24
REMARK H PARENT 10 19 4 21 20 23 17 25
REMARK Flexibility Score: inf
ROOT
ATOM      1  C   UNL     1     -24.927  60.232  32.034  1.00  0.00     0.180 A 
ATOM      2  C   UNL     1     -24.560  58.875  32.020  1.00  0.00     0.208 A 
ATOM      3  C   UNL     1     -23.758  58.396  30.973  1.00  0.00     0.238 A 
ATOM      4  O   UNL     1     -23.372  57.199  31.007  1.00  0.00    -0.285 OA
ATOM      5  C   UNL     1     -23.379  59.266  29.921  1.00  0.00     0.111 A 
ATOM      6  C   UNL     1     -22.605  58.878  28.784  1.00  0.00     0.134 A 
ATOM      7  C   UNL     1     -22.201  59.849  27.860  1.00  0.00     0.093 A 
ATOM      8  C   UNL     1     -22.596  61.182  27.996  1.00  0.00     0.123 A 
ATOM      9  C   UNL     1     -23.397  61.560  29.070  1.00  0.00     0.094 A 
ATOM     10  C   UNL     1     -23.784  60.621  30.031  1.00  0.00     0.146 A 
ATOM     11  O   UNL     1     -24.529  61.030  31.050  1.00  0.00    -0.452 OA
ENDROOT
BRANCH   1  12
ATOM     12  C   UNL     1     -25.758  60.813  33.112  1.00  0.00     0.021 A 
ATOM     13  C   UNL     1     -27.013  61.361  32.798  1.00  0.00     0.016 A 
ATOM     14  C   UNL     1     -27.805  61.937  33.795  1.00  0.00     0.047 A 
ATOM     15  C   UNL     1     -27.345  61.985  35.117  1.00  0.00     0.115 A 
ATOM     16  C   UNL     1     -25.294  60.884  34.438  1.00  0.00     0.016 A 
ATOM     17  C   UNL     1     -26.089  61.461  35.434  1.00  0.00     0.047 A 
BRANCH  15  18
ATOM     18  O   UNL     1     -28.125  62.555  36.121  1.00  0.00    -0.508 OA
ATOM     19  H   UNL     1     -28.324  63.549  36.136  1.00  0.00     0.293 HD
ENDBRANCH  15  18
ENDBRANCH   1  12
BRANCH   2  20
ATOM     20  O   UNL     1     -25.008  58.015  33.028  1.00  0.00    -0.502 OA
ATOM     21  H   UNL     1     -24.463  57.821  33.859  1.00  0.00     0.293 HD
ENDBRANCH   2  20
BRANCH   6  22
ATOM     22  O   UNL     1     -22.231  57.559  28.504  1.00  0.00    -0.507 OA
ATOM     23  H   UNL     1     -21.568  57.021  29.039  1.00  0.00     0.293 HD
ENDBRANCH   6  22
BRANCH   8  24
ATOM     24  O   UNL     1     -22.203  62.138  27.062  1.00  0.00    -0.508 OA
ATOM     25  H   UNL     1     -21.874  63.054  27.347  1.00  0.00     0.293 HD
ENDBRANCH   8  24
TORSDOF 5
ENDMDL
MODEL 3
REMARK VINA RESULT:    -6.735      1.838      2.981
REMARK INTER + INTRA:          -8.054
REMARK INTER:                  -7.763
REMARK INTRA:                  -0.292
REMARK UNBOUND:                -0.139
REMARK SMILES O=c1c(O)c(-c2ccc(O)cc2)oc2cc(O)cc(O)c12
REMARK SMILES IDX 5 1 3 2 2 3 1 4 21 5 19 6 18 7 16 8 15 9 14 10 13 11 6 12
REMARK SMILES IDX 7 13 8 14 9 15 12 16 11 17 10 18 4 20 20 22 17 24
REMARK H PARENT 10 19 4 21 20 23 17 25
REMARK Flexibility Score: inf
ROOT
ATOM      1  C   UNL     1     -25.062  60.605  31.250  1.00  0.00     0.180 A 
ATOM      2  C   UNL     1     -24.693  61.670  30.411  1.00  0.00     0.208 A 
ATOM      3  C   UNL     1     -23.937  61.400  29.260  1.00  0.00     0.238 A 
ATOM      4  O   UNL     1     -23.674  62.348  28.475  1.00  0.00    -0.285 OA
ATOM      5  C   UNL     1     -23.510  60.077  28.990  1.00  0.00     0.111 A 
ATOM      6  C   UNL     1     -22.702  59.694  27.877  1.00  0.00     0.134 A 
ATOM      7  C   UNL     1     -22.431  58.339  27.653  1.00  0.00     0.093 A 
ATOM      8  C   UNL     1     -22.884  57.358  28.538  1.00  0.00     0.123 A 
ATOM      9  C   UNL     1     -23.626  57.725  29.657  1.00  0.00     0.094 A 
ATOM     10  C   UNL     1     -23.947  59.067  29.887  1.00  0.00     0.146 A 
ATOM     11  O   UNL     1     -24.675  59.370  30.954  1.00  0.00    -0.452 OA
ENDROOT
BRANCH   1  12
ATOM     12  C   UNL     1     -25.871  60.808  32.474  1.00  0.00     0.021 A 
ATOM     13  C   UNL     1     -25.229  60.887  33.721  1.00  0.00     0.016 A 
ATOM     14  C   UNL     1     -25.974  61.055  34.892  1.00  0.00     0.047 A 
ATOM     15  C   UNL     1     -27.371  61.131  34.831  1.00  0.00     0.115 A 
ATOM     16  C   UNL     1     -27.276  60.864  32.423  1.00  0.00     0.016 A 
ATOM     17  C   UNL     1     -28.018  61.032  33.596  1.00  0.00     0.047 A 
BRANCH  15  18
ATOM     18  O   UNL     1     -28.125  61.299  35.991  1.00  0.00    -0.508 OA
ATOM     19  H   UNL     1     -28.496  62.204  36.254  1.00  0.00     0.293 HD
ENDBRANCH  15  18
ENDBRANCH   1  12
BRANCH   2  20
ATOM     20  O   UNL     1     -25.059  62.980  30.735  1.00  0.00    -0.502 OA
ATOM     21  H   UNL     1     -24.627  63.493  31.494  1.00  0.00     0.293 HD
ENDBRANCH   2  20
BRANCH   6  22
ATOM     22  O   UNL     1     -22.123  60.600  26.981  1.00  0.00    -0.507 OA
ATOM     23  H   UNL     1     -21.830  60.377  26.043  1.00  0.00     0.293 HD
ENDBRANCH   6  22
BRANCH   8  24
ATOM     24  O   UNL     1     -22.595  56.013  28.318  1.00  0.00    -0.508 OA
ATOM     25  H   UNL     1     -23.010  55.500  27.549  1.00  0.00     0.293 HD
ENDBRANCH   8  24
TORSDOF 5
ENDMDL
MODEL 4
REMARK VINA RESULT:    -6.721      3.289      6.276
REMARK INTER + INTRA:          -8.038
REMARK INTER:                  -7.741
REMARK INTRA:                  -0.297
REMARK UNBOUND:                -0.139
REMARK SMILES O=c1c(O)c(-c2ccc(O)cc2)oc2cc(O)cc(O)c12
REMARK SMILES IDX 5 1 3 2 2 3 1 4 21 5 19 6 18 7 16 8 15 9 14 10 13 11 6 12
REMARK SMILES IDX 7 13 8 14 9 15 12 16 11 17 10 18 4 20 20 22 17 24
REMARK H PARENT 10 19 4 21 20 23 17 25
REMARK Flexibility Score: inf
ROOT
ATOM      1  C   UNL     1     -22.166  60.744  33.189  1.00  0.00     0.180 A 
ATOM      2  C   UNL     1     -22.241  61.159  31.848  1.00  0.00     0.208 A 
ATOM      3  C   UNL     1     -23.502  61.287  31.245  1.00  0.00     0.238 A 
ATOM      4  O   UNL     1     -23.566  61.730  30.068  1.00  0.00    -0.285 OA
ATOM      5  C   UNL     1     -24.669  60.944  31.970  1.00  0.00     0.111 A 
ATOM      6  C   UNL     1     -25.997  60.991  31.444  1.00  0.00     0.134 A 
ATOM      7  C   UNL     1     -27.083  60.732  32.288  1.00  0.00     0.093 A 
ATOM      8  C   UNL     1     -26.889  60.364  33.621  1.00  0.00     0.123 A 
ATOM      9  C   UNL     1     -25.596  60.261  34.129  1.00  0.00     0.094 A 
ATOM     10  C   UNL     1     -24.492  60.551  33.322  1.00  0.00     0.146 A 
ATOM     11  O   UNL     1     -23.280  60.461  33.853  1.00  0.00    -0.452 OA
ENDROOT
BRANCH   1  12
ATOM     12  C   UNL     1     -20.874  60.600  33.898  1.00  0.00     0.021 A 
ATOM     13  C   UNL     1     -20.253  59.342  33.954  1.00  0.00     0.016 A 
ATOM     14  C   UNL     1     -19.045  59.177  34.638  1.00  0.00     0.047 A 
ATOM     15  C   UNL     1     -18.451  60.266  35.287  1.00  0.00     0.115 A 
ATOM     16  C   UNL     1     -20.281  61.686  34.569  1.00  0.00     0.016 A 
ATOM     17  C   UNL     1     -19.073  61.517  35.253  1.00  0.00     0.047 A 
BRANCH  15  18
ATOM     18  O   UNL     1     -17.247  60.116  35.972  1.00  0.00    -0.508 OA
ATOM     19  H   UNL     1     -16.356  60.276  35.517  1.00  0.00     0.293 HD
ENDBRANCH  15  18
ENDBRANCH   1  12
BRANCH   2  20
ATOM     20  O   UNL     1     -21.073  61.418  31.125  1.00  0.00    -0.502 OA
ATOM     21  H   UNL     1     -20.216  60.899  31.272  1.00  0.00     0.293 HD
ENDBRANCH   2  20
BRANCH   6  22
ATOM     22  O   UNL     1     -26.299  61.261  30.105  1.00  0.00    -0.507 OA
ATOM     23  H   UNL     1     -26.112  62.132  29.635  1.00  0.00     0.293 HD
ENDBRANCH   6  22
BRANCH   8  24
ATOM     24  O   UNL     1     -27.975  60.090  34.449  1.00  0.00    -0.508 OA
ATOM     25  H   UNL     1     -28.663  59.386  34.207  1.00  0.00     0.293 HD
ENDBRANCH   8  24
TORSDOF 5
ENDMDL
MODEL 5
REMARK VINA RESULT:    -6.684      3.305      6.242
REMARK INTER + INTRA:          -7.995
REMARK INTER:                  -7.710
REMARK INTRA:                  -0.285
REMARK UNBOUND:                -0.139
REMARK SMILES O=c1c(O)c(-c2ccc(O)cc2)oc2cc(O)cc(O)c12
REMARK SMILES IDX 5 1 3 2 2 3 1 4 21 5 19 6 18 7 16 8 15 9 14 10 13 11 6 12
REMARK SMILES IDX 7 13 8 14 9 15 12 16 11 17 10 18 4 20 20 22 17 24
REMARK H PARENT 10 19 4 21 20 23 17 25
REMARK Flexibility Score: inf
ROOT
ATOM      1  C   UNL     1     -22.210  60.678  33.234  1.00  0.00     0.180 A 
ATOM      2  C   UNL     1     -22.255  61.071  31.886  1.00  0.00     0.208 A 
ATOM      3  C   UNL     1     -23.503  61.223  31.262  1.00  0.00     0.238 A 
ATOM      4  O   UNL     1     -23.537  61.648  30.077  1.00  0.00    -0.285 OA
ATOM      5  C   UNL     1     -24.690  60.925  31.975  1.00  0.00     0.111 A 
ATOM      6  C   UNL     1     -26.007  61.000  31.429  1.00  0.00     0.134 A 
ATOM      7  C   UNL     1     -27.113  60.785  32.261  1.00  0.00     0.093 A 
ATOM      8  C   UNL     1     -26.948  60.434  33.603  1.00  0.00     0.123 A 
ATOM      9  C   UNL     1     -25.666  60.304  34.131  1.00  0.00     0.094 A 
ATOM     10  C   UNL     1     -24.543  60.551  33.336  1.00  0.00     0.146 A 
ATOM     11  O   UNL     1     -23.341  60.437  33.887  1.00  0.00    -0.452 OA
ENDROOT
BRANCH   1  12
ATOM     12  C   UNL     1     -20.934  60.510  33.965  1.00  0.00     0.021 A 
ATOM     13  C   UNL     1     -20.327  61.628  34.562  1.00  0.00     0.016 A 
ATOM     14  C   UNL     1     -19.110  61.499  35.237  1.00  0.00     0.047 A 
ATOM     15  C   UNL     1     -18.477  60.252  35.311  1.00  0.00     0.115 A 
ATOM     16  C   UNL     1     -20.281  59.265  34.026  1.00  0.00     0.016 A 
ATOM     17  C   UNL     1     -19.063  59.139  34.702  1.00  0.00     0.047 A 
BRANCH  15  18
ATOM     18  O   UNL     1     -17.264  60.109  35.981  1.00  0.00    -0.508 OA
ATOM     19  H   UNL     1     -16.492  59.593  35.574  1.00  0.00     0.293 HD
ENDBRANCH  15  18
ENDBRANCH   1  12
BRANCH   2  20
ATOM     20  O   UNL     1     -21.070  61.286  31.176  1.00  0.00    -0.502 OA
ATOM     21  H   UNL     1     -21.012  61.182  30.171  1.00  0.00     0.293 HD
ENDBRANCH   2  20
BRANCH   6  22
ATOM     22  O   UNL     1     -26.283  61.255  30.082  1.00  0.00    -0.507 OA
ATOM     23  H   UNL     1     -25.601  61.537  29.396  1.00  0.00     0.293 HD
ENDBRANCH   6  22
BRANCH   8  24
ATOM     24  O   UNL     1     -28.054  60.205  34.419  1.00  0.00    -0.508 OA
ATOM     25  H   UNL     1     -28.978  60.534  34.164  1.00  0.00     0.293 HD
ENDBRANCH   8  24
TORSDOF 5
ENDMDL
MODEL 6
REMARK VINA RESULT:    -6.474      2.076      6.447
REMARK INTER + INTRA:          -7.748
REMARK INTER:                  -7.453
REMARK INTRA:                  -0.294
REMARK UNBOUND:                -0.139
REMARK SMILES O=c1c(O)c(-c2ccc(O)cc2)oc2cc(O)cc(O)c12
REMARK SMILES IDX 5 1 3 2 2 3 1 4 21 5 19 6 18 7 16 8 15 9 14 10 13 11 6 12
REMARK SMILES IDX 7 13 8 14 9 15 12 16 11 17 10 18 4 20 20 22 17 24
REMARK H PARENT 10 19 4 21 20 23 17 25
REMARK Flexibility Score: inf
ROOT
ATOM      1  C   UNL     1     -24.131  60.258  30.862  1.00  0.00     0.180 A 
ATOM      2  C   UNL     1     -25.387  60.851  31.075  1.00  0.00     0.208 A 
ATOM      3  C   UNL     1     -25.774  61.175  32.385  1.00  0.00     0.238 A 
ATOM      4  O   UNL     1     -26.868  61.774  32.559  1.00  0.00    -0.285 OA
ATOM      5  C   UNL     1     -24.926  60.851  33.471  1.00  0.00     0.111 A 
ATOM      6  C   UNL     1     -25.237  61.091  34.845  1.00  0.00     0.134 A 
ATOM      7  C   UNL     1     -24.275  60.826  35.827  1.00  0.00     0.093 A 
ATOM      8  C   UNL     1     -23.039  60.268  35.493  1.00  0.00     0.123 A 
ATOM      9  C   UNL     1     -22.748  59.978  34.163  1.00  0.00     0.094 A 
ATOM     10  C   UNL     1     -23.672  60.268  33.155  1.00  0.00     0.146 A 
ATOM     11  O   UNL     1     -23.344  59.995  31.898  1.00  0.00    -0.452 OA
ENDROOT
BRANCH   1  12
ATOM     12  C   UNL     1     -23.647  59.901  29.509  1.00  0.00     0.021 A 
ATOM     13  C   UNL     1     -23.786  58.581  29.051  1.00  0.00     0.016 A 
ATOM     14  C   UNL     1     -23.315  58.215  27.786  1.00  0.00     0.047 A 
ATOM     15  C   UNL     1     -22.685  59.163  26.971  1.00  0.00     0.115 A 
ATOM     16  C   UNL     1     -22.994  60.843  28.692  1.00  0.00     0.016 A 
ATOM     17  C   UNL     1     -22.523  60.474  27.428  1.00  0.00     0.047 A 
BRANCH  15  18
ATOM     18  O   UNL     1     -22.211  58.812  25.708  1.00  0.00    -0.508 OA
ATOM     19  H   UNL     1     -21.383  58.239  25.595  1.00  0.00     0.293 HD
ENDBRANCH  15  18
ENDBRANCH   1  12
BRANCH   2  20
ATOM     20  O   UNL     1     -26.243  61.093  29.996  1.00  0.00    -0.502 OA
ATOM     21  H   UNL     1     -26.803  60.364  29.572  1.00  0.00     0.293 HD
ENDBRANCH   2  20
BRANCH   6  22
ATOM     22  O   UNL     1     -26.474  61.563  35.297  1.00  0.00    -0.507 OA
ATOM     23  H   UNL     1     -27.252  61.803  34.704  1.00  0.00     0.293 HD
ENDBRANCH   6  22
BRANCH   8  24
ATOM     24  O   UNL     1     -22.094  59.991  36.479  1.00  0.00    -0.508 OA
ATOM     25  H   UNL     1     -21.106  59.932  36.264  1.00  0.00     0.293 HD
ENDBRANCH   8  24
TORSDOF 5
ENDMDL
MODEL 7
REMARK VINA RESULT:    -6.422     16.814     20.130
REMARK INTER + INTRA:          -7.687
REMARK INTER:                  -7.908
REMARK INTRA:                   0.221
REMARK UNBOUND:                -0.139
REMARK SMILES O=c1c(O)c(-c2ccc(O)cc2)oc2cc(O)cc(O)c12
REMARK SMILES IDX 5 1 3 2 2 3 1 4 21 5 19 6 18 7 16 8 15 9 14 10 13 11 6 12
REMARK SMILES IDX 7 13 8 14 9 15 12 16 11 17 10 18 4 20 20 22 17 24
REMARK H PARENT 10 19 4 21 20 23 17 25
REMARK Flexibility Score: inf
ROOT
ATOM      1  C   UNL     1     -14.481  45.748  24.778  1.00  0.00     0.180 A 
ATOM      2  C   UNL     1     -14.285  47.116  25.033  1.00  0.00     0.208 A 
ATOM      3  C   UNL     1     -14.881  47.690  26.167  1.00  0.00     0.238 A 
ATOM      4  O   UNL     1     -14.640  48.897  26.430  1.00  0.00    -0.285 OA
ATOM      5  C   UNL     1     -15.714  46.903  27.001  1.00  0.00     0.111 A 
ATOM      6  C   UNL     1     -16.406  47.391  28.151  1.00  0.00     0.134 A 
ATOM      7  C   UNL     1     -17.116  46.496  28.961  1.00  0.00     0.093 A 
ATOM      8  C   UNL     1     -17.212  45.143  28.627  1.00  0.00     0.123 A 
ATOM      9  C   UNL     1     -16.586  44.668  27.478  1.00  0.00     0.094 A 
ATOM     10  C   UNL     1     -15.838  45.529  26.670  1.00  0.00     0.146 A 
ATOM     11  O   UNL     1     -15.240  45.029  25.596  1.00  0.00    -0.452 OA
ENDROOT
BRANCH   1  12
ATOM     12  C   UNL     1     -13.873  45.069  23.611  1.00  0.00     0.021 A 
ATOM     13  C   UNL     1     -14.551  43.998  23.005  1.00  0.00     0.016 A 
ATOM     14  C   UNL     1     -13.985  43.326  21.917  1.00  0.00     0.047 A 
ATOM     15  C   UNL     1     -12.728  43.708  21.432  1.00  0.00     0.115 A 
ATOM     16  C   UNL     1     -12.602  45.433  23.131  1.00  0.00     0.016 A 
ATOM     17  C   UNL     1     -12.038  44.759  22.043  1.00  0.00     0.047 A 
BRANCH  15  18
ATOM     18  O   UNL     1     -12.154  43.047  20.348  1.00  0.00    -0.508 OA
ATOM     19  H   UNL     1     -11.542  42.250  20.479  1.00  0.00     0.293 HD
ENDBRANCH  15  18
ENDBRANCH   1  12
BRANCH   2  20
ATOM     20  O   UNL     1     -13.522  47.893  24.156  1.00  0.00    -0.502 OA
ATOM     21  H   UNL     1     -12.746  47.514  23.629  1.00  0.00     0.293 HD
ENDBRANCH   2  20
BRANCH   6  22
ATOM     22  O   UNL     1     -16.450  48.738  28.526  1.00  0.00    -0.507 OA
ATOM     23  H   UNL     1     -16.956  49.100  29.319  1.00  0.00     0.293 HD
ENDBRANCH   6  22
BRANCH   8  24
ATOM     24  O   UNL     1     -17.935  44.262  29.429  1.00  0.00    -0.508 OA
ATOM     25  H   UNL     1     -18.924  44.393  29.602  1.00  0.00     0.293 HD
ENDBRANCH   8  24
TORSDOF 5
ENDMDL
MODEL 8
REMARK VINA RESULT:    -6.420      3.439      5.420
REMARK INTER + INTRA:          -7.685
REMARK INTER:                  -7.426
REMARK INTRA:                  -0.259
REMARK UNBOUND:                -0.139
REMARK SMILES O=c1c(O)c(-c2ccc(O)cc2)oc2cc(O)cc(O)c12
REMARK SMILES IDX 5 1 3 2 2 3 1 4 21 5 19 6 18 7 16 8 15 9 14 10 13 11 6 12
REMARK SMILES IDX 7 13 8 14 9 15 12 16 11 17 10 18 4 20 20 22 17 24
REMARK H PARENT 10 19 4 21 20 23 17 25
REMARK Flexibility Score: inf
ROOT
ATOM      1  C   UNL     1     -21.364  60.788  32.504  1.00  0.00     0.180 A 
ATOM      2  C   UNL     1     -22.712  60.949  32.865  1.00  0.00     0.208 A 
ATOM      3  C   UNL     1     -23.650  61.266  31.870  1.00  0.00     0.238 A 
ATOM      4  O   UNL     1     -24.867  61.335  32.188  1.00  0.00    -0.285 OA
ATOM      5  C   UNL     1     -23.221  61.476  30.537  1.00  0.00     0.111 A 
ATOM      6  C   UNL     1     -24.078  61.847  29.456  1.00  0.00     0.134 A 
ATOM      7  C   UNL     1     -23.559  61.922  28.158  1.00  0.00     0.093 A 
ATOM      8  C   UNL     1     -22.201  61.704  27.910  1.00  0.00     0.123 A 
ATOM      9  C   UNL     1     -21.347  61.397  28.966  1.00  0.00     0.094 A 
ATOM     10  C   UNL     1     -21.842  61.275  30.267  1.00  0.00     0.146 A 
ATOM     11  O   UNL     1     -20.996  60.960  31.239  1.00  0.00    -0.452 OA
ENDROOT
BRANCH   1  12
ATOM     12  C   UNL     1     -20.319  60.439  33.493  1.00  0.00     0.021 A 
ATOM     13  C   UNL     1     -19.773  61.446  34.307  1.00  0.00     0.016 A 
ATOM     14  C   UNL     1     -18.769  61.144  35.231  1.00  0.00     0.047 A 
ATOM     15  C   UNL     1     -18.288  59.834  35.343  1.00  0.00     0.115 A 
ATOM     16  C   UNL     1     -19.815  59.129  33.596  1.00  0.00     0.016 A 
ATOM     17  C   UNL     1     -18.810  58.831  34.522  1.00  0.00     0.047 A 
BRANCH  15  18
ATOM     18  O   UNL     1     -17.287  59.519  36.260  1.00  0.00    -0.508 OA
ATOM     19  H   UNL     1     -16.464  60.100  36.364  1.00  0.00     0.293 HD
ENDBRANCH  15  18
ENDBRANCH   1  12
BRANCH   2  20
ATOM     20  O   UNL     1     -23.104  60.813  34.200  1.00  0.00    -0.502 OA
ATOM     21  H   UNL     1     -22.633  60.190  34.844  1.00  0.00     0.293 HD
ENDBRANCH   2  20
BRANCH   6  22
ATOM     22  O   UNL     1     -25.430  62.173  29.604  1.00  0.00    -0.507 OA
ATOM     23  H   UNL     1     -26.050  61.768  30.287  1.00  0.00     0.293 HD
ENDBRANCH   6  22
BRANCH   8  24
ATOM     24  O   UNL     1     -21.690  61.798  26.618  1.00  0.00    -0.508 OA
ATOM     25  H   UNL     1     -20.743  62.115  26.444  1.00  0.00     0.293 HD
ENDBRANCH   8  24
TORSDOF 5
ENDMDL
MODEL 9
REMARK VINA RESULT:    -6.387     17.739     20.187
REMARK INTER + INTRA:          -7.645
REMARK INTER:                  -7.366
REMARK INTRA:                  -0.279
REMARK UNBOUND:                -0.139
REMARK SMILES O=c1c(O)c(-c2ccc(O)cc2)oc2cc(O)cc(O)c12
REMARK SMILES IDX 5 1 3 2 2 3 1 4 21 5 19 6 18 7 16 8 15 9 14 10 13 11 6 12
REMARK SMILES IDX 7 13 8 14 9 15 12 16 11 17 10 18 4 20 20 22 17 24
REMARK H PARENT 10 19 4 21 20 23 17 25
REMARK Flexibility Score: inf
ROOT
ATOM      1  C   UNL     1     -15.030  45.101  24.989  1.00  0.00     0.180 A 
ATOM      2  C   UNL     1     -13.866  45.872  25.148  1.00  0.00     0.208 A 
ATOM      3  C   UNL     1     -12.931  45.917  24.102  1.00  0.00     0.238 A 
ATOM      4  O   UNL     1     -11.927  46.668  24.222  1.00  0.00    -0.285 OA
ATOM      5  C   UNL     1     -13.143  45.146  22.932  1.00  0.00     0.111 A 
ATOM      6  C   UNL     1     -12.239  45.080  21.828  1.00  0.00     0.134 A 
ATOM      7  C   UNL     1     -12.605  44.368  20.679  1.00  0.00     0.093 A 
ATOM      8  C   UNL     1     -13.811  43.666  20.619  1.00  0.00     0.123 A 
ATOM      9  C   UNL     1     -14.674  43.679  21.712  1.00  0.00     0.094 A 
ATOM     10  C   UNL     1     -14.356  44.413  22.858  1.00  0.00     0.146 A 
ATOM     11  O   UNL     1     -15.217  44.415  23.868  1.00  0.00    -0.452 OA
ENDROOT
BRANCH   1  12
ATOM     12  C   UNL     1     -16.069  45.016  26.040  1.00  0.00     0.021 A 
ATOM     13  C   UNL     1     -16.125  43.881  26.866  1.00  0.00     0.016 A 
ATOM     14  C   UNL     1     -17.111  43.767  27.850  1.00  0.00     0.047 A 
ATOM     15  C   UNL     1     -18.063  44.782  28.011  1.00  0.00     0.115 A 
ATOM     16  C   UNL     1     -17.041  46.021  26.194  1.00  0.00     0.016 A 
ATOM     17  C   UNL     1     -18.027  45.905  27.179  1.00  0.00     0.047 A 
BRANCH  15  18
ATOM     18  O   UNL     1     -19.051  44.681  28.988  1.00  0.00    -0.508 OA
ATOM     19  H   UNL     1     -19.092  45.328  29.767  1.00  0.00     0.293 HD
ENDBRANCH  15  18
ENDBRANCH   1  12
BRANCH   2  20
ATOM     20  O   UNL     1     -13.638  46.565  26.341  1.00  0.00    -0.502 OA
ATOM     21  H   UNL     1     -14.368  46.726  27.023  1.00  0.00     0.293 HD
ENDBRANCH   2  20
BRANCH   6  22
ATOM     22  O   UNL     1     -10.971  45.669  21.817  1.00  0.00    -0.507 OA
ATOM     23  H   UNL     1     -10.750  46.572  22.206  1.00  0.00     0.293 HD
ENDBRANCH   6  22
BRANCH   8  24
ATOM     24  O   UNL     1     -14.159  42.946  19.478  1.00  0.00    -0.508 OA
ATOM     25  H   UNL     1     -15.127  42.765  19.240  1.00  0.00     0.293 HD
ENDBRANCH   8  24
TORSDOF 5
ENDMDL
