MODEL 1
REMARK VINA RESULT:    -4.106      0.000      0.000
REMARK INTER + INTRA:          -5.693
REMARK INTER:                  -6.027
REMARK INTRA:                   0.333
REMARK UNBOUND:                 0.333
REMARK SMILES C=C1CC=CC(C)(C)CC=C(C)CCC1
REMARK SMILES IDX 2 1 1 2 15 3 14 4 13 5 11 6 12 7 10 8 3 10 4 11 5 12 6 13
REMARK SMILES IDX 7 14 8 15 9 16
REMARK H PARENT
REMARK Flexibility Score: 60.00
ROOT
ATOM      1  C   UNL     1      -1.056   1.196  11.940  1.00  0.00    -0.074 C 
ATOM      2  C   UNL     1      -1.378  -0.110  11.923  1.00  0.00     0.008 C 
ENDROOT
BRANCH   1   3
ATOM      3  C   UNL     1      -0.234   1.741  13.099  1.00  0.00     0.031 C 
BRANCH   3   4
ATOM      4  C   UNL     1      -0.972   1.679  14.453  1.00  0.00     0.009 C 
BRANCH   4   5
ATOM      5  C   UNL     1      -2.133   2.678  14.582  1.00  0.00     0.030 C 
BRANCH   5   6
ATOM      6  C   UNL     1      -1.675   4.124  14.533  1.00  0.00    -0.077 C 
ATOM      7  C   UNL     1      -0.624   4.566  15.520  1.00  0.00     0.039 C 
ATOM      8  C   UNL     1      -2.155   5.047  13.665  1.00  0.00    -0.027 CG0
ATOM      9  G   UNL     1      -3.204   4.814  12.597  1.00  0.00     0.000 G0
ENDBRANCH   5   6
ENDBRANCH   4   5
ENDBRANCH   3   4
ENDBRANCH   1   3
BRANCH   1  10
ATOM     10  C   UNL     1      -1.517   2.076  10.792  1.00  0.00     0.057 C 
BRANCH  10  11
ATOM     11  C   UNL     1      -0.786   3.392  10.741  1.00  0.00    -0.026 C 
ATOM     12  C   UNL     1      -1.292   4.638  10.879  1.00  0.00    -0.024 C 
BRANCH  12  13
ATOM     13  C   UNL     1      -2.743   5.091  11.111  1.00  0.00    -0.014 C 
ATOM     14  C   UNL     1      -2.762   6.630  10.912  1.00  0.00     0.016 C 
ATOM     15  C   UNL     1      -3.686   4.509  10.030  1.00  0.00     0.016 C 
BRANCH  13  16
ATOM     16  C   UNL     1      -3.213   4.829  12.584  1.00  0.00     0.038 CG0
ATOM     17  G   UNL     1      -2.175   5.053  13.664  1.00  0.00     0.000 G0
ENDBRANCH  13  16
ENDBRANCH  12  13
ENDBRANCH  10  11
ENDBRANCH   1  10
TORSDOF 0
ENDMDL
MODEL 2
REMARK VINA RESULT:    -3.769      1.665      3.858
REMARK INTER + INTRA:          -5.198
REMARK INTER:                  -5.669
REMARK INTRA:                   0.470
REMARK UNBOUND:                 0.333
REMARK SMILES C=C1CC=CC(C)(C)CC=C(C)CCC1
REMARK SMILES IDX 2 1 1 2 15 3 14 4 13 5 11 6 12 7 10 8 3 10 4 11 5 12 6 13
REMARK SMILES IDX 7 14 8 15 9 16
REMARK H PARENT
REMARK Flexibility Score: 60.00
ROOT
ATOM      1  C   UNL     1      -0.982   1.929  13.921  1.00  0.00    -0.074 C 
ATOM      2  C   UNL     1      -2.191   1.608  14.414  1.00  0.00     0.008 C 
ENDROOT
BRANCH   1   3
ATOM      3  C   UNL     1      -0.516   1.290  12.620  1.00  0.00     0.031 C 
BRANCH   3   4
ATOM      4  C   UNL     1      -1.304   1.776  11.386  1.00  0.00     0.009 C 
BRANCH   4   5
ATOM      5  C   UNL     1      -0.784   3.094  10.788  1.00  0.00     0.030 C 
BRANCH   5   6
ATOM      6  C   UNL     1      -1.660   4.284  11.133  1.00  0.00    -0.077 C 
ATOM      7  C   UNL     1      -3.054   4.325  10.558  1.00  0.00     0.039 C 
ATOM      8  C   UNL     1      -1.269   5.317  11.917  1.00  0.00    -0.027 CG0
ATOM      9  G   UNL     1       0.079   5.470  12.592  1.00  0.00     0.000 G0
ENDBRANCH   5   6
ENDBRANCH   4   5
ENDBRANCH   3   4
ENDBRANCH   1   3
BRANCH   1  10
ATOM     10  C   UNL     1      -0.129   2.931  14.680  1.00  0.00     0.057 C 
BRANCH  10  11
ATOM     11  C   UNL     1      -0.942   4.054  15.269  1.00  0.00    -0.026 C 
ATOM     12  C   UNL     1      -0.866   5.377  14.999  1.00  0.00    -0.024 C 
BRANCH  12  13
ATOM     13  C   UNL     1       0.065   6.133  14.037  1.00  0.00    -0.014 C 
ATOM     14  C   UNL     1      -0.534   7.554  13.869  1.00  0.00     0.016 C 
ATOM     15  C   UNL     1       1.468   6.330  14.662  1.00  0.00     0.016 C 
BRANCH  13  16
ATOM     16  C   UNL     1       0.083   5.488  12.608  1.00  0.00     0.038 CG0
ATOM     17  G   UNL     1      -1.264   5.320  11.936  1.00  0.00     0.000 G0
ENDBRANCH  13  16
ENDBRANCH  12  13
ENDBRANCH  10  11
ENDBRANCH   1  10
TORSDOF 0
ENDMDL
MODEL 3
REMARK VINA RESULT:    -3.683      1.359      3.638
REMARK INTER + INTRA:          -5.072
REMARK INTER:                  -5.797
REMARK INTRA:                   0.725
REMARK UNBOUND:                 0.333
REMARK SMILES C=C1CC=CC(C)(C)CC=C(C)CCC1
REMARK SMILES IDX 2 1 1 2 15 3 14 4 13 5 11 6 12 7 10 8 3 10 4 11 5 12 6 13
REMARK SMILES IDX 7 14 8 15 9 16
REMARK H PARENT
REMARK Flexibility Score: 60.00
ROOT
ATOM      1  C   UNL     1      -1.252   0.904  12.497  1.00  0.00    -0.074 C 
ATOM      2  C   UNL     1      -1.338  -0.401  12.811  1.00  0.00     0.008 C 
ENDROOT
BRANCH   1   3
ATOM      3  C   UNL     1      -1.149   1.310  11.034  1.00  0.00     0.031 C 
BRANCH   3   4
ATOM      4  C   UNL     1      -1.624   2.754  10.767  1.00  0.00     0.009 C 
BRANCH   4   5
ATOM      5  C   UNL     1      -0.491   3.794  10.747  1.00  0.00     0.030 C 
BRANCH   5   6
ATOM      6  C   UNL     1      -0.991   5.213  10.944  1.00  0.00    -0.077 C 
ATOM      7  C   UNL     1      -0.946   6.148   9.763  1.00  0.00     0.039 C 
ATOM      8  C   UNL     1      -1.468   5.697  12.117  1.00  0.00    -0.027 CG0
ATOM      9  G   UNL     1      -1.602   4.930  13.417  1.00  0.00     0.000 G0
ENDBRANCH   5   6
ENDBRANCH   4   5
ENDBRANCH   3   4
ENDBRANCH   1   3
BRANCH   1  10
ATOM     10  C   UNL     1      -1.271   1.926  13.621  1.00  0.00     0.057 C 
BRANCH  10  11
ATOM     11  C   UNL     1       0.105   2.430  13.968  1.00  0.00    -0.026 C 
ATOM     12  C   UNL     1       0.481   3.688  14.294  1.00  0.00    -0.024 C 
BRANCH  12  13
ATOM     13  C   UNL     1      -0.360   4.971  14.393  1.00  0.00    -0.014 C 
ATOM     14  C   UNL     1      -0.931   5.014  15.836  1.00  0.00     0.016 C 
ATOM     15  C   UNL     1       0.528   6.231  14.246  1.00  0.00     0.016 C 
BRANCH  13  16
ATOM     16  C   UNL     1      -1.597   4.940  13.429  1.00  0.00     0.038 CG0
ATOM     17  G   UNL     1      -1.448   5.703  12.130  1.00  0.00     0.000 G0
ENDBRANCH  13  16
ENDBRANCH  12  13
ENDBRANCH  10  11
ENDBRANCH   1  10
TORSDOF 0
ENDMDL
MODEL 4
REMARK VINA RESULT:    -3.618      1.142      2.050
REMARK INTER + INTRA:          -4.977
REMARK INTER:                  -5.281
REMARK INTRA:                   0.304
REMARK UNBOUND:                 0.333
REMARK SMILES C=C1CC=CC(C)(C)CC=C(C)CCC1
REMARK SMILES IDX 2 1 1 2 15 3 14 4 13 5 11 6 12 7 10 8 3 10 4 11 5 12 6 13
REMARK SMILES IDX 7 14 8 15 9 16
REMARK H PARENT
REMARK Flexibility Score: 60.00
ROOT
ATOM      1  C   UNL     1      -0.892   2.994  11.117  1.00  0.00    -0.074 C 
ATOM      2  C   UNL     1      -1.502   1.836  10.809  1.00  0.00     0.008 C 
ENDROOT
BRANCH   1   3
ATOM      3  C   UNL     1       0.277   2.982  12.092  1.00  0.00     0.031 C 
BRANCH   3   4
ATOM      4  C   UNL     1      -0.037   2.245  13.411  1.00  0.00     0.009 C 
BRANCH   4   5
ATOM      5  C   UNL     1      -0.737   3.118  14.466  1.00  0.00     0.030 C 
BRANCH   5   6
ATOM      6  C   UNL     1      -2.250   3.041  14.385  1.00  0.00    -0.077 C 
ATOM      7  C   UNL     1      -2.919   1.777  14.862  1.00  0.00     0.039 C 
ATOM      8  C   UNL     1      -3.039   4.032  13.902  1.00  0.00    -0.027 CG0
ATOM      9  G   UNL     1      -2.573   5.375  13.379  1.00  0.00     0.000 G0
ENDBRANCH   5   6
ENDBRANCH   4   5
ENDBRANCH   3   4
ENDBRANCH   1   3
BRANCH   1  10
ATOM     10  C   UNL     1      -1.390   4.275  10.468  1.00  0.00     0.057 C 
BRANCH  10  11
ATOM     11  C   UNL     1      -2.892   4.327  10.370  1.00  0.00    -0.026 C 
ATOM     12  C   UNL     1      -3.756   5.061  11.107  1.00  0.00    -0.024 C 
BRANCH  12  13
ATOM     13  C   UNL     1      -3.481   6.038  12.262  1.00  0.00    -0.014 C 
ATOM     14  C   UNL     1      -2.652   7.205  11.665  1.00  0.00     0.016 C 
ATOM     15  C   UNL     1      -4.796   6.668  12.783  1.00  0.00     0.016 C 
BRANCH  13  16
ATOM     16  C   UNL     1      -2.591   5.390  13.380  1.00  0.00     0.038 CG0
ATOM     17  G   UNL     1      -3.044   4.038  13.892  1.00  0.00     0.000 G0
ENDBRANCH  13  16
ENDBRANCH  12  13
ENDBRANCH  10  11
ENDBRANCH   1  10
TORSDOF 0
ENDMDL
MODEL 5
REMARK VINA RESULT:    -3.548      1.736      3.496
REMARK INTER + INTRA:          -4.874
REMARK INTER:                  -4.947
REMARK INTRA:                   0.073
REMARK UNBOUND:                 0.333
REMARK SMILES C=C1CC=CC(C)(C)CC=C(C)CCC1
REMARK SMILES IDX 2 1 1 2 15 3 14 4 13 5 11 6 12 7 10 8 3 10 4 11 5 12 6 13
REMARK SMILES IDX 7 14 8 15 9 16
REMARK H PARENT
REMARK Flexibility Score: 60.00
ROOT
ATOM      1  C   UNL     1       0.306   5.721  14.094  1.00  0.00    -0.074 C 
ATOM      2  C   UNL     1       1.492   5.152  14.373  1.00  0.00     0.008 C 
ENDROOT
BRANCH   1   3
ATOM      3  C   UNL     1      -0.888   5.425  14.990  1.00  0.00     0.031 C 
BRANCH   3   4
ATOM      4  C   UNL     1      -1.342   3.951  14.933  1.00  0.00     0.009 C 
BRANCH   4   5
ATOM      5  C   UNL     1      -2.179   3.599  13.692  1.00  0.00     0.030 C 
BRANCH   5   6
ATOM      6  C   UNL     1      -1.329   3.175  12.509  1.00  0.00    -0.077 C 
ATOM      7  C   UNL     1      -0.250   2.150  12.746  1.00  0.00     0.039 C 
ATOM      8  C   UNL     1      -1.472   3.665  11.253  1.00  0.00    -0.027 CG0
ATOM      9  G   UNL     1      -2.490   4.692  10.801  1.00  0.00     0.000 G0
ENDBRANCH   5   6
ENDBRANCH   4   5
ENDBRANCH   3   4
ENDBRANCH   1   3
BRANCH   1  10
ATOM     10  C   UNL     1       0.208   6.652  12.897  1.00  0.00     0.057 C 
BRANCH  10  11
ATOM     11  C   UNL     1      -1.165   7.251  12.741  1.00  0.00    -0.026 C 
ATOM     12  C   UNL     1      -2.068   7.035  11.758  1.00  0.00    -0.024 C 
BRANCH  12  13
ATOM     13  C   UNL     1      -1.969   6.141  10.511  1.00  0.00    -0.014 C 
ATOM     14  C   UNL     1      -2.916   6.760   9.448  1.00  0.00     0.016 C 
ATOM     15  C   UNL     1      -0.547   6.194   9.900  1.00  0.00     0.016 C 
BRANCH  13  16
ATOM     16  C   UNL     1      -2.498   4.690  10.783  1.00  0.00     0.038 CG0
ATOM     17  G   UNL     1      -1.471   3.686  11.263  1.00  0.00     0.000 G0
ENDBRANCH  13  16
ENDBRANCH  12  13
ENDBRANCH  10  11
ENDBRANCH   1  10
TORSDOF 0
ENDMDL
MODEL 6
REMARK VINA RESULT:    -3.424      1.440      3.243
REMARK INTER + INTRA:          -4.692
REMARK INTER:                  -5.506
REMARK INTRA:                   0.814
REMARK UNBOUND:                 0.333
REMARK SMILES C=C1CC=CC(C)(C)CC=C(C)CCC1
REMARK SMILES IDX 2 1 1 2 15 3 14 4 13 5 11 6 12 7 10 8 3 10 4 11 5 12 6 13
REMARK SMILES IDX 7 14 8 15 9 16
REMARK H PARENT
REMARK Flexibility Score: 60.00
ROOT
ATOM      1  C   UNL     1      -2.474   3.425  14.269  1.00  0.00    -0.074 C 
ATOM      2  C   UNL     1      -2.983   2.274  14.744  1.00  0.00     0.008 C 
ENDROOT
BRANCH   1   3
ATOM      3  C   UNL     1      -1.041   3.802  14.616  1.00  0.00     0.031 C 
BRANCH   3   4
ATOM      4  C   UNL     1      -0.014   2.719  14.228  1.00  0.00     0.009 C 
BRANCH   4   5
ATOM      5  C   UNL     1       0.448   2.788  12.762  1.00  0.00     0.030 C 
BRANCH   5   6
ATOM      6  C   UNL     1      -0.610   2.306  11.788  1.00  0.00    -0.077 C 
ATOM      7  C   UNL     1      -1.054   0.868  11.881  1.00  0.00     0.039 C 
ATOM      8  C   UNL     1      -1.177   3.082  10.832  1.00  0.00    -0.027 CG0
ATOM      9  G   UNL     1      -0.879   4.545  10.571  1.00  0.00     0.000 G0
ENDBRANCH   5   6
ENDBRANCH   4   5
ENDBRANCH   3   4
ENDBRANCH   1   3
BRANCH   1  10
ATOM     10  C   UNL     1      -3.351   4.301  13.391  1.00  0.00     0.057 C 
BRANCH  10  11
ATOM     11  C   UNL     1      -2.760   5.668  13.165  1.00  0.00    -0.026 C 
ATOM     12  C   UNL     1      -2.245   6.181  12.024  1.00  0.00    -0.024 C 
BRANCH  12  13
ATOM     13  C   UNL     1      -2.092   5.536  10.637  1.00  0.00    -0.014 C 
ATOM     14  C   UNL     1      -3.364   4.678  10.406  1.00  0.00     0.016 C 
ATOM     15  C   UNL     1      -2.090   6.610   9.522  1.00  0.00     0.016 C 
BRANCH  13  16
ATOM     16  C   UNL     1      -0.875   4.548  10.580  1.00  0.00     0.038 CG0
ATOM     17  G   UNL     1      -1.187   3.090  10.851  1.00  0.00     0.000 G0
ENDBRANCH  13  16
ENDBRANCH  12  13
ENDBRANCH  10  11
ENDBRANCH   1  10
TORSDOF 0
ENDMDL
MODEL 7
REMARK VINA RESULT:    -3.411      1.162      3.999
REMARK INTER + INTRA:          -4.673
REMARK INTER:                  -5.188
REMARK INTRA:                   0.515
REMARK UNBOUND:                 0.333
REMARK SMILES C=C1CC=CC(C)(C)CC=C(C)CCC1
REMARK SMILES IDX 2 1 1 2 15 3 14 4 13 5 11 6 12 7 10 8 3 10 4 11 5 12 6 13
REMARK SMILES IDX 7 14 8 15 9 16
REMARK H PARENT
REMARK Flexibility Score: 60.00
ROOT
ATOM      1  C   UNL     1      -1.756   4.704  10.457  1.00  0.00    -0.074 C 
ATOM      2  C   UNL     1      -1.439   5.979  10.170  1.00  0.00     0.008 C 
ENDROOT
BRANCH   1   3
ATOM      3  C   UNL     1      -3.209   4.261  10.365  1.00  0.00     0.031 C 
BRANCH   3   4
ATOM      4  C   UNL     1      -4.195   5.269  10.993  1.00  0.00     0.009 C 
BRANCH   4   5
ATOM      5  C   UNL     1      -4.326   5.150  12.520  1.00  0.00     0.030 C 
BRANCH   5   6
ATOM      6  C   UNL     1      -3.067   5.573  13.254  1.00  0.00    -0.077 C 
ATOM      7  C   UNL     1      -2.679   7.029  13.210  1.00  0.00     0.039 C 
ATOM      8  C   UNL     1      -2.264   4.724  13.941  1.00  0.00    -0.027 CG0
ATOM      9  G   UNL     1      -2.472   3.233  14.113  1.00  0.00     0.000 G0
ENDBRANCH   5   6
ENDBRANCH   4   5
ENDBRANCH   3   4
ENDBRANCH   1   3
BRANCH   1  10
ATOM     10  C   UNL     1      -0.643   3.749  10.854  1.00  0.00     0.057 C 
BRANCH  10  11
ATOM     11  C   UNL     1      -1.143   2.351  11.107  1.00  0.00    -0.026 C 
ATOM     12  C   UNL     1      -1.408   1.756  12.293  1.00  0.00    -0.024 C 
BRANCH  12  13
ATOM     13  C   UNL     1      -1.269   2.306  13.722  1.00  0.00    -0.014 C 
ATOM     14  C   UNL     1      -1.330   1.081  14.673  1.00  0.00     0.016 C 
ATOM     15  C   UNL     1       0.123   2.947  13.937  1.00  0.00     0.016 C 
BRANCH  13  16
ATOM     16  C   UNL     1      -2.472   3.232  14.115  1.00  0.00     0.038 CG0
ATOM     17  G   UNL     1      -2.256   4.720  13.930  1.00  0.00     0.000 G0
ENDBRANCH  13  16
ENDBRANCH  12  13
ENDBRANCH  10  11
ENDBRANCH   1  10
TORSDOF 0
ENDMDL
MODEL 8
REMARK VINA RESULT:    -3.325      1.957      4.892
REMARK INTER + INTRA:          -4.546
REMARK INTER:                  -4.965
REMARK INTRA:                   0.418
REMARK UNBOUND:                 0.333
REMARK SMILES C=C1CC=CC(C)(C)CC=C(C)CCC1
REMARK SMILES IDX 2 1 1 2 15 3 14 4 13 5 11 6 12 7 10 8 3 10 4 11 5 12 6 13
REMARK SMILES IDX 7 14 8 15 9 16
REMARK H PARENT
REMARK Flexibility Score: 60.00
ROOT
ATOM      1  C   UNL     1       0.814   6.241  14.162  1.00  0.00    -0.074 C 
ATOM      2  C   UNL     1       1.619   6.819  15.071  1.00  0.00     0.008 C 
ENDROOT
BRANCH   1   3
ATOM      3  C   UNL     1       0.901   6.680  12.707  1.00  0.00     0.031 C 
BRANCH   3   4
ATOM      4  C   UNL     1      -0.447   6.594  11.962  1.00  0.00     0.009 C 
BRANCH   4   5
ATOM      5  C   UNL     1      -0.520   5.459  10.927  1.00  0.00     0.030 C 
BRANCH   5   6
ATOM      6  C   UNL     1      -1.867   4.760  10.913  1.00  0.00    -0.077 C 
ATOM      7  C   UNL     1      -3.047   5.510  10.349  1.00  0.00     0.039 C 
ATOM      8  C   UNL     1      -2.080   3.506  11.384  1.00  0.00    -0.027 CG0
ATOM      9  G   UNL     1      -1.039   2.585  11.985  1.00  0.00     0.000 G0
ENDBRANCH   5   6
ENDBRANCH   4   5
ENDBRANCH   3   4
ENDBRANCH   1   3
BRANCH   1  10
ATOM     10  C   UNL     1      -0.148   5.160  14.624  1.00  0.00     0.057 C 
BRANCH  10  11
ATOM     11  C   UNL     1       0.516   3.814  14.757  1.00  0.00    -0.026 C 
ATOM     12  C   UNL     1       0.088   2.618  14.293  1.00  0.00    -0.024 C 
BRANCH  12  13
ATOM     13  C   UNL     1      -1.191   2.265  13.516  1.00  0.00    -0.014 C 
ATOM     14  C   UNL     1      -1.376   0.729  13.646  1.00  0.00     0.016 C 
ATOM     15  C   UNL     1      -2.437   2.903  14.177  1.00  0.00     0.016 C 
BRANCH  13  16
ATOM     16  C   UNL     1      -1.050   2.566  11.984  1.00  0.00     0.038 CG0
ATOM     17  G   UNL     1      -2.083   3.501  11.391  1.00  0.00     0.000 G0
ENDBRANCH  13  16
ENDBRANCH  12  13
ENDBRANCH  10  11
ENDBRANCH   1  10
TORSDOF 0
ENDMDL
MODEL 9
REMARK VINA RESULT:    -3.263      1.617      4.657
REMARK INTER + INTRA:          -4.456
REMARK INTER:                  -4.828
REMARK INTRA:                   0.372
REMARK UNBOUND:                 0.333
REMARK SMILES C=C1CC=CC(C)(C)CC=C(C)CCC1
REMARK SMILES IDX 2 1 1 2 15 3 14 4 13 5 11 6 12 7 10 8 3 10 4 11 5 12 6 13
REMARK SMILES IDX 7 14 8 15 9 16
REMARK H PARENT
REMARK Flexibility Score: 60.00
ROOT
ATOM      1  C   UNL     1      -0.109   6.380  12.206  1.00  0.00    -0.074 C 
ATOM      2  C   UNL     1      -0.413   7.605  12.670  1.00  0.00     0.008 C 
ENDROOT
BRANCH   1   3
ATOM      3  C   UNL     1      -0.558   5.985  10.806  1.00  0.00     0.031 C 
BRANCH   3   4
ATOM      4  C   UNL     1      -1.989   6.453  10.470  1.00  0.00     0.009 C 
BRANCH   4   5
ATOM      5  C   UNL     1      -3.060   5.360  10.621  1.00  0.00     0.030 C 
BRANCH   5   6
ATOM      6  C   UNL     1      -3.646   5.297  12.019  1.00  0.00    -0.077 C 
ATOM      7  C   UNL     1      -4.803   6.208  12.342  1.00  0.00     0.039 C 
ATOM      8  C   UNL     1      -3.190   4.480  13.000  1.00  0.00    -0.027 CG0
ATOM      9  G   UNL     1      -2.049   3.491  12.886  1.00  0.00     0.000 G0
ENDBRANCH   5   6
ENDBRANCH   4   5
ENDBRANCH   3   4
ENDBRANCH   1   3
BRANCH   1  10
ATOM     10  C   UNL     1       0.685   5.440  13.096  1.00  0.00     0.057 C 
BRANCH  10  11
ATOM     11  C   UNL     1       0.086   5.301  14.471  1.00  0.00    -0.026 C 
ATOM     12  C   UNL     1      -0.733   4.330  14.935  1.00  0.00    -0.024 C 
BRANCH  12  13
ATOM     13  C   UNL     1      -1.309   3.101  14.214  1.00  0.00    -0.014 C 
ATOM     14  C   UNL     1      -0.097   2.225  13.799  1.00  0.00     0.016 C 
ATOM     15  C   UNL     1      -2.153   2.234  15.180  1.00  0.00     0.016 C 
BRANCH  13  16
ATOM     16  C   UNL     1      -2.048   3.490  12.886  1.00  0.00     0.038 CG0
ATOM     17  G   UNL     1      -3.181   4.486  13.022  1.00  0.00     0.000 G0
ENDBRANCH  13  16
ENDBRANCH  12  13
ENDBRANCH  10  11
ENDBRANCH   1  10
TORSDOF 0
ENDMDL
