MODEL 1
REMARK VINA RESULT:    -4.789      0.000      0.000
REMARK INTER + INTRA:         -11.172
REMARK INTER:                  -9.269
REMARK INTRA:                  -1.903
REMARK UNBOUND:                -1.903
REMARK SMILES CCCCCCCCCCCCCCCCCC(=O)[O-]
REMARK SMILES IDX 10 1 11 2 12 3 13 4 14 5 15 6 16 7 17 8 18 9 19 10 20 11
REMARK SMILES IDX 9 12 8 13 7 14 6 15 5 16 4 17 3 18 2 19 1 20
REMARK H PARENT
REMARK Flexibility Score: inf
ROOT
ATOM      1  C   UNL     1      14.999  16.922  61.878  1.00  0.00     0.000 C 
ENDROOT
BRANCH   1   2
ATOM      2  C   UNL     1      14.587  17.030  63.363  1.00  0.00     0.000 C 
BRANCH   2   3
ATOM      3  C   UNL     1      13.114  16.666  63.626  1.00  0.00     0.000 C 
BRANCH   3   4
ATOM      4  C   UNL     1      12.900  15.427  64.518  1.00  0.00     0.000 C 
BRANCH   4   5
ATOM      5  C   UNL     1      14.130  14.512  64.662  1.00  0.00     0.000 C 
BRANCH   5   6
ATOM      6  C   UNL     1      13.828  13.042  64.326  1.00  0.00     0.000 C 
BRANCH   6   7
ATOM      7  C   UNL     1      14.232  12.666  62.893  1.00  0.00     0.006 C 
BRANCH   7   8
ATOM      8  C   UNL     1      15.101  11.403  62.835  1.00  0.00     0.053 C 
BRANCH   8   9
ATOM      9  C   UNL     1      15.920  11.388  61.584  1.00  0.00     0.041 C 
ATOM     10  O   UNL     1      17.178  11.397  61.650  1.00  0.00    -0.550 OA
ATOM     11  O   UNL     1      15.294  11.325  60.345  1.00  0.00    -0.550 OA
ENDBRANCH   8   9
ENDBRANCH   7   8
ENDBRANCH   6   7
ENDBRANCH   5   6
ENDBRANCH   4   5
ENDBRANCH   3   4
ENDBRANCH   2   3
ENDBRANCH   1   2
BRANCH   1  12
ATOM     12  C   UNL     1      15.961  15.749  61.623  1.00  0.00     0.000 C 
BRANCH  12  13
ATOM     13  C   UNL     1      15.553  14.899  60.410  1.00  0.00    -0.000 C 
BRANCH  13  14
ATOM     14  C   UNL     1      15.566  15.695  59.092  1.00  0.00    -0.000 C 
BRANCH  14  15
ATOM     15  C   UNL     1      16.755  16.676  59.020  1.00  0.00    -0.000 C 
BRANCH  15  16
ATOM     16  C   UNL     1      18.070  16.016  58.570  1.00  0.00    -0.000 C 
BRANCH  16  17
ATOM     17  C   UNL     1      19.115  15.945  59.697  1.00  0.00    -0.000 C 
BRANCH  17  18
ATOM     18  C   UNL     1      19.265  17.278  60.447  1.00  0.00    -0.000 C 
BRANCH  18  19
ATOM     19  C   UNL     1      19.941  17.115  61.816  1.00  0.00    -0.003 C 
ATOM     20  C   UNL     1      19.328  18.058  62.847  1.00  0.00     0.004 C 
ENDBRANCH  18  19
ENDBRANCH  17  18
ENDBRANCH  16  17
ENDBRANCH  15  16
ENDBRANCH  14  15
ENDBRANCH  13  14
ENDBRANCH  12  13
ENDBRANCH   1  12
TORSDOF 16
ENDMDL
MODEL 2
REMARK VINA RESULT:    -4.733      2.529      5.612
REMARK INTER + INTRA:         -11.064
REMARK INTER:                  -8.631
REMARK INTRA:                  -2.433
REMARK UNBOUND:                -1.903
REMARK SMILES CCCCCCCCCCCCCCCCCC(=O)[O-]
REMARK SMILES IDX 10 1 11 2 12 3 13 4 14 5 15 6 16 7 17 8 18 9 19 10 20 11
REMARK SMILES IDX 9 12 8 13 7 14 6 15 5 16 4 17 3 18 2 19 1 20
REMARK H PARENT
REMARK Flexibility Score: inf
ROOT
ATOM      1  C   UNL     1      12.927  16.871  63.326  1.00  0.00     0.000 C 
ENDROOT
BRANCH   1   2
ATOM      2  C   UNL     1      14.317  17.190  63.919  1.00  0.00     0.000 C 
BRANCH   2   3
ATOM      3  C   UNL     1      15.470  17.050  62.908  1.00  0.00     0.000 C 
BRANCH   3   4
ATOM      4  C   UNL     1      15.054  17.167  61.428  1.00  0.00     0.000 C 
BRANCH   4   5
ATOM      5  C   UNL     1      16.007  16.482  60.432  1.00  0.00     0.000 C 
BRANCH   5   6
ATOM      6  C   UNL     1      15.267  15.744  59.302  1.00  0.00     0.000 C 
BRANCH   6   7
ATOM      7  C   UNL     1      16.200  14.862  58.459  1.00  0.00     0.006 C 
BRANCH   7   8
ATOM      8  C   UNL     1      17.639  14.849  58.990  1.00  0.00     0.053 C 
BRANCH   8   9
ATOM      9  C   UNL     1      18.611  15.064  57.874  1.00  0.00     0.041 C 
ATOM     10  O   UNL     1      19.351  14.120  57.487  1.00  0.00    -0.550 OA
ATOM     11  O   UNL     1      18.674  16.296  57.234  1.00  0.00    -0.550 OA
ENDBRANCH   8   9
ENDBRANCH   7   8
ENDBRANCH   6   7
ENDBRANCH   5   6
ENDBRANCH   4   5
ENDBRANCH   3   4
ENDBRANCH   2   3
ENDBRANCH   1   2
BRANCH   1  12
ATOM     12  C   UNL     1      12.330  15.577  63.903  1.00  0.00     0.000 C 
BRANCH  12  13
ATOM     13  C   UNL     1      13.200  14.962  65.010  1.00  0.00    -0.000 C 
BRANCH  13  14
ATOM     14  C   UNL     1      13.747  13.572  64.636  1.00  0.00    -0.000 C 
BRANCH  14  15
ATOM     15  C   UNL     1      13.461  13.214  63.162  1.00  0.00    -0.000 C 
BRANCH  15  16
ATOM     16  C   UNL     1      14.658  13.457  62.226  1.00  0.00    -0.000 C 
BRANCH  16  17
ATOM     17  C   UNL     1      14.659  12.521  61.006  1.00  0.00    -0.000 C 
BRANCH  17  18
ATOM     18  C   UNL     1      16.010  11.817  60.803  1.00  0.00    -0.000 C 
BRANCH  18  19
ATOM     19  C   UNL     1      16.200  11.300  59.370  1.00  0.00    -0.003 C 
ATOM     20  C   UNL     1      14.856  11.121  58.669  1.00  0.00     0.004 C 
ENDBRANCH  18  19
ENDBRANCH  17  18
ENDBRANCH  16  17
ENDBRANCH  15  16
ENDBRANCH  14  15
ENDBRANCH  13  14
ENDBRANCH  12  13
ENDBRANCH   1  12
TORSDOF 16
ENDMDL
MODEL 3
REMARK VINA RESULT:    -4.724      2.654      6.307
REMARK INTER + INTRA:         -11.046
REMARK INTER:                  -9.077
REMARK INTRA:                  -1.969
REMARK UNBOUND:                -1.903
REMARK SMILES CCCCCCCCCCCCCCCCCC(=O)[O-]
REMARK SMILES IDX 10 1 11 2 12 3 13 4 14 5 15 6 16 7 17 8 18 9 19 10 20 11
REMARK SMILES IDX 9 12 8 13 7 14 6 15 5 16 4 17 3 18 2 19 1 20
REMARK H PARENT
REMARK Flexibility Score: inf
ROOT
ATOM      1  C   UNL     1      14.852  12.987  61.113  1.00  0.00     0.000 C 
ENDROOT
BRANCH   1   2
ATOM      2  C   UNL     1      16.279  12.763  60.566  1.00  0.00     0.000 C 
BRANCH   2   3
ATOM      3  C   UNL     1      16.465  13.223  59.109  1.00  0.00     0.000 C 
BRANCH   3   4
ATOM      4  C   UNL     1      15.825  14.584  58.770  1.00  0.00     0.000 C 
BRANCH   4   5
ATOM      5  C   UNL     1      16.825  15.698  58.409  1.00  0.00     0.000 C 
BRANCH   5   6
ATOM      6  C   UNL     1      18.209  15.493  59.050  1.00  0.00     0.000 C 
BRANCH   6   7
ATOM      7  C   UNL     1      18.665  16.706  59.874  1.00  0.00     0.006 C 
BRANCH   7   8
ATOM      8  C   UNL     1      18.862  16.371  61.358  1.00  0.00     0.053 C 
BRANCH   8   9
ATOM      9  C   UNL     1      19.748  17.385  62.011  1.00  0.00     0.041 C 
ATOM     10  O   UNL     1      20.989  17.375  61.794  1.00  0.00    -0.550 OA
ATOM     11  O   UNL     1      19.198  18.363  62.829  1.00  0.00    -0.550 OA
ENDBRANCH   8   9
ENDBRANCH   7   8
ENDBRANCH   6   7
ENDBRANCH   5   6
ENDBRANCH   4   5
ENDBRANCH   3   4
ENDBRANCH   2   3
ENDBRANCH   1   2
BRANCH   1  12
ATOM     12  C   UNL     1      14.735  12.627  62.604  1.00  0.00     0.000 C 
BRANCH  12  13
ATOM     13  C   UNL     1      13.464  13.195  63.254  1.00  0.00    -0.000 C 
BRANCH  13  14
ATOM     14  C   UNL     1      13.649  13.509  64.750  1.00  0.00    -0.000 C 
BRANCH  14  15
ATOM     15  C   UNL     1      13.090  14.899  65.124  1.00  0.00    -0.000 C 
BRANCH  15  16
ATOM     16  C   UNL     1      12.334  15.587  63.973  1.00  0.00    -0.000 C 
BRANCH  16  17
ATOM     17  C   UNL     1      13.197  16.623  63.232  1.00  0.00    -0.000 C 
BRANCH  17  18
ATOM     18  C   UNL     1      14.615  16.735  63.815  1.00  0.00    -0.000 C 
BRANCH  18  19
ATOM     19  C   UNL     1      15.660  17.121  62.759  1.00  0.00    -0.003 C 
ATOM     20  C   UNL     1      15.135  16.869  61.349  1.00  0.00     0.004 C 
ENDBRANCH  18  19
ENDBRANCH  17  18
ENDBRANCH  16  17
ENDBRANCH  15  16
ENDBRANCH  14  15
ENDBRANCH  13  14
ENDBRANCH  12  13
ENDBRANCH   1  12
TORSDOF 16
ENDMDL
MODEL 4
REMARK VINA RESULT:    -4.678      2.628      6.101
REMARK INTER + INTRA:         -10.958
REMARK INTER:                  -8.896
REMARK INTRA:                  -2.062
REMARK UNBOUND:                -1.903
REMARK SMILES CCCCCCCCCCCCCCCCCC(=O)[O-]
REMARK SMILES IDX 10 1 11 2 12 3 13 4 14 5 15 6 16 7 17 8 18 9 19 10 20 11
REMARK SMILES IDX 9 12 8 13 7 14 6 15 5 16 4 17 3 18 2 19 1 20
REMARK H PARENT
REMARK Flexibility Score: inf
ROOT
ATOM      1  C   UNL     1      14.425  17.057  63.880  1.00  0.00     0.000 C 
ENDROOT
BRANCH   1   2
ATOM      2  C   UNL     1      15.487  17.098  62.759  1.00  0.00     0.000 C 
BRANCH   2   3
ATOM      3  C   UNL     1      14.898  17.320  61.354  1.00  0.00     0.000 C 
BRANCH   3   4
ATOM      4  C   UNL     1      15.459  16.390  60.260  1.00  0.00     0.000 C 
BRANCH   4   5
ATOM      5  C   UNL     1      16.635  16.972  59.456  1.00  0.00     0.000 C 
BRANCH   5   6
ATOM      6  C   UNL     1      17.708  15.922  59.116  1.00  0.00     0.000 C 
BRANCH   6   7
ATOM      7  C   UNL     1      19.000  16.112  59.926  1.00  0.00     0.006 C 
BRANCH   7   8
ATOM      8  C   UNL     1      18.737  16.258  61.431  1.00  0.00     0.053 C 
BRANCH   8   9
ATOM      9  C   UNL     1      19.653  17.281  62.025  1.00  0.00     0.041 C 
ATOM     10  O   UNL     1      20.879  17.278  61.736  1.00  0.00    -0.550 OA
ATOM     11  O   UNL     1      19.145  18.261  62.869  1.00  0.00    -0.550 OA
ENDBRANCH   8   9
ENDBRANCH   7   8
ENDBRANCH   6   7
ENDBRANCH   5   6
ENDBRANCH   4   5
ENDBRANCH   3   4
ENDBRANCH   2   3
ENDBRANCH   1   2
BRANCH   1  12
ATOM     12  C   UNL     1      13.113  16.403  63.416  1.00  0.00     0.000 C 
BRANCH  12  13
ATOM     13  C   UNL     1      12.471  15.524  64.500  1.00  0.00    -0.000 C 
BRANCH  13  14
ATOM     14  C   UNL     1      13.511  14.805  65.379  1.00  0.00    -0.000 C 
BRANCH  14  15
ATOM     15  C   UNL     1      14.331  13.772  64.578  1.00  0.00    -0.000 C 
BRANCH  15  16
ATOM     16  C   UNL     1      13.480  12.634  63.989  1.00  0.00    -0.000 C 
BRANCH  16  17
ATOM     17  C   UNL     1      13.510  12.603  62.452  1.00  0.00    -0.000 C 
BRANCH  17  18
ATOM     18  C   UNL     1      14.795  13.220  61.875  1.00  0.00    -0.000 C 
BRANCH  18  19
ATOM     19  C   UNL     1      15.102  12.726  60.454  1.00  0.00    -0.003 C 
ATOM     20  C   UNL     1      16.603  12.744  60.180  1.00  0.00     0.004 C 
ENDBRANCH  18  19
ENDBRANCH  17  18
ENDBRANCH  16  17
ENDBRANCH  15  16
ENDBRANCH  14  15
ENDBRANCH  13  14
ENDBRANCH  12  13
ENDBRANCH   1  12
TORSDOF 16
ENDMDL
MODEL 5
REMARK VINA RESULT:    -4.643     11.156     13.578
REMARK INTER + INTRA:         -10.888
REMARK INTER:                  -9.481
REMARK INTRA:                  -1.408
REMARK UNBOUND:                -1.903
REMARK SMILES CCCCCCCCCCCCCCCCCC(=O)[O-]
REMARK SMILES IDX 10 1 11 2 12 3 13 4 14 5 15 6 16 7 17 8 18 9 19 10 20 11
REMARK SMILES IDX 9 12 8 13 7 14 6 15 5 16 4 17 3 18 2 19 1 20
REMARK H PARENT
REMARK Flexibility Score: inf
ROOT
ATOM      1  C   UNL     1      10.391  25.004  60.306  1.00  0.00     0.000 C 
ENDROOT
BRANCH   1   2
ATOM      2  C   UNL     1      11.041  25.783  59.141  1.00  0.00     0.000 C 
BRANCH   2   3
ATOM      3  C   UNL     1      10.387  27.149  58.866  1.00  0.00     0.000 C 
BRANCH   3   4
ATOM      4  C   UNL     1      11.206  28.368  59.334  1.00  0.00     0.000 C 
BRANCH   4   5
ATOM      5  C   UNL     1      11.304  29.514  58.311  1.00  0.00     0.000 C 
BRANCH   5   6
ATOM      6  C   UNL     1      10.268  29.400  57.179  1.00  0.00     0.000 C 
BRANCH   6   7
ATOM      7  C   UNL     1      10.897  29.533  55.784  1.00  0.00     0.006 C 
BRANCH   7   8
ATOM      8  C   UNL     1      10.935  28.201  55.023  1.00  0.00     0.053 C 
BRANCH   8   9
ATOM      9  C   UNL     1      11.352  28.421  53.604  1.00  0.00     0.041 C 
ATOM     10  O   UNL     1      11.082  29.508  53.025  1.00  0.00    -0.550 OA
ATOM     11  O   UNL     1      12.071  27.441  52.932  1.00  0.00    -0.550 OA
ENDBRANCH   8   9
ENDBRANCH   7   8
ENDBRANCH   6   7
ENDBRANCH   5   6
ENDBRANCH   4   5
ENDBRANCH   3   4
ENDBRANCH   2   3
ENDBRANCH   1   2
BRANCH   1  12
ATOM     12  C   UNL     1      11.336  23.945  60.898  1.00  0.00     0.000 C 
BRANCH  12  13
ATOM     13  C   UNL     1      12.789  24.113  60.428  1.00  0.00    -0.000 C 
BRANCH  13  14
ATOM     14  C   UNL     1      13.770  23.196  61.181  1.00  0.00    -0.000 C 
BRANCH  14  15
ATOM     15  C   UNL     1      13.651  21.726  60.728  1.00  0.00    -0.000 C 
BRANCH  15  16
ATOM     16  C   UNL     1      13.674  20.720  61.893  1.00  0.00    -0.000 C 
BRANCH  16  17
ATOM     17  C   UNL     1      12.773  21.147  63.064  1.00  0.00    -0.000 C 
BRANCH  17  18
ATOM     18  C   UNL     1      11.487  20.308  63.155  1.00  0.00    -0.000 C 
BRANCH  18  19
ATOM     19  C   UNL     1      10.226  21.171  63.295  1.00  0.00    -0.003 C 
ATOM     20  C   UNL     1      10.500  22.410  64.143  1.00  0.00     0.004 C 
ENDBRANCH  18  19
ENDBRANCH  17  18
ENDBRANCH  16  17
ENDBRANCH  15  16
ENDBRANCH  14  15
ENDBRANCH  13  14
ENDBRANCH  12  13
ENDBRANCH   1  12
TORSDOF 16
ENDMDL
MODEL 6
REMARK VINA RESULT:    -4.626      1.273      2.413
REMARK INTER + INTRA:         -10.856
REMARK INTER:                  -9.194
REMARK INTRA:                  -1.662
REMARK UNBOUND:                -1.903
REMARK SMILES CCCCCCCCCCCCCCCCCC(=O)[O-]
REMARK SMILES IDX 10 1 11 2 12 3 13 4 14 5 15 6 16 7 17 8 18 9 19 10 20 11
REMARK SMILES IDX 9 12 8 13 7 14 6 15 5 16 4 17 3 18 2 19 1 20
REMARK H PARENT
REMARK Flexibility Score: inf
ROOT
ATOM      1  C   UNL     1      13.684  16.150  63.864  1.00  0.00     0.000 C 
ENDROOT
BRANCH   1   2
ATOM      2  C   UNL     1      14.432  14.962  64.507  1.00  0.00     0.000 C 
BRANCH   2   3
ATOM      3  C   UNL     1      13.508  13.808  64.941  1.00  0.00     0.000 C 
BRANCH   3   4
ATOM      4  C   UNL     1      13.646  12.518  64.110  1.00  0.00     0.000 C 
BRANCH   4   5
ATOM      5  C   UNL     1      14.295  12.705  62.726  1.00  0.00     0.000 C 
BRANCH   5   6
ATOM      6  C   UNL     1      15.315  11.604  62.387  1.00  0.00     0.000 C 
BRANCH   6   7
ATOM      7  C   UNL     1      15.982  11.815  61.020  1.00  0.00     0.006 C 
BRANCH   7   8
ATOM      8  C   UNL     1      15.007  12.352  59.964  1.00  0.00     0.053 C 
BRANCH   8   9
ATOM      9  C   UNL     1      14.969  11.443  58.776  1.00  0.00     0.041 C 
ATOM     10  O   UNL     1      16.040  10.989  58.291  1.00  0.00    -0.550 OA
ATOM     11  O   UNL     1      13.749  11.068  58.229  1.00  0.00    -0.550 OA
ENDBRANCH   8   9
ENDBRANCH   7   8
ENDBRANCH   6   7
ENDBRANCH   5   6
ENDBRANCH   4   5
ENDBRANCH   3   4
ENDBRANCH   2   3
ENDBRANCH   1   2
BRANCH   1  12
ATOM     12  C   UNL     1      14.643  17.250  63.379  1.00  0.00     0.000 C 
BRANCH  12  13
ATOM     13  C   UNL     1      15.703  16.725  62.398  1.00  0.00    -0.000 C 
BRANCH  13  14
ATOM     14  C   UNL     1      15.087  16.015  61.179  1.00  0.00    -0.000 C 
BRANCH  14  15
ATOM     15  C   UNL     1      16.153  15.648  60.124  1.00  0.00    -0.000 C 
BRANCH  15  16
ATOM     16  C   UNL     1      17.153  16.783  59.839  1.00  0.00    -0.000 C 
BRANCH  16  17
ATOM     17  C   UNL     1      18.617  16.320  59.926  1.00  0.00    -0.000 C 
BRANCH  17  18
ATOM     18  C   UNL     1      19.558  17.428  60.427  1.00  0.00    -0.000 C 
BRANCH  18  19
ATOM     19  C   UNL     1      20.081  17.164  61.846  1.00  0.00    -0.003 C 
ATOM     20  C   UNL     1      19.340  18.016  62.872  1.00  0.00     0.004 C 
ENDBRANCH  18  19
ENDBRANCH  17  18
ENDBRANCH  16  17
ENDBRANCH  15  16
ENDBRANCH  14  15
ENDBRANCH  13  14
ENDBRANCH  12  13
ENDBRANCH   1  12
TORSDOF 16
ENDMDL
MODEL 7
REMARK VINA RESULT:    -4.624      2.162      5.553
REMARK INTER + INTRA:         -10.853
REMARK INTER:                  -8.509
REMARK INTRA:                  -2.345
REMARK UNBOUND:                -1.903
REMARK SMILES CCCCCCCCCCCCCCCCCC(=O)[O-]
REMARK SMILES IDX 10 1 11 2 12 3 13 4 14 5 15 6 16 7 17 8 18 9 19 10 20 11
REMARK SMILES IDX 9 12 8 13 7 14 6 15 5 16 4 17 3 18 2 19 1 20
REMARK H PARENT
REMARK Flexibility Score: inf
ROOT
ATOM      1  C   UNL     1      13.058  15.741  64.057  1.00  0.00     0.000 C 
ENDROOT
BRANCH   1   2
ATOM      2  C   UNL     1      14.088  16.878  63.878  1.00  0.00     0.000 C 
BRANCH   2   3
ATOM      3  C   UNL     1      15.241  16.525  62.920  1.00  0.00     0.000 C 
BRANCH   3   4
ATOM      4  C   UNL     1      15.022  16.949  61.455  1.00  0.00     0.000 C 
BRANCH   4   5
ATOM      5  C   UNL     1      15.467  15.912  60.407  1.00  0.00     0.000 C 
BRANCH   5   6
ATOM      6  C   UNL     1      16.391  16.506  59.329  1.00  0.00     0.000 C 
BRANCH   6   7
ATOM      7  C   UNL     1      17.834  15.993  59.439  1.00  0.00     0.006 C 
BRANCH   7   8
ATOM      8  C   UNL     1      18.779  17.019  60.078  1.00  0.00     0.053 C 
BRANCH   8   9
ATOM      9  C   UNL     1      19.132  16.608  61.472  1.00  0.00     0.041 C 
ATOM     10  O   UNL     1      18.607  15.583  61.983  1.00  0.00    -0.550 OA
ATOM     11  O   UNL     1      20.070  17.335  62.194  1.00  0.00    -0.550 OA
ENDBRANCH   8   9
ENDBRANCH   7   8
ENDBRANCH   6   7
ENDBRANCH   5   6
ENDBRANCH   4   5
ENDBRANCH   3   4
ENDBRANCH   2   3
ENDBRANCH   1   2
BRANCH   1  12
ATOM     12  C   UNL     1      13.561  14.642  65.007  1.00  0.00     0.000 C 
BRANCH  12  13
ATOM     13  C   UNL     1      13.878  13.326  64.280  1.00  0.00    -0.000 C 
BRANCH  13  14
ATOM     14  C   UNL     1      13.240  13.250  62.880  1.00  0.00    -0.000 C 
BRANCH  14  15
ATOM     15  C   UNL     1      14.245  12.772  61.811  1.00  0.00    -0.000 C 
BRANCH  15  16
ATOM     16  C   UNL     1      15.278  11.764  62.345  1.00  0.00    -0.000 C 
BRANCH  16  17
ATOM     17  C   UNL     1      16.316  11.359  61.284  1.00  0.00    -0.000 C 
BRANCH  17  18
ATOM     18  C   UNL     1      16.834  12.561  60.477  1.00  0.00    -0.000 C 
BRANCH  18  19
ATOM     19  C   UNL     1      16.713  12.353  58.961  1.00  0.00    -0.003 C 
ATOM     20  C   UNL     1      15.634  11.324  58.633  1.00  0.00     0.004 C 
ENDBRANCH  18  19
ENDBRANCH  17  18
ENDBRANCH  16  17
ENDBRANCH  15  16
ENDBRANCH  14  15
ENDBRANCH  13  14
ENDBRANCH  12  13
ENDBRANCH   1  12
TORSDOF 16
ENDMDL
MODEL 8
REMARK VINA RESULT:    -4.597     11.152     14.403
REMARK INTER + INTRA:         -10.801
REMARK INTER:                  -9.709
REMARK INTRA:                  -1.092
REMARK UNBOUND:                -1.903
REMARK SMILES CCCCCCCCCCCCCCCCCC(=O)[O-]
REMARK SMILES IDX 10 1 11 2 12 3 13 4 14 5 15 6 16 7 17 8 18 9 19 10 20 11
REMARK SMILES IDX 9 12 8 13 7 14 6 15 5 16 4 17 3 18 2 19 1 20
REMARK H PARENT
REMARK Flexibility Score: inf
ROOT
ATOM      1  C   UNL     1      17.795  24.230  70.982  1.00  0.00     0.000 C 
ENDROOT
BRANCH   1   2
ATOM      2  C   UNL     1      18.106  25.626  70.399  1.00  0.00     0.000 C 
BRANCH   2   3
ATOM      3  C   UNL     1      18.607  26.638  71.445  1.00  0.00     0.000 C 
BRANCH   3   4
ATOM      4  C   UNL     1      19.500  27.763  70.886  1.00  0.00     0.000 C 
BRANCH   4   5
ATOM      5  C   UNL     1      18.736  28.968  70.307  1.00  0.00     0.000 C 
BRANCH   5   6
ATOM      6  C   UNL     1      19.165  29.318  68.872  1.00  0.00     0.000 C 
BRANCH   6   7
ATOM      7  C   UNL     1      17.988  29.311  67.884  1.00  0.00     0.006 C 
BRANCH   7   8
ATOM      8  C   UNL     1      17.653  27.903  67.376  1.00  0.00     0.053 C 
BRANCH   8   9
ATOM      9  C   UNL     1      17.873  27.814  65.899  1.00  0.00     0.041 C 
ATOM     10  O   UNL     1      18.949  28.230  65.392  1.00  0.00    -0.550 OA
ATOM     11  O   UNL     1      16.905  27.237  65.086  1.00  0.00    -0.550 OA
ENDBRANCH   8   9
ENDBRANCH   7   8
ENDBRANCH   6   7
ENDBRANCH   5   6
ENDBRANCH   4   5
ENDBRANCH   3   4
ENDBRANCH   2   3
ENDBRANCH   1   2
BRANCH   1  12
ATOM     12  C   UNL     1      18.656  23.126  70.345  1.00  0.00     0.000 C 
BRANCH  12  13
ATOM     13  C   UNL     1      18.410  21.744  70.971  1.00  0.00    -0.000 C 
BRANCH  13  14
ATOM     14  C   UNL     1      17.980  20.688  69.936  1.00  0.00    -0.000 C 
BRANCH  14  15
ATOM     15  C   UNL     1      17.364  19.440  70.604  1.00  0.00    -0.000 C 
BRANCH  15  16
ATOM     16  C   UNL     1      15.837  19.346  70.443  1.00  0.00    -0.000 C 
BRANCH  16  17
ATOM     17  C   UNL     1      15.077  19.822  71.692  1.00  0.00    -0.000 C 
BRANCH  17  18
ATOM     18  C   UNL     1      14.902  21.349  71.731  1.00  0.00    -0.000 C 
BRANCH  18  19
ATOM     19  C   UNL     1      13.433  21.780  71.625  1.00  0.00    -0.003 C 
ATOM     20  C   UNL     1      12.506  20.568  71.588  1.00  0.00     0.004 C 
ENDBRANCH  18  19
ENDBRANCH  17  18
ENDBRANCH  16  17
ENDBRANCH  15  16
ENDBRANCH  14  15
ENDBRANCH  13  14
ENDBRANCH  12  13
ENDBRANCH   1  12
TORSDOF 16
ENDMDL
MODEL 9
REMARK VINA RESULT:    -4.411      3.339      6.466
REMARK INTER + INTRA:         -10.440
REMARK INTER:                  -8.880
REMARK INTRA:                  -1.560
REMARK UNBOUND:                -1.903
REMARK SMILES CCCCCCCCCCCCCCCCCC(=O)[O-]
REMARK SMILES IDX 10 1 11 2 12 3 13 4 14 5 15 6 16 7 17 8 18 9 19 10 20 11
REMARK SMILES IDX 9 12 8 13 7 14 6 15 5 16 4 17 3 18 2 19 1 20
REMARK H PARENT
REMARK Flexibility Score: inf
ROOT
ATOM      1  C   UNL     1      14.889  17.413  63.166  1.00  0.00     0.000 C 
ENDROOT
BRANCH   1   2
ATOM      2  C   UNL     1      15.436  16.718  61.899  1.00  0.00     0.000 C 
BRANCH   2   3
ATOM      3  C   UNL     1      15.034  15.236  61.782  1.00  0.00     0.000 C 
BRANCH   3   4
ATOM      4  C   UNL     1      15.556  14.519  60.521  1.00  0.00     0.000 C 
BRANCH   4   5
ATOM      5  C   UNL     1      15.317  15.274  59.201  1.00  0.00     0.000 C 
BRANCH   5   6
ATOM      6  C   UNL     1      16.598  15.443  58.365  1.00  0.00     0.000 C 
BRANCH   6   7
ATOM      7  C   UNL     1      17.523  16.539  58.914  1.00  0.00     0.006 C 
BRANCH   7   8
ATOM      8  C   UNL     1      18.774  15.970  59.595  1.00  0.00     0.053 C 
BRANCH   8   9
ATOM      9  C   UNL     1      18.870  16.458  61.006  1.00  0.00     0.041 C 
ATOM     10  O   UNL     1      18.753  15.649  61.965  1.00  0.00    -0.550 OA
ATOM     11  O   UNL     1      19.125  17.799  61.261  1.00  0.00    -0.550 OA
ENDBRANCH   8   9
ENDBRANCH   7   8
ENDBRANCH   6   7
ENDBRANCH   5   6
ENDBRANCH   4   5
ENDBRANCH   3   4
ENDBRANCH   2   3
ENDBRANCH   1   2
BRANCH   1  12
ATOM     12  C   UNL     1      13.780  16.593  63.848  1.00  0.00     0.000 C 
BRANCH  12  13
ATOM     13  C   UNL     1      12.373  17.134  63.551  1.00  0.00    -0.000 C 
BRANCH  13  14
ATOM     14  C   UNL     1      12.336  18.669  63.431  1.00  0.00    -0.000 C 
BRANCH  14  15
ATOM     15  C   UNL     1      10.905  19.228  63.577  1.00  0.00    -0.000 C 
BRANCH  15  16
ATOM     16  C   UNL     1      10.818  20.753  63.392  1.00  0.00    -0.000 C 
BRANCH  16  17
ATOM     17  C   UNL     1      11.310  21.212  62.009  1.00  0.00    -0.000 C 
BRANCH  17  18
ATOM     18  C   UNL     1      12.315  22.372  62.096  1.00  0.00    -0.000 C 
BRANCH  18  19
ATOM     19  C   UNL     1      13.407  22.292  61.019  1.00  0.00    -0.003 C 
ATOM     20  C   UNL     1      13.730  20.842  60.672  1.00  0.00     0.004 C 
ENDBRANCH  18  19
ENDBRANCH  17  18
ENDBRANCH  16  17
ENDBRANCH  15  16
ENDBRANCH  14  15
ENDBRANCH  13  14
ENDBRANCH  12  13
ENDBRANCH   1  12
TORSDOF 16
ENDMDL
