MODEL 1
REMARK VINA RESULT:    -3.929      0.000      0.000
REMARK INTER + INTRA:          -5.631
REMARK INTER:                  -5.307
REMARK INTRA:                  -0.324
REMARK UNBOUND:                -0.324
REMARK SMILES CCCCCCCC(=O)[O-]
REMARK SMILES IDX 5 1 6 2 7 3 8 4 9 5 10 6 4 7 3 8 2 9 1 10
REMARK H PARENT
REMARK Flexibility Score: inf
ROOT
ATOM      1  C   UNL     1     -13.216 -13.383  19.882  1.00  0.00     0.000 C 
ENDROOT
BRANCH   1   2
ATOM      2  C   UNL     1     -13.879 -13.374  21.267  1.00  0.00     0.006 C 
BRANCH   2   3
ATOM      3  C   UNL     1     -12.911 -13.804  22.377  1.00  0.00     0.053 C 
BRANCH   3   4
ATOM      4  C   UNL     1     -13.496 -14.878  23.242  1.00  0.00     0.041 C 
ATOM      5  O   UNL     1     -13.606 -16.053  22.804  1.00  0.00    -0.550 OA
ATOM      6  O   UNL     1     -13.949 -14.574  24.519  1.00  0.00    -0.550 OA
ENDBRANCH   3   4
ENDBRANCH   2   3
ENDBRANCH   1   2
BRANCH   1   7
ATOM      7  C   UNL     1     -11.706 -13.626  19.998  1.00  0.00     0.000 C 
BRANCH   7   8
ATOM      8  C   UNL     1     -10.920 -12.653  19.111  1.00  0.00    -0.000 C 
BRANCH   8   9
ATOM      9  C   UNL     1     -11.615 -12.459  17.758  1.00  0.00    -0.003 C 
ATOM     10  C   UNL     1     -11.681 -10.983  17.380  1.00  0.00     0.004 C 
ENDBRANCH   8   9
ENDBRANCH   7   8
ENDBRANCH   1   7
TORSDOF 6
ENDMDL
MODEL 2
REMARK VINA RESULT:    -3.899      0.971      1.503
REMARK INTER + INTRA:          -5.590
REMARK INTER:                  -5.245
REMARK INTRA:                  -0.346
REMARK UNBOUND:                -0.324
REMARK SMILES CCCCCCCC(=O)[O-]
REMARK SMILES IDX 5 1 6 2 7 3 8 4 9 5 10 6 4 7 3 8 2 9 1 10
REMARK H PARENT
REMARK Flexibility Score: inf
ROOT
ATOM      1  C   UNL     1     -13.430 -13.033  19.274  1.00  0.00     0.000 C 
ENDROOT
BRANCH   1   2
ATOM      2  C   UNL     1     -13.974 -13.218  20.699  1.00  0.00     0.006 C 
BRANCH   2   3
ATOM      3  C   UNL     1     -12.960 -13.909  21.621  1.00  0.00     0.053 C 
BRANCH   3   4
ATOM      4  C   UNL     1     -13.393 -15.297  21.984  1.00  0.00     0.041 C 
ATOM      5  O   UNL     1     -13.476 -15.637  23.194  1.00  0.00    -0.550 OA
ATOM      6  O   UNL     1     -13.674 -16.222  20.988  1.00  0.00    -0.550 OA
ENDBRANCH   3   4
ENDBRANCH   2   3
ENDBRANCH   1   2
BRANCH   1   7
ATOM      7  C   UNL     1     -11.933 -13.358  19.211  1.00  0.00     0.000 C 
BRANCH   7   8
ATOM      8  C   UNL     1     -11.187 -12.353  18.324  1.00  0.00    -0.000 C 
BRANCH   8   9
ATOM      9  C   UNL     1     -12.166 -11.399  17.630  1.00  0.00    -0.003 C 
ATOM     10  C   UNL     1     -11.428 -10.246  16.958  1.00  0.00     0.004 C 
ENDBRANCH   8   9
ENDBRANCH   7   8
ENDBRANCH   1   7
TORSDOF 6
ENDMDL
MODEL 3
REMARK VINA RESULT:    -3.898      1.258      1.989
REMARK INTER + INTRA:          -5.589
REMARK INTER:                  -5.135
REMARK INTRA:                  -0.453
REMARK UNBOUND:                -0.324
REMARK SMILES CCCCCCCC(=O)[O-]
REMARK SMILES IDX 5 1 6 2 7 3 8 4 9 5 10 6 4 7 3 8 2 9 1 10
REMARK H PARENT
REMARK Flexibility Score: inf
ROOT
ATOM      1  C   UNL     1     -14.659 -12.161  19.734  1.00  0.00     0.000 C 
ENDROOT
BRANCH   1   2
ATOM      2  C   UNL     1     -14.581 -12.802  21.128  1.00  0.00     0.006 C 
BRANCH   2   3
ATOM      3  C   UNL     1     -13.945 -14.198  21.089  1.00  0.00     0.053 C 
BRANCH   3   4
ATOM      4  C   UNL     1     -13.212 -14.512  22.358  1.00  0.00     0.041 C 
ATOM      5  O   UNL     1     -12.454 -13.653  22.880  1.00  0.00    -0.550 OA
ATOM      6  O   UNL     1     -13.342 -15.764  22.945  1.00  0.00    -0.550 OA
ENDBRANCH   3   4
ENDBRANCH   2   3
ENDBRANCH   1   2
BRANCH   1   7
ATOM      7  C   UNL     1     -13.666 -12.822  18.770  1.00  0.00     0.000 C 
BRANCH   7   8
ATOM      8  C   UNL     1     -12.808 -11.770  18.057  1.00  0.00    -0.000 C 
BRANCH   8   9
ATOM      9  C   UNL     1     -11.328 -12.171  18.063  1.00  0.00    -0.003 C 
ATOM     10  C   UNL     1     -10.980 -12.973  19.313  1.00  0.00     0.004 C 
ENDBRANCH   8   9
ENDBRANCH   7   8
ENDBRANCH   1   7
TORSDOF 6
ENDMDL
MODEL 4
REMARK VINA RESULT:    -3.892      3.362      5.165
REMARK INTER + INTRA:          -5.582
REMARK INTER:                  -5.310
REMARK INTRA:                  -0.271
REMARK UNBOUND:                -0.324
REMARK SMILES CCCCCCCC(=O)[O-]
REMARK SMILES IDX 5 1 6 2 7 3 8 4 9 5 10 6 4 7 3 8 2 9 1 10
REMARK H PARENT
REMARK Flexibility Score: inf
ROOT
ATOM      1  C   UNL     1     -12.592 -14.565  19.536  1.00  0.00     0.000 C 
ENDROOT
BRANCH   1   2
ATOM      2  C   UNL     1     -11.685 -13.339  19.725  1.00  0.00     0.006 C 
BRANCH   2   3
ATOM      3  C   UNL     1     -11.221 -12.750  18.386  1.00  0.00     0.053 C 
BRANCH   3   4
ATOM      4  C   UNL     1     -12.141 -11.672  17.902  1.00  0.00     0.041 C 
ATOM      5  O   UNL     1     -11.683 -10.688  17.263  1.00  0.00    -0.550 OA
ATOM      6  O   UNL     1     -13.499 -11.737  18.185  1.00  0.00    -0.550 OA
ENDBRANCH   3   4
ENDBRANCH   2   3
ENDBRANCH   1   2
BRANCH   1   7
ATOM      7  C   UNL     1     -13.343 -14.897  20.831  1.00  0.00     0.000 C 
BRANCH   7   8
ATOM      8  C   UNL     1     -12.730 -14.161  22.028  1.00  0.00    -0.000 C 
BRANCH   8   9
ATOM      9  C   UNL     1     -13.820 -13.541  22.911  1.00  0.00    -0.003 C 
ATOM     10  C   UNL     1     -14.680 -12.563  22.117  1.00  0.00     0.004 C 
ENDBRANCH   8   9
ENDBRANCH   7   8
ENDBRANCH   1   7
TORSDOF 6
ENDMDL
MODEL 5
REMARK VINA RESULT:    -3.878      3.144      5.069
REMARK INTER + INTRA:          -5.561
REMARK INTER:                  -5.149
REMARK INTRA:                  -0.413
REMARK UNBOUND:                -0.324
REMARK SMILES CCCCCCCC(=O)[O-]
REMARK SMILES IDX 5 1 6 2 7 3 8 4 9 5 10 6 4 7 3 8 2 9 1 10
REMARK H PARENT
REMARK Flexibility Score: inf
ROOT
ATOM      1  C   UNL     1     -14.960 -12.110  19.966  1.00  0.00     0.000 C 
ENDROOT
BRANCH   1   2
ATOM      2  C   UNL     1     -14.138 -12.105  18.668  1.00  0.00     0.006 C 
BRANCH   2   3
ATOM      3  C   UNL     1     -12.958 -13.084  18.725  1.00  0.00     0.053 C 
BRANCH   3   4
ATOM      4  C   UNL     1     -11.641 -12.376  18.628  1.00  0.00     0.041 C 
ATOM      5  O   UNL     1     -10.721 -12.636  19.448  1.00  0.00    -0.550 OA
ATOM      6  O   UNL     1     -11.442 -11.407  17.654  1.00  0.00    -0.550 OA
ENDBRANCH   3   4
ENDBRANCH   2   3
ENDBRANCH   1   2
BRANCH   1   7
ATOM      7  C   UNL     1     -14.544 -13.273  20.875  1.00  0.00     0.000 C 
BRANCH   7   8
ATOM      8  C   UNL     1     -14.529 -12.844  22.347  1.00  0.00    -0.000 C 
BRANCH   8   9
ATOM      9  C   UNL     1     -13.636 -13.771  23.180  1.00  0.00    -0.003 C 
ATOM     10  C   UNL     1     -12.509 -14.356  22.336  1.00  0.00     0.004 C 
ENDBRANCH   8   9
ENDBRANCH   7   8
ENDBRANCH   1   7
TORSDOF 6
ENDMDL
MODEL 6
REMARK VINA RESULT:    -3.563     21.928     23.357
REMARK INTER + INTRA:          -5.137
REMARK INTER:                  -4.853
REMARK INTRA:                  -0.284
REMARK UNBOUND:                -0.324
REMARK SMILES CCCCCCCC(=O)[O-]
REMARK SMILES IDX 5 1 6 2 7 3 8 4 9 5 10 6 4 7 3 8 2 9 1 10
REMARK H PARENT
REMARK Flexibility Score: inf
ROOT
ATOM      1  C   UNL     1       3.459  -2.278  11.468  1.00  0.00     0.000 C 
ENDROOT
BRANCH   1   2
ATOM      2  C   UNL     1       4.390  -1.075  11.684  1.00  0.00     0.006 C 
BRANCH   2   3
ATOM      3  C   UNL     1       4.568  -0.245  10.406  1.00  0.00     0.053 C 
BRANCH   3   4
ATOM      4  C   UNL     1       4.001   1.134  10.554  1.00  0.00     0.041 C 
ATOM      5  O   UNL     1       4.110   1.749  11.648  1.00  0.00    -0.550 OA
ATOM      6  O   UNL     1       3.324   1.726   9.496  1.00  0.00    -0.550 OA
ENDBRANCH   3   4
ENDBRANCH   2   3
ENDBRANCH   1   2
BRANCH   1   7
ATOM      7  C   UNL     1       4.005  -3.206  10.376  1.00  0.00     0.000 C 
BRANCH   7   8
ATOM      8  C   UNL     1       4.809  -4.361  10.985  1.00  0.00    -0.000 C 
BRANCH   8   9
ATOM      9  C   UNL     1       4.174  -4.844  12.294  1.00  0.00    -0.003 C 
ATOM     10  C   UNL     1       5.125  -4.650  13.471  1.00  0.00     0.004 C 
ENDBRANCH   8   9
ENDBRANCH   7   8
ENDBRANCH   1   7
TORSDOF 6
ENDMDL
MODEL 7
REMARK VINA RESULT:    -3.558     21.934     23.924
REMARK INTER + INTRA:          -5.129
REMARK INTER:                  -4.775
REMARK INTRA:                  -0.354
REMARK UNBOUND:                -0.324
REMARK SMILES CCCCCCCC(=O)[O-]
REMARK SMILES IDX 5 1 6 2 7 3 8 4 9 5 10 6 4 7 3 8 2 9 1 10
REMARK H PARENT
REMARK Flexibility Score: inf
ROOT
ATOM      1  C   UNL     1       4.748  -1.982   8.267  1.00  0.00     0.000 C 
ENDROOT
BRANCH   1   2
ATOM      2  C   UNL     1       4.705  -0.491   8.631  1.00  0.00     0.006 C 
BRANCH   2   3
ATOM      3  C   UNL     1       4.457  -0.266  10.128  1.00  0.00     0.053 C 
BRANCH   3   4
ATOM      4  C   UNL     1       3.880   1.089  10.401  1.00  0.00     0.041 C 
ATOM      5  O   UNL     1       3.202   1.677   9.517  1.00  0.00    -0.550 OA
ATOM      6  O   UNL     1       4.118   1.716  11.617  1.00  0.00    -0.550 OA
ENDBRANCH   3   4
ENDBRANCH   2   3
ENDBRANCH   1   2
BRANCH   1   7
ATOM      7  C   UNL     1       4.114  -2.836   9.372  1.00  0.00     0.000 C 
BRANCH   7   8
ATOM      8  C   UNL     1       5.092  -3.906   9.872  1.00  0.00    -0.000 C 
BRANCH   8   9
ATOM      9  C   UNL     1       4.617  -4.509  11.199  1.00  0.00    -0.003 C 
ATOM     10  C   UNL     1       3.331  -3.842  11.677  1.00  0.00     0.004 C 
ENDBRANCH   8   9
ENDBRANCH   7   8
ENDBRANCH   1   7
TORSDOF 6
ENDMDL
MODEL 8
REMARK VINA RESULT:    -3.498     21.468     23.314
REMARK INTER + INTRA:          -5.049
REMARK INTER:                  -4.697
REMARK INTRA:                  -0.353
REMARK UNBOUND:                -0.324
REMARK SMILES CCCCCCCC(=O)[O-]
REMARK SMILES IDX 5 1 6 2 7 3 8 4 9 5 10 6 4 7 3 8 2 9 1 10
REMARK H PARENT
REMARK Flexibility Score: inf
ROOT
ATOM      1  C   UNL     1       5.079  -1.951   8.393  1.00  0.00     0.000 C 
ENDROOT
BRANCH   1   2
ATOM      2  C   UNL     1       4.110  -2.985   8.986  1.00  0.00     0.006 C 
BRANCH   2   3
ATOM      3  C   UNL     1       4.786  -3.879  10.034  1.00  0.00     0.053 C 
BRANCH   3   4
ATOM      4  C   UNL     1       3.964  -3.995  11.281  1.00  0.00     0.041 C 
ATOM      5  O   UNL     1       3.192  -3.059  11.619  1.00  0.00    -0.550 OA
ATOM      6  O   UNL     1       4.076  -5.121  12.086  1.00  0.00    -0.550 OA
ENDBRANCH   3   4
ENDBRANCH   2   3
ENDBRANCH   1   2
BRANCH   1   7
ATOM      7  C   UNL     1       4.617  -0.522   8.705  1.00  0.00     0.000 C 
BRANCH   7   8
ATOM      8  C   UNL     1       4.857  -0.175  10.179  1.00  0.00    -0.000 C 
BRANCH   8   9
ATOM      9  C   UNL     1       4.020   1.038  10.602  1.00  0.00    -0.003 C 
ATOM     10  C   UNL     1       3.389   1.720   9.393  1.00  0.00     0.004 C 
ENDBRANCH   8   9
ENDBRANCH   7   8
ENDBRANCH   1   7
TORSDOF 6
ENDMDL
MODEL 9
REMARK VINA RESULT:    -3.457      2.007      2.591
REMARK INTER + INTRA:          -4.994
REMARK INTER:                  -4.568
REMARK INTRA:                  -0.426
REMARK UNBOUND:                -0.324
REMARK SMILES CCCCCCCC(=O)[O-]
REMARK SMILES IDX 5 1 6 2 7 3 8 4 9 5 10 6 4 7 3 8 2 9 1 10
REMARK H PARENT
REMARK Flexibility Score: inf
ROOT
ATOM      1  C   UNL     1     -14.463 -13.430  18.720  1.00  0.00     0.000 C 
ENDROOT
BRANCH   1   2
ATOM      2  C   UNL     1     -14.583 -14.387  19.915  1.00  0.00     0.006 C 
BRANCH   2   3
ATOM      3  C   UNL     1     -13.532 -15.504  19.872  1.00  0.00     0.053 C 
BRANCH   3   4
ATOM      4  C   UNL     1     -13.955 -16.699  20.670  1.00  0.00     0.041 C 
ATOM      5  O   UNL     1     -14.351 -17.742  20.087  1.00  0.00    -0.550 OA
ATOM      6  O   UNL     1     -13.943 -16.648  22.058  1.00  0.00    -0.550 OA
ENDBRANCH   3   4
ENDBRANCH   2   3
ENDBRANCH   1   2
BRANCH   1   7
ATOM      7  C   UNL     1     -13.660 -12.179  19.097  1.00  0.00     0.000 C 
BRANCH   7   8
ATOM      8  C   UNL     1     -12.707 -11.773  17.966  1.00  0.00    -0.000 C 
BRANCH   8   9
ATOM      9  C   UNL     1     -11.463 -12.669  17.947  1.00  0.00    -0.003 C 
ATOM     10  C   UNL     1     -10.884 -12.836  19.348  1.00  0.00     0.004 C 
ENDBRANCH   8   9
ENDBRANCH   7   8
ENDBRANCH   1   7
TORSDOF 6
ENDMDL
