MODEL 1
REMARK VINA RESULT:    -7.127      0.000      0.000
REMARK INTER + INTRA:         -10.521
REMARK INTER:                  -9.419
REMARK INTRA:                  -1.102
REMARK UNBOUND:                -1.102
REMARK SMILES CC(C)=CCC[C@@H](C(=O)[O-])[C@H]1CC[C@]2(C)C3=C(CC[C@@]12C)[C@@]1(C)CC[C@H](O)C(C)(C)[C@H]1CC3
REMARK SMILES IDX 6 1 7 2 8 3 9 4 10 5 11 6 12 7 20 8 13 9 14 10 19 11 21 12
REMARK SMILES IDX 15 13 16 14 18 15 17 16 33 17 22 18 32 19 31 20 24 21 23 22
REMARK SMILES IDX 28 23 25 24 26 25 29 26 30 27 27 28 5 30 4 31 2 32 1 33 3 34
REMARK H PARENT 27 29
REMARK Flexibility Score: inf
ROOT
ATOM      1  C   UNL     1     162.064 174.080 180.233  1.00  0.00     0.014 C 
ENDROOT
BRANCH   1   2
ATOM      2  C   UNL     1     160.861 173.823 179.276  1.00  0.00     0.039 C 
BRANCH   2   3
ATOM      3  C   UNL     1     159.713 173.147 179.986  1.00  0.00     0.045 C 
ATOM      4  O   UNL     1     158.642 173.785 180.198  1.00  0.00    -0.550 OA
ATOM      5  O   UNL     1     159.772 171.803 180.332  1.00  0.00    -0.550 OA
ENDBRANCH   2   3
BRANCH   2   6
ATOM      6  C   UNL     1     160.502 175.069 178.383  1.00  0.00     0.004 C 
ATOM      7  C   UNL     1     161.480 176.256 178.553  1.00  0.00     0.006 C 
ATOM      8  C   UNL     1     160.272 174.966 176.827  1.00  0.00    -0.020 C 
ATOM      9  C   UNL     1     161.767 176.826 177.158  1.00  0.00     0.012 C 
ATOM     10  C   UNL     1     161.530 175.644 176.203  1.00  0.00    -0.006 C 
ATOM     11  C   UNL     1     160.091 173.595 176.161  1.00  0.00     0.012 C 
ATOM     12  C   UNL     1     158.947 175.772 176.545  1.00  0.00     0.012 C 
ATOM     13  C   UNL     1     162.836 174.791 176.192  1.00  0.00     0.017 C 
ATOM     14  C   UNL     1     161.264 175.951 174.738  1.00  0.00    -0.064 C 
ATOM     15  C   UNL     1     160.035 173.733 174.609  1.00  0.00     0.032 C 
ATOM     16  C   UNL     1     160.676 174.990 173.958  1.00  0.00    -0.064 C 
ATOM     17  C   UNL     1     161.928 177.131 174.078  1.00  0.00     0.032 C 
ATOM     18  C   UNL     1     160.571 175.225 172.422  1.00  0.00    -0.008 C 
ATOM     19  C   UNL     1     162.751 176.642 172.896  1.00  0.00     0.009 C 
ATOM     20  C   UNL     1     161.948 175.791 171.846  1.00  0.00     0.007 C 
ATOM     21  C   UNL     1     159.389 176.218 172.189  1.00  0.00     0.014 C 
ATOM     22  C   UNL     1     160.221 173.879 171.721  1.00  0.00     0.016 C 
ATOM     23  C   UNL     1     161.856 176.471 170.399  1.00  0.00    -0.006 C 
ATOM     24  C   UNL     1     159.336 176.842 170.795  1.00  0.00     0.033 C 
ATOM     25  C   UNL     1     160.672 177.483 170.381  1.00  0.00     0.120 C 
ATOM     26  C   UNL     1     161.695 175.401 169.267  1.00  0.00     0.014 C 
ATOM     27  C   UNL     1     163.168 177.245 170.046  1.00  0.00     0.014 C 
BRANCH  25  28
ATOM     28  O   UNL     1     160.534 178.046 169.099  1.00  0.00    -0.393 OA
ATOM     29  H   UNL     1     159.574 177.958 168.849  1.00  0.00     0.210 HD
ENDBRANCH  25  28
ENDBRANCH   2   6
ENDBRANCH   1   2
BRANCH   1  30
ATOM     30  C   UNL     1     161.660 174.252 181.715  1.00  0.00     0.028 C 
BRANCH  30  31
ATOM     31  C   UNL     1     161.424 175.704 182.064  1.00  0.00    -0.028 C 
ATOM     32  C   UNL     1     162.374 176.540 182.541  1.00  0.00    -0.080 C 
ATOM     33  C   UNL     1     162.059 178.005 182.728  1.00  0.00     0.039 C 
ATOM     34  C   UNL     1     163.769 176.067 182.868  1.00  0.00     0.039 C 
ENDBRANCH  30  31
ENDBRANCH   1  30
TORSDOF 6
ENDMDL
MODEL 2
REMARK VINA RESULT:    -6.905      5.293      9.212
REMARK INTER + INTRA:         -10.227
REMARK INTER:                  -8.468
REMARK INTRA:                  -1.760
REMARK UNBOUND:                -1.102
REMARK SMILES CC(C)=CCC[C@@H](C(=O)[O-])[C@H]1CC[C@]2(C)C3=C(CC[C@@]12C)[C@@]1(C)CC[C@H](O)C(C)(C)[C@H]1CC3
REMARK SMILES IDX 6 1 7 2 8 3 9 4 10 5 11 6 12 7 20 8 13 9 14 10 19 11 21 12
REMARK SMILES IDX 15 13 16 14 18 15 17 16 33 17 22 18 32 19 31 20 24 21 23 22
REMARK SMILES IDX 28 23 25 24 26 25 29 26 30 27 27 28 5 30 4 31 2 32 1 33 3 34
REMARK H PARENT 27 29
REMARK Flexibility Score: inf
ROOT
ATOM      1  C   UNL     1     160.930 176.105 181.236  1.00  0.00     0.014 C 
ENDROOT
BRANCH   1   2
ATOM      2  C   UNL     1     161.540 175.222 180.106  1.00  0.00     0.039 C 
BRANCH   2   3
ATOM      3  C   UNL     1     160.483 174.723 179.151  1.00  0.00     0.045 C 
ATOM      4  O   UNL     1     160.670 174.812 177.904  1.00  0.00    -0.550 OA
ATOM      5  O   UNL     1     159.342 174.079 179.613  1.00  0.00    -0.550 OA
ENDBRANCH   2   3
BRANCH   2   6
ATOM      6  C   UNL     1     162.834 175.846 179.462  1.00  0.00     0.004 C 
ATOM      7  C   UNL     1     162.929 177.381 179.626  1.00  0.00     0.006 C 
ATOM      8  C   UNL     1     164.285 175.323 179.786  1.00  0.00    -0.020 C 
ATOM      9  C   UNL     1     164.379 177.722 179.993  1.00  0.00     0.012 C 
ATOM     10  C   UNL     1     164.916 176.447 180.665  1.00  0.00    -0.006 C 
ATOM     11  C   UNL     1     164.482 173.985 180.512  1.00  0.00     0.012 C 
ATOM     12  C   UNL     1     165.000 175.176 178.388  1.00  0.00     0.012 C 
ATOM     13  C   UNL     1     164.463 176.487 182.157  1.00  0.00     0.017 C 
ATOM     14  C   UNL     1     166.422 176.252 180.730  1.00  0.00    -0.064 C 
ATOM     15  C   UNL     1     165.984 173.754 180.858  1.00  0.00     0.032 C 
ATOM     16  C   UNL     1     166.916 174.993 180.955  1.00  0.00    -0.064 C 
ATOM     17  C   UNL     1     167.334 177.441 180.886  1.00  0.00     0.032 C 
ATOM     18  C   UNL     1     168.443 174.817 181.208  1.00  0.00    -0.008 C 
ATOM     19  C   UNL     1     168.162 177.270 182.151  1.00  0.00     0.009 C 
ATOM     20  C   UNL     1     168.974 175.926 182.226  1.00  0.00     0.007 C 
ATOM     21  C   UNL     1     169.153 174.909 179.820  1.00  0.00     0.014 C 
ATOM     22  C   UNL     1     168.703 173.398 181.794  1.00  0.00     0.016 C 
ATOM     23  C   UNL     1     170.563 176.133 182.244  1.00  0.00    -0.006 C 
ATOM     24  C   UNL     1     170.666 175.103 179.883  1.00  0.00     0.033 C 
ATOM     25  C   UNL     1     171.077 176.283 180.782  1.00  0.00     0.120 C 
ATOM     26  C   UNL     1     171.290 174.955 182.976  1.00  0.00     0.014 C 
ATOM     27  C   UNL     1     170.964 177.418 183.039  1.00  0.00     0.014 C 
BRANCH  25  28
ATOM     28  O   UNL     1     172.480 176.402 180.771  1.00  0.00    -0.393 OA
ATOM     29  H   UNL     1     172.821 175.834 181.514  1.00  0.00     0.210 HD
ENDBRANCH  25  28
ENDBRANCH   2   6
ENDBRANCH   1   2
BRANCH   1  30
ATOM     30  C   UNL     1     160.786 175.378 182.592  1.00  0.00     0.028 C 
BRANCH  30  31
ATOM     31  C   UNL     1     161.724 174.196 182.693  1.00  0.00    -0.028 C 
ATOM     32  C   UNL     1     161.337 172.936 182.996  1.00  0.00    -0.080 C 
ATOM     33  C   UNL     1     162.339 171.809 182.937  1.00  0.00     0.039 C 
ATOM     34  C   UNL     1     159.912 172.600 183.364  1.00  0.00     0.039 C 
ENDBRANCH  30  31
ENDBRANCH   1  30
TORSDOF 6
ENDMDL
MODEL 3
REMARK VINA RESULT:    -6.889     12.359     15.969
REMARK INTER + INTRA:         -10.206
REMARK INTER:                  -8.686
REMARK INTRA:                  -1.520
REMARK UNBOUND:                -1.102
REMARK SMILES CC(C)=CCC[C@@H](C(=O)[O-])[C@H]1CC[C@]2(C)C3=C(CC[C@@]12C)[C@@]1(C)CC[C@H](O)C(C)(C)[C@H]1CC3
REMARK SMILES IDX 6 1 7 2 8 3 9 4 10 5 11 6 12 7 20 8 13 9 14 10 19 11 21 12
REMARK SMILES IDX 15 13 16 14 18 15 17 16 33 17 22 18 32 19 31 20 24 21 23 22
REMARK SMILES IDX 28 23 25 24 26 25 29 26 30 27 27 28 5 30 4 31 2 32 1 33 3 34
REMARK H PARENT 27 29
REMARK Flexibility Score: inf
ROOT
ATOM      1  C   UNL     1     173.719 177.090 181.353  1.00  0.00     0.014 C 
ENDROOT
BRANCH   1   2
ATOM      2  C   UNL     1     173.131 176.391 180.091  1.00  0.00     0.039 C 
BRANCH   2   3
ATOM      3  C   UNL     1     172.507 177.383 179.139  1.00  0.00     0.045 C 
ATOM      4  O   UNL     1     171.315 177.765 179.321  1.00  0.00    -0.550 OA
ATOM      5  O   UNL     1     173.247 177.962 178.115  1.00  0.00    -0.550 OA
ENDBRANCH   2   3
BRANCH   2   6
ATOM      6  C   UNL     1     174.107 175.328 179.461  1.00  0.00     0.004 C 
ATOM      7  C   UNL     1     175.603 175.679 179.636  1.00  0.00     0.006 C 
ATOM      8  C   UNL     1     174.019 173.789 179.791  1.00  0.00    -0.020 C 
ATOM      9  C   UNL     1     176.342 174.390 180.015  1.00  0.00     0.012 C 
ATOM     10  C   UNL     1     175.269 173.513 180.682  1.00  0.00    -0.006 C 
ATOM     11  C   UNL     1     172.788 173.220 180.509  1.00  0.00     0.012 C 
ATOM     12  C   UNL     1     174.096 173.056 178.397  1.00  0.00     0.012 C 
ATOM     13  C   UNL     1     175.165 173.965 182.171  1.00  0.00     0.017 C 
ATOM     14  C   UNL     1     175.514 172.014 180.757  1.00  0.00    -0.064 C 
ATOM     15  C   UNL     1     172.995 171.716 180.864  1.00  0.00     0.032 C 
ATOM     16  C   UNL     1     174.449 171.180 180.975  1.00  0.00    -0.064 C 
ATOM     17  C   UNL     1     176.914 171.483 180.928  1.00  0.00     0.032 C 
ATOM     18  C   UNL     1     174.717 169.668 181.238  1.00  0.00    -0.008 C 
ATOM     19  C   UNL     1     176.977 170.646 182.197  1.00  0.00     0.009 C 
ATOM     20  C   UNL     1     175.922 169.483 182.268  1.00  0.00     0.007 C 
ATOM     21  C   UNL     1     175.021 169.008 179.856  1.00  0.00     0.014 C 
ATOM     22  C   UNL     1     173.427 169.014 181.816  1.00  0.00     0.016 C 
ATOM     23  C   UNL     1     176.576 168.021 182.299  1.00  0.00    -0.006 C 
ATOM     24  C   UNL     1     175.641 167.614 179.931  1.00  0.00     0.033 C 
ATOM     25  C   UNL     1     176.881 167.564 180.841  1.00  0.00     0.120 C 
ATOM     26  C   UNL     1     175.651 166.989 183.027  1.00  0.00     0.014 C 
ATOM     27  C   UNL     1     177.916 168.010 183.105  1.00  0.00     0.014 C 
BRANCH  25  28
ATOM     28  O   UNL     1     177.398 166.255 180.841  1.00  0.00    -0.393 OA
ATOM     29  H   UNL     1     178.020 166.193 180.066  1.00  0.00     0.210 HD
ENDBRANCH  25  28
ENDBRANCH   2   6
ENDBRANCH   1   2
BRANCH   1  30
ATOM     30  C   UNL     1     172.727 177.188 182.535  1.00  0.00     0.028 C 
BRANCH  30  31
ATOM     31  C   UNL     1     171.774 176.014 182.562  1.00  0.00    -0.028 C 
ATOM     32  C   UNL     1     170.505 176.069 183.027  1.00  0.00    -0.080 C 
ATOM     33  C   UNL     1     169.601 174.869 182.881  1.00  0.00     0.039 C 
ATOM     34  C   UNL     1     169.937 177.313 183.665  1.00  0.00     0.039 C 
ENDBRANCH  30  31
ENDBRANCH   1  30
TORSDOF 6
ENDMDL
MODEL 4
REMARK VINA RESULT:    -6.723      8.204     12.309
REMARK INTER + INTRA:          -9.987
REMARK INTER:                  -9.261
REMARK INTRA:                  -0.725
REMARK UNBOUND:                -1.102
REMARK SMILES CC(C)=CCC[C@@H](C(=O)[O-])[C@H]1CC[C@]2(C)C3=C(CC[C@@]12C)[C@@]1(C)CC[C@H](O)C(C)(C)[C@H]1CC3
REMARK SMILES IDX 6 1 7 2 8 3 9 4 10 5 11 6 12 7 20 8 13 9 14 10 19 11 21 12
REMARK SMILES IDX 15 13 16 14 18 15 17 16 33 17 22 18 32 19 31 20 24 21 23 22
REMARK SMILES IDX 28 23 25 24 26 25 29 26 30 27 27 28 5 30 4 31 2 32 1 33 3 34
REMARK H PARENT 27 29
REMARK Flexibility Score: inf
ROOT
ATOM      1  C   UNL     1     165.264 176.219 181.814  1.00  0.00     0.014 C 
ENDROOT
BRANCH   1   2
ATOM      2  C   UNL     1     166.379 175.138 181.692  1.00  0.00     0.039 C 
BRANCH   2   3
ATOM      3  C   UNL     1     165.803 173.759 181.474  1.00  0.00     0.045 C 
ATOM      4  O   UNL     1     165.867 172.898 182.396  1.00  0.00    -0.550 OA
ATOM      5  O   UNL     1     165.117 173.443 180.307  1.00  0.00    -0.550 OA
ENDBRANCH   2   3
BRANCH   2   6
ATOM      6  C   UNL     1     167.559 175.568 180.742  1.00  0.00     0.004 C 
ATOM      7  C   UNL     1     167.716 177.101 180.603  1.00  0.00     0.006 C 
ATOM      8  C   UNL     1     169.031 175.033 180.914  1.00  0.00    -0.020 C 
ATOM      9  C   UNL     1     169.215 177.422 180.659  1.00  0.00     0.012 C 
ATOM     10  C   UNL     1     169.829 176.259 181.457  1.00  0.00    -0.006 C 
ATOM     11  C   UNL     1     169.318 173.835 181.831  1.00  0.00     0.012 C 
ATOM     12  C   UNL     1     169.493 174.603 179.469  1.00  0.00     0.012 C 
ATOM     13  C   UNL     1     169.638 176.586 182.970  1.00  0.00     0.017 C 
ATOM     14  C   UNL     1     171.319 175.997 181.309  1.00  0.00    -0.064 C 
ATOM     15  C   UNL     1     170.851 173.589 181.962  1.00  0.00     0.032 C 
ATOM     16  C   UNL     1     171.814 174.773 181.676  1.00  0.00    -0.064 C 
ATOM     17  C   UNL     1     172.271 177.144 181.093  1.00  0.00     0.032 C 
ATOM     18  C   UNL     1     173.358 174.563 181.704  1.00  0.00    -0.008 C 
ATOM     19  C   UNL     1     173.299 177.155 182.215  1.00  0.00     0.009 C 
ATOM     20  C   UNL     1     174.081 175.804 182.400  1.00  0.00     0.007 C 
ATOM     21  C   UNL     1     173.822 174.370 180.226  1.00  0.00     0.014 C 
ATOM     22  C   UNL     1     173.681 173.257 182.489  1.00  0.00     0.016 C 
ATOM     23  C   UNL     1     175.653 175.924 182.120  1.00  0.00    -0.006 C 
ATOM     24  C   UNL     1     175.328 174.490 180.003  1.00  0.00     0.033 C 
ATOM     25  C   UNL     1     175.914 175.785 180.591  1.00  0.00     0.120 C 
ATOM     26  C   UNL     1     176.467 174.857 182.926  1.00  0.00     0.014 C 
ATOM     27  C   UNL     1     176.214 177.306 182.589  1.00  0.00     0.014 C 
BRANCH  25  28
ATOM     28  O   UNL     1     177.296 175.825 180.329  1.00  0.00    -0.393 OA
ATOM     29  H   UNL     1     177.458 176.628 179.762  1.00  0.00     0.210 HD
ENDBRANCH  25  28
ENDBRANCH   2   6
ENDBRANCH   1   2
BRANCH   1  30
ATOM     30  C   UNL     1     164.297 175.992 182.998  1.00  0.00     0.028 C 
BRANCH  30  31
ATOM     31  C   UNL     1     162.961 175.458 182.533  1.00  0.00    -0.028 C 
ATOM     32  C   UNL     1     161.864 176.219 182.319  1.00  0.00    -0.080 C 
ATOM     33  C   UNL     1     160.623 175.597 181.726  1.00  0.00     0.039 C 
ATOM     34  C   UNL     1     161.841 177.697 182.624  1.00  0.00     0.039 C 
ENDBRANCH  30  31
ENDBRANCH   1  30
TORSDOF 6
ENDMDL
MODEL 5
REMARK VINA RESULT:    -6.679      6.732     10.966
REMARK INTER + INTRA:          -9.928
REMARK INTER:                  -8.169
REMARK INTRA:                  -1.759
REMARK UNBOUND:                -1.102
REMARK SMILES CC(C)=CCC[C@@H](C(=O)[O-])[C@H]1CC[C@]2(C)C3=C(CC[C@@]12C)[C@@]1(C)CC[C@H](O)C(C)(C)[C@H]1CC3
REMARK SMILES IDX 6 1 7 2 8 3 9 4 10 5 11 6 12 7 20 8 13 9 14 10 19 11 21 12
REMARK SMILES IDX 15 13 16 14 18 15 17 16 33 17 22 18 32 19 31 20 24 21 23 22
REMARK SMILES IDX 28 23 25 24 26 25 29 26 30 27 27 28 5 30 4 31 2 32 1 33 3 34
REMARK H PARENT 27 29
REMARK Flexibility Score: inf
ROOT
ATOM      1  C   UNL     1     158.344 163.853 181.060  1.00  0.00     0.014 C 
ENDROOT
BRANCH   1   2
ATOM      2  C   UNL     1     159.491 164.211 180.068  1.00  0.00     0.039 C 
BRANCH   2   3
ATOM      3  C   UNL     1     159.801 163.067 179.132  1.00  0.00     0.045 C 
ATOM      4  O   UNL     1     159.392 161.903 179.405  1.00  0.00    -0.550 OA
ATOM      5  O   UNL     1     160.451 163.283 177.923  1.00  0.00    -0.550 OA
ENDBRANCH   2   3
BRANCH   2   6
ATOM      6  C   UNL     1     159.322 165.633 179.412  1.00  0.00     0.004 C 
ATOM      7  C   UNL     1     157.875 166.175 179.472  1.00  0.00     0.006 C 
ATOM      8  C   UNL     1     160.224 166.865 179.803  1.00  0.00    -0.020 C 
ATOM      9  C   UNL     1     157.950 167.660 179.847  1.00  0.00     0.012 C 
ATOM     10  C   UNL     1     159.274 167.797 180.617  1.00  0.00    -0.006 C 
ATOM     11  C   UNL     1     161.505 166.658 180.624  1.00  0.00     0.012 C 
ATOM     12  C   UNL     1     160.674 167.506 178.435  1.00  0.00     0.012 C 
ATOM     13  C   UNL     1     158.995 167.374 182.092  1.00  0.00     0.017 C 
ATOM     14  C   UNL     1     159.898 169.179 180.729  1.00  0.00    -0.064 C 
ATOM     15  C   UNL     1     162.140 168.025 181.018  1.00  0.00     0.032 C 
ATOM     16  C   UNL     1     161.226 169.280 181.050  1.00  0.00    -0.064 C 
ATOM     17  C   UNL     1     159.021 170.400 180.824  1.00  0.00     0.032 C 
ATOM     18  C   UNL     1     161.824 170.688 181.349  1.00  0.00    -0.008 C 
ATOM     19  C   UNL     1     159.336 171.140 182.115  1.00  0.00     0.009 C 
ATOM     20  C   UNL     1     160.849 171.520 182.300  1.00  0.00     0.007 C 
ATOM     21  C   UNL     1     162.044 171.395 179.974  1.00  0.00     0.014 C 
ATOM     22  C   UNL     1     163.211 170.518 182.036  1.00  0.00     0.016 C 
ATOM     23  C   UNL     1     161.118 173.099 182.339  1.00  0.00    -0.006 C 
ATOM     24  C   UNL     1     162.299 172.898 180.057  1.00  0.00     0.033 C 
ATOM     25  C   UNL     1     161.231 173.637 180.882  1.00  0.00     0.120 C 
ATOM     26  C   UNL     1     162.401 173.447 183.166  1.00  0.00     0.014 C 
ATOM     27  C   UNL     1     159.953 173.860 183.053  1.00  0.00     0.014 C 
BRANCH  25  28
ATOM     28  O   UNL     1     161.530 175.013 180.895  1.00  0.00    -0.393 OA
ATOM     29  H   UNL     1     162.225 175.161 180.198  1.00  0.00     0.210 HD
ENDBRANCH  25  28
ENDBRANCH   2   6
ENDBRANCH   1   2
BRANCH   1  30
ATOM     30  C   UNL     1     158.821 163.621 182.512  1.00  0.00     0.028 C 
BRANCH  30  31
ATOM     31  C   UNL     1     160.266 164.025 182.696  1.00  0.00    -0.028 C 
ATOM     32  C   UNL     1     161.282 163.159 182.908  1.00  0.00    -0.080 C 
ATOM     33  C   UNL     1     162.704 163.664 182.944  1.00  0.00     0.039 C 
ATOM     34  C   UNL     1     161.051 161.677 183.081  1.00  0.00     0.039 C 
ENDBRANCH  30  31
ENDBRANCH   1  30
TORSDOF 6
ENDMDL
MODEL 6
REMARK VINA RESULT:    -6.626      9.413     13.027
REMARK INTER + INTRA:          -9.859
REMARK INTER:                  -8.165
REMARK INTRA:                  -1.694
REMARK UNBOUND:                -1.102
REMARK SMILES CC(C)=CCC[C@@H](C(=O)[O-])[C@H]1CC[C@]2(C)C3=C(CC[C@@]12C)[C@@]1(C)CC[C@H](O)C(C)(C)[C@H]1CC3
REMARK SMILES IDX 6 1 7 2 8 3 9 4 10 5 11 6 12 7 20 8 13 9 14 10 19 11 21 12
REMARK SMILES IDX 15 13 16 14 18 15 17 16 33 17 22 18 32 19 31 20 24 21 23 22
REMARK SMILES IDX 28 23 25 24 26 25 29 26 30 27 27 28 5 30 4 31 2 32 1 33 3 34
REMARK H PARENT 27 29
REMARK Flexibility Score: inf
ROOT
ATOM      1  C   UNL     1     176.167 176.966 181.397  1.00  0.00     0.014 C 
ENDROOT
BRANCH   1   2
ATOM      2  C   UNL     1     175.320 175.659 181.338  1.00  0.00     0.039 C 
BRANCH   2   3
ATOM      3  C   UNL     1     176.179 174.426 181.475  1.00  0.00     0.045 C 
ATOM      4  O   UNL     1     177.365 174.434 181.036  1.00  0.00    -0.550 OA
ATOM      5  O   UNL     1     175.725 173.305 182.159  1.00  0.00    -0.550 OA
ENDBRANCH   2   3
BRANCH   2   6
ATOM      6  C   UNL     1     174.025 175.719 182.232  1.00  0.00     0.004 C 
ATOM      7  C   UNL     1     173.717 177.131 182.784  1.00  0.00     0.006 C 
ATOM      8  C   UNL     1     172.629 175.169 181.750  1.00  0.00    -0.020 C 
ATOM      9  C   UNL     1     172.207 177.363 182.654  1.00  0.00     0.012 C 
ATOM     10  C   UNL     1     171.776 176.450 181.494  1.00  0.00    -0.006 C 
ATOM     11  C   UNL     1     172.536 174.278 180.504  1.00  0.00     0.012 C 
ATOM     12  C   UNL     1     172.080 174.307 182.951  1.00  0.00     0.012 C 
ATOM     13  C   UNL     1     172.071 177.217 180.169  1.00  0.00     0.017 C 
ATOM     14  C   UNL     1     170.308 176.066 181.392  1.00  0.00    -0.064 C 
ATOM     15  C   UNL     1     171.050 173.988 180.136  1.00  0.00     0.032 C 
ATOM     16  C   UNL     1     169.961 174.976 180.638  1.00  0.00    -0.064 C 
ATOM     17  C   UNL     1     169.240 177.039 181.817  1.00  0.00     0.032 C 
ATOM     18  C   UNL     1     168.452 174.689 180.377  1.00  0.00    -0.008 C 
ATOM     19  C   UNL     1     168.320 177.315 180.637  1.00  0.00     0.009 C 
ATOM     20  C   UNL     1     167.685 176.034 179.987  1.00  0.00     0.007 C 
ATOM     21  C   UNL     1     167.876 174.044 181.677  1.00  0.00     0.014 C 
ATOM     22  C   UNL     1     168.321 173.654 179.221  1.00  0.00     0.016 C 
ATOM     23  C   UNL     1     166.089 175.970 180.112  1.00  0.00    -0.006 C 
ATOM     24  C   UNL     1     166.351 174.001 181.754  1.00  0.00     0.033 C 
ATOM     25  C   UNL     1     165.705 175.374 181.498  1.00  0.00     0.120 C 
ATOM     26  C   UNL     1     165.451 175.139 178.948  1.00  0.00     0.014 C 
ATOM     27  C   UNL     1     165.449 177.392 179.996  1.00  0.00     0.014 C 
BRANCH  25  28
ATOM     28  O   UNL     1     164.307 175.251 181.603  1.00  0.00    -0.393 OA
ATOM     29  H   UNL     1     163.921 175.653 180.778  1.00  0.00     0.210 HD
ENDBRANCH  25  28
ENDBRANCH   2   6
ENDBRANCH   1   2
BRANCH   1  30
ATOM     30  C   UNL     1     176.215 177.743 180.062  1.00  0.00     0.028 C 
BRANCH  30  31
ATOM     31  C   UNL     1     175.211 177.205 179.067  1.00  0.00    -0.028 C 
ATOM     32  C   UNL     1     175.532 176.479 177.972  1.00  0.00    -0.080 C 
ATOM     33  C   UNL     1     174.438 175.880 177.122  1.00  0.00     0.039 C 
ATOM     34  C   UNL     1     176.964 176.211 177.578  1.00  0.00     0.039 C 
ENDBRANCH  30  31
ENDBRANCH   1  30
TORSDOF 6
ENDMDL
MODEL 7
REMARK VINA RESULT:    -6.598      1.461      2.795
REMARK INTER + INTRA:          -9.822
REMARK INTER:                  -7.806
REMARK INTRA:                  -2.016
REMARK UNBOUND:                -1.102
REMARK SMILES CC(C)=CCC[C@@H](C(=O)[O-])[C@H]1CC[C@]2(C)C3=C(CC[C@@]12C)[C@@]1(C)CC[C@H](O)C(C)(C)[C@H]1CC3
REMARK SMILES IDX 6 1 7 2 8 3 9 4 10 5 11 6 12 7 20 8 13 9 14 10 19 11 21 12
REMARK SMILES IDX 15 13 16 14 18 15 17 16 33 17 22 18 32 19 31 20 24 21 23 22
REMARK SMILES IDX 28 23 25 24 26 25 29 26 30 27 27 28 5 30 4 31 2 32 1 33 3 34
REMARK H PARENT 27 29
REMARK Flexibility Score: inf
ROOT
ATOM      1  C   UNL     1     162.184 173.766 179.776  1.00  0.00     0.014 C 
ENDROOT
BRANCH   1   2
ATOM      2  C   UNL     1     160.699 173.806 179.304  1.00  0.00     0.039 C 
BRANCH   2   3
ATOM      3  C   UNL     1     159.743 173.504 180.433  1.00  0.00     0.045 C 
ATOM      4  O   UNL     1     159.326 174.441 181.171  1.00  0.00    -0.550 OA
ATOM      5  O   UNL     1     159.235 172.224 180.622  1.00  0.00    -0.550 OA
ENDBRANCH   2   3
BRANCH   2   6
ATOM      6  C   UNL     1     160.365 175.062 178.414  1.00  0.00     0.004 C 
ATOM      7  C   UNL     1     161.342 176.244 178.619  1.00  0.00     0.006 C 
ATOM      8  C   UNL     1     160.173 174.973 176.853  1.00  0.00    -0.020 C 
ATOM      9  C   UNL     1     161.664 176.826 177.238  1.00  0.00     0.012 C 
ATOM     10  C   UNL     1     161.447 175.654 176.266  1.00  0.00    -0.006 C 
ATOM     11  C   UNL     1     160.004 173.609 176.169  1.00  0.00     0.012 C 
ATOM     12  C   UNL     1     158.857 175.786 176.546  1.00  0.00     0.012 C 
ATOM     13  C   UNL     1     162.751 174.798 176.278  1.00  0.00     0.017 C 
ATOM     14  C   UNL     1     161.217 175.975 174.797  1.00  0.00    -0.064 C 
ATOM     15  C   UNL     1     159.986 173.762 174.618  1.00  0.00     0.032 C 
ATOM     16  C   UNL     1     160.645 175.023 173.995  1.00  0.00    -0.064 C 
ATOM     17  C   UNL     1     161.900 177.160 174.165  1.00  0.00     0.032 C 
ATOM     18  C   UNL     1     160.579 175.274 172.459  1.00  0.00    -0.008 C 
ATOM     19  C   UNL     1     162.750 176.679 172.998  1.00  0.00     0.009 C 
ATOM     20  C   UNL     1     161.971 175.840 171.922  1.00  0.00     0.007 C 
ATOM     21  C   UNL     1     159.404 176.272 172.206  1.00  0.00     0.014 C 
ATOM     22  C   UNL     1     160.242 173.935 171.737  1.00  0.00     0.016 C 
ATOM     23  C   UNL     1     161.915 176.534 170.479  1.00  0.00    -0.006 C 
ATOM     24  C   UNL     1     159.387 176.908 170.818  1.00  0.00     0.033 C 
ATOM     25  C   UNL     1     160.735 177.549 170.442  1.00  0.00     0.120 C 
ATOM     26  C   UNL     1     161.779 175.476 169.333  1.00  0.00     0.014 C 
ATOM     27  C   UNL     1     163.237 177.308 170.165  1.00  0.00     0.014 C 
BRANCH  25  28
ATOM     28  O   UNL     1     160.629 178.125 169.162  1.00  0.00    -0.393 OA
ATOM     29  H   UNL     1     160.229 177.433 168.569  1.00  0.00     0.210 HD
ENDBRANCH  25  28
ENDBRANCH   2   6
ENDBRANCH   1   2
BRANCH   1  30
ATOM     30  C   UNL     1     162.912 172.443 179.444  1.00  0.00     0.028 C 
BRANCH  30  31
ATOM     31  C   UNL     1     162.212 171.682 178.340  1.00  0.00    -0.028 C 
ATOM     32  C   UNL     1     162.823 171.206 177.232  1.00  0.00    -0.080 C 
ATOM     33  C   UNL     1     162.051 170.345 176.261  1.00  0.00     0.039 C 
ATOM     34  C   UNL     1     164.278 171.478 176.938  1.00  0.00     0.039 C 
ENDBRANCH  30  31
ENDBRANCH   1  30
TORSDOF 6
ENDMDL
MODEL 8
REMARK VINA RESULT:    -6.496     12.448     15.767
REMARK INTER + INTRA:          -9.687
REMARK INTER:                  -7.738
REMARK INTRA:                  -1.949
REMARK UNBOUND:                -1.102
REMARK SMILES CC(C)=CCC[C@@H](C(=O)[O-])[C@H]1CC[C@]2(C)C3=C(CC[C@@]12C)[C@@]1(C)CC[C@H](O)C(C)(C)[C@H]1CC3
REMARK SMILES IDX 6 1 7 2 8 3 9 4 10 5 11 6 12 7 20 8 13 9 14 10 19 11 21 12
REMARK SMILES IDX 15 13 16 14 18 15 17 16 33 17 22 18 32 19 31 20 24 21 23 22
REMARK SMILES IDX 28 23 25 24 26 25 29 26 30 27 27 28 5 30 4 31 2 32 1 33 3 34
REMARK H PARENT 27 29
REMARK Flexibility Score: inf
ROOT
ATOM      1  C   UNL     1     172.437 177.066 178.704  1.00  0.00     0.014 C 
ENDROOT
BRANCH   1   2
ATOM      2  C   UNL     1     172.337 176.591 180.185  1.00  0.00     0.039 C 
BRANCH   2   3
ATOM      3  C   UNL     1     171.558 177.565 181.036  1.00  0.00     0.045 C 
ATOM      4  O   UNL     1     170.351 177.818 180.758  1.00  0.00    -0.550 OA
ATOM      5  O   UNL     1     172.113 178.125 182.181  1.00  0.00    -0.550 OA
ENDBRANCH   2   3
BRANCH   2   6
ATOM      6  C   UNL     1     171.953 175.070 180.324  1.00  0.00     0.004 C 
ATOM      7  C   UNL     1     171.337 174.467 179.039  1.00  0.00     0.006 C 
ATOM      8  C   UNL     1     172.969 173.977 180.827  1.00  0.00    -0.020 C 
ATOM      9  C   UNL     1     171.949 173.076 178.838  1.00  0.00     0.012 C 
ATOM     10  C   UNL     1     173.311 173.148 179.550  1.00  0.00    -0.006 C 
ATOM     11  C   UNL     1     174.289 174.393 181.491  1.00  0.00     0.012 C 
ATOM     12  C   UNL     1     172.181 173.134 181.902  1.00  0.00     0.012 C 
ATOM     13  C   UNL     1     174.317 173.804 178.555  1.00  0.00     0.017 C 
ATOM     14  C   UNL     1     173.976 171.843 179.958  1.00  0.00    -0.064 C 
ATOM     15  C   UNL     1     175.193 173.152 181.761  1.00  0.00     0.032 C 
ATOM     16  C   UNL     1     174.959 171.872 180.911  1.00  0.00    -0.064 C 
ATOM     17  C   UNL     1     173.808 170.610 179.109  1.00  0.00     0.032 C 
ATOM     18  C   UNL     1     175.770 170.573 181.197  1.00  0.00    -0.008 C 
ATOM     19  C   UNL     1     175.178 170.124 178.662  1.00  0.00     0.009 C 
ATOM     20  C   UNL     1     176.196 169.865 179.832  1.00  0.00     0.007 C 
ATOM     21  C   UNL     1     174.867 169.652 182.077  1.00  0.00     0.014 C 
ATOM     22  C   UNL     1     177.042 170.936 182.020  1.00  0.00     0.016 C 
ATOM     23  C   UNL     1     176.648 168.334 179.967  1.00  0.00    -0.006 C 
ATOM     24  C   UNL     1     175.335 168.202 182.182  1.00  0.00     0.033 C 
ATOM     25  C   UNL     1     175.590 167.559 180.807  1.00  0.00     0.120 C 
ATOM     26  C   UNL     1     178.072 168.207 180.605  1.00  0.00     0.014 C 
ATOM     27  C   UNL     1     176.762 167.645 178.568  1.00  0.00     0.014 C 
BRANCH  25  28
ATOM     28  O   UNL     1     175.999 166.225 180.992  1.00  0.00    -0.393 OA
ATOM     29  H   UNL     1     175.316 165.652 180.550  1.00  0.00     0.210 HD
ENDBRANCH  25  28
ENDBRANCH   2   6
ENDBRANCH   1   2
BRANCH   1  30
ATOM     30  C   UNL     1     173.873 177.422 178.255  1.00  0.00     0.028 C 
BRANCH  30  31
ATOM     31  C   UNL     1     174.841 177.406 179.417  1.00  0.00    -0.028 C 
ATOM     32  C   UNL     1     176.126 176.994 179.336  1.00  0.00    -0.080 C 
ATOM     33  C   UNL     1     177.040 177.148 180.528  1.00  0.00     0.039 C 
ATOM     34  C   UNL     1     176.703 176.408 178.071  1.00  0.00     0.039 C 
ENDBRANCH  30  31
ENDBRANCH   1  30
TORSDOF 6
ENDMDL
MODEL 9
REMARK VINA RESULT:    -6.496      6.183     10.112
REMARK INTER + INTRA:          -9.687
REMARK INTER:                  -7.912
REMARK INTRA:                  -1.774
REMARK UNBOUND:                -1.102
REMARK SMILES CC(C)=CCC[C@@H](C(=O)[O-])[C@H]1CC[C@]2(C)C3=C(CC[C@@]12C)[C@@]1(C)CC[C@H](O)C(C)(C)[C@H]1CC3
REMARK SMILES IDX 6 1 7 2 8 3 9 4 10 5 11 6 12 7 20 8 13 9 14 10 19 11 21 12
REMARK SMILES IDX 15 13 16 14 18 15 17 16 33 17 22 18 32 19 31 20 24 21 23 22
REMARK SMILES IDX 28 23 25 24 26 25 29 26 30 27 27 28 5 30 4 31 2 32 1 33 3 34
REMARK H PARENT 27 29
REMARK Flexibility Score: inf
ROOT
ATOM      1  C   UNL     1     172.019 174.523 180.646  1.00  0.00     0.014 C 
ENDROOT
BRANCH   1   2
ATOM      2  C   UNL     1     171.173 175.636 179.956  1.00  0.00     0.039 C 
BRANCH   2   3
ATOM      3  C   UNL     1     172.029 176.545 179.107  1.00  0.00     0.045 C 
ATOM      4  O   UNL     1     171.724 177.766 178.989  1.00  0.00    -0.550 OA
ATOM      5  O   UNL     1     173.204 176.088 178.522  1.00  0.00    -0.550 OA
ENDBRANCH   2   3
BRANCH   2   6
ATOM      6  C   UNL     1     169.852 175.090 179.296  1.00  0.00     0.004 C 
ATOM      7  C   UNL     1     169.649 173.568 179.482  1.00  0.00     0.006 C 
ATOM      8  C   UNL     1     168.435 175.717 179.581  1.00  0.00    -0.020 C 
ATOM      9  C   UNL     1     168.172 173.334 179.824  1.00  0.00     0.012 C 
ATOM     10  C   UNL     1     167.711 174.654 180.465  1.00  0.00    -0.006 C 
ATOM     11  C   UNL     1     168.316 177.078 180.282  1.00  0.00     0.012 C 
ATOM     12  C   UNL     1     167.759 175.888 178.166  1.00  0.00     0.012 C 
ATOM     13  C   UNL     1     168.131 174.609 181.966  1.00  0.00     0.017 C 
ATOM     14  C   UNL     1     166.221 174.953 180.496  1.00  0.00    -0.064 C 
ATOM     15  C   UNL     1     166.827 177.416 180.593  1.00  0.00     0.032 C 
ATOM     16  C   UNL     1     165.811 176.246 180.690  1.00  0.00    -0.064 C 
ATOM     17  C   UNL     1     165.227 173.832 180.652  1.00  0.00     0.032 C 
ATOM     18  C   UNL     1     164.294 176.530 180.909  1.00  0.00    -0.008 C 
ATOM     19  C   UNL     1     164.388 174.081 181.896  1.00  0.00     0.009 C 
ATOM     20  C   UNL     1     163.669 175.478 181.933  1.00  0.00     0.007 C 
ATOM     21  C   UNL     1     163.607 176.463 179.508  1.00  0.00     0.014 C 
ATOM     22  C   UNL     1     164.121 177.974 181.466  1.00  0.00     0.016 C 
ATOM     23  C   UNL     1     162.070 175.381 181.921  1.00  0.00    -0.006 C 
ATOM     24  C   UNL     1     162.083 176.374 179.542  1.00  0.00     0.033 C 
ATOM     25  C   UNL     1     161.574 175.241 180.451  1.00  0.00     0.120 C 
ATOM     26  C   UNL     1     161.411 176.618 182.619  1.00  0.00     0.014 C 
ATOM     27  C   UNL     1     161.566 174.140 182.728  1.00  0.00     0.014 C 
BRANCH  25  28
ATOM     28  O   UNL     1     160.168 175.218 180.413  1.00  0.00    -0.393 OA
ATOM     29  H   UNL     1     159.900 174.267 180.284  1.00  0.00     0.210 HD
ENDBRANCH  25  28
ENDBRANCH   2   6
ENDBRANCH   1   2
BRANCH   1  30
ATOM     30  C   UNL     1     172.394 174.839 182.113  1.00  0.00     0.028 C 
BRANCH  30  31
ATOM     31  C   UNL     1     171.255 175.509 182.848  1.00  0.00    -0.028 C 
ATOM     32  C   UNL     1     171.152 176.843 183.046  1.00  0.00    -0.080 C 
ATOM     33  C   UNL     1     169.904 177.413 183.676  1.00  0.00     0.039 C 
ATOM     34  C   UNL     1     172.237 177.803 182.626  1.00  0.00     0.039 C 
ENDBRANCH  30  31
ENDBRANCH   1  30
TORSDOF 6
ENDMDL
