MODEL 1
REMARK VINA RESULT:    -2.692      0.000      0.000
REMARK INTER + INTRA:          -3.191
REMARK INTER:                  -3.164
REMARK INTRA:                  -0.026
REMARK UNBOUND:                -0.026
REMARK SMILES CCCCC(=O)[O-]
REMARK SMILES IDX 4 1 5 2 6 3 7 4 3 5 2 6 1 7
REMARK H PARENT
REMARK Flexibility Score: inf
ROOT
ATOM      1  C   UNL     1      62.556  31.669  60.667  1.00  0.00     0.053 C 
ENDROOT
BRANCH   1   2
ATOM      2  C   UNL     1      61.750  30.734  61.511  1.00  0.00     0.041 C 
ATOM      3  O   UNL     1      60.583  31.045  61.865  1.00  0.00    -0.550 OA
ATOM      4  O   UNL     1      62.306  29.537  61.947  1.00  0.00    -0.550 OA
ENDBRANCH   1   2
BRANCH   1   5
ATOM      5  C   UNL     1      61.890  33.048  60.609  1.00  0.00     0.006 C 
BRANCH   5   6
ATOM      6  C   UNL     1      62.939  34.165  60.625  1.00  0.00    -0.003 C 
ATOM      7  C   UNL     1      62.293  35.523  60.885  1.00  0.00     0.004 C 
ENDBRANCH   5   6
ENDBRANCH   1   5
TORSDOF 3
ENDMDL
MODEL 2
REMARK VINA RESULT:    -2.685      1.135      1.548
REMARK INTER + INTRA:          -3.182
REMARK INTER:                  -3.146
REMARK INTRA:                  -0.035
REMARK UNBOUND:                -0.026
REMARK SMILES CCCCC(=O)[O-]
REMARK SMILES IDX 4 1 5 2 6 3 7 4 3 5 2 6 1 7
REMARK H PARENT
REMARK Flexibility Score: inf
ROOT
ATOM      1  C   UNL     1      62.209  32.520  60.677  1.00  0.00     0.053 C 
ENDROOT
BRANCH   1   2
ATOM      2  C   UNL     1      61.095  31.532  60.810  1.00  0.00     0.041 C 
ATOM      3  O   UNL     1      60.372  31.253  59.817  1.00  0.00    -0.550 OA
ATOM      4  O   UNL     1      60.823  30.951  62.043  1.00  0.00    -0.550 OA
ENDBRANCH   1   2
BRANCH   1   5
ATOM      5  C   UNL     1      61.656  33.910  60.345  1.00  0.00     0.006 C 
BRANCH   5   6
ATOM      6  C   UNL     1      62.629  35.008  60.786  1.00  0.00    -0.003 C 
ATOM      7  C   UNL     1      64.009  34.432  61.091  1.00  0.00     0.004 C 
ENDBRANCH   5   6
ENDBRANCH   1   5
TORSDOF 3
ENDMDL
MODEL 3
REMARK VINA RESULT:    -2.666     13.264     13.665
REMARK INTER + INTRA:          -3.160
REMARK INTER:                  -3.139
REMARK INTRA:                  -0.020
REMARK UNBOUND:                -0.026
REMARK SMILES CCCCC(=O)[O-]
REMARK SMILES IDX 4 1 5 2 6 3 7 4 3 5 2 6 1 7
REMARK H PARENT
REMARK Flexibility Score: inf
ROOT
ATOM      1  C   UNL     1      55.476  28.267  50.536  1.00  0.00     0.053 C 
ENDROOT
BRANCH   1   2
ATOM      2  C   UNL     1      54.588  27.318  49.796  1.00  0.00     0.041 C 
ATOM      3  O   UNL     1      53.412  27.652  49.496  1.00  0.00    -0.550 OA
ATOM      4  O   UNL     1      55.044  26.044  49.478  1.00  0.00    -0.550 OA
ENDBRANCH   1   2
BRANCH   1   5
ATOM      5  C   UNL     1      56.949  27.910  50.310  1.00  0.00     0.006 C 
BRANCH   5   6
ATOM      6  C   UNL     1      57.811  29.173  50.214  1.00  0.00    -0.003 C 
ATOM      7  C   UNL     1      58.960  28.983  49.228  1.00  0.00     0.004 C 
ENDBRANCH   5   6
ENDBRANCH   1   5
TORSDOF 3
ENDMDL
MODEL 4
REMARK VINA RESULT:    -2.643      2.972      4.134
REMARK INTER + INTRA:          -3.133
REMARK INTER:                  -3.114
REMARK INTRA:                  -0.018
REMARK UNBOUND:                -0.026
REMARK SMILES CCCCC(=O)[O-]
REMARK SMILES IDX 4 1 5 2 6 3 7 4 3 5 2 6 1 7
REMARK H PARENT
REMARK Flexibility Score: inf
ROOT
ATOM      1  C   UNL     1      62.052  34.065  60.283  1.00  0.00     0.053 C 
ENDROOT
BRANCH   1   2
ATOM      2  C   UNL     1      62.985  34.976  61.015  1.00  0.00     0.041 C 
ATOM      3  O   UNL     1      62.627  36.146  61.310  1.00  0.00    -0.550 OA
ATOM      4  O   UNL     1      64.269  34.549  61.331  1.00  0.00    -0.550 OA
ENDBRANCH   1   2
BRANCH   1   5
ATOM      5  C   UNL     1      62.353  32.602  60.624  1.00  0.00     0.006 C 
BRANCH   5   6
ATOM      6  C   UNL     1      61.104  31.731  60.456  1.00  0.00    -0.003 C 
ATOM      7  C   UNL     1      60.833  30.908  61.713  1.00  0.00     0.004 C 
ENDBRANCH   5   6
ENDBRANCH   1   5
TORSDOF 3
ENDMDL
MODEL 5
REMARK VINA RESULT:    -2.636     12.670     13.271
REMARK INTER + INTRA:          -3.125
REMARK INTER:                  -3.091
REMARK INTRA:                  -0.034
REMARK UNBOUND:                -0.026
REMARK SMILES CCCCC(=O)[O-]
REMARK SMILES IDX 4 1 5 2 6 3 7 4 3 5 2 6 1 7
REMARK H PARENT
REMARK Flexibility Score: inf
ROOT
ATOM      1  C   UNL     1      57.236  28.003  50.180  1.00  0.00     0.053 C 
ENDROOT
BRANCH   1   2
ATOM      2  C   UNL     1      58.274  29.077  50.101  1.00  0.00     0.041 C 
ATOM      3  O   UNL     1      58.876  29.300  49.018  1.00  0.00    -0.550 OA
ATOM      4  O   UNL     1      58.612  29.803  51.238  1.00  0.00    -0.550 OA
ENDBRANCH   1   2
BRANCH   1   5
ATOM      5  C   UNL     1      55.872  28.601  50.538  1.00  0.00     0.006 C 
BRANCH   5   6
ATOM      6  C   UNL     1      54.733  27.685  50.079  1.00  0.00    -0.003 C 
ATOM      7  C   UNL     1      55.246  26.282  49.767  1.00  0.00     0.004 C 
ENDBRANCH   5   6
ENDBRANCH   1   5
TORSDOF 3
ENDMDL
MODEL 6
REMARK VINA RESULT:    -2.590     13.851     14.326
REMARK INTER + INTRA:          -3.070
REMARK INTER:                  -3.035
REMARK INTRA:                  -0.036
REMARK UNBOUND:                -0.026
REMARK SMILES CCCCC(=O)[O-]
REMARK SMILES IDX 4 1 5 2 6 3 7 4 3 5 2 6 1 7
REMARK H PARENT
REMARK Flexibility Score: inf
ROOT
ATOM      1  C   UNL     1      55.799  26.776  50.111  1.00  0.00     0.053 C 
ENDROOT
BRANCH   1   2
ATOM      2  C   UNL     1      56.959  25.954  50.574  1.00  0.00     0.041 C 
ATOM      3  O   UNL     1      56.942  25.417  51.712  1.00  0.00    -0.550 OA
ATOM      4  O   UNL     1      58.081  25.818  49.765  1.00  0.00    -0.550 OA
ENDBRANCH   1   2
BRANCH   1   5
ATOM      5  C   UNL     1      54.787  25.903  49.362  1.00  0.00     0.006 C 
BRANCH   5   6
ATOM      6  C   UNL     1      53.403  26.561  49.342  1.00  0.00    -0.003 C 
ATOM      7  C   UNL     1      53.486  28.032  49.738  1.00  0.00     0.004 C 
ENDBRANCH   5   6
ENDBRANCH   1   5
TORSDOF 3
ENDMDL
MODEL 7
REMARK VINA RESULT:    -2.578      1.948      2.847
REMARK INTER + INTRA:          -3.057
REMARK INTER:                  -3.022
REMARK INTRA:                  -0.035
REMARK UNBOUND:                -0.026
REMARK SMILES CCCCC(=O)[O-]
REMARK SMILES IDX 4 1 5 2 6 3 7 4 3 5 2 6 1 7
REMARK H PARENT
REMARK Flexibility Score: inf
ROOT
ATOM      1  C   UNL     1      62.920  34.136  60.633  1.00  0.00     0.053 C 
ENDROOT
BRANCH   1   2
ATOM      2  C   UNL     1      61.756  33.287  60.230  1.00  0.00     0.041 C 
ATOM      3  O   UNL     1      61.016  33.638  59.275  1.00  0.00    -0.550 OA
ATOM      4  O   UNL     1      61.461  32.130  60.941  1.00  0.00    -0.550 OA
ENDBRANCH   1   2
BRANCH   1   5
ATOM      5  C   UNL     1      62.457  35.560  60.959  1.00  0.00     0.006 C 
BRANCH   5   6
ATOM      6  C   UNL     1      63.636  36.431  61.406  1.00  0.00    -0.003 C 
ATOM      7  C   UNL     1      64.833  35.575  61.810  1.00  0.00     0.004 C 
ENDBRANCH   5   6
ENDBRANCH   1   5
TORSDOF 3
ENDMDL
MODEL 8
REMARK VINA RESULT:    -2.575      1.261      1.800
REMARK INTER + INTRA:          -3.053
REMARK INTER:                  -3.013
REMARK INTRA:                  -0.041
REMARK UNBOUND:                -0.026
REMARK SMILES CCCCC(=O)[O-]
REMARK SMILES IDX 4 1 5 2 6 3 7 4 3 5 2 6 1 7
REMARK H PARENT
REMARK Flexibility Score: inf
ROOT
ATOM      1  C   UNL     1      61.746  33.592  60.314  1.00  0.00     0.053 C 
ENDROOT
BRANCH   1   2
ATOM      2  C   UNL     1      61.918  32.169  60.740  1.00  0.00     0.041 C 
ATOM      3  O   UNL     1      60.954  31.539  61.248  1.00  0.00    -0.550 OA
ATOM      4  O   UNL     1      63.158  31.552  60.620  1.00  0.00    -0.550 OA
ENDBRANCH   1   2
BRANCH   1   5
ATOM      5  C   UNL     1      62.951  34.432  60.750  1.00  0.00     0.006 C 
BRANCH   5   6
ATOM      6  C   UNL     1      62.529  35.868  61.080  1.00  0.00    -0.003 C 
ATOM      7  C   UNL     1      61.095  36.138  60.633  1.00  0.00     0.004 C 
ENDBRANCH   5   6
ENDBRANCH   1   5
TORSDOF 3
ENDMDL
MODEL 9
REMARK VINA RESULT:    -2.566      1.685      2.023
REMARK INTER + INTRA:          -3.043
REMARK INTER:                  -2.950
REMARK INTRA:                  -0.093
REMARK UNBOUND:                -0.026
REMARK SMILES CCCCC(=O)[O-]
REMARK SMILES IDX 4 1 5 2 6 3 7 4 3 5 2 6 1 7
REMARK H PARENT
REMARK Flexibility Score: inf
ROOT
ATOM      1  C   UNL     1      61.242  30.719  61.717  1.00  0.00     0.053 C 
ENDROOT
BRANCH   1   2
ATOM      2  C   UNL     1      62.278  29.641  61.672  1.00  0.00     0.041 C 
ATOM      3  O   UNL     1      61.933  28.431  61.641  1.00  0.00    -0.550 OA
ATOM      4  O   UNL     1      63.627  29.971  61.713  1.00  0.00    -0.550 OA
ENDBRANCH   1   2
BRANCH   1   5
ATOM      5  C   UNL     1      61.193  31.471  60.383  1.00  0.00     0.006 C 
BRANCH   5   6
ATOM      6  C   UNL     1      61.548  32.949  60.572  1.00  0.00    -0.003 C 
ATOM      7  C   UNL     1      63.056  33.170  60.486  1.00  0.00     0.004 C 
ENDBRANCH   5   6
ENDBRANCH   1   5
TORSDOF 3
ENDMDL
