MODEL 1
REMARK VINA RESULT:    -4.605      0.000      0.000
REMARK INTER + INTRA:          -5.003
REMARK INTER:                  -4.874
REMARK INTRA:                  -0.129
REMARK UNBOUND:                -0.129
REMARK SMILES C=C(C)[C@H]1CC=C(C)CC1
REMARK SMILES IDX 8 1 7 2 6 3 5 4 4 5 10 6 9 7 2 8 1 9 3 10
REMARK H PARENT
REMARK Flexibility Score: inf
ROOT
ATOM      1  C   UNL     1     129.732 142.230 123.473  1.00  0.00     0.039 C 
ATOM      2  C   UNL     1     130.149 143.666 123.640  1.00  0.00    -0.077 C 
ATOM      3  C   UNL     1     129.281 144.541 124.190  1.00  0.00    -0.027 C 
ATOM      4  C   UNL     1     129.584 146.011 124.352  1.00  0.00     0.035 C 
ATOM      5  C   UNL     1     131.097 146.294 124.357  1.00  0.00     0.018 C 
ATOM      6  C   UNL     1     131.768 145.573 123.179  1.00  0.00     0.013 C 
ATOM      7  C   UNL     1     131.577 144.057 123.309  1.00  0.00     0.031 C 
ENDROOT
BRANCH   5   8
ATOM      8  C   UNL     1     131.381 147.789 124.333  1.00  0.00    -0.077 C 
ATOM      9  C   UNL     1     132.058 148.330 123.307  1.00  0.00     0.008 C 
ATOM     10  C   UNL     1     130.926 148.695 125.451  1.00  0.00     0.039 C 
ENDBRANCH   5   8
TORSDOF 1
ENDMDL
MODEL 2
REMARK VINA RESULT:    -4.372      7.421      8.081
REMARK INTER + INTRA:          -4.757
REMARK INTER:                  -4.632
REMARK INTRA:                  -0.126
REMARK UNBOUND:                -0.129
REMARK SMILES C=C(C)[C@H]1CC=C(C)CC1
REMARK SMILES IDX 8 1 7 2 6 3 5 4 4 5 10 6 9 7 2 8 1 9 3 10
REMARK H PARENT
REMARK Flexibility Score: inf
ROOT
ATOM      1  C   UNL     1     131.958 149.631 131.122  1.00  0.00     0.039 C 
ATOM      2  C   UNL     1     131.933 150.577 129.953  1.00  0.00    -0.077 C 
ATOM      3  C   UNL     1     130.815 150.661 129.202  1.00  0.00    -0.027 C 
ATOM      4  C   UNL     1     130.708 151.539 127.979  1.00  0.00     0.035 C 
ATOM      5  C   UNL     1     131.731 152.688 127.999  1.00  0.00     0.018 C 
ATOM      6  C   UNL     1     133.125 152.141 128.340  1.00  0.00     0.013 C 
ATOM      7  C   UNL     1     133.115 151.502 129.734  1.00  0.00     0.031 C 
ENDROOT
BRANCH   5   8
ATOM      8  C   UNL     1     131.736 153.449 126.680  1.00  0.00    -0.077 C 
ATOM      9  C   UNL     1     130.605 154.012 126.223  1.00  0.00     0.008 C 
ATOM     10  C   UNL     1     132.991 153.580 125.852  1.00  0.00     0.039 C 
ENDBRANCH   5   8
TORSDOF 1
ENDMDL
MODEL 3
REMARK VINA RESULT:    -4.325      6.941      7.992
REMARK INTER + INTRA:          -4.707
REMARK INTER:                  -4.579
REMARK INTRA:                  -0.128
REMARK UNBOUND:                -0.129
REMARK SMILES C=C(C)[C@H]1CC=C(C)CC1
REMARK SMILES IDX 8 1 7 2 6 3 5 4 4 5 10 6 9 7 2 8 1 9 3 10
REMARK H PARENT
REMARK Flexibility Score: inf
ROOT
ATOM      1  C   UNL     1     131.848 149.422 131.138  1.00  0.00     0.039 C 
ATOM      2  C   UNL     1     131.829 150.391 129.989  1.00  0.00    -0.077 C 
ATOM      3  C   UNL     1     132.723 151.403 129.970  1.00  0.00    -0.027 C 
ATOM      4  C   UNL     1     132.752 152.457 128.890  1.00  0.00     0.035 C 
ATOM      5  C   UNL     1     132.080 151.976 127.592  1.00  0.00     0.018 C 
ATOM      6  C   UNL     1     130.716 151.347 127.911  1.00  0.00     0.013 C 
ATOM      7  C   UNL     1     130.897 150.127 128.822  1.00  0.00     0.031 C 
ENDROOT
BRANCH   5   8
ATOM      8  C   UNL     1     131.951 153.108 126.582  1.00  0.00    -0.077 C 
ATOM      9  C   UNL     1     130.773 153.730 126.413  1.00  0.00     0.008 C 
ATOM     10  C   UNL     1     133.125 153.552 125.744  1.00  0.00     0.039 C 
ENDBRANCH   5   8
TORSDOF 1
ENDMDL
MODEL 4
REMARK VINA RESULT:    -4.297      1.358      4.369
REMARK INTER + INTRA:          -4.678
REMARK INTER:                  -4.557
REMARK INTRA:                  -0.121
REMARK UNBOUND:                -0.129
REMARK SMILES C=C(C)[C@H]1CC=C(C)CC1
REMARK SMILES IDX 8 1 7 2 6 3 5 4 4 5 10 6 9 7 2 8 1 9 3 10
REMARK H PARENT
REMARK Flexibility Score: inf
ROOT
ATOM      1  C   UNL     1     131.631 148.737 124.281  1.00  0.00     0.039 C 
ATOM      2  C   UNL     1     131.289 147.281 124.447  1.00  0.00    -0.077 C 
ATOM      3  C   UNL     1     130.518 146.903 125.488  1.00  0.00    -0.027 C 
ATOM      4  C   UNL     1     130.164 145.464 125.771  1.00  0.00     0.035 C 
ATOM      5  C   UNL     1     130.281 144.580 124.517  1.00  0.00     0.018 C 
ATOM      6  C   UNL     1     131.624 144.840 123.818  1.00  0.00     0.013 C 
ATOM      7  C   UNL     1     131.710 146.303 123.367  1.00  0.00     0.031 C 
ENDROOT
BRANCH   5   8
ATOM      8  C   UNL     1     130.103 143.107 124.858  1.00  0.00    -0.077 C 
ATOM      9  C   UNL     1     129.132 142.391 124.267  1.00  0.00     0.008 C 
ATOM     10  C   UNL     1     130.992 142.420 125.865  1.00  0.00     0.039 C 
ENDBRANCH   5   8
TORSDOF 1
ENDMDL
MODEL 5
REMARK VINA RESULT:    -4.238     18.890     20.666
REMARK INTER + INTRA:          -4.615
REMARK INTER:                  -4.486
REMARK INTRA:                  -0.129
REMARK UNBOUND:                -0.129
REMARK SMILES C=C(C)[C@H]1CC=C(C)CC1
REMARK SMILES IDX 8 1 7 2 6 3 5 4 4 5 10 6 9 7 2 8 1 9 3 10
REMARK H PARENT
REMARK Flexibility Score: inf
ROOT
ATOM      1  C   UNL     1     114.144 152.997 139.626  1.00  0.00     0.039 C 
ATOM      2  C   UNL     1     115.257 152.840 138.627  1.00  0.00    -0.077 C 
ATOM      3  C   UNL     1     115.014 152.184 137.473  1.00  0.00    -0.027 C 
ATOM      4  C   UNL     1     116.076 151.928 136.431  1.00  0.00     0.035 C 
ATOM      5  C   UNL     1     117.248 152.919 136.542  1.00  0.00     0.018 C 
ATOM      6  C   UNL     1     117.716 153.015 138.001  1.00  0.00     0.013 C 
ATOM      7  C   UNL     1     116.579 153.536 138.888  1.00  0.00     0.031 C 
ENDROOT
BRANCH   5   8
ATOM      8  C   UNL     1     118.390 152.534 135.612  1.00  0.00    -0.077 C 
ATOM      9  C   UNL     1     119.638 152.412 136.092  1.00  0.00     0.008 C 
ATOM     10  C   UNL     1     118.159 152.291 134.141  1.00  0.00     0.039 C 
ENDBRANCH   5   8
TORSDOF 1
ENDMDL
MODEL 6
REMARK VINA RESULT:    -4.237      1.704      3.494
REMARK INTER + INTRA:          -4.614
REMARK INTER:                  -4.485
REMARK INTRA:                  -0.129
REMARK UNBOUND:                -0.129
REMARK SMILES C=C(C)[C@H]1CC=C(C)CC1
REMARK SMILES IDX 8 1 7 2 6 3 5 4 4 5 10 6 9 7 2 8 1 9 3 10
REMARK H PARENT
REMARK Flexibility Score: inf
ROOT
ATOM      1  C   UNL     1     130.676 145.297 123.173  1.00  0.00     0.039 C 
ATOM      2  C   UNL     1     130.674 146.384 124.212  1.00  0.00    -0.077 C 
ATOM      3  C   UNL     1     131.335 147.534 123.960  1.00  0.00    -0.027 C 
ATOM      4  C   UNL     1     131.436 148.661 124.958  1.00  0.00     0.035 C 
ATOM      5  C   UNL     1     130.307 148.616 126.002  1.00  0.00     0.018 C 
ATOM      6  C   UNL     1     130.179 147.195 126.572  1.00  0.00     0.013 C 
ATOM      7  C   UNL     1     129.821 146.208 125.454  1.00  0.00     0.031 C 
ENDROOT
BRANCH   5   8
ATOM      8  C   UNL     1     130.529 149.643 127.104  1.00  0.00    -0.077 C 
ATOM      9  C   UNL     1     131.066 150.839 126.811  1.00  0.00     0.008 C 
ATOM     10  C   UNL     1     130.170 149.347 128.539  1.00  0.00     0.039 C 
ENDBRANCH   5   8
TORSDOF 1
ENDMDL
MODEL 7
REMARK VINA RESULT:    -4.182      9.813     11.710
REMARK INTER + INTRA:          -4.555
REMARK INTER:                  -4.427
REMARK INTRA:                  -0.128
REMARK UNBOUND:                -0.129
REMARK SMILES C=C(C)[C@H]1CC=C(C)CC1
REMARK SMILES IDX 8 1 7 2 6 3 5 4 4 5 10 6 9 7 2 8 1 9 3 10
REMARK H PARENT
REMARK Flexibility Score: inf
ROOT
ATOM      1  C   UNL     1     119.983 155.122 126.189  1.00  0.00     0.039 C 
ATOM      2  C   UNL     1     120.862 154.042 125.621  1.00  0.00    -0.077 C 
ATOM      3  C   UNL     1     121.100 154.021 124.292  1.00  0.00    -0.027 C 
ATOM      4  C   UNL     1     121.924 152.951 123.620  1.00  0.00     0.035 C 
ATOM      5  C   UNL     1     122.880 152.251 124.602  1.00  0.00     0.018 C 
ATOM      6  C   UNL     1     122.119 151.845 125.872  1.00  0.00     0.013 C 
ATOM      7  C   UNL     1     121.559 153.088 126.573  1.00  0.00     0.031 C 
ENDROOT
BRANCH   5   8
ATOM      8  C   UNL     1     123.564 151.056 123.952  1.00  0.00    -0.077 C 
ATOM      9  C   UNL     1     123.145 149.809 124.226  1.00  0.00     0.008 C 
ATOM     10  C   UNL     1     124.724 151.232 123.004  1.00  0.00     0.039 C 
ENDBRANCH   5   8
TORSDOF 1
ENDMDL
MODEL 8
REMARK VINA RESULT:    -4.139      7.994      8.903
REMARK INTER + INTRA:          -4.510
REMARK INTER:                  -4.378
REMARK INTRA:                  -0.132
REMARK UNBOUND:                -0.129
REMARK SMILES C=C(C)[C@H]1CC=C(C)CC1
REMARK SMILES IDX 8 1 7 2 6 3 5 4 4 5 10 6 9 7 2 8 1 9 3 10
REMARK H PARENT
REMARK Flexibility Score: inf
ROOT
ATOM      1  C   UNL     1     132.432 154.014 126.227  1.00  0.00     0.039 C 
ATOM      2  C   UNL     1     132.073 153.157 127.410  1.00  0.00    -0.077 C 
ATOM      3  C   UNL     1     130.813 153.202 127.894  1.00  0.00    -0.027 C 
ATOM      4  C   UNL     1     130.369 152.422 129.107  1.00  0.00     0.035 C 
ATOM      5  C   UNL     1     131.274 151.209 129.380  1.00  0.00     0.018 C 
ATOM      6  C   UNL     1     132.748 151.635 129.332  1.00  0.00     0.013 C 
ATOM      7  C   UNL     1     133.098 152.172 127.939  1.00  0.00     0.031 C 
ENDROOT
BRANCH   5   8
ATOM      8  C   UNL     1     130.926 150.545 130.706  1.00  0.00    -0.077 C 
ATOM      9  C   UNL     1     129.835 150.934 131.387  1.00  0.00     0.008 C 
ATOM     10  C   UNL     1     131.790 149.456 131.291  1.00  0.00     0.039 C 
ENDBRANCH   5   8
TORSDOF 1
ENDMDL
