MODEL 1
REMARK VINA RESULT:    -4.113      0.000      0.000
REMARK INTER + INTRA:          -6.162
REMARK INTER:                  -5.796
REMARK INTRA:                  -0.366
REMARK UNBOUND:                -0.366
REMARK SMILES CCCCCCCCC(=O)[O-]
REMARK SMILES IDX 6 1 7 2 8 3 9 4 10 5 11 6 5 7 4 8 3 9 2 10 1 11
REMARK H PARENT
REMARK Flexibility Score: inf
ROOT
ATOM      1  C   UNL     1      52.036  -4.313  11.113  1.00  0.00     0.000 C 
ENDROOT
BRANCH   1   2
ATOM      2  C   UNL     1      52.593  -4.678   9.724  1.00  0.00     0.006 C 
BRANCH   2   3
ATOM      3  C   UNL     1      53.802  -3.829   9.291  1.00  0.00     0.053 C 
BRANCH   3   4
ATOM      4  C   UNL     1      54.496  -4.392   8.086  1.00  0.00     0.041 C 
ATOM      5  O   UNL     1      55.721  -4.675   8.135  1.00  0.00    -0.550 OA
ATOM      6  O   UNL     1      53.799  -4.567   6.897  1.00  0.00    -0.550 OA
ENDBRANCH   3   4
ENDBRANCH   2   3
ENDBRANCH   1   2
BRANCH   1   7
ATOM      7  C   UNL     1      53.078  -4.242  12.241  1.00  0.00     0.000 C 
BRANCH   7   8
ATOM      8  C   UNL     1      52.984  -2.950  13.066  1.00  0.00    -0.000 C 
BRANCH   8   9
ATOM      9  C   UNL     1      54.382  -2.440  13.445  1.00  0.00    -0.000 C 
BRANCH   9  10
ATOM     10  C   UNL     1      55.407  -3.577  13.587  1.00  0.00    -0.003 C 
ATOM     11  C   UNL     1      56.757  -3.092  14.115  1.00  0.00     0.004 C 
ENDBRANCH   9  10
ENDBRANCH   8   9
ENDBRANCH   7   8
ENDBRANCH   1   7
TORSDOF 7
ENDMDL
MODEL 2
REMARK VINA RESULT:    -4.083      1.506      1.723
REMARK INTER + INTRA:          -6.119
REMARK INTER:                  -5.562
REMARK INTRA:                  -0.557
REMARK UNBOUND:                -0.366
REMARK SMILES CCCCCCCCC(=O)[O-]
REMARK SMILES IDX 6 1 7 2 8 3 9 4 10 5 11 6 5 7 4 8 3 9 2 10 1 11
REMARK H PARENT
REMARK Flexibility Score: inf
ROOT
ATOM      1  C   UNL     1      51.875  -2.243  11.580  1.00  0.00     0.000 C 
ENDROOT
BRANCH   1   2
ATOM      2  C   UNL     1      51.629  -2.635  10.110  1.00  0.00     0.006 C 
BRANCH   2   3
ATOM      3  C   UNL     1      52.900  -2.640   9.241  1.00  0.00     0.053 C 
BRANCH   3   4
ATOM      4  C   UNL     1      53.458  -4.019   9.051  1.00  0.00     0.041 C 
ATOM      5  O   UNL     1      52.924  -5.004   9.624  1.00  0.00    -0.550 OA
ATOM      6  O   UNL     1      54.594  -4.212   8.274  1.00  0.00    -0.550 OA
ENDBRANCH   3   4
ENDBRANCH   2   3
ENDBRANCH   1   2
BRANCH   1   7
ATOM      7  C   UNL     1      51.777  -3.396  12.592  1.00  0.00     0.000 C 
BRANCH   7   8
ATOM      8  C   UNL     1      53.148  -3.953  13.004  1.00  0.00    -0.000 C 
BRANCH   8   9
ATOM      9  C   UNL     1      54.265  -2.951  12.682  1.00  0.00    -0.000 C 
BRANCH   9  10
ATOM     10  C   UNL     1      55.219  -2.728  13.866  1.00  0.00    -0.003 C 
ATOM     11  C   UNL     1      56.484  -3.581  13.773  1.00  0.00     0.004 C 
ENDBRANCH   9  10
ENDBRANCH   8   9
ENDBRANCH   7   8
ENDBRANCH   1   7
TORSDOF 7
ENDMDL
MODEL 3
REMARK VINA RESULT:    -4.049      1.204      1.958
REMARK INTER + INTRA:          -6.072
REMARK INTER:                  -5.447
REMARK INTRA:                  -0.625
REMARK UNBOUND:                -0.366
REMARK SMILES CCCCCCCCC(=O)[O-]
REMARK SMILES IDX 6 1 7 2 8 3 9 4 10 5 11 6 5 7 4 8 3 9 2 10 1 11
REMARK H PARENT
REMARK Flexibility Score: inf
ROOT
ATOM      1  C   UNL     1      51.716  -2.436   9.904  1.00  0.00     0.000 C 
ENDROOT
BRANCH   1   2
ATOM      2  C   UNL     1      53.112  -2.592   9.272  1.00  0.00     0.006 C 
BRANCH   2   3
ATOM      3  C   UNL     1      53.634  -4.040   9.253  1.00  0.00     0.053 C 
BRANCH   3   4
ATOM      4  C   UNL     1      54.350  -4.374   7.979  1.00  0.00     0.041 C 
ATOM      5  O   UNL     1      53.702  -4.549   6.914  1.00  0.00    -0.550 OA
ATOM      6  O   UNL     1      55.731  -4.534   7.975  1.00  0.00    -0.550 OA
ENDBRANCH   3   4
ENDBRANCH   2   3
ENDBRANCH   1   2
BRANCH   1   7
ATOM      7  C   UNL     1      51.707  -2.179  11.421  1.00  0.00     0.000 C 
BRANCH   7   8
ATOM      8  C   UNL     1      51.468  -3.453  12.245  1.00  0.00    -0.000 C 
BRANCH   8   9
ATOM      9  C   UNL     1      52.746  -3.875  12.983  1.00  0.00    -0.000 C 
BRANCH   9  10
ATOM     10  C   UNL     1      53.777  -2.738  13.077  1.00  0.00    -0.003 C 
ATOM     11  C   UNL     1      55.192  -3.245  13.352  1.00  0.00     0.004 C 
ENDBRANCH   9  10
ENDBRANCH   8   9
ENDBRANCH   7   8
ENDBRANCH   1   7
TORSDOF 7
ENDMDL
MODEL 4
REMARK VINA RESULT:    -4.004      2.897      5.213
REMARK INTER + INTRA:          -6.008
REMARK INTER:                  -5.655
REMARK INTRA:                  -0.353
REMARK UNBOUND:                -0.366
REMARK SMILES CCCCCCCCC(=O)[O-]
REMARK SMILES IDX 6 1 7 2 8 3 9 4 10 5 11 6 5 7 4 8 3 9 2 10 1 11
REMARK H PARENT
REMARK Flexibility Score: inf
ROOT
ATOM      1  C   UNL     1      52.820  -3.663  13.014  1.00  0.00     0.000 C 
ENDROOT
BRANCH   1   2
ATOM      2  C   UNL     1      54.339  -3.474  12.838  1.00  0.00     0.006 C 
BRANCH   2   3
ATOM      3  C   UNL     1      54.962  -2.458  13.813  1.00  0.00     0.053 C 
BRANCH   3   4
ATOM      4  C   UNL     1      56.396  -2.769  14.125  1.00  0.00     0.041 C 
ATOM      5  O   UNL     1      57.066  -1.998  14.859  1.00  0.00    -0.550 OA
ATOM      6  O   UNL     1      57.004  -3.889  13.571  1.00  0.00    -0.550 OA
ENDBRANCH   3   4
ENDBRANCH   2   3
ENDBRANCH   1   2
BRANCH   1   7
ATOM      7  C   UNL     1      52.013  -3.754  11.708  1.00  0.00     0.000 C 
BRANCH   7   8
ATOM      8  C   UNL     1      52.520  -4.855  10.764  1.00  0.00    -0.000 C 
BRANCH   8   9
ATOM      9  C   UNL     1      52.302  -4.460   9.297  1.00  0.00    -0.000 C 
BRANCH   9  10
ATOM     10  C   UNL     1      53.415  -3.547   8.759  1.00  0.00    -0.003 C 
ATOM     11  C   UNL     1      54.622  -4.329   8.243  1.00  0.00     0.004 C 
ENDBRANCH   9  10
ENDBRANCH   8   9
ENDBRANCH   7   8
ENDBRANCH   1   7
TORSDOF 7
ENDMDL
MODEL 5
REMARK VINA RESULT:    -3.914      3.029      5.074
REMARK INTER + INTRA:          -5.881
REMARK INTER:                  -5.217
REMARK INTRA:                  -0.664
REMARK UNBOUND:                -0.366
REMARK SMILES CCCCCCCCC(=O)[O-]
REMARK SMILES IDX 6 1 7 2 8 3 9 4 10 5 11 6 5 7 4 8 3 9 2 10 1 11
REMARK H PARENT
REMARK Flexibility Score: inf
ROOT
ATOM      1  C   UNL     1      52.282  -1.794  10.076  1.00  0.00     0.000 C 
ENDROOT
BRANCH   1   2
ATOM      2  C   UNL     1      52.024  -1.455  11.557  1.00  0.00     0.006 C 
BRANCH   2   3
ATOM      3  C   UNL     1      53.175  -1.848  12.501  1.00  0.00     0.053 C 
BRANCH   3   4
ATOM      4  C   UNL     1      53.077  -3.271  12.963  1.00  0.00     0.041 C 
ATOM      5  O   UNL     1      51.965  -3.861  12.966  1.00  0.00    -0.550 OA
ATOM      6  O   UNL     1      54.206  -3.933  13.429  1.00  0.00    -0.550 OA
ENDBRANCH   3   4
ENDBRANCH   2   3
ENDBRANCH   1   2
BRANCH   1   7
ATOM      7  C   UNL     1      51.472  -2.978   9.523  1.00  0.00     0.000 C 
BRANCH   7   8
ATOM      8  C   UNL     1      52.340  -4.208   9.212  1.00  0.00    -0.000 C 
BRANCH   8   9
ATOM      9  C   UNL     1      53.828  -3.891   9.412  1.00  0.00    -0.000 C 
BRANCH   9  10
ATOM     10  C   UNL     1      54.690  -4.323   8.215  1.00  0.00    -0.003 C 
ATOM     11  C   UNL     1      53.919  -4.304   6.895  1.00  0.00     0.004 C 
ENDBRANCH   9  10
ENDBRANCH   8   9
ENDBRANCH   7   8
ENDBRANCH   1   7
TORSDOF 7
ENDMDL
MODEL 6
REMARK VINA RESULT:    -3.899     11.208     12.958
REMARK INTER + INTRA:          -5.860
REMARK INTER:                  -5.377
REMARK INTRA:                  -0.484
REMARK UNBOUND:                -0.366
REMARK SMILES CCCCCCCCC(=O)[O-]
REMARK SMILES IDX 6 1 7 2 8 3 9 4 10 5 11 6 5 7 4 8 3 9 2 10 1 11
REMARK H PARENT
REMARK Flexibility Score: inf
ROOT
ATOM      1  C   UNL     1      60.705  -4.315  22.142  1.00  0.00     0.000 C 
ENDROOT
BRANCH   1   2
ATOM      2  C   UNL     1      61.431  -3.875  20.857  1.00  0.00     0.006 C 
BRANCH   2   3
ATOM      3  C   UNL     1      62.689  -4.702  20.533  1.00  0.00     0.053 C 
BRANCH   3   4
ATOM      4  C   UNL     1      63.805  -4.451  21.503  1.00  0.00     0.041 C 
ATOM      5  O   UNL     1      64.159  -5.351  22.308  1.00  0.00    -0.550 OA
ATOM      6  O   UNL     1      64.427  -3.210  21.546  1.00  0.00    -0.550 OA
ENDBRANCH   3   4
ENDBRANCH   2   3
ENDBRANCH   1   2
BRANCH   1   7
ATOM      7  C   UNL     1      59.227  -3.899  22.236  1.00  0.00     0.000 C 
BRANCH   7   8
ATOM      8  C   UNL     1      58.472  -4.058  20.908  1.00  0.00    -0.000 C 
BRANCH   8   9
ATOM      9  C   UNL     1      57.232  -3.154  20.872  1.00  0.00    -0.000 C 
BRANCH   9  10
ATOM     10  C   UNL     1      57.441  -1.898  20.012  1.00  0.00    -0.003 C 
ATOM     11  C   UNL     1      58.687  -1.986  19.131  1.00  0.00     0.004 C 
ENDBRANCH   9  10
ENDBRANCH   8   9
ENDBRANCH   7   8
ENDBRANCH   1   7
TORSDOF 7
ENDMDL
MODEL 7
REMARK VINA RESULT:    -3.858      1.517      2.385
REMARK INTER + INTRA:          -5.803
REMARK INTER:                  -5.480
REMARK INTRA:                  -0.322
REMARK UNBOUND:                -0.366
REMARK SMILES CCCCCCCCC(=O)[O-]
REMARK SMILES IDX 6 1 7 2 8 3 9 4 10 5 11 6 5 7 4 8 3 9 2 10 1 11
REMARK H PARENT
REMARK Flexibility Score: inf
ROOT
ATOM      1  C   UNL     1      52.417  -3.554  13.000  1.00  0.00     0.000 C 
ENDROOT
BRANCH   1   2
ATOM      2  C   UNL     1      51.936  -2.944  11.669  1.00  0.00     0.006 C 
BRANCH   2   3
ATOM      3  C   UNL     1      52.191  -3.839  10.441  1.00  0.00     0.053 C 
BRANCH   3   4
ATOM      4  C   UNL     1      53.157  -3.222   9.474  1.00  0.00     0.041 C 
ATOM      5  O   UNL     1      52.742  -2.450   8.570  1.00  0.00    -0.550 OA
ATOM      6  O   UNL     1      54.509  -3.531   9.544  1.00  0.00    -0.550 OA
ENDBRANCH   3   4
ENDBRANCH   2   3
ENDBRANCH   1   2
BRANCH   1   7
ATOM      7  C   UNL     1      53.898  -3.966  13.036  1.00  0.00     0.000 C 
BRANCH   7   8
ATOM      8  C   UNL     1      54.818  -2.858  13.569  1.00  0.00    -0.000 C 
BRANCH   8   9
ATOM      9  C   UNL     1      56.244  -3.385  13.780  1.00  0.00    -0.000 C 
BRANCH   9  10
ATOM     10  C   UNL     1      57.135  -2.391  14.541  1.00  0.00    -0.003 C 
ATOM     11  C   UNL     1      56.388  -1.122  14.950  1.00  0.00     0.004 C 
ENDBRANCH   9  10
ENDBRANCH   8   9
ENDBRANCH   7   8
ENDBRANCH   1   7
TORSDOF 7
ENDMDL
MODEL 8
REMARK VINA RESULT:    -3.843      3.441      4.885
REMARK INTER + INTRA:          -5.781
REMARK INTER:                  -5.439
REMARK INTRA:                  -0.342
REMARK UNBOUND:                -0.366
REMARK SMILES CCCCCCCCC(=O)[O-]
REMARK SMILES IDX 6 1 7 2 8 3 9 4 10 5 11 6 5 7 4 8 3 9 2 10 1 11
REMARK H PARENT
REMARK Flexibility Score: inf
ROOT
ATOM      1  C   UNL     1      55.954  -3.506  13.574  1.00  0.00     0.000 C 
ENDROOT
BRANCH   1   2
ATOM      2  C   UNL     1      54.568  -2.876  13.339  1.00  0.00     0.006 C 
BRANCH   2   3
ATOM      3  C   UNL     1      53.467  -3.895  12.993  1.00  0.00     0.053 C 
BRANCH   3   4
ATOM      4  C   UNL     1      52.183  -3.235  12.586  1.00  0.00     0.041 C 
ATOM      5  O   UNL     1      51.112  -3.895  12.558  1.00  0.00    -0.550 OA
ATOM      6  O   UNL     1      52.176  -1.900  12.198  1.00  0.00    -0.550 OA
ENDBRANCH   3   4
ENDBRANCH   2   3
ENDBRANCH   1   2
BRANCH   1   7
ATOM      7  C   UNL     1      56.901  -2.693  14.473  1.00  0.00     0.000 C 
BRANCH   7   8
ATOM      8  C   UNL     1      56.330  -1.320  14.861  1.00  0.00    -0.000 C 
BRANCH   8   9
ATOM      9  C   UNL     1      57.146  -0.690  15.999  1.00  0.00    -0.000 C 
BRANCH   9  10
ATOM     10  C   UNL     1      56.258  -0.054  17.080  1.00  0.00    -0.003 C 
ATOM     11  C   UNL     1      54.954  -0.822  17.300  1.00  0.00     0.004 C 
ENDBRANCH   9  10
ENDBRANCH   8   9
ENDBRANCH   7   8
ENDBRANCH   1   7
TORSDOF 7
ENDMDL
MODEL 9
REMARK VINA RESULT:    -3.835      2.162      2.460
REMARK INTER + INTRA:          -5.769
REMARK INTER:                  -5.353
REMARK INTRA:                  -0.416
REMARK UNBOUND:                -0.366
REMARK SMILES CCCCCCCCC(=O)[O-]
REMARK SMILES IDX 6 1 7 2 8 3 9 4 10 5 11 6 5 7 4 8 3 9 2 10 1 11
REMARK H PARENT
REMARK Flexibility Score: inf
ROOT
ATOM      1  C   UNL     1      52.675  -4.640  10.171  1.00  0.00     0.000 C 
ENDROOT
BRANCH   1   2
ATOM      2  C   UNL     1      53.618  -3.707   9.387  1.00  0.00     0.006 C 
BRANCH   2   3
ATOM      3  C   UNL     1      52.973  -3.062   8.146  1.00  0.00     0.053 C 
BRANCH   3   4
ATOM      4  C   UNL     1      51.701  -2.337   8.473  1.00  0.00     0.041 C 
ATOM      5  O   UNL     1      51.697  -1.424   9.339  1.00  0.00    -0.550 OA
ATOM      6  O   UNL     1      50.512  -2.698   7.852  1.00  0.00    -0.550 OA
ENDBRANCH   3   4
ENDBRANCH   2   3
ENDBRANCH   1   2
BRANCH   1   7
ATOM      7  C   UNL     1      52.464  -4.268  11.648  1.00  0.00     0.000 C 
BRANCH   7   8
ATOM      8  C   UNL     1      53.498  -3.259  12.168  1.00  0.00    -0.000 C 
BRANCH   8   9
ATOM      9  C   UNL     1      54.340  -3.870  13.297  1.00  0.00    -0.000 C 
BRANCH   9  10
ATOM     10  C   UNL     1      55.483  -2.947  13.748  1.00  0.00    -0.003 C 
ATOM     11  C   UNL     1      56.843  -3.643  13.735  1.00  0.00     0.004 C 
ENDBRANCH   9  10
ENDBRANCH   8   9
ENDBRANCH   7   8
ENDBRANCH   1   7
TORSDOF 7
ENDMDL
