MODEL 1
REMARK VINA RESULT:    -4.190      0.000      0.000
REMARK INTER + INTRA:          -6.714
REMARK INTER:                  -6.395
REMARK INTRA:                  -0.320
REMARK UNBOUND:                -0.320
REMARK SMILES CC1=CCC[C@@H](C)C(=O)C[C@H](C(C)C)C(=O)C1
REMARK SMILES IDX 8 1 9 2 6 3 7 4 5 5 4 6 3 7 2 8 1 9 10 11 11 12 15 13 16 14
REMARK SMILES IDX 17 15 12 17 13 18 14 19
REMARK H PARENT
REMARK Flexibility Score: 70.00
ROOT
ATOM      1  C   UNL     1     -16.471  12.761 -30.836  1.00  0.00     0.136 C 
ATOM      2  O   UNL     1     -17.094  13.752 -31.192  1.00  0.00    -0.299 OA
ENDROOT
BRANCH   1   3
ATOM      3  C   UNL     1     -17.076  11.816 -29.816  1.00  0.00     0.053 C 
ATOM      4  C   UNL     1     -18.534  11.531 -30.190  1.00  0.00     0.016 C 
BRANCH   3   5
ATOM      5  C   UNL     1     -16.991  12.369 -28.378  1.00  0.00     0.015 C 
BRANCH   5   6
ATOM      6  C   UNL     1     -16.452  11.375 -27.335  1.00  0.00     0.028 C 
BRANCH   6   7
ATOM      7  C   UNL     1     -15.037  11.658 -26.884  1.00  0.00    -0.028 C 
ATOM      8  C   UNL     1     -13.880  11.453 -27.568  1.00  0.00    -0.070 CG0
ATOM      9  C   UNL     1     -12.610  11.943 -26.910  1.00  0.00     0.039 C 
ATOM     10  G   UNL     1     -13.740  10.687 -28.879  1.00  0.00     0.000 G0
ENDBRANCH   6   7
ENDBRANCH   5   6
ENDBRANCH   3   5
ENDBRANCH   1   3
BRANCH   1  11
ATOM     11  C   UNL     1     -15.132  12.472 -31.466  1.00  0.00     0.087 C 
BRANCH  11  12
ATOM     12  C   UNL     1     -13.933  12.766 -30.522  1.00  0.00     0.066 C 
BRANCH  12  13
ATOM     13  C   UNL     1     -13.231  11.490 -30.067  1.00  0.00     0.140 C 
ATOM     14  O   UNL     1     -12.331  11.032 -30.758  1.00  0.00    -0.299 OA
BRANCH  13  15
ATOM     15  C   UNL     1     -13.739  10.683 -28.897  1.00  0.00     0.106 CG0
ATOM     16  G   UNL     1     -13.883  11.443 -27.583  1.00  0.00     0.000 G0
ENDBRANCH  13  15
ENDBRANCH  12  13
BRANCH  12  17
ATOM     17  C   UNL     1     -12.904  13.742 -31.177  1.00  0.00    -0.006 C 
ATOM     18  C   UNL     1     -13.591  14.832 -32.022  1.00  0.00     0.008 C 
ATOM     19  C   UNL     1     -12.015  14.423 -30.119  1.00  0.00     0.008 C 
ENDBRANCH  12  17
ENDBRANCH  11  12
ENDBRANCH   1  11
TORSDOF 1
ENDMDL
MODEL 2
REMARK VINA RESULT:    -4.134      1.977      4.337
REMARK INTER + INTRA:          -6.628
REMARK INTER:                  -6.342
REMARK INTRA:                  -0.286
REMARK UNBOUND:                -0.320
REMARK SMILES CC1=CCC[C@@H](C)C(=O)C[C@H](C(C)C)C(=O)C1
REMARK SMILES IDX 8 1 9 2 6 3 7 4 5 5 4 6 3 7 2 8 1 9 10 11 11 12 15 13 16 14
REMARK SMILES IDX 17 15 12 17 13 18 14 19
REMARK H PARENT
REMARK Flexibility Score: 70.00
ROOT
ATOM      1  C   UNL     1     -13.133  13.013 -31.263  1.00  0.00     0.136 C 
ATOM      2  O   UNL     1     -11.933  13.178 -31.433  1.00  0.00    -0.299 OA
ENDROOT
BRANCH   1   3
ATOM      3  C   UNL     1     -14.125  13.932 -31.950  1.00  0.00     0.053 C 
ATOM      4  C   UNL     1     -14.374  15.161 -31.070  1.00  0.00     0.016 C 
BRANCH   3   5
ATOM      5  C   UNL     1     -15.458  13.224 -32.271  1.00  0.00     0.015 C 
BRANCH   5   6
ATOM      6  C   UNL     1     -16.711  13.930 -31.725  1.00  0.00     0.028 C 
BRANCH   6   7
ATOM      7  C   UNL     1     -17.684  13.010 -31.021  1.00  0.00    -0.028 C 
ATOM      8  C   UNL     1     -17.685  12.628 -29.717  1.00  0.00    -0.070 CG0
ATOM      9  C   UNL     1     -18.856  11.788 -29.260  1.00  0.00     0.039 C 
ATOM     10  G   UNL     1     -16.568  12.880 -28.710  1.00  0.00     0.000 G0
ENDBRANCH   6   7
ENDBRANCH   5   6
ENDBRANCH   3   5
ENDBRANCH   1   3
BRANCH   1  11
ATOM     11  C   UNL     1     -13.602  11.858 -30.416  1.00  0.00     0.087 C 
BRANCH  11  12
ATOM     12  C   UNL     1     -14.012  12.278 -28.977  1.00  0.00     0.066 C 
BRANCH  12  13
ATOM     13  C   UNL     1     -15.451  11.893 -28.651  1.00  0.00     0.140 C 
ATOM     14  O   UNL     1     -15.725  10.711 -28.494  1.00  0.00    -0.299 OA
BRANCH  13  15
ATOM     15  C   UNL     1     -16.571  12.903 -28.703  1.00  0.00     0.106 CG0
ATOM     16  G   UNL     1     -17.681  12.607 -29.705  1.00  0.00     0.000 G0
ENDBRANCH  13  15
ENDBRANCH  12  13
BRANCH  12  17
ATOM     17  C   UNL     1     -13.040  11.693 -27.902  1.00  0.00    -0.006 C 
ATOM     18  C   UNL     1     -11.666  11.331 -28.494  1.00  0.00     0.008 C 
ATOM     19  C   UNL     1     -12.833  12.674 -26.732  1.00  0.00     0.008 C 
ENDBRANCH  12  17
ENDBRANCH  11  12
ENDBRANCH   1  11
TORSDOF 1
ENDMDL
MODEL 3
REMARK VINA RESULT:    -4.117      1.790      2.105
REMARK INTER + INTRA:          -6.602
REMARK INTER:                  -6.687
REMARK INTRA:                   0.084
REMARK UNBOUND:                -0.320
REMARK SMILES CC1=CCC[C@@H](C)C(=O)C[C@H](C(C)C)C(=O)C1
REMARK SMILES IDX 8 1 9 2 6 3 7 4 5 5 4 6 3 7 2 8 1 9 10 11 11 12 15 13 16 14
REMARK SMILES IDX 17 15 12 17 13 18 14 19
REMARK H PARENT
REMARK Flexibility Score: 70.00
ROOT
ATOM      1  C   UNL     1     -15.203  14.050 -30.876  1.00  0.00     0.136 C 
ATOM      2  O   UNL     1     -15.475  15.146 -30.405  1.00  0.00    -0.299 OA
ENDROOT
BRANCH   1   3
ATOM      3  C   UNL     1     -16.150  12.884 -30.666  1.00  0.00     0.053 C 
ATOM      4  C   UNL     1     -17.527  13.238 -31.238  1.00  0.00     0.016 C 
BRANCH   3   5
ATOM      5  C   UNL     1     -16.275  12.488 -29.180  1.00  0.00     0.015 C 
BRANCH   5   6
ATOM      6  C   UNL     1     -15.423  11.277 -28.761  1.00  0.00     0.028 C 
BRANCH   6   7
ATOM      7  C   UNL     1     -14.412  11.577 -27.677  1.00  0.00    -0.028 C 
ATOM      8  C   UNL     1     -13.216  12.214 -27.797  1.00  0.00    -0.070 CG0
ATOM      9  C   UNL     1     -12.462  12.480 -26.514  1.00  0.00     0.039 C 
ATOM     10  G   UNL     1     -12.527  12.584 -29.106  1.00  0.00     0.000 G0
ENDBRANCH   6   7
ENDBRANCH   5   6
ENDBRANCH   3   5
ENDBRANCH   1   3
BRANCH   1  11
ATOM     11  C   UNL     1     -13.954  13.896 -31.706  1.00  0.00     0.087 C 
BRANCH  11  12
ATOM     12  C   UNL     1     -12.680  14.440 -31.004  1.00  0.00     0.066 C 
BRANCH  12  13
ATOM     13  C   UNL     1     -12.615  14.039 -29.533  1.00  0.00     0.140 C 
ATOM     14  O   UNL     1     -12.495  14.915 -28.687  1.00  0.00    -0.299 OA
BRANCH  13  15
ATOM     15  C   UNL     1     -12.506  12.594 -29.113  1.00  0.00     0.106 CG0
ATOM     16  G   UNL     1     -13.209  12.231 -27.810  1.00  0.00     0.000 G0
ENDBRANCH  13  15
ENDBRANCH  12  13
BRANCH  12  17
ATOM     17  C   UNL     1     -11.376  13.995 -31.741  1.00  0.00    -0.006 C 
ATOM     18  C   UNL     1     -11.620  13.703 -33.233  1.00  0.00     0.008 C 
ATOM     19  C   UNL     1     -10.265  15.056 -31.619  1.00  0.00     0.008 C 
ENDBRANCH  12  17
ENDBRANCH  11  12
ENDBRANCH   1  11
TORSDOF 1
ENDMDL
MODEL 4
REMARK VINA RESULT:    -4.026      2.569      4.355
REMARK INTER + INTRA:          -6.463
REMARK INTER:                  -6.850
REMARK INTRA:                   0.387
REMARK UNBOUND:                -0.320
REMARK SMILES CC1=CCC[C@@H](C)C(=O)C[C@H](C(C)C)C(=O)C1
REMARK SMILES IDX 8 1 9 2 6 3 7 4 5 5 4 6 3 7 2 8 1 9 10 11 11 12 15 13 16 14
REMARK SMILES IDX 17 15 12 17 13 18 14 19
REMARK H PARENT
REMARK Flexibility Score: 70.00
ROOT
ATOM      1  C   UNL     1     -12.866  14.099 -29.544  1.00  0.00     0.136 C 
ATOM      2  O   UNL     1     -13.493  15.140 -29.405  1.00  0.00    -0.299 OA
ENDROOT
BRANCH   1   3
ATOM      3  C   UNL     1     -13.280  12.861 -28.772  1.00  0.00     0.053 C 
ATOM      4  C   UNL     1     -12.480  12.785 -27.467  1.00  0.00     0.016 C 
BRANCH   3   5
ATOM      5  C   UNL     1     -13.094  11.567 -29.590  1.00  0.00     0.015 C 
BRANCH   5   6
ATOM      6  C   UNL     1     -14.363  11.063 -30.299  1.00  0.00     0.028 C 
BRANCH   6   7
ATOM      7  C   UNL     1     -15.436  12.115 -30.469  1.00  0.00    -0.028 C 
ATOM      8  C   UNL     1     -15.629  12.957 -31.520  1.00  0.00    -0.070 CG0
ATOM      9  C   UNL     1     -16.862  13.829 -31.469  1.00  0.00     0.039 C 
ATOM     10  G   UNL     1     -14.667  13.170 -32.683  1.00  0.00     0.000 G0
ENDBRANCH   6   7
ENDBRANCH   5   6
ENDBRANCH   3   5
ENDBRANCH   1   3
BRANCH   1  11
ATOM     11  C   UNL     1     -11.726  14.054 -30.530  1.00  0.00     0.087 C 
BRANCH  11  12
ATOM     12  C   UNL     1     -12.143  13.517 -31.927  1.00  0.00     0.066 C 
BRANCH  12  13
ATOM     13  C   UNL     1     -13.481  14.085 -32.388  1.00  0.00     0.140 C 
ATOM     14  O   UNL     1     -13.647  15.297 -32.366  1.00  0.00    -0.299 OA
BRANCH  13  15
ATOM     15  C   UNL     1     -14.658  13.190 -32.688  1.00  0.00     0.106 CG0
ATOM     16  G   UNL     1     -15.637  12.980 -31.539  1.00  0.00     0.000 G0
ENDBRANCH  13  15
ENDBRANCH  12  13
BRANCH  12  17
ATOM     17  C   UNL     1     -11.043  13.784 -33.004  1.00  0.00    -0.006 C 
ATOM     18  C   UNL     1     -10.029  14.850 -32.549  1.00  0.00     0.008 C 
ATOM     19  C   UNL     1     -10.279  12.497 -33.367  1.00  0.00     0.008 C 
ENDBRANCH  12  17
ENDBRANCH  11  12
ENDBRANCH   1  11
TORSDOF 1
ENDMDL
MODEL 5
REMARK VINA RESULT:    -3.977      2.153      4.187
REMARK INTER + INTRA:          -6.390
REMARK INTER:                  -6.165
REMARK INTRA:                  -0.224
REMARK UNBOUND:                -0.320
REMARK SMILES CC1=CCC[C@@H](C)C(=O)C[C@H](C(C)C)C(=O)C1
REMARK SMILES IDX 8 1 9 2 6 3 7 4 5 5 4 6 3 7 2 8 1 9 10 11 11 12 15 13 16 14
REMARK SMILES IDX 17 15 12 17 13 18 14 19
REMARK H PARENT
REMARK Flexibility Score: 70.00
ROOT
ATOM      1  C   UNL     1     -12.859  12.947 -28.313  1.00  0.00     0.136 C 
ATOM      2  O   UNL     1     -13.309  13.257 -27.219  1.00  0.00    -0.299 OA
ENDROOT
BRANCH   1   3
ATOM      3  C   UNL     1     -12.683  11.483 -28.668  1.00  0.00     0.053 C 
ATOM      4  C   UNL     1     -11.309  11.277 -29.313  1.00  0.00     0.016 C 
BRANCH   3   5
ATOM      5  C   UNL     1     -13.796  10.968 -29.605  1.00  0.00     0.015 C 
BRANCH   5   6
ATOM      6  C   UNL     1     -15.198  10.916 -28.974  1.00  0.00     0.028 C 
BRANCH   6   7
ATOM      7  C   UNL     1     -16.297  11.455 -29.862  1.00  0.00    -0.028 C 
ATOM      8  C   UNL     1     -16.503  12.739 -30.259  1.00  0.00    -0.070 CG0
ATOM      9  C   UNL     1     -17.620  12.969 -31.251  1.00  0.00     0.039 C 
ATOM     10  G   UNL     1     -15.782  13.969 -29.718  1.00  0.00     0.000 G0
ENDBRANCH   6   7
ENDBRANCH   5   6
ENDBRANCH   3   5
ENDBRANCH   1   3
BRANCH   1  11
ATOM     11  C   UNL     1     -12.541  14.032 -29.311  1.00  0.00     0.087 C 
BRANCH  11  12
ATOM     12  C   UNL     1     -13.322  13.887 -30.646  1.00  0.00     0.066 C 
BRANCH  12  13
ATOM     13  C   UNL     1     -14.699  14.539 -30.583  1.00  0.00     0.140 C 
ATOM     14  O   UNL     1     -14.863  15.625 -31.123  1.00  0.00    -0.299 OA
BRANCH  13  15
ATOM     15  C   UNL     1     -15.801  13.977 -29.719  1.00  0.00     0.106 CG0
ATOM     16  G   UNL     1     -16.486  12.725 -30.255  1.00  0.00     0.000 G0
ENDBRANCH  13  15
ENDBRANCH  12  13
BRANCH  12  17
ATOM     17  C   UNL     1     -12.513  14.451 -31.857  1.00  0.00    -0.006 C 
ATOM     18  C   UNL     1     -11.001  14.512 -31.570  1.00  0.00     0.008 C 
ATOM     19  C   UNL     1     -12.742  13.617 -33.131  1.00  0.00     0.008 C 
ENDBRANCH  12  17
ENDBRANCH  11  12
ENDBRANCH   1  11
TORSDOF 1
ENDMDL
MODEL 6
REMARK VINA RESULT:    -3.953      1.703      4.098
REMARK INTER + INTRA:          -6.352
REMARK INTER:                  -6.383
REMARK INTRA:                   0.031
REMARK UNBOUND:                -0.320
REMARK SMILES CC1=CCC[C@@H](C)C(=O)C[C@H](C(C)C)C(=O)C1
REMARK SMILES IDX 8 1 9 2 6 3 7 4 5 5 4 6 3 7 2 8 1 9 10 11 11 12 15 13 16 14
REMARK SMILES IDX 17 15 12 17 13 18 14 19
REMARK H PARENT
REMARK Flexibility Score: 70.00
ROOT
ATOM      1  C   UNL     1     -15.945  13.772 -31.409  1.00  0.00     0.136 C 
ATOM      2  O   UNL     1     -16.164  13.982 -32.594  1.00  0.00    -0.299 OA
ENDROOT
BRANCH   1   3
ATOM      3  C   UNL     1     -14.590  14.114 -30.820  1.00  0.00     0.053 C 
ATOM      4  C   UNL     1     -14.351  15.623 -30.937  1.00  0.00     0.016 C 
BRANCH   3   5
ATOM      5  C   UNL     1     -13.442  13.336 -31.497  1.00  0.00     0.015 C 
BRANCH   5   6
ATOM      6  C   UNL     1     -12.822  12.222 -30.636  1.00  0.00     0.028 C 
BRANCH   6   7
ATOM      7  C   UNL     1     -12.699  12.569 -29.169  1.00  0.00    -0.028 C 
ATOM      8  C   UNL     1     -13.443  12.104 -28.130  1.00  0.00    -0.070 CG0
ATOM      9  C   UNL     1     -13.016  12.537 -26.746  1.00  0.00     0.039 C 
ATOM     10  G   UNL     1     -14.720  11.279 -28.244  1.00  0.00     0.000 G0
ENDBRANCH   6   7
ENDBRANCH   5   6
ENDBRANCH   3   5
ENDBRANCH   1   3
BRANCH   1  11
ATOM     11  C   UNL     1     -17.053  13.227 -30.545  1.00  0.00     0.087 C 
BRANCH  11  12
ATOM     12  C   UNL     1     -16.707  11.860 -29.891  1.00  0.00     0.066 C 
BRANCH  12  13
ATOM     13  C   UNL     1     -15.993  12.025 -28.553  1.00  0.00     0.140 C 
ATOM     14  O   UNL     1     -16.369  12.901 -27.787  1.00  0.00    -0.299 OA
BRANCH  13  15
ATOM     15  C   UNL     1     -14.727  11.267 -28.235  1.00  0.00     0.106 CG0
ATOM     16  G   UNL     1     -13.463  12.112 -28.124  1.00  0.00     0.000 G0
ENDBRANCH  13  15
ENDBRANCH  12  13
BRANCH  12  17
ATOM     17  C   UNL     1     -17.973  10.961 -29.720  1.00  0.00    -0.006 C 
ATOM     18  C   UNL     1     -17.939  10.148 -28.412  1.00  0.00     0.008 C 
ATOM     19  C   UNL     1     -19.269  11.793 -29.752  1.00  0.00     0.008 C 
ENDBRANCH  12  17
ENDBRANCH  11  12
ENDBRANCH   1  11
TORSDOF 1
ENDMDL
MODEL 7
REMARK VINA RESULT:    -3.747      1.644      4.025
REMARK INTER + INTRA:          -6.039
REMARK INTER:                  -6.146
REMARK INTRA:                   0.107
REMARK UNBOUND:                -0.320
REMARK SMILES CC1=CCC[C@@H](C)C(=O)C[C@H](C(C)C)C(=O)C1
REMARK SMILES IDX 8 1 9 2 6 3 7 4 5 5 4 6 3 7 2 8 1 9 10 11 11 12 15 13 16 14
REMARK SMILES IDX 17 15 12 17 13 18 14 19
REMARK H PARENT
REMARK Flexibility Score: 70.00
ROOT
ATOM      1  C   UNL     1     -14.539  13.536 -32.339  1.00  0.00     0.136 C 
ATOM      2  O   UNL     1     -15.138  13.028 -33.277  1.00  0.00    -0.299 OA
ENDROOT
BRANCH   1   3
ATOM      3  C   UNL     1     -13.228  14.257 -32.584  1.00  0.00     0.053 C 
ATOM      4  C   UNL     1     -12.171  13.249 -33.046  1.00  0.00     0.016 C 
BRANCH   3   5
ATOM      5  C   UNL     1     -12.733  15.016 -31.335  1.00  0.00     0.015 C 
BRANCH   5   6
ATOM      6  C   UNL     1     -11.754  14.229 -30.447  1.00  0.00     0.028 C 
BRANCH   6   7
ATOM      7  C   UNL     1     -12.327  13.816 -29.109  1.00  0.00    -0.028 C 
ATOM      8  C   UNL     1     -12.919  12.638 -28.776  1.00  0.00    -0.070 CG0
ATOM      9  C   UNL     1     -13.293  12.458 -27.323  1.00  0.00     0.039 C 
ATOM     10  G   UNL     1     -13.330  11.538 -29.748  1.00  0.00     0.000 G0
ENDBRANCH   6   7
ENDBRANCH   5   6
ENDBRANCH   3   5
ENDBRANCH   1   3
BRANCH   1  11
ATOM     11  C   UNL     1     -15.152  13.483 -30.963  1.00  0.00     0.087 C 
BRANCH  11  12
ATOM     12  C   UNL     1     -15.766  12.098 -30.617  1.00  0.00     0.066 C 
BRANCH  12  13
ATOM     13  C   UNL     1     -14.805  11.225 -29.817  1.00  0.00     0.140 C 
ATOM     14  O   UNL     1     -15.263  10.353 -29.092  1.00  0.00    -0.299 OA
BRANCH  13  15
ATOM     15  C   UNL     1     -13.328  11.529 -29.753  1.00  0.00     0.106 CG0
ATOM     16  G   UNL     1     -12.923  12.632 -28.782  1.00  0.00     0.000 G0
ENDBRANCH  13  15
ENDBRANCH  12  13
BRANCH  12  17
ATOM     17  C   UNL     1     -17.125  12.238 -29.859  1.00  0.00    -0.006 C 
ATOM     18  C   UNL     1     -17.163  13.484 -28.955  1.00  0.00     0.008 C 
ATOM     19  C   UNL     1     -18.315  12.297 -30.835  1.00  0.00     0.008 C 
ENDBRANCH  12  17
ENDBRANCH  11  12
ENDBRANCH   1  11
TORSDOF 1
ENDMDL
MODEL 8
REMARK VINA RESULT:    -3.622     10.185     12.440
REMARK INTER + INTRA:          -5.848
REMARK INTER:                  -5.520
REMARK INTRA:                  -0.327
REMARK UNBOUND:                -0.320
REMARK SMILES CC1=CCC[C@@H](C)C(=O)C[C@H](C(C)C)C(=O)C1
REMARK SMILES IDX 8 1 9 2 6 3 7 4 5 5 4 6 3 7 2 8 1 9 10 11 11 12 15 13 16 14
REMARK SMILES IDX 17 15 12 17 13 18 14 19
REMARK H PARENT
REMARK Flexibility Score: 70.00
ROOT
ATOM      1  C   UNL     1     -24.807  11.758 -28.842  1.00  0.00     0.136 C 
ATOM      2  O   UNL     1     -23.810  11.374 -29.438  1.00  0.00    -0.299 OA
ENDROOT
BRANCH   1   3
ATOM      3  C   UNL     1     -25.378  10.921 -27.713  1.00  0.00     0.053 C 
ATOM      4  C   UNL     1     -24.338   9.888 -27.269  1.00  0.00     0.016 C 
BRANCH   3   5
ATOM      5  C   UNL     1     -26.694  10.220 -28.109  1.00  0.00     0.015 C 
BRANCH   5   6
ATOM      6  C   UNL     1     -26.818   9.875 -29.604  1.00  0.00     0.028 C 
BRANCH   6   7
ATOM      7  C   UNL     1     -28.177  10.170 -30.197  1.00  0.00    -0.028 C 
ATOM      8  C   UNL     1     -28.666  11.364 -30.625  1.00  0.00    -0.070 CG0
ATOM      9  C   UNL     1     -30.025  11.339 -31.288  1.00  0.00     0.039 C 
ATOM     10  G   UNL     1     -28.018  12.726 -30.405  1.00  0.00     0.000 G0
ENDBRANCH   6   7
ENDBRANCH   5   6
ENDBRANCH   3   5
ENDBRANCH   1   3
BRANCH   1  11
ATOM     11  C   UNL     1     -25.414  13.088 -29.208  1.00  0.00     0.087 C 
BRANCH  11  12
ATOM     12  C   UNL     1     -25.473  13.336 -30.741  1.00  0.00     0.066 C 
BRANCH  12  13
ATOM     13  C   UNL     1     -26.859  13.062 -31.317  1.00  0.00     0.140 C 
ATOM     14  O   UNL     1     -27.055  13.267 -32.506  1.00  0.00    -0.299 OA
BRANCH  13  15
ATOM     15  C   UNL     1     -28.032  12.731 -30.428  1.00  0.00     0.106 CG0
ATOM     16  G   UNL     1     -28.667  11.363 -30.654  1.00  0.00     0.000 G0
ENDBRANCH  13  15
ENDBRANCH  12  13
BRANCH  12  17
ATOM     17  C   UNL     1     -25.010  14.780 -31.114  1.00  0.00    -0.006 C 
ATOM     18  C   UNL     1     -25.832  15.862 -30.390  1.00  0.00     0.008 C 
ATOM     19  C   UNL     1     -23.518  14.997 -30.797  1.00  0.00     0.008 C 
ENDBRANCH  12  17
ENDBRANCH  11  12
ENDBRANCH   1  11
TORSDOF 1
ENDMDL
MODEL 9
REMARK VINA RESULT:    -3.481      1.726      2.812
REMARK INTER + INTRA:          -5.633
REMARK INTER:                  -5.632
REMARK INTRA:                  -0.001
REMARK UNBOUND:                -0.320
REMARK SMILES CC1=CCC[C@@H](C)C(=O)C[C@H](C(C)C)C(=O)C1
REMARK SMILES IDX 8 1 9 2 6 3 7 4 5 5 4 6 3 7 2 8 1 9 10 11 11 12 15 13 16 14
REMARK SMILES IDX 17 15 12 17 13 18 14 19
REMARK H PARENT
REMARK Flexibility Score: 70.00
ROOT
ATOM      1  C   UNL     1     -16.297  11.397 -28.649  1.00  0.00     0.136 C 
ATOM      2  O   UNL     1     -17.504  11.516 -28.491  1.00  0.00    -0.299 OA
ENDROOT
BRANCH   1   3
ATOM      3  C   UNL     1     -15.440  10.850 -27.523  1.00  0.00     0.053 C 
ATOM      4  C   UNL     1     -16.272   9.884 -26.673  1.00  0.00     0.016 C 
BRANCH   3   5
ATOM      5  C   UNL     1     -14.849  11.968 -26.639  1.00  0.00     0.015 C 
BRANCH   5   6
ATOM      6  C   UNL     1     -13.327  12.157 -26.769  1.00  0.00     0.028 C 
BRANCH   6   7
ATOM      7  C   UNL     1     -12.655  11.155 -27.681  1.00  0.00    -0.028 C 
ATOM      8  C   UNL     1     -12.086  11.375 -28.896  1.00  0.00    -0.070 CG0
ATOM      9  C   UNL     1     -11.378  10.201 -29.532  1.00  0.00     0.039 C 
ATOM     10  G   UNL     1     -12.187  12.659 -29.712  1.00  0.00     0.000 G0
ENDBRANCH   6   7
ENDBRANCH   5   6
ENDBRANCH   3   5
ENDBRANCH   1   3
BRANCH   1  11
ATOM     11  C   UNL     1     -15.695  11.744 -29.986  1.00  0.00     0.087 C 
BRANCH  11  12
ATOM     12  C   UNL     1     -14.804  13.017 -29.947  1.00  0.00     0.066 C 
BRANCH  12  13
ATOM     13  C   UNL     1     -13.434  12.782 -30.574  1.00  0.00     0.140 C 
ATOM     14  O   UNL     1     -13.366  12.530 -31.769  1.00  0.00    -0.299 OA
BRANCH  13  15
ATOM     15  C   UNL     1     -12.188  12.664 -29.730  1.00  0.00     0.106 CG0
ATOM     16  G   UNL     1     -12.072  11.392 -28.898  1.00  0.00     0.000 G0
ENDBRANCH  13  15
ENDBRANCH  12  13
BRANCH  12  17
ATOM     17  C   UNL     1     -15.505  14.237 -30.625  1.00  0.00    -0.006 C 
ATOM     18  C   UNL     1     -14.509  15.355 -30.987  1.00  0.00     0.008 C 
ATOM     19  C   UNL     1     -16.265  13.820 -31.898  1.00  0.00     0.008 C 
ENDBRANCH  12  17
ENDBRANCH  11  12
ENDBRANCH   1  11
TORSDOF 1
ENDMDL
