MODEL 1
REMARK VINA RESULT:    -5.090      0.000      0.000
REMARK INTER + INTRA:          -6.488
REMARK INTER:                  -5.983
REMARK INTRA:                  -0.505
REMARK UNBOUND:                -0.505
REMARK SMILES CCCC[C@@H]1OC(=O)C2=C1CCC=C2
REMARK SMILES IDX 3 1 2 2 1 3 4 4 5 5 10 6 6 7 9 8 11 9 7 10 14 11 12 12 8 13
REMARK SMILES IDX 13 14
REMARK H PARENT
REMARK Flexibility Score: inf
ROOT
ATOM      1  C   UNL     1      10.325 -12.747 -28.276  1.00  0.00     0.004 C 
ENDROOT
BRANCH   1   2
ATOM      2  C   UNL     1      11.029 -12.116 -29.483  1.00  0.00    -0.003 C 
ATOM      3  C   UNL     1      11.823 -10.880 -29.075  1.00  0.00     0.004 C 
ENDBRANCH   1   2
BRANCH   1   4
ATOM      4  C   UNL     1      10.996 -14.070 -27.880  1.00  0.00     0.050 C 
BRANCH   4   5
ATOM      5  C   UNL     1      11.768 -13.967 -26.552  1.00  0.00     0.204 C 
ATOM      6  C   UNL     1      12.998 -13.086 -26.649  1.00  0.00    -0.015 C 
ATOM      7  O   UNL     1      10.962 -13.280 -25.590  1.00  0.00    -0.454 OA
ATOM      8  C   UNL     1      12.870 -12.019 -25.876  1.00  0.00     0.062 C 
ATOM      9  C   UNL     1      14.197 -13.265 -27.542  1.00  0.00     0.040 C 
ATOM     10  C   UNL     1      11.604 -12.117 -25.201  1.00  0.00     0.338 C 
ATOM     11  C   UNL     1      13.895 -10.974 -25.783  1.00  0.00     0.011 C 
ATOM     12  C   UNL     1      15.431 -12.522 -26.977  1.00  0.00     0.032 C 
ATOM     13  O   UNL     1      11.138 -11.289 -24.375  1.00  0.00    -0.246 OA
ATOM     14  C   UNL     1      15.081 -11.177 -26.371  1.00  0.00    -0.026 C 
ENDBRANCH   4   5
ENDBRANCH   1   4
TORSDOF 3
ENDMDL
MODEL 2
REMARK VINA RESULT:    -4.769      1.904      3.610
REMARK INTER + INTRA:          -6.110
REMARK INTER:                  -5.937
REMARK INTRA:                  -0.173
REMARK UNBOUND:                -0.505
REMARK SMILES CCCC[C@@H]1OC(=O)C2=C1CCC=C2
REMARK SMILES IDX 3 1 2 2 1 3 4 4 5 5 10 6 6 7 9 8 11 9 7 10 14 11 12 12 8 13
REMARK SMILES IDX 13 14
REMARK H PARENT
REMARK Flexibility Score: inf
ROOT
ATOM      1  C   UNL     1      13.885 -13.926 -26.180  1.00  0.00     0.004 C 
ENDROOT
BRANCH   1   2
ATOM      2  C   UNL     1      14.793 -13.094 -27.092  1.00  0.00    -0.003 C 
ATOM      3  C   UNL     1      14.890 -11.651 -26.607  1.00  0.00     0.004 C 
ENDBRANCH   1   2
BRANCH   1   4
ATOM      4  C   UNL     1      12.867 -14.729 -27.004  1.00  0.00     0.050 C 
BRANCH   4   5
ATOM      5  C   UNL     1      11.511 -14.010 -27.131  1.00  0.00     0.204 C 
ATOM      6  C   UNL     1      11.452 -12.714 -26.347  1.00  0.00    -0.015 C 
ATOM      7  O   UNL     1      11.335 -13.571 -28.481  1.00  0.00    -0.454 OA
ATOM      8  C   UNL     1      11.311 -11.682 -27.162  1.00  0.00     0.062 C 
ATOM      9  C   UNL     1      11.620 -12.522 -24.862  1.00  0.00     0.040 C 
ATOM     10  C   UNL     1      11.234 -12.191 -28.505  1.00  0.00     0.338 C 
ATOM     11  C   UNL     1      11.246 -10.294 -26.688  1.00  0.00     0.011 C 
ATOM     12  C   UNL     1      10.962 -11.203 -24.392  1.00  0.00     0.032 C 
ATOM     13  O   UNL     1      11.088 -11.505 -29.550  1.00  0.00    -0.246 OA
ATOM     14  C   UNL     1      11.161 -10.064 -25.372  1.00  0.00    -0.026 C 
ENDBRANCH   4   5
ENDBRANCH   1   4
TORSDOF 3
ENDMDL
MODEL 3
REMARK VINA RESULT:    -4.715      1.826      3.595
REMARK INTER + INTRA:          -6.047
REMARK INTER:                  -5.840
REMARK INTRA:                  -0.207
REMARK UNBOUND:                -0.505
REMARK SMILES CCCC[C@@H]1OC(=O)C2=C1CCC=C2
REMARK SMILES IDX 3 1 2 2 1 3 4 4 5 5 10 6 6 7 9 8 11 9 7 10 14 11 12 12 8 13
REMARK SMILES IDX 13 14
REMARK H PARENT
REMARK Flexibility Score: inf
ROOT
ATOM      1  C   UNL     1      10.834 -12.987 -24.993  1.00  0.00     0.004 C 
ENDROOT
BRANCH   1   2
ATOM      2  C   UNL     1      11.313 -11.682 -24.348  1.00  0.00    -0.003 C 
ATOM      3  C   UNL     1      10.835 -10.467 -25.138  1.00  0.00     0.004 C 
ENDBRANCH   1   2
BRANCH   1   4
ATOM      4  C   UNL     1      11.975 -14.012 -25.072  1.00  0.00     0.050 C 
BRANCH   4   5
ATOM      5  C   UNL     1      12.778 -13.903 -26.380  1.00  0.00     0.204 C 
ATOM      6  C   UNL     1      12.122 -12.999 -27.405  1.00  0.00    -0.015 C 
ATOM      7  O   UNL     1      14.017 -13.237 -26.120  1.00  0.00    -0.454 OA
ATOM      8  C   UNL     1      12.878 -11.940 -27.646  1.00  0.00     0.062 C 
ATOM      9  C   UNL     1      10.764 -13.151 -28.039  1.00  0.00     0.040 C 
ATOM     10  C   UNL     1      14.072 -12.065 -26.854  1.00  0.00     0.338 C 
ATOM     11  C   UNL     1      12.488 -10.877 -28.579  1.00  0.00     0.011 C 
ATOM     12  C   UNL     1      10.687 -12.389 -29.383  1.00  0.00     0.032 C 
ATOM     13  O   UNL     1      15.032 -11.252 -26.825  1.00  0.00    -0.246 OA
ATOM     14  C   UNL     1      11.405 -11.055 -29.346  1.00  0.00    -0.026 C 
ENDBRANCH   4   5
ENDBRANCH   1   4
TORSDOF 3
ENDMDL
MODEL 4
REMARK VINA RESULT:    -4.684      1.098      4.044
REMARK INTER + INTRA:          -6.010
REMARK INTER:                  -5.590
REMARK INTRA:                  -0.421
REMARK UNBOUND:                -0.505
REMARK SMILES CCCC[C@@H]1OC(=O)C2=C1CCC=C2
REMARK SMILES IDX 3 1 2 2 1 3 4 4 5 5 10 6 6 7 9 8 11 9 7 10 14 11 12 12 8 13
REMARK SMILES IDX 13 14
REMARK H PARENT
REMARK Flexibility Score: inf
ROOT
ATOM      1  C   UNL     1      14.639 -11.555 -26.148  1.00  0.00     0.004 C 
ENDROOT
BRANCH   1   2
ATOM      2  C   UNL     1      15.105 -12.644 -27.120  1.00  0.00    -0.003 C 
ATOM      3  C   UNL     1      14.586 -14.016 -26.703  1.00  0.00     0.004 C 
ENDBRANCH   1   2
BRANCH   1   4
ATOM      4  C   UNL     1      13.632 -10.611 -26.822  1.00  0.00     0.050 C 
BRANCH   4   5
ATOM      5  C   UNL     1      12.172 -10.968 -26.488  1.00  0.00     0.204 C 
ATOM      6  C   UNL     1      11.545 -11.906 -27.501  1.00  0.00    -0.015 C 
ATOM      7  O   UNL     1      12.138 -11.738 -25.282  1.00  0.00    -0.454 OA
ATOM      8  C   UNL     1      11.247 -13.067 -26.939  1.00  0.00     0.062 C 
ATOM      9  C   UNL     1      11.342 -11.675 -28.975  1.00  0.00     0.040 C 
ATOM     10  C   UNL     1      11.608 -12.987 -25.550  1.00  0.00     0.338 C 
ATOM     11  C   UNL     1      10.648 -14.182 -27.683  1.00  0.00     0.011 C 
ATOM     12  C   UNL     1      10.216 -12.578 -29.532  1.00  0.00     0.032 C 
ATOM     13  O   UNL     1      11.463 -13.898 -24.693  1.00  0.00    -0.246 OA
ATOM     14  C   UNL     1      10.232 -13.973 -28.938  1.00  0.00    -0.026 C 
ENDBRANCH   4   5
ENDBRANCH   1   4
TORSDOF 3
ENDMDL
MODEL 5
REMARK VINA RESULT:    -4.487      2.019      3.711
REMARK INTER + INTRA:          -5.779
REMARK INTER:                  -5.655
REMARK INTRA:                  -0.124
REMARK UNBOUND:                -0.505
REMARK SMILES CCCC[C@@H]1OC(=O)C2=C1CCC=C2
REMARK SMILES IDX 3 1 2 2 1 3 4 4 5 5 10 6 6 7 9 8 11 9 7 10 14 11 12 12 8 13
REMARK SMILES IDX 13 14
REMARK H PARENT
REMARK Flexibility Score: inf
ROOT
ATOM      1  C   UNL     1      11.722 -10.230 -28.318  1.00  0.00     0.004 C 
ENDROOT
BRANCH   1   2
ATOM      2  C   UNL     1      11.783 -11.367 -29.344  1.00  0.00    -0.003 C 
ATOM      3  C   UNL     1      10.751 -12.447 -29.033  1.00  0.00     0.004 C 
ENDBRANCH   1   2
BRANCH   1   4
ATOM      4  C   UNL     1      13.131  -9.732 -27.966  1.00  0.00     0.050 C 
BRANCH   4   5
ATOM      5  C   UNL     1      13.722 -10.448 -26.738  1.00  0.00     0.204 C 
ATOM      6  C   UNL     1      12.771 -11.459 -26.128  1.00  0.00    -0.015 C 
ATOM      7  O   UNL     1      14.825 -11.260 -27.151  1.00  0.00    -0.454 OA
ATOM      8  C   UNL     1      13.262 -12.684 -26.234  1.00  0.00     0.062 C 
ATOM      9  C   UNL     1      11.402 -11.213 -25.552  1.00  0.00     0.040 C 
ATOM     10  C   UNL     1      14.549 -12.586 -26.870  1.00  0.00     0.338 C 
ATOM     11  C   UNL     1      12.551 -13.873 -25.752  1.00  0.00     0.011 C 
ATOM     12  C   UNL     1      11.002 -12.334 -24.564  1.00  0.00     0.032 C 
ATOM     13  O   UNL     1      15.321 -13.545 -27.131  1.00  0.00    -0.246 OA
ATOM     14  C   UNL     1      11.436 -13.711 -25.028  1.00  0.00    -0.026 C 
ENDBRANCH   4   5
ENDBRANCH   1   4
TORSDOF 3
ENDMDL
MODEL 6
REMARK VINA RESULT:    -4.339      1.682      3.324
REMARK INTER + INTRA:          -5.605
REMARK INTER:                  -5.234
REMARK INTRA:                  -0.371
REMARK UNBOUND:                -0.505
REMARK SMILES CCCC[C@@H]1OC(=O)C2=C1CCC=C2
REMARK SMILES IDX 3 1 2 2 1 3 4 4 5 5 10 6 6 7 9 8 11 9 7 10 14 11 12 12 8 13
REMARK SMILES IDX 13 14
REMARK H PARENT
REMARK Flexibility Score: inf
ROOT
ATOM      1  C   UNL     1      10.723 -10.609 -25.795  1.00  0.00     0.004 C 
ENDROOT
BRANCH   1   2
ATOM      2  C   UNL     1      11.360 -11.134 -24.503  1.00  0.00    -0.003 C 
ATOM      3  C   UNL     1      11.036 -12.609 -24.288  1.00  0.00     0.004 C 
ENDBRANCH   1   2
BRANCH   1   4
ATOM      4  C   UNL     1      11.800 -10.190 -26.807  1.00  0.00     0.050 C 
BRANCH   4   5
ATOM      5  C   UNL     1      12.140 -11.310 -27.806  1.00  0.00     0.204 C 
ATOM      6  C   UNL     1      13.233 -12.236 -27.309  1.00  0.00    -0.015 C 
ATOM      7  O   UNL     1      11.017 -12.187 -27.933  1.00  0.00    -0.454 OA
ATOM      8  C   UNL     1      12.763 -13.460 -27.134  1.00  0.00     0.062 C 
ATOM      9  C   UNL     1      14.651 -11.882 -26.944  1.00  0.00     0.040 C 
ATOM     10  C   UNL     1      11.377 -13.457 -27.519  1.00  0.00     0.338 C 
ATOM     11  C   UNL     1      13.588 -14.568 -26.637  1.00  0.00     0.011 C 
ATOM     12  C   UNL     1      15.573 -13.122 -27.021  1.00  0.00     0.032 C 
ATOM     13  O   UNL     1      10.600 -14.446 -27.498  1.00  0.00    -0.246 OA
ATOM     14  C   UNL     1      14.908 -14.384 -26.508  1.00  0.00    -0.026 C 
ENDBRANCH   4   5
ENDBRANCH   1   4
TORSDOF 3
ENDMDL
MODEL 7
REMARK VINA RESULT:    -3.144      1.403      3.793
REMARK INTER + INTRA:          -4.200
REMARK INTER:                  -4.379
REMARK INTRA:                   0.179
REMARK UNBOUND:                -0.505
REMARK SMILES CCCC[C@@H]1OC(=O)C2=C1CCC=C2
REMARK SMILES IDX 3 1 2 2 1 3 4 4 5 5 10 6 6 7 9 8 11 9 7 10 14 11 12 12 8 13
REMARK SMILES IDX 13 14
REMARK H PARENT
REMARK Flexibility Score: inf
ROOT
ATOM      1  C   UNL     1      14.022 -14.096 -26.351  1.00  0.00     0.004 C 
ENDROOT
BRANCH   1   2
ATOM      2  C   UNL     1      15.004 -13.204 -27.119  1.00  0.00    -0.003 C 
ATOM      3  C   UNL     1      15.215 -11.873 -26.404  1.00  0.00     0.004 C 
ENDBRANCH   1   2
BRANCH   1   4
ATOM      4  C   UNL     1      13.221 -13.278 -25.327  1.00  0.00     0.050 C 
BRANCH   4   5
ATOM      5  C   UNL     1      11.821 -12.896 -25.841  1.00  0.00     0.204 C 
ATOM      6  C   UNL     1      11.863 -11.979 -27.048  1.00  0.00    -0.015 C 
ATOM      7  O   UNL     1      11.172 -14.063 -26.353  1.00  0.00    -0.454 OA
ATOM      8  C   UNL     1      11.348 -12.580 -28.109  1.00  0.00     0.062 C 
ATOM      9  C   UNL     1      12.474 -10.606 -27.147  1.00  0.00     0.040 C 
ATOM     10  C   UNL     1      10.906 -13.886 -27.700  1.00  0.00     0.338 C 
ATOM     11  C   UNL     1      11.274 -11.945 -29.430  1.00  0.00     0.011 C 
ATOM     12  C   UNL     1      11.849  -9.800 -28.312  1.00  0.00     0.032 C 
ATOM     13  O   UNL     1      10.354 -14.746 -28.435  1.00  0.00    -0.246 OA
ATOM     14  C   UNL     1      11.588 -10.647 -29.541  1.00  0.00    -0.026 C 
ENDBRANCH   4   5
ENDBRANCH   1   4
TORSDOF 3
ENDMDL
MODEL 8
REMARK VINA RESULT:    -3.125      2.859      4.352
REMARK INTER + INTRA:          -4.178
REMARK INTER:                  -4.003
REMARK INTRA:                  -0.175
REMARK UNBOUND:                -0.505
REMARK SMILES CCCC[C@@H]1OC(=O)C2=C1CCC=C2
REMARK SMILES IDX 3 1 2 2 1 3 4 4 5 5 10 6 6 7 9 8 11 9 7 10 14 11 12 12 8 13
REMARK SMILES IDX 13 14
REMARK H PARENT
REMARK Flexibility Score: inf
ROOT
ATOM      1  C   UNL     1      13.600  -8.161 -28.204  1.00  0.00     0.004 C 
ENDROOT
BRANCH   1   2
ATOM      2  C   UNL     1      12.805  -6.918 -28.619  1.00  0.00    -0.003 C 
ATOM      3  C   UNL     1      13.713  -5.699 -28.745  1.00  0.00     0.004 C 
ENDBRANCH   1   2
BRANCH   1   4
ATOM      4  C   UNL     1      12.708  -9.411 -28.209  1.00  0.00     0.050 C 
BRANCH   4   5
ATOM      5  C   UNL     1      12.904 -10.282 -26.955  1.00  0.00     0.204 C 
ATOM      6  C   UNL     1      12.391 -11.698 -27.131  1.00  0.00    -0.015 C 
ATOM      7  O   UNL     1      14.303 -10.478 -26.731  1.00  0.00    -0.454 OA
ATOM      8  C   UNL     1      13.387 -12.567 -27.064  1.00  0.00     0.062 C 
ATOM      9  C   UNL     1      10.986 -12.142 -27.443  1.00  0.00     0.040 C 
ATOM     10  C   UNL     1      14.596 -11.828 -26.812  1.00  0.00     0.338 C 
ATOM     11  C   UNL     1      13.197 -14.013 -27.222  1.00  0.00     0.011 C 
ATOM     12  C   UNL     1      10.754 -13.608 -27.005  1.00  0.00     0.032 C 
ATOM     13  O   UNL     1      15.748 -12.316 -26.675  1.00  0.00    -0.246 OA
ATOM     14  C   UNL     1      11.950 -14.499 -27.274  1.00  0.00    -0.026 C 
ENDBRANCH   4   5
ENDBRANCH   1   4
TORSDOF 3
ENDMDL
MODEL 9
REMARK VINA RESULT:    -3.071      2.860      4.395
REMARK INTER + INTRA:          -4.114
REMARK INTER:                  -3.954
REMARK INTRA:                  -0.160
REMARK UNBOUND:                -0.505
REMARK SMILES CCCC[C@@H]1OC(=O)C2=C1CCC=C2
REMARK SMILES IDX 3 1 2 2 1 3 4 4 5 5 10 6 6 7 9 8 11 9 7 10 14 11 12 12 8 13
REMARK SMILES IDX 13 14
REMARK H PARENT
REMARK Flexibility Score: inf
ROOT
ATOM      1  C   UNL     1      13.469  -8.136 -28.254  1.00  0.00     0.004 C 
ENDROOT
BRANCH   1   2
ATOM      2  C   UNL     1      12.834  -6.786 -28.602  1.00  0.00    -0.003 C 
ATOM      3  C   UNL     1      13.899  -5.721 -28.847  1.00  0.00     0.004 C 
ENDBRANCH   1   2
BRANCH   1   4
ATOM      4  C   UNL     1      12.404  -9.143 -27.795  1.00  0.00     0.050 C 
BRANCH   4   5
ATOM      5  C   UNL     1      12.704 -10.577 -28.267  1.00  0.00     0.204 C 
ATOM      6  C   UNL     1      12.314 -11.629 -27.247  1.00  0.00    -0.015 C 
ATOM      7  O   UNL     1      11.867 -10.893 -29.383  1.00  0.00    -0.454 OA
ATOM      8  C   UNL     1      11.347 -12.400 -27.719  1.00  0.00     0.062 C 
ATOM      9  C   UNL     1      12.826 -11.790 -25.840  1.00  0.00     0.040 C 
ATOM     10  C   UNL     1      11.049 -11.960 -29.056  1.00  0.00     0.338 C 
ATOM     11  C   UNL     1      10.748 -13.494 -26.945  1.00  0.00     0.011 C 
ATOM     12  C   UNL     1      12.625 -13.239 -25.335  1.00  0.00     0.032 C 
ATOM     13  O   UNL     1      10.189 -12.460 -29.827  1.00  0.00    -0.246 OA
ATOM     14  C   UNL     1      11.306 -13.840 -25.777  1.00  0.00    -0.026 C 
ENDBRANCH   4   5
ENDBRANCH   1   4
TORSDOF 3
ENDMDL
