MODEL 1
REMARK VINA RESULT:    10.489      0.000      0.000
REMARK INTER + INTRA:          15.749
REMARK INTER:                  17.234
REMARK INTRA:                  -1.485
REMARK UNBOUND:                -1.485
REMARK SMILES C[C@@H]1O[C@@H](OC[C@@H]2O[C@@H](Oc3c(-c4ccc(O)c(O)c4)oc4cc(O)cc(O)c4c3=O)[C@H](O)[C@@H](O)[C@H]2O)[C@H](O)[C@H](O)[C@@H]1O
REMARK SMILES IDX 7 1 36 2 34 3 32 4 9 5 8 6 6 7 5 8 4 9 1 10 2 11 42 12 3 13
REMARK SMILES IDX 40 14 38 15 43 16 41 18 39 20 37 22 35 24 10 26 11 27 12 28
REMARK SMILES IDX 30 29 21 30 29 31 31 32 22 33 27 34 23 35 26 36 24 37 13 38
REMARK SMILES IDX 20 39 14 40 18 41 15 42 16 43 19 44 17 46 28 48 25 50 33 52
REMARK H PARENT 43 17 41 19 39 21 37 23 35 25 19 45 17 47 28 49 25 51 33 53
REMARK Flexibility Score: inf
ROOT
ATOM      1  C   UNL     1     153.249 145.067 135.571  1.00  0.00     0.180 C 
ATOM      2  C   UNL     1     154.120 145.818 136.635  1.00  0.00     0.177 C 
ATOM      3  C   UNL     1     155.582 145.871 136.184  1.00  0.00     0.180 C 
ATOM      4  C   UNL     1     155.679 146.537 134.796  1.00  0.00     0.214 C 
ATOM      5  C   UNL     1     154.535 146.063 133.856  1.00  0.00     0.339 C 
ATOM      6  O   UNL     1     153.923 144.876 134.332  1.00  0.00    -0.332 OA
ENDROOT
BRANCH   1   7
ATOM      7  C   UNL     1     152.833 143.678 136.073  1.00  0.00     0.198 C 
BRANCH   7   8
ATOM      8  O   UNL     1     153.383 142.668 135.245  1.00  0.00    -0.347 OA
BRANCH   8   9
ATOM      9  C   UNL     1     152.389 141.742 134.812  1.00  0.00     0.281 C 
ATOM     10  C   UNL     1     154.490 139.876 132.430  1.00  0.00     0.041 C 
ATOM     11  C   UNL     1     153.711 141.067 132.990  1.00  0.00     0.150 C 
ATOM     12  C   UNL     1     152.739 141.639 131.934  1.00  0.00     0.174 C 
ATOM     13  O   UNL     1     153.011 140.648 134.155  1.00  0.00    -0.344 OA
ATOM     14  C   UNL     1     151.959 142.810 132.552  1.00  0.00     0.179 C 
ATOM     15  C   UNL     1     151.322 142.388 133.890  1.00  0.00     0.202 C 
BRANCH  12  16
ATOM     16  O   UNL     1     151.845 140.640 131.510  1.00  0.00    -0.388 OA
ATOM     17  H   UNL     1     151.979 140.510 130.537  1.00  0.00     0.211 HD
ENDBRANCH  12  16
BRANCH  14  18
ATOM     18  O   UNL     1     150.962 143.256 131.669  1.00  0.00    -0.387 OA
ATOM     19  H   UNL     1     151.077 144.239 131.574  1.00  0.00     0.211 HD
ENDBRANCH  14  18
BRANCH  15  20
ATOM     20  O   UNL     1     150.290 141.457 133.671  1.00  0.00    -0.385 OA
ATOM     21  H   UNL     1     150.201 140.917 134.501  1.00  0.00     0.211 HD
ENDBRANCH  15  20
ENDBRANCH   8   9
ENDBRANCH   7   8
ENDBRANCH   1   7
BRANCH   2  22
ATOM     22  O   UNL     1     153.639 147.128 136.811  1.00  0.00    -0.387 OA
ATOM     23  H   UNL     1     152.717 147.049 137.173  1.00  0.00     0.211 HD
ENDBRANCH   2  22
BRANCH   3  24
ATOM     24  O   UNL     1     156.338 146.587 137.125  1.00  0.00    -0.387 OA
ATOM     25  H   UNL     1     157.220 146.128 137.203  1.00  0.00     0.211 HD
ENDBRANCH   3  24
BRANCH   5  26
ATOM     26  O   UNL     1     153.562 147.099 133.678  1.00  0.00    -0.454 OA
BRANCH  26  27
ATOM     27  C   UNL     1     152.943 147.331 132.444  1.00  0.00     0.214 A 
ATOM     28  C   UNL     1     151.605 147.754 132.388  1.00  0.00     0.180 A 
ATOM     29  C   UNL     1     153.654 147.171 131.245  1.00  0.00     0.239 A 
ATOM     30  O   UNL     1     151.055 148.071 131.220  1.00  0.00    -0.452 OA
ATOM     31  C   UNL     1     153.032 147.489 130.020  1.00  0.00     0.111 A 
ATOM     32  O   UNL     1     154.839 146.741 131.282  1.00  0.00    -0.285 OA
ATOM     33  C   UNL     1     151.699 147.967 130.062  1.00  0.00     0.146 A 
ATOM     34  C   UNL     1     153.676 147.356 128.768  1.00  0.00     0.134 A 
ATOM     35  C   UNL     1     151.039 148.329 128.882  1.00  0.00     0.094 A 
ATOM     36  C   UNL     1     152.993 147.712 127.593  1.00  0.00     0.093 A 
ATOM     37  C   UNL     1     151.686 148.206 127.649  1.00  0.00     0.123 A 
BRANCH  28  38
ATOM     38  C   UNL     1     150.784 147.876 133.609  1.00  0.00     0.025 A 
ATOM     39  C   UNL     1     151.265 148.578 134.725  1.00  0.00     0.062 A 
ATOM     40  C   UNL     1     149.544 147.225 133.684  1.00  0.00     0.016 A 
ATOM     41  C   UNL     1     150.507 148.642 135.906  1.00  0.00     0.158 A 
ATOM     42  C   UNL     1     148.783 147.295 134.854  1.00  0.00     0.051 A 
ATOM     43  C   UNL     1     149.260 147.995 135.967  1.00  0.00     0.157 A 
BRANCH  41  44
ATOM     44  O   UNL     1     150.997 149.324 137.019  1.00  0.00    -0.504 OA
ATOM     45  H   UNL     1     150.551 150.170 137.359  1.00  0.00     0.293 HD
ENDBRANCH  41  44
BRANCH  43  46
ATOM     46  O   UNL     1     148.488 148.032 137.125  1.00  0.00    -0.504 OA
ATOM     47  H   UNL     1     147.551 148.419 137.134  1.00  0.00     0.293 HD
ENDBRANCH  43  46
ENDBRANCH  28  38
BRANCH  34  48
ATOM     48  O   UNL     1     154.985 146.876 128.681  1.00  0.00    -0.507 OA
ATOM     49  H   UNL     1     155.356 146.507 127.812  1.00  0.00     0.293 HD
ENDBRANCH  34  48
BRANCH  37  50
ATOM     50  O   UNL     1     151.039 148.567 126.469  1.00  0.00    -0.508 OA
ATOM     51  H   UNL     1     151.559 148.833 125.639  1.00  0.00     0.293 HD
ENDBRANCH  37  50
ENDBRANCH  26  27
ENDBRANCH   5  26
BRANCH   4  52
ATOM     52  O   UNL     1     156.940 146.291 134.222  1.00  0.00    -0.384 OA
ATOM     53  H   UNL     1     157.458 147.138 134.266  1.00  0.00     0.211 HD
ENDBRANCH   4  52
TORSDOF 16
ENDMDL
MODEL 2
REMARK VINA RESULT:    12.935      1.667      5.151
REMARK INTER + INTRA:          19.768
REMARK INTER:                  18.575
REMARK INTRA:                   1.193
REMARK UNBOUND:                -1.485
REMARK SMILES C[C@@H]1O[C@@H](OC[C@@H]2O[C@@H](Oc3c(-c4ccc(O)c(O)c4)oc4cc(O)cc(O)c4c3=O)[C@H](O)[C@@H](O)[C@H]2O)[C@H](O)[C@H](O)[C@@H]1O
REMARK SMILES IDX 7 1 36 2 34 3 32 4 9 5 8 6 6 7 5 8 4 9 1 10 2 11 42 12 3 13
REMARK SMILES IDX 40 14 38 15 43 16 41 18 39 20 37 22 35 24 10 26 11 27 12 28
REMARK SMILES IDX 30 29 21 30 29 31 31 32 22 33 27 34 23 35 26 36 24 37 13 38
REMARK SMILES IDX 20 39 14 40 18 41 15 42 16 43 19 44 17 46 28 48 25 50 33 52
REMARK H PARENT 43 17 41 19 39 21 37 23 35 25 19 45 17 47 28 49 25 51 33 53
REMARK Flexibility Score: inf
ROOT
ATOM      1  C   UNL     1     155.586 146.398 133.792  1.00  0.00     0.180 C 
ATOM      2  C   UNL     1     156.674 146.766 134.857  1.00  0.00     0.177 C 
ATOM      3  C   UNL     1     156.151 147.854 135.798  1.00  0.00     0.180 C 
ATOM      4  C   UNL     1     154.839 147.386 136.462  1.00  0.00     0.214 C 
ATOM      5  C   UNL     1     153.919 146.650 135.448  1.00  0.00     0.339 C 
ATOM      6  O   UNL     1     154.298 146.915 134.108  1.00  0.00    -0.332 OA
ENDROOT
BRANCH   1   7
ATOM      7  C   UNL     1     155.958 146.942 132.406  1.00  0.00     0.198 C 
BRANCH   7   8
ATOM      8  O   UNL     1     154.947 146.629 131.464  1.00  0.00    -0.347 OA
BRANCH   8   9
ATOM      9  C   UNL     1     153.644 146.849 131.999  1.00  0.00     0.281 C 
ATOM     10  C   UNL     1     152.005 143.933 130.456  1.00  0.00     0.041 C 
ATOM     11  C   UNL     1     152.695 145.296 130.512  1.00  0.00     0.150 C 
ATOM     12  C   UNL     1     151.877 146.362 129.749  1.00  0.00     0.174 C 
ATOM     13  O   UNL     1     152.872 145.664 131.874  1.00  0.00    -0.344 OA
ATOM     14  C   UNL     1     152.594 147.718 129.860  1.00  0.00     0.179 C 
ATOM     15  C   UNL     1     152.911 148.042 131.331  1.00  0.00     0.202 C 
BRANCH  12  16
ATOM     16  O   UNL     1     150.585 146.459 130.295  1.00  0.00    -0.388 OA
ATOM     17  H   UNL     1     150.527 145.813 131.044  1.00  0.00     0.211 HD
ENDBRANCH  12  16
BRANCH  14  18
ATOM     18  O   UNL     1     151.801 148.738 129.306  1.00  0.00    -0.387 OA
ATOM     19  H   UNL     1     151.667 149.419 130.017  1.00  0.00     0.211 HD
ENDBRANCH  14  18
BRANCH  15  20
ATOM     20  O   UNL     1     151.725 148.300 132.045  1.00  0.00    -0.385 OA
ATOM     21  H   UNL     1     151.194 147.460 132.046  1.00  0.00     0.211 HD
ENDBRANCH  15  20
ENDBRANCH   8   9
ENDBRANCH   7   8
ENDBRANCH   1   7
BRANCH   2  22
ATOM     22  O   UNL     1     157.017 145.626 135.607  1.00  0.00    -0.387 OA
ATOM     23  H   UNL     1     157.967 145.421 135.400  1.00  0.00     0.211 HD
ENDBRANCH   2  22
BRANCH   3  24
ATOM     24  O   UNL     1     157.119 148.137 136.774  1.00  0.00    -0.387 OA
ATOM     25  H   UNL     1     156.802 148.937 137.277  1.00  0.00     0.211 HD
ENDBRANCH   3  24
BRANCH   5  26
ATOM     26  O   UNL     1     153.908 145.240 135.703  1.00  0.00    -0.454 OA
BRANCH  26  27
ATOM     27  C   UNL     1     153.129 144.357 134.946  1.00  0.00     0.214 A 
ATOM     28  C   UNL     1     151.789 144.663 134.654  1.00  0.00     0.180 A 
ATOM     29  C   UNL     1     153.677 143.166 134.446  1.00  0.00     0.239 A 
ATOM     30  O   UNL     1     151.085 143.871 133.850  1.00  0.00    -0.452 OA
ATOM     31  C   UNL     1     152.894 142.334 133.619  1.00  0.00     0.111 A 
ATOM     32  O   UNL     1     154.862 142.858 134.747  1.00  0.00    -0.285 OA
ATOM     33  C   UNL     1     151.572 142.751 133.326  1.00  0.00     0.146 A 
ATOM     34  C   UNL     1     153.369 141.118 133.075  1.00  0.00     0.134 A 
ATOM     35  C   UNL     1     150.757 141.983 132.486  1.00  0.00     0.094 A 
ATOM     36  C   UNL     1     152.532 140.354 132.244  1.00  0.00     0.093 A 
ATOM     37  C   UNL     1     151.238 140.789 131.941  1.00  0.00     0.123 A 
BRANCH  28  38
ATOM     38  C   UNL     1     151.136 145.865 135.206  1.00  0.00     0.025 A 
ATOM     39  C   UNL     1     150.615 146.851 134.353  1.00  0.00     0.062 A 
ATOM     40  C   UNL     1     151.098 146.063 136.594  1.00  0.00     0.016 A 
ATOM     41  C   UNL     1     150.047 148.021 134.882  1.00  0.00     0.158 A 
ATOM     42  C   UNL     1     150.525 147.222 137.124  1.00  0.00     0.051 A 
ATOM     43  C   UNL     1     150.004 148.205 136.275  1.00  0.00     0.157 A 
BRANCH  41  44
ATOM     44  O   UNL     1     149.548 149.007 134.030  1.00  0.00    -0.504 OA
ATOM     45  H   UNL     1     149.383 148.821 133.046  1.00  0.00     0.293 HD
ENDBRANCH  41  44
BRANCH  43  46
ATOM     46  O   UNL     1     149.456 149.358 136.831  1.00  0.00    -0.504 OA
ATOM     47  H   UNL     1     148.500 149.391 137.165  1.00  0.00     0.293 HD
ENDBRANCH  43  46
ENDBRANCH  28  38
BRANCH  34  48
ATOM     48  O   UNL     1     154.661 140.664 133.350  1.00  0.00    -0.507 OA
ATOM     49  H   UNL     1     155.360 141.275 133.758  1.00  0.00     0.293 HD
ENDBRANCH  34  48
BRANCH  37  50
ATOM     50  O   UNL     1     150.436 140.019 131.101  1.00  0.00    -0.508 OA
ATOM     51  H   UNL     1     149.439 139.922 131.262  1.00  0.00     0.293 HD
ENDBRANCH  37  50
ENDBRANCH  26  27
ENDBRANCH   5  26
BRANCH   4  52
ATOM     52  O   UNL     1     154.172 148.477 137.051  1.00  0.00    -0.384 OA
ATOM     53  H   UNL     1     153.204 148.256 137.077  1.00  0.00     0.211 HD
ENDBRANCH   4  52
TORSDOF 16
ENDMDL
MODEL 3
REMARK VINA RESULT:    13.077      1.797      6.561
REMARK INTER + INTRA:          20.001
REMARK INTER:                  16.678
REMARK INTRA:                   3.323
REMARK UNBOUND:                -1.485
REMARK SMILES C[C@@H]1O[C@@H](OC[C@@H]2O[C@@H](Oc3c(-c4ccc(O)c(O)c4)oc4cc(O)cc(O)c4c3=O)[C@H](O)[C@@H](O)[C@H]2O)[C@H](O)[C@H](O)[C@@H]1O
REMARK SMILES IDX 7 1 36 2 34 3 32 4 9 5 8 6 6 7 5 8 4 9 1 10 2 11 42 12 3 13
REMARK SMILES IDX 40 14 38 15 43 16 41 18 39 20 37 22 35 24 10 26 11 27 12 28
REMARK SMILES IDX 30 29 21 30 29 31 31 32 22 33 27 34 23 35 26 36 24 37 13 38
REMARK SMILES IDX 20 39 14 40 18 41 15 42 16 43 19 44 17 46 28 48 25 50 33 52
REMARK H PARENT 43 17 41 19 39 21 37 23 35 25 19 45 17 47 28 49 25 51 33 53
REMARK Flexibility Score: inf
ROOT
ATOM      1  C   UNL     1     152.331 146.884 136.198  1.00  0.00     0.180 C 
ATOM      2  C   UNL     1     151.161 147.528 137.017  1.00  0.00     0.177 C 
ATOM      3  C   UNL     1     150.763 148.875 136.408  1.00  0.00     0.180 C 
ATOM      4  C   UNL     1     150.384 148.688 134.924  1.00  0.00     0.214 C 
ATOM      5  C   UNL     1     151.353 147.706 134.209  1.00  0.00     0.339 C 
ATOM      6  O   UNL     1     152.551 147.522 134.945  1.00  0.00    -0.332 OA
ENDROOT
BRANCH   1   7
ATOM      7  C   UNL     1     153.654 146.951 136.972  1.00  0.00     0.198 C 
BRANCH   7   8
ATOM      8  O   UNL     1     154.204 145.654 137.124  1.00  0.00    -0.347 OA
BRANCH   8   9
ATOM      9  C   UNL     1     155.549 145.594 136.652  1.00  0.00     0.281 C 
ATOM     10  C   UNL     1     156.321 149.181 136.974  1.00  0.00     0.041 C 
ATOM     11  C   UNL     1     155.644 147.929 136.414  1.00  0.00     0.150 C 
ATOM     12  C   UNL     1     155.766 147.876 134.875  1.00  0.00     0.174 C 
ATOM     13  O   UNL     1     156.234 146.783 137.014  1.00  0.00    -0.344 OA
ATOM     14  C   UNL     1     155.099 146.589 134.363  1.00  0.00     0.179 C 
ATOM     15  C   UNL     1     155.641 145.363 135.121  1.00  0.00     0.202 C 
BRANCH  12  16
ATOM     16  O   UNL     1     157.120 147.895 134.497  1.00  0.00    -0.388 OA
ATOM     17  H   UNL     1     157.436 146.956 134.468  1.00  0.00     0.211 HD
ENDBRANCH  12  16
BRANCH  14  18
ATOM     18  O   UNL     1     155.323 146.435 132.985  1.00  0.00    -0.387 OA
ATOM     19  H   UNL     1     155.934 147.167 132.707  1.00  0.00     0.211 HD
ENDBRANCH  14  18
BRANCH  15  20
ATOM     20  O   UNL     1     156.986 145.129 134.780  1.00  0.00    -0.385 OA
ATOM     21  H   UNL     1     157.535 145.796 135.272  1.00  0.00     0.211 HD
ENDBRANCH  15  20
ENDBRANCH   8   9
ENDBRANCH   7   8
ENDBRANCH   1   7
BRANCH   2  22
ATOM     22  O   UNL     1     150.046 146.670 137.018  1.00  0.00    -0.387 OA
ATOM     23  H   UNL     1     150.386 145.757 137.212  1.00  0.00     0.211 HD
ENDBRANCH   2  22
BRANCH   3  24
ATOM     24  O   UNL     1     149.683 149.415 137.125  1.00  0.00    -0.387 OA
ATOM     25  H   UNL     1     149.056 148.665 137.319  1.00  0.00     0.211 HD
ENDBRANCH   3  24
BRANCH   5  26
ATOM     26  O   UNL     1     150.711 146.449 133.963  1.00  0.00    -0.454 OA
BRANCH  26  27
ATOM     27  C   UNL     1     151.441 145.278 133.727  1.00  0.00     0.214 A 
ATOM     28  C   UNL     1     152.126 145.099 132.514  1.00  0.00     0.180 A 
ATOM     29  C   UNL     1     151.524 144.276 134.706  1.00  0.00     0.239 A 
ATOM     30  O   UNL     1     152.900 144.033 132.337  1.00  0.00    -0.452 OA
ATOM     31  C   UNL     1     152.331 143.143 134.476  1.00  0.00     0.111 A 
ATOM     32  O   UNL     1     150.871 144.404 135.777  1.00  0.00    -0.285 OA
ATOM     33  C   UNL     1     153.035 143.074 133.248  1.00  0.00     0.146 A 
ATOM     34  C   UNL     1     152.470 142.089 135.408  1.00  0.00     0.134 A 
ATOM     35  C   UNL     1     153.878 141.990 132.974  1.00  0.00     0.094 A 
ATOM     36  C   UNL     1     153.310 141.003 135.110  1.00  0.00     0.093 A 
ATOM     37  C   UNL     1     154.019 140.958 133.906  1.00  0.00     0.123 A 
BRANCH  28  38
ATOM     38  C   UNL     1     152.023 146.084 131.420  1.00  0.00     0.025 A 
ATOM     39  C   UNL     1     152.186 147.455 131.676  1.00  0.00     0.062 A 
ATOM     40  C   UNL     1     151.690 145.658 130.126  1.00  0.00     0.016 A 
ATOM     41  C   UNL     1     152.029 148.394 130.644  1.00  0.00     0.158 A 
ATOM     42  C   UNL     1     151.543 146.589 129.095  1.00  0.00     0.051 A 
ATOM     43  C   UNL     1     151.705 147.956 129.347  1.00  0.00     0.157 A 
BRANCH  41  44
ATOM     44  O   UNL     1     152.172 149.756 130.906  1.00  0.00    -0.504 OA
ATOM     45  H   UNL     1     151.522 150.250 131.510  1.00  0.00     0.293 HD
ENDBRANCH  41  44
BRANCH  43  46
ATOM     46  O   UNL     1     151.534 148.862 128.304  1.00  0.00    -0.504 OA
ATOM     47  H   UNL     1     151.897 148.685 127.374  1.00  0.00     0.293 HD
ENDBRANCH  43  46
ENDBRANCH  28  38
BRANCH  34  48
ATOM     48  O   UNL     1     151.783 142.111 136.624  1.00  0.00    -0.507 OA
ATOM     49  H   UNL     1     150.872 141.676 136.725  1.00  0.00     0.293 HD
ENDBRANCH  34  48
BRANCH  37  50
ATOM     50  O   UNL     1     154.857 139.876 133.645  1.00  0.00    -0.508 OA
ATOM     51  H   UNL     1     155.812 140.009 133.328  1.00  0.00     0.293 HD
ENDBRANCH  37  50
ENDBRANCH  26  27
ENDBRANCH   5  26
BRANCH   4  52
ATOM     52  O   UNL     1     150.350 149.933 134.268  1.00  0.00    -0.384 OA
ATOM     53  H   UNL     1     149.857 149.807 133.414  1.00  0.00     0.211 HD
ENDBRANCH   4  52
TORSDOF 16
ENDMDL
MODEL 4
REMARK VINA RESULT:    13.127      1.995      5.757
REMARK INTER + INTRA:          20.084
REMARK INTER:                  17.786
REMARK INTRA:                   2.297
REMARK UNBOUND:                -1.485
REMARK SMILES C[C@@H]1O[C@@H](OC[C@@H]2O[C@@H](Oc3c(-c4ccc(O)c(O)c4)oc4cc(O)cc(O)c4c3=O)[C@H](O)[C@@H](O)[C@H]2O)[C@H](O)[C@H](O)[C@@H]1O
REMARK SMILES IDX 7 1 36 2 34 3 32 4 9 5 8 6 6 7 5 8 4 9 1 10 2 11 42 12 3 13
REMARK SMILES IDX 40 14 38 15 43 16 41 18 39 20 37 22 35 24 10 26 11 27 12 28
REMARK SMILES IDX 30 29 21 30 29 31 31 32 22 33 27 34 23 35 26 36 24 37 13 38
REMARK SMILES IDX 20 39 14 40 18 41 15 42 16 43 19 44 17 46 28 48 25 50 33 52
REMARK H PARENT 43 17 41 19 39 21 37 23 35 25 19 45 17 47 28 49 25 51 33 53
REMARK Flexibility Score: inf
ROOT
ATOM      1  C   UNL     1     155.459 145.648 133.360  1.00  0.00     0.180 C 
ATOM      2  C   UNL     1     156.475 146.535 132.563  1.00  0.00     0.177 C 
ATOM      3  C   UNL     1     156.117 146.547 131.075  1.00  0.00     0.180 C 
ATOM      4  C   UNL     1     154.666 147.036 130.888  1.00  0.00     0.214 C 
ATOM      5  C   UNL     1     153.720 146.435 131.966  1.00  0.00     0.339 C 
ATOM      6  O   UNL     1     154.301 145.310 132.604  1.00  0.00    -0.332 OA
ENDROOT
BRANCH   1   7
ATOM      7  C   UNL     1     156.103 144.327 133.804  1.00  0.00     0.198 C 
BRANCH   7   8
ATOM      8  O   UNL     1     155.202 143.582 134.605  1.00  0.00    -0.347 OA
BRANCH   8   9
ATOM      9  C   UNL     1     153.954 143.383 133.947  1.00  0.00     0.281 C 
ATOM     10  C   UNL     1     151.780 144.294 136.778  1.00  0.00     0.041 C 
ATOM     11  C   UNL     1     152.787 143.460 135.986  1.00  0.00     0.150 C 
ATOM     12  C   UNL     1     152.346 141.981 135.914  1.00  0.00     0.174 C 
ATOM     13  O   UNL     1     152.920 144.018 134.684  1.00  0.00    -0.344 OA
ATOM     14  C   UNL     1     153.371 141.192 135.084  1.00  0.00     0.179 C 
ATOM     15  C   UNL     1     153.618 141.884 133.731  1.00  0.00     0.202 C 
BRANCH  12  16
ATOM     16  O   UNL     1     151.076 141.885 135.320  1.00  0.00    -0.388 OA
ATOM     17  H   UNL     1     150.419 142.274 135.952  1.00  0.00     0.211 HD
ENDBRANCH  12  16
BRANCH  14  18
ATOM     18  O   UNL     1     152.924 139.877 134.873  1.00  0.00    -0.387 OA
ATOM     19  H   UNL     1     151.951 139.930 134.679  1.00  0.00     0.211 HD
ENDBRANCH  14  18
BRANCH  15  20
ATOM     20  O   UNL     1     152.475 141.791 132.915  1.00  0.00    -0.385 OA
ATOM     21  H   UNL     1     152.155 140.851 132.963  1.00  0.00     0.211 HD
ENDBRANCH  15  20
ENDBRANCH   8   9
ENDBRANCH   7   8
ENDBRANCH   1   7
BRANCH   2  22
ATOM     22  O   UNL     1     156.453 147.852 133.058  1.00  0.00    -0.387 OA
ATOM     23  H   UNL     1     156.029 148.415 132.358  1.00  0.00     0.211 HD
ENDBRANCH   2  22
BRANCH   3  24
ATOM     24  O   UNL     1     157.008 147.384 130.384  1.00  0.00    -0.387 OA
ATOM     25  H   UNL     1     156.481 148.163 130.053  1.00  0.00     0.211 HD
ENDBRANCH   3  24
BRANCH   5  26
ATOM     26  O   UNL     1     153.350 147.430 132.928  1.00  0.00    -0.454 OA
BRANCH  26  27
ATOM     27  C   UNL     1     152.087 147.444 133.531  1.00  0.00     0.214 A 
ATOM     28  C   UNL     1     151.030 146.699 132.983  1.00  0.00     0.180 A 
ATOM     29  C   UNL     1     151.861 148.179 134.704  1.00  0.00     0.239 A 
ATOM     30  O   UNL     1     149.862 146.634 133.616  1.00  0.00    -0.452 OA
ATOM     31  C   UNL     1     150.602 148.112 135.336  1.00  0.00     0.111 A 
ATOM     32  O   UNL     1     152.788 148.893 135.174  1.00  0.00    -0.285 OA
ATOM     33  C   UNL     1     149.612 147.287 134.746  1.00  0.00     0.146 A 
ATOM     34  C   UNL     1     150.290 148.821 136.519  1.00  0.00     0.134 A 
ATOM     35  C   UNL     1     148.353 147.154 135.343  1.00  0.00     0.094 A 
ATOM     36  C   UNL     1     149.017 148.685 137.097  1.00  0.00     0.093 A 
ATOM     37  C   UNL     1     148.057 147.848 136.520  1.00  0.00     0.123 A 
BRANCH  28  38
ATOM     38  C   UNL     1     151.186 145.959 131.715  1.00  0.00     0.025 A 
ATOM     39  C   UNL     1     151.285 144.559 131.713  1.00  0.00     0.062 A 
ATOM     40  C   UNL     1     151.308 146.662 130.508  1.00  0.00     0.016 A 
ATOM     41  C   UNL     1     151.493 143.863 130.511  1.00  0.00     0.158 A 
ATOM     42  C   UNL     1     151.505 145.972 129.309  1.00  0.00     0.051 A 
ATOM     43  C   UNL     1     151.604 144.577 129.304  1.00  0.00     0.157 A 
BRANCH  41  44
ATOM     44  O   UNL     1     151.611 142.473 130.515  1.00  0.00    -0.504 OA
ATOM     45  H   UNL     1     152.373 142.009 130.998  1.00  0.00     0.293 HD
ENDBRANCH  41  44
BRANCH  43  46
ATOM     46  O   UNL     1     151.818 143.918 128.097  1.00  0.00    -0.504 OA
ATOM     47  H   UNL     1     152.376 143.073 128.037  1.00  0.00     0.293 HD
ENDBRANCH  43  46
ENDBRANCH  28  38
BRANCH  34  48
ATOM     48  O   UNL     1     151.232 149.656 137.124  1.00  0.00    -0.507 OA
ATOM     49  H   UNL     1     152.202 149.374 137.223  1.00  0.00     0.293 HD
ENDBRANCH  34  48
BRANCH  37  50
ATOM     50  O   UNL     1     146.808 147.720 137.124  1.00  0.00    -0.508 OA
ATOM     51  H   UNL     1     146.587 146.932 137.723  1.00  0.00     0.293 HD
ENDBRANCH  37  50
ENDBRANCH  26  27
ENDBRANCH   5  26
BRANCH   4  52
ATOM     52  O   UNL     1     154.211 146.734 129.591  1.00  0.00    -0.384 OA
ATOM     53  H   UNL     1     154.615 145.865 129.328  1.00  0.00     0.211 HD
ENDBRANCH   4  52
TORSDOF 16
ENDMDL
