MODEL 1
REMARK VINA RESULT:    -4.254      0.000      0.000
REMARK INTER + INTRA:         -12.833
REMARK INTER:                 -11.217
REMARK INTRA:                  -1.616
REMARK UNBOUND:                -1.616
REMARK SMILES CCCCCCCCCCCCCCCCCCCCCCCCCCCCCC(=O)[O-]
REMARK SMILES IDX 16 1 17 2 18 3 19 4 20 5 21 6 22 7 23 8 24 9 25 10 26 11
REMARK SMILES IDX 27 12 28 13 29 14 30 15 31 16 32 17 15 18 14 19 13 20 12 21
REMARK SMILES IDX 11 22 10 23 9 24 8 25 7 26 6 27 5 28 4 29 3 30 2 31 1 32
REMARK H PARENT
REMARK Flexibility Score: inf
ROOT
ATOM      1  C   UNL     1       6.447  16.285  31.975  1.00  0.00     0.000 C 
ENDROOT
BRANCH   1   2
ATOM      2  C   UNL     1       6.564  16.513  33.494  1.00  0.00     0.000 C 
BRANCH   2   3
ATOM      3  C   UNL     1       5.445  17.433  34.029  1.00  0.00     0.000 C 
BRANCH   3   4
ATOM      4  C   UNL     1       4.662  18.155  32.919  1.00  0.00     0.000 C 
BRANCH   4   5
ATOM      5  C   UNL     1       4.017  19.466  33.398  1.00  0.00     0.000 C 
BRANCH   5   6
ATOM      6  C   UNL     1       3.277  19.308  34.735  1.00  0.00     0.000 C 
BRANCH   6   7
ATOM      7  C   UNL     1       2.185  20.369  34.935  1.00  0.00     0.000 C 
BRANCH   7   8
ATOM      8  C   UNL     1       1.174  20.339  33.779  1.00  0.00     0.000 C 
BRANCH   8   9
ATOM      9  C   UNL     1       0.679  21.741  33.389  1.00  0.00     0.000 C 
BRANCH   9  10
ATOM     10  C   UNL     1      -0.521  21.698  32.427  1.00  0.00     0.000 C 
BRANCH  10  11
ATOM     11  C   UNL     1      -0.403  20.557  31.395  1.00  0.00     0.000 C 
BRANCH  11  12
ATOM     12  C   UNL     1      -1.182  20.808  30.090  1.00  0.00     0.000 C 
BRANCH  12  13
ATOM     13  C   UNL     1      -1.565  19.523  29.324  1.00  0.00     0.006 C 
BRANCH  13  14
ATOM     14  C   UNL     1      -1.645  19.710  27.799  1.00  0.00     0.053 C 
BRANCH  14  15
ATOM     15  C   UNL     1      -3.059  19.878  27.331  1.00  0.00     0.041 C 
ATOM     16  O   UNL     1      -3.848  18.895  27.334  1.00  0.00    -0.550 OA
ATOM     17  O   UNL     1      -3.507  21.120  26.896  1.00  0.00    -0.550 OA
ENDBRANCH  14  15
ENDBRANCH  13  14
ENDBRANCH  12  13
ENDBRANCH  11  12
ENDBRANCH  10  11
ENDBRANCH   9  10
ENDBRANCH   8   9
ENDBRANCH   7   8
ENDBRANCH   6   7
ENDBRANCH   5   6
ENDBRANCH   4   5
ENDBRANCH   3   4
ENDBRANCH   2   3
ENDBRANCH   1   2
BRANCH   1  18
ATOM     18  C   UNL     1       7.694  15.612  31.379  1.00  0.00     0.000 C 
BRANCH  18  19
ATOM     19  C   UNL     1       7.427  14.163  30.937  1.00  0.00     0.000 C 
BRANCH  19  20
ATOM     20  C   UNL     1       7.670  13.943  29.435  1.00  0.00     0.000 C 
BRANCH  20  21
ATOM     21  C   UNL     1       9.100  14.269  28.955  1.00  0.00     0.000 C 
BRANCH  21  22
ATOM     22  C   UNL     1       9.434  13.789  27.529  1.00  0.00     0.000 C 
BRANCH  22  23
ATOM     23  C   UNL     1      10.866  13.248  27.338  1.00  0.00     0.000 C 
BRANCH  23  24
ATOM     24  C   UNL     1      11.837  14.213  26.633  1.00  0.00    -0.000 C 
BRANCH  24  25
ATOM     25  C   UNL     1      12.320  13.688  25.273  1.00  0.00    -0.000 C 
BRANCH  25  26
ATOM     26  C   UNL     1      11.891  14.629  24.137  1.00  0.00    -0.000 C 
BRANCH  26  27
ATOM     27  C   UNL     1      10.558  14.218  23.486  1.00  0.00    -0.000 C 
BRANCH  27  28
ATOM     28  C   UNL     1       9.411  15.233  23.649  1.00  0.00    -0.000 C 
BRANCH  28  29
ATOM     29  C   UNL     1       8.267  14.710  24.531  1.00  0.00    -0.000 C 
BRANCH  29  30
ATOM     30  C   UNL     1       7.054  14.316  23.675  1.00  0.00    -0.000 C 
BRANCH  30  31
ATOM     31  C   UNL     1       5.723  14.492  24.421  1.00  0.00    -0.003 C 
ATOM     32  C   UNL     1       5.703  15.737  25.306  1.00  0.00     0.004 C 
ENDBRANCH  30  31
ENDBRANCH  29  30
ENDBRANCH  28  29
ENDBRANCH  27  28
ENDBRANCH  26  27
ENDBRANCH  25  26
ENDBRANCH  24  25
ENDBRANCH  23  24
ENDBRANCH  22  23
ENDBRANCH  21  22
ENDBRANCH  20  21
ENDBRANCH  19  20
ENDBRANCH  18  19
ENDBRANCH   1  18
TORSDOF 28
ENDMDL
MODEL 2
REMARK VINA RESULT:    -4.154      3.033     11.614
REMARK INTER + INTRA:         -12.571
REMARK INTER:                 -10.978
REMARK INTRA:                  -1.592
REMARK UNBOUND:                -1.616
REMARK SMILES CCCCCCCCCCCCCCCCCCCCCCCCCCCCCC(=O)[O-]
REMARK SMILES IDX 16 1 17 2 18 3 19 4 20 5 21 6 22 7 23 8 24 9 25 10 26 11
REMARK SMILES IDX 27 12 28 13 29 14 30 15 31 16 32 17 15 18 14 19 13 20 12 21
REMARK SMILES IDX 11 22 10 23 9 24 8 25 7 26 6 27 5 28 4 29 3 30 2 31 1 32
REMARK H PARENT
REMARK Flexibility Score: inf
ROOT
ATOM      1  C   UNL     1       5.850  16.878  32.552  1.00  0.00     0.000 C 
ENDROOT
BRANCH   1   2
ATOM      2  C   UNL     1       7.212  16.289  32.140  1.00  0.00     0.000 C 
BRANCH   2   3
ATOM      3  C   UNL     1       7.059  15.079  31.195  1.00  0.00     0.000 C 
BRANCH   3   4
ATOM      4  C   UNL     1       8.394  14.592  30.601  1.00  0.00     0.000 C 
BRANCH   4   5
ATOM      5  C   UNL     1       8.208  13.711  29.356  1.00  0.00     0.000 C 
BRANCH   5   6
ATOM      6  C   UNL     1       8.924  14.275  28.119  1.00  0.00     0.000 C 
BRANCH   6   7
ATOM      7  C   UNL     1      10.045  13.355  27.613  1.00  0.00     0.000 C 
BRANCH   7   8
ATOM      8  C   UNL     1      11.283  14.170  27.211  1.00  0.00     0.000 C 
BRANCH   8   9
ATOM      9  C   UNL     1      12.210  13.404  26.254  1.00  0.00     0.000 C 
BRANCH   9  10
ATOM     10  C   UNL     1      12.473  14.170  24.945  1.00  0.00     0.000 C 
BRANCH  10  11
ATOM     11  C   UNL     1      11.333  13.987  23.922  1.00  0.00     0.000 C 
BRANCH  11  12
ATOM     12  C   UNL     1      10.660  15.304  23.491  1.00  0.00     0.000 C 
BRANCH  12  13
ATOM     13  C   UNL     1       9.121  15.224  23.386  1.00  0.00     0.006 C 
BRANCH  13  14
ATOM     14  C   UNL     1       8.457  14.466  24.547  1.00  0.00     0.053 C 
BRANCH  14  15
ATOM     15  C   UNL     1       6.963  14.568  24.499  1.00  0.00     0.041 C 
ATOM     16  O   UNL     1       6.307  13.872  23.678  1.00  0.00    -0.550 OA
ATOM     17  O   UNL     1       6.294  15.427  25.364  1.00  0.00    -0.550 OA
ENDBRANCH  14  15
ENDBRANCH  13  14
ENDBRANCH  12  13
ENDBRANCH  11  12
ENDBRANCH  10  11
ENDBRANCH   9  10
ENDBRANCH   8   9
ENDBRANCH   7   8
ENDBRANCH   6   7
ENDBRANCH   5   6
ENDBRANCH   4   5
ENDBRANCH   3   4
ENDBRANCH   2   3
ENDBRANCH   1   2
BRANCH   1  18
ATOM     18  C   UNL     1       5.579  16.747  34.060  1.00  0.00     0.000 C 
BRANCH  18  19
ATOM     19  C   UNL     1       4.392  17.609  34.522  1.00  0.00     0.000 C 
BRANCH  19  20
ATOM     20  C   UNL     1       4.768  19.088  34.713  1.00  0.00     0.000 C 
BRANCH  20  21
ATOM     21  C   UNL     1       3.600  20.081  34.538  1.00  0.00     0.000 C 
BRANCH  21  22
ATOM     22  C   UNL     1       2.345  19.498  33.858  1.00  0.00     0.000 C 
BRANCH  22  23
ATOM     23  C   UNL     1       1.876  20.249  32.595  1.00  0.00     0.000 C 
BRANCH  23  24
ATOM     24  C   UNL     1       0.842  21.361  32.846  1.00  0.00    -0.000 C 
BRANCH  24  25
ATOM     25  C   UNL     1      -0.502  21.097  32.152  1.00  0.00    -0.000 C 
BRANCH  25  26
ATOM     26  C   UNL     1      -0.295  20.371  30.814  1.00  0.00    -0.000 C 
BRANCH  26  27
ATOM     27  C   UNL     1      -1.562  20.344  29.941  1.00  0.00    -0.000 C 
BRANCH  27  28
ATOM     28  C   UNL     1      -1.592  19.241  28.866  1.00  0.00    -0.000 C 
BRANCH  28  29
ATOM     29  C   UNL     1      -2.881  19.252  28.031  1.00  0.00    -0.000 C 
BRANCH  29  30
ATOM     30  C   UNL     1      -2.682  20.046  26.731  1.00  0.00    -0.000 C 
BRANCH  30  31
ATOM     31  C   UNL     1      -1.266  20.627  26.604  1.00  0.00    -0.003 C 
ATOM     32  C   UNL     1      -1.143  21.637  25.465  1.00  0.00     0.004 C 
ENDBRANCH  30  31
ENDBRANCH  29  30
ENDBRANCH  28  29
ENDBRANCH  27  28
ENDBRANCH  26  27
ENDBRANCH  25  26
ENDBRANCH  24  25
ENDBRANCH  23  24
ENDBRANCH  22  23
ENDBRANCH  21  22
ENDBRANCH  20  21
ENDBRANCH  19  20
ENDBRANCH  18  19
ENDBRANCH   1  18
TORSDOF 28
ENDMDL
MODEL 3
REMARK VINA RESULT:    -3.906      7.901     13.617
REMARK INTER + INTRA:         -11.916
REMARK INTER:                 -10.138
REMARK INTRA:                  -1.777
REMARK UNBOUND:                -1.616
REMARK SMILES CCCCCCCCCCCCCCCCCCCCCCCCCCCCCC(=O)[O-]
REMARK SMILES IDX 16 1 17 2 18 3 19 4 20 5 21 6 22 7 23 8 24 9 25 10 26 11
REMARK SMILES IDX 27 12 28 13 29 14 30 15 31 16 32 17 15 18 14 19 13 20 12 21
REMARK SMILES IDX 11 22 10 23 9 24 8 25 7 26 6 27 5 28 4 29 3 30 2 31 1 32
REMARK H PARENT
REMARK Flexibility Score: inf
ROOT
ATOM      1  C   UNL     1       8.722  11.148  17.489  1.00  0.00     0.000 C 
ENDROOT
BRANCH   1   2
ATOM      2  C   UNL     1       8.501  11.970  16.205  1.00  0.00     0.000 C 
BRANCH   2   3
ATOM      3  C   UNL     1       7.072  11.801  15.647  1.00  0.00     0.000 C 
BRANCH   3   4
ATOM      4  C   UNL     1       6.209  10.819  16.460  1.00  0.00     0.000 C 
BRANCH   4   5
ATOM      5  C   UNL     1       5.583   9.714  15.594  1.00  0.00     0.000 C 
BRANCH   5   6
ATOM      6  C   UNL     1       4.197  10.098  15.054  1.00  0.00     0.000 C 
BRANCH   6   7
ATOM      7  C   UNL     1       3.054   9.582  15.939  1.00  0.00     0.000 C 
BRANCH   7   8
ATOM      8  C   UNL     1       2.148   8.618  15.159  1.00  0.00     0.000 C 
BRANCH   8   9
ATOM      9  C   UNL     1       0.702   8.613  15.678  1.00  0.00     0.000 C 
BRANCH   9  10
ATOM     10  C   UNL     1       0.600   9.045  17.152  1.00  0.00     0.000 C 
BRANCH  10  11
ATOM     11  C   UNL     1      -0.843   9.414  17.555  1.00  0.00     0.000 C 
BRANCH  11  12
ATOM     12  C   UNL     1      -0.948  10.692  18.409  1.00  0.00     0.000 C 
BRANCH  12  13
ATOM     13  C   UNL     1      -0.895  10.442  19.932  1.00  0.00     0.006 C 
BRANCH  13  14
ATOM     14  C   UNL     1      -2.127   9.705  20.485  1.00  0.00     0.053 C 
BRANCH  14  15
ATOM     15  C   UNL     1      -3.398  10.197  19.862  1.00  0.00     0.041 C 
ATOM     16  O   UNL     1      -3.926  11.268  20.264  1.00  0.00    -0.550 OA
ATOM     17  O   UNL     1      -3.996   9.476  18.835  1.00  0.00    -0.550 OA
ENDBRANCH  14  15
ENDBRANCH  13  14
ENDBRANCH  12  13
ENDBRANCH  11  12
ENDBRANCH  10  11
ENDBRANCH   9  10
ENDBRANCH   8   9
ENDBRANCH   7   8
ENDBRANCH   6   7
ENDBRANCH   5   6
ENDBRANCH   4   5
ENDBRANCH   3   4
ENDBRANCH   2   3
ENDBRANCH   1   2
BRANCH   1  18
ATOM     18  C   UNL     1       9.330  11.982  18.629  1.00  0.00     0.000 C 
BRANCH  18  19
ATOM     19  C   UNL     1       8.790  13.422  18.658  1.00  0.00     0.000 C 
BRANCH  19  20
ATOM     20  C   UNL     1       9.479  14.295  19.720  1.00  0.00     0.000 C 
BRANCH  20  21
ATOM     21  C   UNL     1       8.801  14.288  21.106  1.00  0.00     0.000 C 
BRANCH  21  22
ATOM     22  C   UNL     1       9.588  15.007  22.220  1.00  0.00     0.000 C 
BRANCH  22  23
ATOM     23  C   UNL     1      10.800  14.230  22.773  1.00  0.00     0.000 C 
BRANCH  23  24
ATOM     24  C   UNL     1      11.365  14.765  24.101  1.00  0.00    -0.000 C 
BRANCH  24  25
ATOM     25  C   UNL     1      12.713  14.134  24.476  1.00  0.00    -0.000 C 
BRANCH  25  26
ATOM     26  C   UNL     1      12.596  13.321  25.774  1.00  0.00    -0.000 C 
BRANCH  26  27
ATOM     27  C   UNL     1      11.658  13.969  26.808  1.00  0.00    -0.000 C 
BRANCH  27  28
ATOM     28  C   UNL     1      10.269  13.314  26.931  1.00  0.00    -0.000 C 
BRANCH  28  29
ATOM     29  C   UNL     1       9.116  14.304  26.706  1.00  0.00    -0.000 C 
BRANCH  29  30
ATOM     30  C   UNL     1       8.278  13.897  25.484  1.00  0.00    -0.000 C 
BRANCH  30  31
ATOM     31  C   UNL     1       7.164  14.907  25.170  1.00  0.00    -0.003 C 
ATOM     32  C   UNL     1       6.334  14.509  23.952  1.00  0.00     0.004 C 
ENDBRANCH  30  31
ENDBRANCH  29  30
ENDBRANCH  28  29
ENDBRANCH  27  28
ENDBRANCH  26  27
ENDBRANCH  25  26
ENDBRANCH  24  25
ENDBRANCH  23  24
ENDBRANCH  22  23
ENDBRANCH  21  22
ENDBRANCH  20  21
ENDBRANCH  19  20
ENDBRANCH  18  19
ENDBRANCH   1  18
TORSDOF 28
ENDMDL
MODEL 4
REMARK VINA RESULT:    -3.817      2.784     11.573
REMARK INTER + INTRA:         -11.682
REMARK INTER:                  -9.979
REMARK INTRA:                  -1.703
REMARK UNBOUND:                -1.616
REMARK SMILES CCCCCCCCCCCCCCCCCCCCCCCCCCCCCC(=O)[O-]
REMARK SMILES IDX 16 1 17 2 18 3 19 4 20 5 21 6 22 7 23 8 24 9 25 10 26 11
REMARK SMILES IDX 27 12 28 13 29 14 30 15 31 16 32 17 15 18 14 19 13 20 12 21
REMARK SMILES IDX 11 22 10 23 9 24 8 25 7 26 6 27 5 28 4 29 3 30 2 31 1 32
REMARK H PARENT
REMARK Flexibility Score: inf
ROOT
ATOM      1  C   UNL     1       7.688  14.615  31.435  1.00  0.00     0.000 C 
ENDROOT
BRANCH   1   2
ATOM      2  C   UNL     1       7.511  14.090  29.998  1.00  0.00     0.000 C 
BRANCH   2   3
ATOM      3  C   UNL     1       8.796  14.253  29.158  1.00  0.00     0.000 C 
BRANCH   3   4
ATOM      4  C   UNL     1       8.803  13.401  27.876  1.00  0.00     0.000 C 
BRANCH   4   5
ATOM      5  C   UNL     1       9.985  13.724  26.949  1.00  0.00     0.000 C 
BRANCH   5   6
ATOM      6  C   UNL     1      11.279  14.025  27.721  1.00  0.00     0.000 C 
BRANCH   6   7
ATOM      7  C   UNL     1      12.489  14.213  26.796  1.00  0.00     0.000 C 
BRANCH   7   8
ATOM      8  C   UNL     1      12.443  13.221  25.625  1.00  0.00     0.000 C 
BRANCH   8   9
ATOM      9  C   UNL     1      12.918  13.844  24.302  1.00  0.00     0.000 C 
BRANCH   9  10
ATOM     10  C   UNL     1      11.937  14.898  23.759  1.00  0.00     0.000 C 
BRANCH  10  11
ATOM     11  C   UNL     1      10.637  14.266  23.222  1.00  0.00     0.000 C 
BRANCH  11  12
ATOM     12  C   UNL     1       9.411  15.196  23.293  1.00  0.00     0.000 C 
BRANCH  12  13
ATOM     13  C   UNL     1       8.307  14.716  24.260  1.00  0.00     0.006 C 
BRANCH  13  14
ATOM     14  C   UNL     1       6.913  14.627  23.616  1.00  0.00     0.053 C 
BRANCH  14  15
ATOM     15  C   UNL     1       5.819  14.821  24.622  1.00  0.00     0.041 C 
ATOM     16  O   UNL     1       5.870  15.783  25.435  1.00  0.00    -0.550 OA
ATOM     17  O   UNL     1       4.742  13.944  24.659  1.00  0.00    -0.550 OA
ENDBRANCH  14  15
ENDBRANCH  13  14
ENDBRANCH  12  13
ENDBRANCH  11  12
ENDBRANCH  10  11
ENDBRANCH   9  10
ENDBRANCH   8   9
ENDBRANCH   7   8
ENDBRANCH   6   7
ENDBRANCH   5   6
ENDBRANCH   4   5
ENDBRANCH   3   4
ENDBRANCH   2   3
ENDBRANCH   1   2
BRANCH   1  18
ATOM     18  C   UNL     1       7.497  16.137  31.538  1.00  0.00     0.000 C 
BRANCH  18  19
ATOM     19  C   UNL     1       6.276  16.521  32.391  1.00  0.00     0.000 C 
BRANCH  19  20
ATOM     20  C   UNL     1       6.377  17.941  32.972  1.00  0.00     0.000 C 
BRANCH  20  21
ATOM     21  C   UNL     1       5.029  18.674  33.130  1.00  0.00     0.000 C 
BRANCH  21  22
ATOM     22  C   UNL     1       4.069  18.059  34.167  1.00  0.00     0.000 C 
BRANCH  22  23
ATOM     23  C   UNL     1       2.635  18.628  34.153  1.00  0.00     0.000 C 
BRANCH  23  24
ATOM     24  C   UNL     1       2.472  19.961  33.401  1.00  0.00    -0.000 C 
BRANCH  24  25
ATOM     25  C   UNL     1       1.405  19.901  32.299  1.00  0.00    -0.000 C 
BRANCH  25  26
ATOM     26  C   UNL     1       0.296  20.934  32.553  1.00  0.00    -0.000 C 
BRANCH  26  27
ATOM     27  C   UNL     1      -0.501  21.285  31.284  1.00  0.00    -0.000 C 
BRANCH  27  28
ATOM     28  C   UNL     1      -1.278  20.114  30.655  1.00  0.00    -0.000 C 
BRANCH  28  29
ATOM     29  C   UNL     1      -1.367  20.205  29.124  1.00  0.00    -0.000 C 
BRANCH  29  30
ATOM     30  C   UNL     1      -1.995  18.932  28.537  1.00  0.00    -0.000 C 
BRANCH  30  31
ATOM     31  C   UNL     1      -2.853  19.216  27.295  1.00  0.00    -0.003 C 
ATOM     32  C   UNL     1      -3.298  20.674  27.207  1.00  0.00     0.004 C 
ENDBRANCH  30  31
ENDBRANCH  29  30
ENDBRANCH  28  29
ENDBRANCH  27  28
ENDBRANCH  26  27
ENDBRANCH  25  26
ENDBRANCH  24  25
ENDBRANCH  23  24
ENDBRANCH  22  23
ENDBRANCH  21  22
ENDBRANCH  20  21
ENDBRANCH  19  20
ENDBRANCH  18  19
ENDBRANCH   1  18
TORSDOF 28
ENDMDL
MODEL 5
REMARK VINA RESULT:    -3.672      3.832     12.006
REMARK INTER + INTRA:         -11.299
REMARK INTER:                 -10.021
REMARK INTRA:                  -1.278
REMARK UNBOUND:                -1.616
REMARK SMILES CCCCCCCCCCCCCCCCCCCCCCCCCCCCCC(=O)[O-]
REMARK SMILES IDX 16 1 17 2 18 3 19 4 20 5 21 6 22 7 23 8 24 9 25 10 26 11
REMARK SMILES IDX 27 12 28 13 29 14 30 15 31 16 32 17 15 18 14 19 13 20 12 21
REMARK SMILES IDX 11 22 10 23 9 24 8 25 7 26 6 27 5 28 4 29 3 30 2 31 1 32
REMARK H PARENT
REMARK Flexibility Score: inf
ROOT
ATOM      1  C   UNL     1       4.633  19.044  33.595  1.00  0.00     0.000 C 
ENDROOT
BRANCH   1   2
ATOM      2  C   UNL     1       5.131  17.994  32.585  1.00  0.00     0.000 C 
BRANCH   2   3
ATOM      3  C   UNL     1       6.597  17.585  32.848  1.00  0.00     0.000 C 
BRANCH   3   4
ATOM      4  C   UNL     1       6.862  16.084  32.634  1.00  0.00     0.000 C 
BRANCH   4   5
ATOM      5  C   UNL     1       7.758  15.803  31.417  1.00  0.00     0.000 C 
BRANCH   5   6
ATOM      6  C   UNL     1       7.799  14.313  31.042  1.00  0.00     0.000 C 
BRANCH   6   7
ATOM      7  C   UNL     1       7.265  14.045  29.629  1.00  0.00     0.000 C 
BRANCH   7   8
ATOM      8  C   UNL     1       8.272  13.225  28.809  1.00  0.00     0.000 C 
BRANCH   8   9
ATOM      9  C   UNL     1       9.052  14.082  27.799  1.00  0.00     0.000 C 
BRANCH   9  10
ATOM     10  C   UNL     1      10.268  13.345  27.212  1.00  0.00     0.000 C 
BRANCH  10  11
ATOM     11  C   UNL     1      11.554  14.195  27.277  1.00  0.00     0.000 C 
BRANCH  11  12
ATOM     12  C   UNL     1      12.551  13.912  26.136  1.00  0.00     0.000 C 
BRANCH  12  13
ATOM     13  C   UNL     1      11.887  13.564  24.787  1.00  0.00     0.006 C 
BRANCH  13  14
ATOM     14  C   UNL     1      11.461  14.794  23.967  1.00  0.00     0.053 C 
BRANCH  14  15
ATOM     15  C   UNL     1      10.032  14.704  23.526  1.00  0.00     0.041 C 
ATOM     16  O   UNL     1       9.103  14.734  24.377  1.00  0.00    -0.550 OA
ATOM     17  O   UNL     1       9.725  14.592  22.175  1.00  0.00    -0.550 OA
ENDBRANCH  14  15
ENDBRANCH  13  14
ENDBRANCH  12  13
ENDBRANCH  11  12
ENDBRANCH  10  11
ENDBRANCH   9  10
ENDBRANCH   8   9
ENDBRANCH   7   8
ENDBRANCH   6   7
ENDBRANCH   5   6
ENDBRANCH   4   5
ENDBRANCH   3   4
ENDBRANCH   2   3
ENDBRANCH   1   2
BRANCH   1  18
ATOM     18  C   UNL     1       3.121  19.299  33.488  1.00  0.00     0.000 C 
BRANCH  18  19
ATOM     19  C   UNL     1       2.401  19.149  34.839  1.00  0.00     0.000 C 
BRANCH  19  20
ATOM     20  C   UNL     1       1.269  20.173  35.029  1.00  0.00     0.000 C 
BRANCH  20  21
ATOM     21  C   UNL     1       1.267  21.333  34.012  1.00  0.00     0.000 C 
BRANCH  21  22
ATOM     22  C   UNL     1      -0.124  21.909  33.682  1.00  0.00     0.000 C 
BRANCH  22  23
ATOM     23  C   UNL     1      -0.474  21.958  32.181  1.00  0.00     0.000 C 
BRANCH  23  24
ATOM     24  C   UNL     1      -0.514  20.589  31.477  1.00  0.00    -0.000 C 
BRANCH  24  25
ATOM     25  C   UNL     1      -1.318  20.611  30.169  1.00  0.00    -0.000 C 
BRANCH  25  26
ATOM     26  C   UNL     1      -0.887  19.464  29.241  1.00  0.00    -0.000 C 
BRANCH  26  27
ATOM     27  C   UNL     1      -2.008  18.438  28.992  1.00  0.00    -0.000 C 
BRANCH  27  28
ATOM     28  C   UNL     1      -2.666  18.515  27.602  1.00  0.00    -0.000 C 
BRANCH  28  29
ATOM     29  C   UNL     1      -3.699  19.647  27.489  1.00  0.00    -0.000 C 
BRANCH  29  30
ATOM     30  C   UNL     1      -3.065  20.905  26.875  1.00  0.00    -0.000 C 
BRANCH  30  31
ATOM     31  C   UNL     1      -1.648  20.651  26.341  1.00  0.00    -0.003 C 
ATOM     32  C   UNL     1      -1.135  21.792  25.464  1.00  0.00     0.004 C 
ENDBRANCH  30  31
ENDBRANCH  29  30
ENDBRANCH  28  29
ENDBRANCH  27  28
ENDBRANCH  26  27
ENDBRANCH  25  26
ENDBRANCH  24  25
ENDBRANCH  23  24
ENDBRANCH  22  23
ENDBRANCH  21  22
ENDBRANCH  20  21
ENDBRANCH  19  20
ENDBRANCH  18  19
ENDBRANCH   1  18
TORSDOF 28
ENDMDL
MODEL 6
REMARK VINA RESULT:    -3.496      7.330     13.283
REMARK INTER + INTRA:         -10.835
REMARK INTER:                  -9.455
REMARK INTRA:                  -1.380
REMARK UNBOUND:                -1.616
REMARK SMILES CCCCCCCCCCCCCCCCCCCCCCCCCCCCCC(=O)[O-]
REMARK SMILES IDX 16 1 17 2 18 3 19 4 20 5 21 6 22 7 23 8 24 9 25 10 26 11
REMARK SMILES IDX 27 12 28 13 29 14 30 15 31 16 32 17 15 18 14 19 13 20 12 21
REMARK SMILES IDX 11 22 10 23 9 24 8 25 7 26 6 27 5 28 4 29 3 30 2 31 1 32
REMARK H PARENT
REMARK Flexibility Score: inf
ROOT
ATOM      1  C   UNL     1       8.916  14.186  19.310  1.00  0.00     0.000 C 
ENDROOT
BRANCH   1   2
ATOM      2  C   UNL     1       9.267  13.023  18.364  1.00  0.00     0.000 C 
BRANCH   2   3
ATOM      3  C   UNL     1       8.014  12.426  17.688  1.00  0.00     0.000 C 
BRANCH   3   4
ATOM      4  C   UNL     1       8.239  11.014  17.118  1.00  0.00     0.000 C 
BRANCH   4   5
ATOM      5  C   UNL     1       6.938  10.345  16.647  1.00  0.00     0.000 C 
BRANCH   5   6
ATOM      6  C   UNL     1       6.443  10.895  15.300  1.00  0.00     0.000 C 
BRANCH   6   7
ATOM      7  C   UNL     1       5.038  10.394  14.937  1.00  0.00     0.000 C 
BRANCH   7   8
ATOM      8  C   UNL     1       4.460   9.521  16.061  1.00  0.00     0.000 C 
BRANCH   8   9
ATOM      9  C   UNL     1       2.955   9.745  16.271  1.00  0.00     0.000 C 
BRANCH   9  10
ATOM     10  C   UNL     1       2.091   8.787  15.430  1.00  0.00     0.000 C 
BRANCH  10  11
ATOM     11  C   UNL     1       0.667   8.629  16.003  1.00  0.00     0.000 C 
BRANCH  11  12
ATOM     12  C   UNL     1       0.434   9.389  17.323  1.00  0.00     0.000 C 
BRANCH  12  13
ATOM     13  C   UNL     1      -1.031   9.380  17.809  1.00  0.00     0.006 C 
BRANCH  13  14
ATOM     14  C   UNL     1      -1.343  10.455  18.864  1.00  0.00     0.053 C 
BRANCH  14  15
ATOM     15  C   UNL     1      -2.019   9.876  20.069  1.00  0.00     0.041 C 
ATOM     16  O   UNL     1      -1.353   9.619  21.107  1.00  0.00    -0.550 OA
ATOM     17  O   UNL     1      -3.386   9.625  20.048  1.00  0.00    -0.550 OA
ENDBRANCH  14  15
ENDBRANCH  13  14
ENDBRANCH  12  13
ENDBRANCH  11  12
ENDBRANCH  10  11
ENDBRANCH   9  10
ENDBRANCH   8   9
ENDBRANCH   7   8
ENDBRANCH   6   7
ENDBRANCH   5   6
ENDBRANCH   4   5
ENDBRANCH   3   4
ENDBRANCH   2   3
ENDBRANCH   1   2
BRANCH   1  18
ATOM     18  C   UNL     1       9.412  13.953  20.746  1.00  0.00     0.000 C 
BRANCH  18  19
ATOM     19  C   UNL     1       9.051  15.113  21.689  1.00  0.00     0.000 C 
BRANCH  19  20
ATOM     20  C   UNL     1       9.949  15.169  22.937  1.00  0.00     0.000 C 
BRANCH  20  21
ATOM     21  C   UNL     1      11.094  14.135  22.957  1.00  0.00     0.000 C 
BRANCH  21  22
ATOM     22  C   UNL     1      12.392  14.615  23.637  1.00  0.00     0.000 C 
BRANCH  22  23
ATOM     23  C   UNL     1      13.188  13.520  24.377  1.00  0.00     0.000 C 
BRANCH  23  24
ATOM     24  C   UNL     1      13.848  13.972  25.693  1.00  0.00    -0.000 C 
BRANCH  24  25
ATOM     25  C   UNL     1      12.827  14.354  26.774  1.00  0.00    -0.000 C 
BRANCH  25  26
ATOM     26  C   UNL     1      11.585  13.454  26.698  1.00  0.00    -0.000 C 
BRANCH  26  27
ATOM     27  C   UNL     1      10.441  13.929  27.612  1.00  0.00    -0.000 C 
BRANCH  27  28
ATOM     28  C   UNL     1       9.023  13.709  27.053  1.00  0.00    -0.000 C 
BRANCH  28  29
ATOM     29  C   UNL     1       8.870  14.188  25.601  1.00  0.00    -0.000 C 
BRANCH  29  30
ATOM     30  C   UNL     1       7.454  13.900  25.078  1.00  0.00    -0.000 C 
BRANCH  30  31
ATOM     31  C   UNL     1       6.772  15.150  24.503  1.00  0.00    -0.003 C 
ATOM     32  C   UNL     1       5.619  15.646  25.374  1.00  0.00     0.004 C 
ENDBRANCH  30  31
ENDBRANCH  29  30
ENDBRANCH  28  29
ENDBRANCH  27  28
ENDBRANCH  26  27
ENDBRANCH  25  26
ENDBRANCH  24  25
ENDBRANCH  23  24
ENDBRANCH  22  23
ENDBRANCH  21  22
ENDBRANCH  20  21
ENDBRANCH  19  20
ENDBRANCH  18  19
ENDBRANCH   1  18
TORSDOF 28
ENDMDL
MODEL 7
REMARK VINA RESULT:    -3.180      1.799      4.677
REMARK INTER + INTRA:         -10.000
REMARK INTER:                  -8.125
REMARK INTRA:                  -1.875
REMARK UNBOUND:                -1.616
REMARK SMILES CCCCCCCCCCCCCCCCCCCCCCCCCCCCCC(=O)[O-]
REMARK SMILES IDX 16 1 17 2 18 3 19 4 20 5 21 6 22 7 23 8 24 9 25 10 26 11
REMARK SMILES IDX 27 12 28 13 29 14 30 15 31 16 32 17 15 18 14 19 13 20 12 21
REMARK SMILES IDX 11 22 10 23 9 24 8 25 7 26 6 27 5 28 4 29 3 30 2 31 1 32
REMARK H PARENT
REMARK Flexibility Score: inf
ROOT
ATOM      1  C   UNL     1       3.170  19.807  33.078  1.00  0.00     0.000 C 
ENDROOT
BRANCH   1   2
ATOM      2  C   UNL     1       2.082  19.061  33.873  1.00  0.00     0.000 C 
BRANCH   2   3
ATOM      3  C   UNL     1       1.569  19.889  35.071  1.00  0.00     0.000 C 
BRANCH   3   4
ATOM      4  C   UNL     1       2.142  21.317  35.119  1.00  0.00     0.000 C 
BRANCH   4   5
ATOM      5  C   UNL     1       1.056  22.400  35.020  1.00  0.00     0.000 C 
BRANCH   5   6
ATOM      6  C   UNL     1      -0.206  21.910  34.293  1.00  0.00     0.000 C 
BRANCH   6   7
ATOM      7  C   UNL     1      -0.318  22.463  32.866  1.00  0.00     0.000 C 
BRANCH   7   8
ATOM      8  C   UNL     1       0.007  21.376  31.830  1.00  0.00     0.000 C 
BRANCH   8   9
ATOM      9  C   UNL     1      -1.207  20.998  30.967  1.00  0.00     0.000 C 
BRANCH   9  10
ATOM     10  C   UNL     1      -0.814  20.202  29.710  1.00  0.00     0.000 C 
BRANCH  10  11
ATOM     11  C   UNL     1      -1.523  18.833  29.639  1.00  0.00     0.000 C 
BRANCH  11  12
ATOM     12  C   UNL     1      -1.616  18.248  28.217  1.00  0.00     0.000 C 
BRANCH  12  13
ATOM     13  C   UNL     1      -3.058  18.105  27.684  1.00  0.00     0.006 C 
BRANCH  13  14
ATOM     14  C   UNL     1      -3.369  19.012  26.482  1.00  0.00     0.053 C 
BRANCH  14  15
ATOM     15  C   UNL     1      -3.083  20.453  26.781  1.00  0.00     0.041 C 
ATOM     16  O   UNL     1      -2.070  21.014  26.282  1.00  0.00    -0.550 OA
ATOM     17  O   UNL     1      -3.936  21.177  27.605  1.00  0.00    -0.550 OA
ENDBRANCH  14  15
ENDBRANCH  13  14
ENDBRANCH  12  13
ENDBRANCH  11  12
ENDBRANCH  10  11
ENDBRANCH   9  10
ENDBRANCH   8   9
ENDBRANCH   7   8
ENDBRANCH   6   7
ENDBRANCH   5   6
ENDBRANCH   4   5
ENDBRANCH   3   4
ENDBRANCH   2   3
ENDBRANCH   1   2
BRANCH   1  18
ATOM     18  C   UNL     1       4.366  18.908  32.724  1.00  0.00     0.000 C 
BRANCH  18  19
ATOM     19  C   UNL     1       5.383  18.800  33.873  1.00  0.00     0.000 C 
BRANCH  19  20
ATOM     20  C   UNL     1       5.468  17.382  34.463  1.00  0.00     0.000 C 
BRANCH  20  21
ATOM     21  C   UNL     1       6.599  16.507  33.885  1.00  0.00     0.000 C 
BRANCH  21  22
ATOM     22  C   UNL     1       6.499  16.226  32.373  1.00  0.00     0.000 C 
BRANCH  22  23
ATOM     23  C   UNL     1       7.760  15.608  31.735  1.00  0.00     0.000 C 
BRANCH  23  24
ATOM     24  C   UNL     1       7.492  14.463  30.742  1.00  0.00    -0.000 C 
BRANCH  24  25
ATOM     25  C   UNL     1       8.578  14.340  29.663  1.00  0.00    -0.000 C 
BRANCH  25  26
ATOM     26  C   UNL     1       8.041  13.604  28.426  1.00  0.00    -0.000 C 
BRANCH  26  27
ATOM     27  C   UNL     1       9.158  13.033  27.533  1.00  0.00    -0.000 C 
BRANCH  27  28
ATOM     28  C   UNL     1      10.054  14.086  26.856  1.00  0.00    -0.000 C 
BRANCH  28  29
ATOM     29  C   UNL     1      11.541  13.926  27.209  1.00  0.00    -0.000 C 
BRANCH  29  30
ATOM     30  C   UNL     1      12.324  13.343  26.023  1.00  0.00    -0.000 C 
BRANCH  30  31
ATOM     31  C   UNL     1      12.663  14.400  24.962  1.00  0.00    -0.003 C 
ATOM     32  C   UNL     1      11.749  14.325  23.741  1.00  0.00     0.004 C 
ENDBRANCH  30  31
ENDBRANCH  29  30
ENDBRANCH  28  29
ENDBRANCH  27  28
ENDBRANCH  26  27
ENDBRANCH  25  26
ENDBRANCH  24  25
ENDBRANCH  23  24
ENDBRANCH  22  23
ENDBRANCH  21  22
ENDBRANCH  20  21
ENDBRANCH  19  20
ENDBRANCH  18  19
ENDBRANCH   1  18
TORSDOF 28
ENDMDL
MODEL 8
REMARK VINA RESULT:    -3.059      4.160      6.157
REMARK INTER + INTRA:          -9.682
REMARK INTER:                  -8.431
REMARK INTRA:                  -1.251
REMARK UNBOUND:                -1.616
REMARK SMILES CCCCCCCCCCCCCCCCCCCCCCCCCCCCCC(=O)[O-]
REMARK SMILES IDX 16 1 17 2 18 3 19 4 20 5 21 6 22 7 23 8 24 9 25 10 26 11
REMARK SMILES IDX 27 12 28 13 29 14 30 15 31 16 32 17 15 18 14 19 13 20 12 21
REMARK SMILES IDX 11 22 10 23 9 24 8 25 7 26 6 27 5 28 4 29 3 30 2 31 1 32
REMARK H PARENT
REMARK Flexibility Score: inf
ROOT
ATOM      1  C   UNL     1       9.126  14.224  28.935  1.00  0.00     0.000 C 
ENDROOT
BRANCH   1   2
ATOM      2  C   UNL     1       7.674  13.848  29.283  1.00  0.00     0.000 C 
BRANCH   2   3
ATOM      3  C   UNL     1       7.375  14.018  30.788  1.00  0.00     0.000 C 
BRANCH   3   4
ATOM      4  C   UNL     1       7.756  15.405  31.335  1.00  0.00     0.000 C 
BRANCH   4   5
ATOM      5  C   UNL     1       6.568  16.144  31.971  1.00  0.00     0.000 C 
BRANCH   5   6
ATOM      6  C   UNL     1       6.991  17.424  32.707  1.00  0.00     0.000 C 
BRANCH   6   7
ATOM      7  C   UNL     1       6.478  17.472  34.153  1.00  0.00     0.000 C 
BRANCH   7   8
ATOM      8  C   UNL     1       4.949  17.332  34.197  1.00  0.00     0.000 C 
BRANCH   8   9
ATOM      9  C   UNL     1       4.241  18.663  34.497  1.00  0.00     0.000 C 
BRANCH   9  10
ATOM     10  C   UNL     1       3.563  19.266  33.253  1.00  0.00     0.000 C 
BRANCH  10  11
ATOM     11  C   UNL     1       2.292  20.065  33.610  1.00  0.00     0.000 C 
BRANCH  11  12
ATOM     12  C   UNL     1       1.518  20.591  32.387  1.00  0.00     0.000 C 
BRANCH  12  13
ATOM     13  C   UNL     1       0.154  21.231  32.727  1.00  0.00     0.006 C 
BRANCH  13  14
ATOM     14  C   UNL     1       0.007  21.631  34.205  1.00  0.00     0.053 C 
BRANCH  14  15
ATOM     15  C   UNL     1      -0.253  23.099  34.363  1.00  0.00     0.041 C 
ATOM     16  O   UNL     1       0.500  23.800  35.091  1.00  0.00    -0.550 OA
ATOM     17  O   UNL     1      -1.322  23.693  33.703  1.00  0.00    -0.550 OA
ENDBRANCH  14  15
ENDBRANCH  13  14
ENDBRANCH  12  13
ENDBRANCH  11  12
ENDBRANCH  10  11
ENDBRANCH   9  10
ENDBRANCH   8   9
ENDBRANCH   7   8
ENDBRANCH   6   7
ENDBRANCH   5   6
ENDBRANCH   4   5
ENDBRANCH   3   4
ENDBRANCH   2   3
ENDBRANCH   1   2
BRANCH   1  18
ATOM     18  C   UNL     1       9.552  13.722  27.545  1.00  0.00     0.000 C 
BRANCH  18  19
ATOM     19  C   UNL     1      11.080  13.724  27.362  1.00  0.00     0.000 C 
BRANCH  19  20
ATOM     20  C   UNL     1      11.503  13.876  25.891  1.00  0.00     0.000 C 
BRANCH  20  21
ATOM     21  C   UNL     1      10.349  14.180  24.913  1.00  0.00     0.000 C 
BRANCH  21  22
ATOM     22  C   UNL     1      10.767  14.903  23.617  1.00  0.00     0.000 C 
BRANCH  22  23
ATOM     23  C   UNL     1       9.629  15.145  22.605  1.00  0.00     0.000 C 
BRANCH  23  24
ATOM     24  C   UNL     1       9.400  14.003  21.597  1.00  0.00    -0.000 C 
BRANCH  24  25
ATOM     25  C   UNL     1       8.721  14.474  20.303  1.00  0.00    -0.000 C 
BRANCH  25  26
ATOM     26  C   UNL     1       9.448  13.919  19.069  1.00  0.00    -0.000 C 
BRANCH  26  27
ATOM     27  C   UNL     1       8.605  12.902  18.280  1.00  0.00    -0.000 C 
BRANCH  27  28
ATOM     28  C   UNL     1       9.215  11.492  18.171  1.00  0.00    -0.000 C 
BRANCH  28  29
ATOM     29  C   UNL     1       8.485  10.598  17.158  1.00  0.00    -0.000 C 
BRANCH  29  30
ATOM     30  C   UNL     1       8.028  11.414  15.939  1.00  0.00    -0.000 C 
BRANCH  30  31
ATOM     31  C   UNL     1       6.699  10.911  15.357  1.00  0.00    -0.003 C 
ATOM     32  C   UNL     1       5.819  10.225  16.401  1.00  0.00     0.004 C 
ENDBRANCH  30  31
ENDBRANCH  29  30
ENDBRANCH  28  29
ENDBRANCH  27  28
ENDBRANCH  26  27
ENDBRANCH  25  26
ENDBRANCH  24  25
ENDBRANCH  23  24
ENDBRANCH  22  23
ENDBRANCH  21  22
ENDBRANCH  20  21
ENDBRANCH  19  20
ENDBRANCH  18  19
ENDBRANCH   1  18
TORSDOF 28
ENDMDL
MODEL 9
REMARK VINA RESULT:    -2.952      4.772      8.373
REMARK INTER + INTRA:          -9.400
REMARK INTER:                  -7.869
REMARK INTRA:                  -1.530
REMARK UNBOUND:                -1.616
REMARK SMILES CCCCCCCCCCCCCCCCCCCCCCCCCCCCCC(=O)[O-]
REMARK SMILES IDX 16 1 17 2 18 3 19 4 20 5 21 6 22 7 23 8 24 9 25 10 26 11
REMARK SMILES IDX 27 12 28 13 29 14 30 15 31 16 32 17 15 18 14 19 13 20 12 21
REMARK SMILES IDX 11 22 10 23 9 24 8 25 7 26 6 27 5 28 4 29 3 30 2 31 1 32
REMARK H PARENT
REMARK Flexibility Score: inf
ROOT
ATOM      1  C   UNL     1      12.250  13.593  25.249  1.00  0.00     0.000 C 
ENDROOT
BRANCH   1   2
ATOM      2  C   UNL     1      11.804  14.063  26.647  1.00  0.00     0.000 C 
BRANCH   2   3
ATOM      3  C   UNL     1      10.692  13.167  27.233  1.00  0.00     0.000 C 
BRANCH   3   4
ATOM      4  C   UNL     1       9.350  13.898  27.418  1.00  0.00     0.000 C 
BRANCH   4   5
ATOM      5  C   UNL     1       9.054  14.242  28.887  1.00  0.00     0.000 C 
BRANCH   5   6
ATOM      6  C   UNL     1       7.623  13.870  29.306  1.00  0.00     0.000 C 
BRANCH   6   7
ATOM      7  C   UNL     1       7.317  14.247  30.762  1.00  0.00     0.000 C 
BRANCH   7   8
ATOM      8  C   UNL     1       8.039  15.545  31.156  1.00  0.00     0.000 C 
BRANCH   8   9
ATOM      9  C   UNL     1       7.547  16.112  32.497  1.00  0.00     0.000 C 
BRANCH   9  10
ATOM     10  C   UNL     1       6.059  16.501  32.465  1.00  0.00     0.000 C 
BRANCH  10  11
ATOM     11  C   UNL     1       5.520  16.867  33.864  1.00  0.00     0.000 C 
BRANCH  11  12
ATOM     12  C   UNL     1       4.971  18.302  33.968  1.00  0.00     0.000 C 
BRANCH  12  13
ATOM     13  C   UNL     1       3.508  18.457  33.497  1.00  0.00     0.006 C 
BRANCH  13  14
ATOM     14  C   UNL     1       3.197  19.831  32.879  1.00  0.00     0.053 C 
BRANCH  14  15
ATOM     15  C   UNL     1       1.741  20.172  32.983  1.00  0.00     0.041 C 
ATOM     16  O   UNL     1       1.206  20.328  34.113  1.00  0.00    -0.550 OA
ATOM     17  O   UNL     1       0.977  20.324  31.831  1.00  0.00    -0.550 OA
ENDBRANCH  14  15
ENDBRANCH  13  14
ENDBRANCH  12  13
ENDBRANCH  11  12
ENDBRANCH  10  11
ENDBRANCH   9  10
ENDBRANCH   8   9
ENDBRANCH   7   8
ENDBRANCH   6   7
ENDBRANCH   5   6
ENDBRANCH   4   5
ENDBRANCH   3   4
ENDBRANCH   2   3
ENDBRANCH   1   2
BRANCH   1  18
ATOM     18  C   UNL     1      12.028  14.660  24.166  1.00  0.00     0.000 C 
BRANCH  18  19
ATOM     19  C   UNL     1      10.970  14.239  23.131  1.00  0.00     0.000 C 
BRANCH  19  20
ATOM     20  C   UNL     1       9.589  14.857  23.405  1.00  0.00     0.000 C 
BRANCH  20  21
ATOM     21  C   UNL     1       8.542  14.620  22.297  1.00  0.00     0.000 C 
BRANCH  21  22
ATOM     22  C   UNL     1       8.852  15.302  20.950  1.00  0.00     0.000 C 
BRANCH  22  23
ATOM     23  C   UNL     1       8.588  14.437  19.700  1.00  0.00     0.000 C 
BRANCH  23  24
ATOM     24  C   UNL     1       9.715  13.451  19.342  1.00  0.00    -0.000 C 
BRANCH  24  25
ATOM     25  C   UNL     1       9.217  12.236  18.548  1.00  0.00    -0.000 C 
BRANCH  25  26
ATOM     26  C   UNL     1       8.212  12.661  17.466  1.00  0.00    -0.000 C 
BRANCH  26  27
ATOM     27  C   UNL     1       8.410  11.914  16.134  1.00  0.00    -0.000 C 
BRANCH  27  28
ATOM     28  C   UNL     1       8.166  10.395  16.195  1.00  0.00    -0.000 C 
BRANCH  28  29
ATOM     29  C   UNL     1       6.906   9.958  15.433  1.00  0.00    -0.000 C 
BRANCH  29  30
ATOM     30  C   UNL     1       5.653  10.133  16.303  1.00  0.00    -0.000 C 
BRANCH  30  31
ATOM     31  C   UNL     1       4.355  10.096  15.483  1.00  0.00    -0.003 C 
ATOM     32  C   UNL     1       3.206   9.418  16.227  1.00  0.00     0.004 C 
ENDBRANCH  30  31
ENDBRANCH  29  30
ENDBRANCH  28  29
ENDBRANCH  27  28
ENDBRANCH  26  27
ENDBRANCH  25  26
ENDBRANCH  24  25
ENDBRANCH  23  24
ENDBRANCH  22  23
ENDBRANCH  21  22
ENDBRANCH  20  21
ENDBRANCH  19  20
ENDBRANCH  18  19
ENDBRANCH   1  18
TORSDOF 28
ENDMDL
