MODEL 1
REMARK VINA RESULT:    -4.290      0.000      0.000
REMARK INTER + INTRA:          -8.366
REMARK INTER:                  -7.300
REMARK INTRA:                  -1.066
REMARK UNBOUND:                -1.066
REMARK SMILES CCCCCCCCCCCCCC(=O)[O-]
REMARK SMILES IDX 8 1 9 2 10 3 11 4 12 5 13 6 14 7 15 8 16 9 7 10 6 11 5 12
REMARK SMILES IDX 4 13 3 14 2 15 1 16
REMARK H PARENT
REMARK Flexibility Score: inf
ROOT
ATOM      1  C   UNL     1      44.035  26.730   2.226  1.00  0.00     0.000 C 
ENDROOT
BRANCH   1   2
ATOM      2  C   UNL     1      43.766  28.239   2.109  1.00  0.00     0.000 C 
BRANCH   2   3
ATOM      3  C   UNL     1      42.354  28.557   1.595  1.00  0.00     0.000 C 
BRANCH   3   4
ATOM      4  C   UNL     1      42.366  29.461   0.352  1.00  0.00     0.000 C 
BRANCH   4   5
ATOM      5  C   UNL     1      43.627  29.271  -0.503  1.00  0.00     0.006 C 
BRANCH   5   6
ATOM      6  C   UNL     1      43.386  28.246  -1.616  1.00  0.00     0.053 C 
BRANCH   6   7
ATOM      7  C   UNL     1      44.302  27.074  -1.456  1.00  0.00     0.041 C 
ATOM      8  O   UNL     1      45.488  27.245  -1.069  1.00  0.00    -0.550 OA
ATOM      9  O   UNL     1      43.831  25.788  -1.686  1.00  0.00    -0.550 OA
ENDBRANCH   6   7
ENDBRANCH   5   6
ENDBRANCH   4   5
ENDBRANCH   3   4
ENDBRANCH   2   3
ENDBRANCH   1   2
BRANCH   1  10
ATOM     10  C   UNL     1      45.500  26.388   2.576  1.00  0.00     0.000 C 
BRANCH  10  11
ATOM     11  C   UNL     1      45.603  25.349   3.702  1.00  0.00    -0.000 C 
BRANCH  11  12
ATOM     12  C   UNL     1      46.556  25.824   4.805  1.00  0.00    -0.000 C 
BRANCH  12  13
ATOM     13  C   UNL     1      46.386  27.328   5.071  1.00  0.00    -0.000 C 
BRANCH  13  14
ATOM     14  C   UNL     1      45.949  27.618   6.523  1.00  0.00    -0.000 C 
BRANCH  14  15
ATOM     15  C   UNL     1      45.708  26.351   7.360  1.00  0.00    -0.003 C 
ATOM     16  C   UNL     1      45.275  26.655   8.793  1.00  0.00     0.004 C 
ENDBRANCH  14  15
ENDBRANCH  13  14
ENDBRANCH  12  13
ENDBRANCH  11  12
ENDBRANCH  10  11
ENDBRANCH   1  10
TORSDOF 12
ENDMDL
MODEL 2
REMARK VINA RESULT:    -4.266      0.731      1.131
REMARK INTER + INTRA:          -8.324
REMARK INTER:                  -7.565
REMARK INTRA:                  -0.759
REMARK UNBOUND:                -1.066
REMARK SMILES CCCCCCCCCCCCCC(=O)[O-]
REMARK SMILES IDX 8 1 9 2 10 3 11 4 12 5 13 6 14 7 15 8 16 9 7 10 6 11 5 12
REMARK SMILES IDX 4 13 3 14 2 15 1 16
REMARK H PARENT
REMARK Flexibility Score: inf
ROOT
ATOM      1  C   UNL     1      43.768  26.788   1.745  1.00  0.00     0.000 C 
ENDROOT
BRANCH   1   2
ATOM      2  C   UNL     1      42.501  27.640   1.930  1.00  0.00     0.000 C 
BRANCH   2   3
ATOM      3  C   UNL     1      42.505  28.911   1.065  1.00  0.00     0.000 C 
BRANCH   3   4
ATOM      4  C   UNL     1      43.485  28.821  -0.115  1.00  0.00     0.000 C 
BRANCH   4   5
ATOM      5  C   UNL     1      42.775  28.573  -1.454  1.00  0.00     0.006 C 
BRANCH   5   6
ATOM      6  C   UNL     1      43.782  28.200  -2.547  1.00  0.00     0.053 C 
BRANCH   6   7
ATOM      7  C   UNL     1      44.538  26.967  -2.165  1.00  0.00     0.041 C 
ATOM      8  O   UNL     1      43.926  25.958  -1.727  1.00  0.00    -0.550 OA
ATOM      9  O   UNL     1      45.915  26.914  -2.341  1.00  0.00    -0.550 OA
ENDBRANCH   6   7
ENDBRANCH   5   6
ENDBRANCH   4   5
ENDBRANCH   3   4
ENDBRANCH   2   3
ENDBRANCH   1   2
BRANCH   1  10
ATOM     10  C   UNL     1      44.826  27.007   2.848  1.00  0.00     0.000 C 
BRANCH  10  11
ATOM     11  C   UNL     1      45.222  25.697   3.544  1.00  0.00    -0.000 C 
BRANCH  11  12
ATOM     12  C   UNL     1      46.180  25.962   4.711  1.00  0.00    -0.000 C 
BRANCH  12  13
ATOM     13  C   UNL     1      46.094  27.424   5.175  1.00  0.00    -0.000 C 
BRANCH  13  14
ATOM     14  C   UNL     1      46.107  27.551   6.713  1.00  0.00    -0.000 C 
BRANCH  14  15
ATOM     15  C   UNL     1      45.691  26.263   7.443  1.00  0.00    -0.003 C 
ATOM     16  C   UNL     1      45.319  26.498   8.905  1.00  0.00     0.004 C 
ENDBRANCH  14  15
ENDBRANCH  13  14
ENDBRANCH  12  13
ENDBRANCH  11  12
ENDBRANCH  10  11
ENDBRANCH   1  10
TORSDOF 12
ENDMDL
MODEL 3
REMARK VINA RESULT:    -4.218      1.120      1.876
REMARK INTER + INTRA:          -8.243
REMARK INTER:                  -6.807
REMARK INTRA:                  -1.436
REMARK UNBOUND:                -1.066
REMARK SMILES CCCCCCCCCCCCCC(=O)[O-]
REMARK SMILES IDX 8 1 9 2 10 3 11 4 12 5 13 6 14 7 15 8 16 9 7 10 6 11 5 12
REMARK SMILES IDX 4 13 3 14 2 15 1 16
REMARK H PARENT
REMARK Flexibility Score: inf
ROOT
ATOM      1  C   UNL     1      42.955  27.476   1.902  1.00  0.00     0.000 C 
ENDROOT
BRANCH   1   2
ATOM      2  C   UNL     1      42.170  28.396   0.952  1.00  0.00     0.000 C 
BRANCH   2   3
ATOM      3  C   UNL     1      42.889  29.726   0.677  1.00  0.00     0.000 C 
BRANCH   3   4
ATOM      4  C   UNL     1      43.364  29.852  -0.779  1.00  0.00     0.000 C 
BRANCH   4   5
ATOM      5  C   UNL     1      42.673  28.848  -1.714  1.00  0.00     0.006 C 
BRANCH   5   6
ATOM      6  C   UNL     1      43.701  28.088  -2.557  1.00  0.00     0.053 C 
BRANCH   6   7
ATOM      7  C   UNL     1      44.449  27.105  -1.713  1.00  0.00     0.041 C 
ATOM      8  O   UNL     1      45.659  27.305  -1.428  1.00  0.00    -0.550 OA
ATOM      9  O   UNL     1      43.795  25.992  -1.198  1.00  0.00    -0.550 OA
ENDBRANCH   6   7
ENDBRANCH   5   6
ENDBRANCH   4   5
ENDBRANCH   3   4
ENDBRANCH   2   3
ENDBRANCH   1   2
BRANCH   1  10
ATOM     10  C   UNL     1      44.397  27.956   2.175  1.00  0.00     0.000 C 
BRANCH  10  11
ATOM     11  C   UNL     1      45.417  26.811   2.097  1.00  0.00    -0.000 C 
BRANCH  11  12
ATOM     12  C   UNL     1      45.051  25.681   3.066  1.00  0.00    -0.000 C 
BRANCH  12  13
ATOM     13  C   UNL     1      46.311  25.022   3.647  1.00  0.00    -0.000 C 
BRANCH  13  14
ATOM     14  C   UNL     1      47.012  25.919   4.689  1.00  0.00    -0.000 C 
BRANCH  14  15
ATOM     15  C   UNL     1      46.077  26.416   5.804  1.00  0.00    -0.003 C 
ATOM     16  C   UNL     1      46.079  27.937   5.952  1.00  0.00     0.004 C 
ENDBRANCH  14  15
ENDBRANCH  13  14
ENDBRANCH  12  13
ENDBRANCH  11  12
ENDBRANCH  10  11
ENDBRANCH   1  10
TORSDOF 12
ENDMDL
MODEL 4
REMARK VINA RESULT:    -4.178      0.805      1.449
REMARK INTER + INTRA:          -8.175
REMARK INTER:                  -7.317
REMARK INTRA:                  -0.859
REMARK UNBOUND:                -1.066
REMARK SMILES CCCCCCCCCCCCCC(=O)[O-]
REMARK SMILES IDX 8 1 9 2 10 3 11 4 12 5 13 6 14 7 15 8 16 9 7 10 6 11 5 12
REMARK SMILES IDX 4 13 3 14 2 15 1 16
REMARK H PARENT
REMARK Flexibility Score: inf
ROOT
ATOM      1  C   UNL     1      44.879  27.013   2.970  1.00  0.00     0.000 C 
ENDROOT
BRANCH   1   2
ATOM      2  C   UNL     1      43.783  26.759   1.921  1.00  0.00     0.000 C 
BRANCH   2   3
ATOM      3  C   UNL     1      42.871  27.976   1.702  1.00  0.00     0.000 C 
BRANCH   3   4
ATOM      4  C   UNL     1      43.345  28.870   0.545  1.00  0.00     0.000 C 
BRANCH   4   5
ATOM      5  C   UNL     1      42.704  28.488  -0.796  1.00  0.00     0.006 C 
BRANCH   5   6
ATOM      6  C   UNL     1      43.761  28.394  -1.902  1.00  0.00     0.053 C 
BRANCH   6   7
ATOM      7  C   UNL     1      44.552  27.132  -1.765  1.00  0.00     0.041 C 
ATOM      8  O   UNL     1      43.965  26.031  -1.594  1.00  0.00    -0.550 OA
ATOM      9  O   UNL     1      45.936  27.164  -1.877  1.00  0.00    -0.550 OA
ENDBRANCH   6   7
ENDBRANCH   5   6
ENDBRANCH   4   5
ENDBRANCH   3   4
ENDBRANCH   2   3
ENDBRANCH   1   2
BRANCH   1  10
ATOM     10  C   UNL     1      45.342  25.735   3.702  1.00  0.00     0.000 C 
BRANCH  10  11
ATOM     11  C   UNL     1      46.004  26.045   5.053  1.00  0.00    -0.000 C 
BRANCH  11  12
ATOM     12  C   UNL     1      46.524  27.486   5.094  1.00  0.00    -0.000 C 
BRANCH  12  13
ATOM     13  C   UNL     1      46.763  27.946   6.540  1.00  0.00    -0.000 C 
BRANCH  13  14
ATOM     14  C   UNL     1      45.478  28.488   7.201  1.00  0.00    -0.000 C 
BRANCH  14  15
ATOM     15  C   UNL     1      45.263  27.983   8.638  1.00  0.00    -0.003 C 
ATOM     16  C   UNL     1      45.272  26.459   8.743  1.00  0.00     0.004 C 
ENDBRANCH  14  15
ENDBRANCH  13  14
ENDBRANCH  12  13
ENDBRANCH  11  12
ENDBRANCH  10  11
ENDBRANCH   1  10
TORSDOF 12
ENDMDL
MODEL 5
REMARK VINA RESULT:    -3.952      1.972      2.850
REMARK INTER + INTRA:          -7.790
REMARK INTER:                  -6.416
REMARK INTRA:                  -1.374
REMARK UNBOUND:                -1.066
REMARK SMILES CCCCCCCCCCCCCC(=O)[O-]
REMARK SMILES IDX 8 1 9 2 10 3 11 4 12 5 13 6 14 7 15 8 16 9 7 10 6 11 5 12
REMARK SMILES IDX 4 13 3 14 2 15 1 16
REMARK H PARENT
REMARK Flexibility Score: inf
ROOT
ATOM      1  C   UNL     1      42.910  27.697   1.915  1.00  0.00     0.000 C 
ENDROOT
BRANCH   1   2
ATOM      2  C   UNL     1      42.778  27.954   0.405  1.00  0.00     0.000 C 
BRANCH   2   3
ATOM      3  C   UNL     1      42.934  26.677  -0.435  1.00  0.00     0.000 C 
BRANCH   3   4
ATOM      4  C   UNL     1      44.002  26.815  -1.531  1.00  0.00     0.000 C 
BRANCH   4   5
ATOM      5  C   UNL     1      44.444  28.270  -1.744  1.00  0.00     0.006 C 
BRANCH   5   6
ATOM      6  C   UNL     1      44.224  28.704  -3.197  1.00  0.00     0.053 C 
BRANCH   6   7
ATOM      7  C   UNL     1      42.763  28.798  -3.500  1.00  0.00     0.041 C 
ATOM      8  O   UNL     1      42.273  28.155  -4.465  1.00  0.00    -0.550 OA
ATOM      9  O   UNL     1      41.932  29.559  -2.688  1.00  0.00    -0.550 OA
ENDBRANCH   6   7
ENDBRANCH   5   6
ENDBRANCH   4   5
ENDBRANCH   3   4
ENDBRANCH   2   3
ENDBRANCH   1   2
BRANCH   1  10
ATOM     10  C   UNL     1      44.073  26.749   2.281  1.00  0.00     0.000 C 
BRANCH  10  11
ATOM     11  C   UNL     1      45.442  27.439   2.177  1.00  0.00    -0.000 C 
BRANCH  11  12
ATOM     12  C   UNL     1      46.579  26.412   2.213  1.00  0.00    -0.000 C 
BRANCH  12  13
ATOM     13  C   UNL     1      46.324  25.343   3.286  1.00  0.00    -0.000 C 
BRANCH  13  14
ATOM     14  C   UNL     1      47.019  25.678   4.622  1.00  0.00    -0.000 C 
BRANCH  14  15
ATOM     15  C   UNL     1      46.055  26.180   5.710  1.00  0.00    -0.003 C 
ATOM     16  C   UNL     1      46.070  27.699   5.867  1.00  0.00     0.004 C 
ENDBRANCH  14  15
ENDBRANCH  13  14
ENDBRANCH  12  13
ENDBRANCH  11  12
ENDBRANCH  10  11
ENDBRANCH   1  10
TORSDOF 12
ENDMDL
MODEL 6
REMARK VINA RESULT:    -3.941      4.313      8.124
REMARK INTER + INTRA:          -7.772
REMARK INTER:                  -6.972
REMARK INTRA:                  -0.800
REMARK UNBOUND:                -1.066
REMARK SMILES CCCCCCCCCCCCCC(=O)[O-]
REMARK SMILES IDX 8 1 9 2 10 3 11 4 12 5 13 6 14 7 15 8 16 9 7 10 6 11 5 12
REMARK SMILES IDX 4 13 3 14 2 15 1 16
REMARK H PARENT
REMARK Flexibility Score: inf
ROOT
ATOM      1  C   UNL     1      44.783  26.073   2.989  1.00  0.00     0.000 C 
ENDROOT
BRANCH   1   2
ATOM      2  C   UNL     1      45.750  25.244   3.851  1.00  0.00     0.000 C 
BRANCH   2   3
ATOM      3  C   UNL     1      46.649  26.113   4.744  1.00  0.00     0.000 C 
BRANCH   3   4
ATOM      4  C   UNL     1      45.909  26.662   5.974  1.00  0.00     0.000 C 
BRANCH   4   5
ATOM      5  C   UNL     1      46.558  26.227   7.296  1.00  0.00     0.006 C 
BRANCH   5   6
ATOM      6  C   UNL     1      45.521  26.168   8.422  1.00  0.00     0.053 C 
BRANCH   6   7
ATOM      7  C   UNL     1      46.197  26.141   9.756  1.00  0.00     0.041 C 
ATOM      8  O   UNL     1      46.373  25.048  10.356  1.00  0.00    -0.550 OA
ATOM      9  O   UNL     1      46.677  27.318  10.315  1.00  0.00    -0.550 OA
ENDBRANCH   6   7
ENDBRANCH   5   6
ENDBRANCH   4   5
ENDBRANCH   3   4
ENDBRANCH   2   3
ENDBRANCH   1   2
BRANCH   1  10
ATOM     10  C   UNL     1      45.330  27.466   2.612  1.00  0.00     0.000 C 
BRANCH  10  11
ATOM     11  C   UNL     1      44.271  28.343   1.928  1.00  0.00    -0.000 C 
BRANCH  11  12
ATOM     12  C   UNL     1      42.904  27.649   1.918  1.00  0.00    -0.000 C 
BRANCH  12  13
ATOM     13  C   UNL     1      42.346  27.548   0.490  1.00  0.00    -0.000 C 
BRANCH  13  14
ATOM     14  C   UNL     1      43.311  26.813  -0.464  1.00  0.00    -0.000 C 
BRANCH  14  15
ATOM     15  C   UNL     1      43.659  27.616  -1.728  1.00  0.00    -0.003 C 
ATOM     16  C   UNL     1      43.092  29.034  -1.710  1.00  0.00     0.004 C 
ENDBRANCH  14  15
ENDBRANCH  13  14
ENDBRANCH  12  13
ENDBRANCH  11  12
ENDBRANCH  10  11
ENDBRANCH   1  10
TORSDOF 12
ENDMDL
MODEL 7
REMARK VINA RESULT:    -3.937      3.830      7.126
REMARK INTER + INTRA:          -7.765
REMARK INTER:                  -6.321
REMARK INTRA:                  -1.444
REMARK UNBOUND:                -1.066
REMARK SMILES CCCCCCCCCCCCCC(=O)[O-]
REMARK SMILES IDX 8 1 9 2 10 3 11 4 12 5 13 6 14 7 15 8 16 9 7 10 6 11 5 12
REMARK SMILES IDX 4 13 3 14 2 15 1 16
REMARK H PARENT
REMARK Flexibility Score: inf
ROOT
ATOM      1  C   UNL     1      45.266  27.888   3.100  1.00  0.00     0.000 C 
ENDROOT
BRANCH   1   2
ATOM      2  C   UNL     1      44.888  26.407   2.923  1.00  0.00     0.000 C 
BRANCH   2   3
ATOM      3  C   UNL     1      45.295  25.539   4.124  1.00  0.00     0.000 C 
BRANCH   3   4
ATOM      4  C   UNL     1      46.407  26.181   4.969  1.00  0.00     0.000 C 
BRANCH   4   5
ATOM      5  C   UNL     1      46.035  26.282   6.455  1.00  0.00     0.006 C 
BRANCH   5   6
ATOM      6  C   UNL     1      45.774  27.737   6.857  1.00  0.00     0.053 C 
BRANCH   6   7
ATOM      7  C   UNL     1      45.310  27.813   8.277  1.00  0.00     0.041 C 
ATOM      8  O   UNL     1      44.885  28.900   8.748  1.00  0.00    -0.550 OA
ATOM      9  O   UNL     1      45.301  26.671   9.068  1.00  0.00    -0.550 OA
ENDBRANCH   6   7
ENDBRANCH   5   6
ENDBRANCH   4   5
ENDBRANCH   3   4
ENDBRANCH   2   3
ENDBRANCH   1   2
BRANCH   1  10
ATOM     10  C   UNL     1      46.131  28.446   1.950  1.00  0.00     0.000 C 
BRANCH  10  11
ATOM     11  C   UNL     1      46.196  27.489   0.751  1.00  0.00    -0.000 C 
BRANCH  11  12
ATOM     12  C   UNL     1      45.389  28.034  -0.433  1.00  0.00    -0.000 C 
BRANCH  12  13
ATOM     13  C   UNL     1      44.201  27.116  -0.760  1.00  0.00    -0.000 C 
BRANCH  13  14
ATOM     14  C   UNL     1      42.844  27.827  -0.571  1.00  0.00    -0.000 C 
BRANCH  14  15
ATOM     15  C   UNL     1      42.232  27.626   0.826  1.00  0.00    -0.003 C 
ATOM     16  C   UNL     1      41.999  28.939   1.571  1.00  0.00     0.004 C 
ENDBRANCH  14  15
ENDBRANCH  13  14
ENDBRANCH  12  13
ENDBRANCH  11  12
ENDBRANCH  10  11
ENDBRANCH   1  10
TORSDOF 12
ENDMDL
MODEL 8
REMARK VINA RESULT:    -3.899      2.289      3.720
REMARK INTER + INTRA:          -7.701
REMARK INTER:                  -6.751
REMARK INTRA:                  -0.949
REMARK UNBOUND:                -1.066
REMARK SMILES CCCCCCCCCCCCCC(=O)[O-]
REMARK SMILES IDX 8 1 9 2 10 3 11 4 12 5 13 6 14 7 15 8 16 9 7 10 6 11 5 12
REMARK SMILES IDX 4 13 3 14 2 15 1 16
REMARK H PARENT
REMARK Flexibility Score: inf
ROOT
ATOM      1  C   UNL     1      42.972  27.284  -0.263  1.00  0.00     0.000 C 
ENDROOT
BRANCH   1   2
ATOM      2  C   UNL     1      42.844  28.597  -1.053  1.00  0.00     0.000 C 
BRANCH   2   3
ATOM      3  C   UNL     1      44.060  28.876  -1.950  1.00  0.00     0.000 C 
BRANCH   3   4
ATOM      4  C   UNL     1      44.895  27.615  -2.224  1.00  0.00     0.000 C 
BRANCH   4   5
ATOM      5  C   UNL     1      44.946  27.253  -3.715  1.00  0.00     0.006 C 
BRANCH   5   6
ATOM      6  C   UNL     1      43.670  26.525  -4.147  1.00  0.00     0.053 C 
BRANCH   6   7
ATOM      7  C   UNL     1      42.962  27.294  -5.216  1.00  0.00     0.041 C 
ATOM      8  O   UNL     1      43.293  27.155  -6.423  1.00  0.00    -0.550 OA
ATOM      9  O   UNL     1      41.903  28.130  -4.885  1.00  0.00    -0.550 OA
ENDBRANCH   6   7
ENDBRANCH   5   6
ENDBRANCH   4   5
ENDBRANCH   3   4
ENDBRANCH   2   3
ENDBRANCH   1   2
BRANCH   1  10
ATOM     10  C   UNL     1      42.699  27.444   1.248  1.00  0.00     0.000 C 
BRANCH  10  11
ATOM     11  C   UNL     1      43.624  28.483   1.901  1.00  0.00    -0.000 C 
BRANCH  11  12
ATOM     12  C   UNL     1      44.882  27.818   2.471  1.00  0.00    -0.000 C 
BRANCH  12  13
ATOM     13  C   UNL     1      44.728  26.290   2.515  1.00  0.00    -0.000 C 
BRANCH  13  14
ATOM     14  C   UNL     1      45.114  25.703   3.889  1.00  0.00    -0.000 C 
BRANCH  14  15
ATOM     15  C   UNL     1      46.066  26.599   4.697  1.00  0.00    -0.003 C 
ATOM     16  C   UNL     1      46.015  26.325   6.199  1.00  0.00     0.004 C 
ENDBRANCH  14  15
ENDBRANCH  13  14
ENDBRANCH  12  13
ENDBRANCH  11  12
ENDBRANCH  10  11
ENDBRANCH   1  10
TORSDOF 12
ENDMDL
MODEL 9
REMARK VINA RESULT:    -3.892      2.932      5.077
REMARK INTER + INTRA:          -7.687
REMARK INTER:                  -6.321
REMARK INTRA:                  -1.366
REMARK UNBOUND:                -1.066
REMARK SMILES CCCCCCCCCCCCCC(=O)[O-]
REMARK SMILES IDX 8 1 9 2 10 3 11 4 12 5 13 6 14 7 15 8 16 9 7 10 6 11 5 12
REMARK SMILES IDX 4 13 3 14 2 15 1 16
REMARK H PARENT
REMARK Flexibility Score: inf
ROOT
ATOM      1  C   UNL     1      44.529  27.138  -1.550  1.00  0.00     0.000 C 
ENDROOT
BRANCH   1   2
ATOM      2  C   UNL     1      45.831  27.904  -1.842  1.00  0.00     0.000 C 
BRANCH   2   3
ATOM      3  C   UNL     1      45.956  28.331  -3.313  1.00  0.00     0.000 C 
BRANCH   3   4
ATOM      4  C   UNL     1      45.781  27.154  -4.287  1.00  0.00     0.000 C 
BRANCH   4   5
ATOM      5  C   UNL     1      44.787  27.465  -5.415  1.00  0.00     0.006 C 
BRANCH   5   6
ATOM      6  C   UNL     1      43.393  26.924  -5.081  1.00  0.00     0.053 C 
BRANCH   6   7
ATOM      7  C   UNL     1      42.395  28.037  -5.038  1.00  0.00     0.041 C 
ATOM      8  O   UNL     1      41.550  28.168  -5.962  1.00  0.00    -0.550 OA
ATOM      9  O   UNL     1      42.366  28.902  -3.951  1.00  0.00    -0.550 OA
ENDBRANCH   6   7
ENDBRANCH   5   6
ENDBRANCH   4   5
ENDBRANCH   3   4
ENDBRANCH   2   3
ENDBRANCH   1   2
BRANCH   1  10
ATOM     10  C   UNL     1      43.460  27.988  -0.831  1.00  0.00     0.000 C 
BRANCH  10  11
ATOM     11  C   UNL     1      42.585  27.149   0.111  1.00  0.00    -0.000 C 
BRANCH  11  12
ATOM     12  C   UNL     1      42.520  27.777   1.508  1.00  0.00    -0.000 C 
BRANCH  12  13
ATOM     13  C   UNL     1      43.901  27.769   2.181  1.00  0.00    -0.000 C 
BRANCH  13  14
ATOM     14  C   UNL     1      44.392  26.339   2.492  1.00  0.00    -0.000 C 
BRANCH  14  15
ATOM     15  C   UNL     1      45.917  26.233   2.659  1.00  0.00    -0.003 C 
ATOM     16  C   UNL     1      46.690  27.072   1.643  1.00  0.00     0.004 C 
ENDBRANCH  14  15
ENDBRANCH  13  14
ENDBRANCH  12  13
ENDBRANCH  11  12
ENDBRANCH  10  11
ENDBRANCH   1  10
TORSDOF 12
ENDMDL
