MODEL 1
REMARK VINA RESULT:    -2.191      0.000      0.000
REMARK INTER + INTRA:          -1.682
REMARK INTER:                  -2.704
REMARK INTRA:                   1.022
REMARK UNBOUND:                 1.022
REMARK SMILES C=C1[C@H]2CC[C@@H]3[C@H]2C(C)(C)CCC[C@]13C
REMARK SMILES IDX 14 1 6 2 7 3 3 4 2 5 1 6 4 7 5 8 15 9 8 10 9 11 10 12 11 13
REMARK SMILES IDX 13 15 12 16
REMARK H PARENT
REMARK Flexibility Score: 80.00
ROOT
ATOM      1  C   UNL     1     138.470 136.117 124.028  1.00  0.00    -0.008 C 
ATOM      2  C   UNL     1     137.638 136.700 125.235  1.00  0.00     0.003 C 
ATOM      3  C   UNL     1     136.306 137.165 124.603  1.00  0.00     0.006 C 
ATOM      4  C   UNL     1     136.040 135.830 123.919  1.00  0.00     0.019 C 
ATOM      5  C   UNL     1     137.329 135.601 123.181  1.00  0.00    -0.068 C 
ATOM      6  C   UNL     1     137.434 134.946 122.017  1.00  0.00     0.009 C 
ATOM      7  C   UNL     1     136.048 134.876 125.135  1.00  0.00     0.008 C 
ATOM      8  C   UNL     1     137.077 135.530 126.089  1.00  0.00     0.005 C 
ATOM      9  C   UNL     1     139.413 134.946 124.415  1.00  0.00     0.016 C 
ENDROOT
BRANCH   3  10
ATOM     10  C   UNL     1     136.242 138.485 123.743  1.00  0.00    -0.032 C 
ATOM     11  C   UNL     1     134.881 138.536 123.006  1.00  0.00     0.011 C 
ATOM     12  C   UNL     1     136.270 139.699 124.710  1.00  0.00     0.011 C 
BRANCH  10  13
ATOM     13  C   UNL     1     137.350 138.642 122.665  1.00  0.00     0.007 CG0
ATOM     14  G   UNL     1     138.779 138.588 123.210  1.00  0.00     0.000 G0
ENDBRANCH  10  13
ENDBRANCH   3  10
BRANCH   1  15
ATOM     15  C   UNL     1     139.339 137.179 123.293  1.00  0.00     0.011 C 
BRANCH  15  16
ATOM     16  C   UNL     1     138.775 138.595 123.200  1.00  0.00     0.001 CG0
ATOM     17  G   UNL     1     137.340 138.634 122.671  1.00  0.00     0.000 G0
ENDBRANCH  15  16
ENDBRANCH   1  15
TORSDOF 0
ENDMDL
MODEL 2
REMARK VINA RESULT:    -0.719      1.412      3.554
REMARK INTER + INTRA:           0.134
REMARK INTER:                  -0.900
REMARK INTRA:                   1.034
REMARK UNBOUND:                 1.022
REMARK SMILES C=C1[C@H]2CC[C@@H]3[C@H]2C(C)(C)CCC[C@]13C
REMARK SMILES IDX 14 1 6 2 7 3 3 4 2 5 1 6 4 7 5 8 15 9 8 10 9 11 10 12 11 13
REMARK SMILES IDX 13 15 12 16
REMARK H PARENT
REMARK Flexibility Score: 80.00
ROOT
ATOM      1  C   UNL     1     136.687 136.151 123.129  1.00  0.00    -0.008 C 
ATOM      2  C   UNL     1     137.424 135.091 124.036  1.00  0.00     0.003 C 
ATOM      3  C   UNL     1     138.629 135.856 124.631  1.00  0.00     0.006 C 
ATOM      4  C   UNL     1     137.779 137.009 125.147  1.00  0.00     0.019 C 
ATOM      5  C   UNL     1     137.012 137.402 123.915  1.00  0.00    -0.068 C 
ATOM      6  C   UNL     1     136.601 138.646 123.638  1.00  0.00     0.009 C 
ATOM      7  C   UNL     1     136.791 136.253 126.064  1.00  0.00     0.008 C 
ATOM      8  C   UNL     1     136.624 134.888 125.351  1.00  0.00     0.005 C 
ATOM      9  C   UNL     1     135.149 135.959 123.053  1.00  0.00     0.016 C 
ENDROOT
BRANCH   3  10
ATOM     10  C   UNL     1     139.892 136.180 123.745  1.00  0.00    -0.032 C 
ATOM     11  C   UNL     1     140.792 137.184 124.506  1.00  0.00     0.011 C 
ATOM     12  C   UNL     1     140.720 134.877 123.580  1.00  0.00     0.011 C 
BRANCH  10  13
ATOM     13  C   UNL     1     139.597 136.798 122.350  1.00  0.00     0.007 CG0
ATOM     14  G   UNL     1     138.690 135.949 121.457  1.00  0.00     0.000 G0
ENDBRANCH  10  13
ENDBRANCH   3  10
BRANCH   1  15
ATOM     15  C   UNL     1     137.214 136.201 121.665  1.00  0.00     0.011 C 
BRANCH  15  16
ATOM     16  C   UNL     1     138.706 135.954 121.454  1.00  0.00     0.001 CG0
ATOM     17  G   UNL     1     139.588 136.818 122.358  1.00  0.00     0.000 G0
ENDBRANCH  15  16
ENDBRANCH   1  15
TORSDOF 0
ENDMDL
MODEL 3
REMARK VINA RESULT:    -0.227      1.374      3.099
REMARK INTER + INTRA:           0.742
REMARK INTER:                  -0.223
REMARK INTRA:                   0.965
REMARK UNBOUND:                 1.022
REMARK SMILES C=C1[C@H]2CC[C@@H]3[C@H]2C(C)(C)CCC[C@]13C
REMARK SMILES IDX 14 1 6 2 7 3 3 4 2 5 1 6 4 7 5 8 15 9 8 10 9 11 10 12 11 13
REMARK SMILES IDX 13 15 12 16
REMARK H PARENT
REMARK Flexibility Score: 80.00
ROOT
ATOM      1  C   UNL     1     137.872 137.104 122.146  1.00  0.00    -0.008 C 
ATOM      2  C   UNL     1     138.820 137.071 123.407  1.00  0.00     0.003 C 
ATOM      3  C   UNL     1     138.225 135.968 124.313  1.00  0.00     0.006 C 
ATOM      4  C   UNL     1     138.202 134.921 123.207  1.00  0.00     0.019 C 
ATOM      5  C   UNL     1     137.471 135.646 122.113  1.00  0.00    -0.068 C 
ATOM      6  C   UNL     1     136.685 135.057 121.202  1.00  0.00     0.009 C 
ATOM      7  C   UNL     1     139.694 134.894 122.804  1.00  0.00     0.008 C 
ATOM      8  C   UNL     1     140.148 136.356 123.038  1.00  0.00     0.005 C 
ATOM      9  C   UNL     1     138.591 137.485 120.824  1.00  0.00     0.016 C 
ENDROOT
BRANCH   3  10
ATOM     10  C   UNL     1     136.907 136.230 125.139  1.00  0.00    -0.032 C 
ATOM     11  C   UNL     1     136.370 134.877 125.665  1.00  0.00     0.011 C 
ATOM     12  C   UNL     1     137.273 137.078 126.387  1.00  0.00     0.011 C 
BRANCH  10  13
ATOM     13  C   UNL     1     135.747 136.909 124.360  1.00  0.00     0.007 CG0
ATOM     14  G   UNL     1     136.109 138.256 123.729  1.00  0.00     0.000 G0
ENDBRANCH  10  13
ENDBRANCH   3  10
BRANCH   1  15
ATOM     15  C   UNL     1     136.657 138.065 122.298  1.00  0.00     0.011 C 
BRANCH  15  16
ATOM     16  C   UNL     1     136.084 138.244 123.702  1.00  0.00     0.001 CG0
ATOM     17  G   UNL     1     135.749 136.917 124.386  1.00  0.00     0.000 G0
ENDBRANCH  15  16
ENDBRANCH   1  15
TORSDOF 0
ENDMDL
MODEL 4
REMARK VINA RESULT:    -0.040      1.473      3.752
REMARK INTER + INTRA:           0.973
REMARK INTER:                  -0.049
REMARK INTRA:                   1.022
REMARK UNBOUND:                 1.022
REMARK SMILES C=C1[C@H]2CC[C@@H]3[C@H]2C(C)(C)CCC[C@]13C
REMARK SMILES IDX 14 1 6 2 7 3 3 4 2 5 1 6 4 7 5 8 15 9 8 10 9 11 10 12 11 13
REMARK SMILES IDX 13 15 12 16
REMARK H PARENT
REMARK Flexibility Score: 80.00
ROOT
ATOM      1  C   UNL     1     137.329 137.714 122.244  1.00  0.00    -0.008 C 
ATOM      2  C   UNL     1     135.999 137.294 122.982  1.00  0.00     0.003 C 
ATOM      3  C   UNL     1     136.369 137.295 124.484  1.00  0.00     0.006 C 
ATOM      4  C   UNL     1     136.945 138.705 124.451  1.00  0.00     0.019 C 
ATOM      5  C   UNL     1     137.916 138.614 123.308  1.00  0.00    -0.068 C 
ATOM      6  C   UNL     1     139.057 139.311 123.221  1.00  0.00     0.009 C 
ATOM      7  C   UNL     1     135.726 139.503 123.936  1.00  0.00     0.008 C 
ATOM      8  C   UNL     1     135.015 138.495 123.000  1.00  0.00     0.005 C 
ATOM      9  C   UNL     1     137.100 138.521 120.937  1.00  0.00     0.016 C 
ENDROOT
BRANCH   3  10
ATOM     10  C   UNL     1     137.240 136.133 125.098  1.00  0.00    -0.032 C 
ATOM     11  C   UNL     1     137.692 136.544 126.520  1.00  0.00     0.011 C 
ATOM     12  C   UNL     1     136.337 134.881 125.263  1.00  0.00     0.011 C 
BRANCH  10  13
ATOM     13  C   UNL     1     138.521 135.758 124.303  1.00  0.00     0.007 CG0
ATOM     14  G   UNL     1     138.269 135.333 122.854  1.00  0.00     0.000 G0
ENDBRANCH  10  13
ENDBRANCH   3  10
BRANCH   1  15
ATOM     15  C   UNL     1     138.254 136.515 121.884  1.00  0.00     0.011 C 
BRANCH  15  16
ATOM     16  C   UNL     1     138.272 135.335 122.854  1.00  0.00     0.001 CG0
ATOM     17  G   UNL     1     138.522 135.756 124.303  1.00  0.00     0.000 G0
ENDBRANCH  15  16
ENDBRANCH   1  15
TORSDOF 0
ENDMDL
