MODEL 1
REMARK VINA RESULT:    -4.978      0.000      0.000
REMARK INTER + INTRA:          -6.074
REMARK INTER:                  -5.996
REMARK INTRA:                  -0.078
REMARK UNBOUND:                -0.078
REMARK SMILES CC[C@@H](C)[C@@H]([NH3+])C(=O)[O-]
REMARK SMILES IDX 3 1 4 2 5 3 6 4 7 8 8 9 9 10 2 11 1 12
REMARK H PARENT 6 5 6 6 6 7
REMARK Flexibility Score: inf
ROOT
ATOM      1  C   UNL     1       0.432   2.653  -1.957  1.00  0.00     0.050 C 
ATOM      2  C   UNL     1       0.071   1.159  -2.055  1.00  0.00     0.014 C 
ENDROOT
BRANCH   1   3
ATOM      3  C   UNL     1       1.062   3.214  -3.271  1.00  0.00     0.230 C 
BRANCH   3   4
ATOM      4  N   UNL     1       0.693   4.619  -3.503  1.00  0.00    -0.350 N 
ATOM      5  H   UNL     1      -0.309   4.712  -3.787  1.00  0.00     0.345 HD
ATOM      6  H   UNL     1       1.302   5.032  -4.246  1.00  0.00     0.345 HD
ATOM      7  H   UNL     1       0.837   5.166  -2.623  1.00  0.00     0.345 HD
ENDBRANCH   3   4
BRANCH   3   8
ATOM      8  C   UNL     1       2.562   3.040  -3.322  1.00  0.00     0.099 C 
ATOM      9  O   UNL     1       3.210   2.720  -2.290  1.00  0.00    -0.544 OA
ATOM     10  O   UNL     1       3.237   3.208  -4.524  1.00  0.00    -0.544 OA
ENDBRANCH   3   8
ENDBRANCH   1   3
BRANCH   1  11
ATOM     11  C   UNL     1      -0.812   3.453  -1.492  1.00  0.00     0.006 C 
ATOM     12  C   UNL     1      -2.059   2.585  -1.313  1.00  0.00     0.004 C 
ENDBRANCH   1  11
TORSDOF 4
ENDMDL
MODEL 2
REMARK VINA RESULT:    -4.891      4.267      5.165
REMARK INTER + INTRA:          -5.970
REMARK INTER:                  -5.879
REMARK INTRA:                  -0.091
REMARK UNBOUND:                -0.078
REMARK SMILES CC[C@@H](C)[C@@H]([NH3+])C(=O)[O-]
REMARK SMILES IDX 3 1 4 2 5 3 6 4 7 8 8 9 9 10 2 11 1 12
REMARK H PARENT 6 5 6 6 6 7
REMARK Flexibility Score: inf
ROOT
ATOM      1  C   UNL     1      -1.437   2.138  -1.970  1.00  0.00     0.050 C 
ATOM      2  C   UNL     1      -1.487   1.925  -3.494  1.00  0.00     0.014 C 
ENDROOT
BRANCH   1   3
ATOM      3  C   UNL     1      -2.122   0.982  -1.172  1.00  0.00     0.230 C 
BRANCH   3   4
ATOM      4  N   UNL     1      -1.142   0.014  -0.656  1.00  0.00    -0.350 N 
ATOM      5  H   UNL     1      -0.231   0.080  -1.165  1.00  0.00     0.345 HD
ATOM      6  H   UNL     1      -1.517  -0.959  -0.745  1.00  0.00     0.345 HD
ATOM      7  H   UNL     1      -0.966   0.203   0.357  1.00  0.00     0.345 HD
ENDBRANCH   3   4
BRANCH   3   8
ATOM      8  C   UNL     1      -3.013   1.484  -0.061  1.00  0.00     0.099 C 
ATOM      9  O   UNL     1      -3.030   0.913   1.062  1.00  0.00    -0.544 OA
ATOM     10  O   UNL     1      -3.806   2.606  -0.266  1.00  0.00    -0.544 OA
ENDBRANCH   3   8
ENDBRANCH   1   3
BRANCH   1  11
ATOM     11  C   UNL     1       0.028   2.390  -1.533  1.00  0.00     0.006 C 
ATOM     12  C   UNL     1       1.036   2.234  -2.673  1.00  0.00     0.004 C 
ENDBRANCH   1  11
TORSDOF 4
ENDMDL
MODEL 3
REMARK VINA RESULT:    -4.721      1.456      1.713
REMARK INTER + INTRA:          -5.765
REMARK INTER:                  -5.683
REMARK INTRA:                  -0.082
REMARK UNBOUND:                -0.078
REMARK SMILES CC[C@@H](C)[C@@H]([NH3+])C(=O)[O-]
REMARK SMILES IDX 3 1 4 2 5 3 6 4 7 8 8 9 9 10 2 11 1 12
REMARK H PARENT 6 5 6 6 6 7
REMARK Flexibility Score: inf
ROOT
ATOM      1  C   UNL     1      -0.168   1.656  -2.596  1.00  0.00     0.050 C 
ATOM      2  C   UNL     1      -1.469   1.866  -3.392  1.00  0.00     0.014 C 
ENDROOT
BRANCH   1   3
ATOM      3  C   UNL     1       0.642   2.976  -2.394  1.00  0.00     0.230 C 
BRANCH   3   4
ATOM      4  N   UNL     1       0.730   3.356  -0.976  1.00  0.00    -0.350 N 
ATOM      5  H   UNL     1       1.241   2.637  -0.416  1.00  0.00     0.345 HD
ATOM      6  H   UNL     1      -0.229   3.486  -0.579  1.00  0.00     0.345 HD
ATOM      7  H   UNL     1       1.242   4.264  -0.890  1.00  0.00     0.345 HD
ENDBRANCH   3   4
BRANCH   3   8
ATOM      8  C   UNL     1       2.016   2.921  -3.019  1.00  0.00     0.099 C 
ATOM      9  O   UNL     1       2.987   2.408  -2.401  1.00  0.00    -0.544 OA
ATOM     10  O   UNL     1       2.212   3.417  -4.302  1.00  0.00    -0.544 OA
ENDBRANCH   3   8
ENDBRANCH   1   3
BRANCH   1  11
ATOM     11  C   UNL     1      -0.492   0.934  -1.263  1.00  0.00     0.006 C 
ATOM     12  C   UNL     1      -1.979   0.962  -0.904  1.00  0.00     0.004 C 
ENDBRANCH   1  11
TORSDOF 4
ENDMDL
MODEL 4
REMARK VINA RESULT:    -4.716      2.146      2.725
REMARK INTER + INTRA:          -5.760
REMARK INTER:                  -5.669
REMARK INTRA:                  -0.090
REMARK UNBOUND:                -0.078
REMARK SMILES CC[C@@H](C)[C@@H]([NH3+])C(=O)[O-]
REMARK SMILES IDX 3 1 4 2 5 3 6 4 7 8 8 9 9 10 2 11 1 12
REMARK H PARENT 6 5 6 6 6 7
REMARK Flexibility Score: inf
ROOT
ATOM      1  C   UNL     1      -1.636   1.469  -0.919  1.00  0.00     0.050 C 
ATOM      2  C   UNL     1      -2.301   0.147  -0.495  1.00  0.00     0.014 C 
ENDROOT
BRANCH   1   3
ATOM      3  C   UNL     1      -0.848   1.350  -2.262  1.00  0.00     0.230 C 
BRANCH   3   4
ATOM      4  N   UNL     1      -1.572   1.972  -3.381  1.00  0.00    -0.350 N 
ATOM      5  H   UNL     1      -0.916   2.399  -4.074  1.00  0.00     0.345 HD
ATOM      6  H   UNL     1      -2.223   2.709  -3.023  1.00  0.00     0.345 HD
ATOM      7  H   UNL     1      -2.142   1.247  -3.873  1.00  0.00     0.345 HD
ENDBRANCH   3   4
BRANCH   3   8
ATOM      8  C   UNL     1       0.558   1.894  -2.167  1.00  0.00     0.099 C 
ATOM      9  O   UNL     1       0.890   2.664  -1.226  1.00  0.00    -0.544 OA
ATOM     10  O   UNL     1       1.507   1.523  -3.110  1.00  0.00    -0.544 OA
ENDBRANCH   3   8
ENDBRANCH   1   3
BRANCH   1  11
ATOM     11  C   UNL     1      -2.700   2.597  -0.937  1.00  0.00     0.006 C 
ATOM     12  C   UNL     1      -3.997   2.219  -0.221  1.00  0.00     0.004 C 
ENDBRANCH   1  11
TORSDOF 4
ENDMDL
MODEL 5
REMARK VINA RESULT:    -4.679      5.545      6.685
REMARK INTER + INTRA:          -5.715
REMARK INTER:                  -5.647
REMARK INTRA:                  -0.068
REMARK UNBOUND:                -0.078
REMARK SMILES CC[C@@H](C)[C@@H]([NH3+])C(=O)[O-]
REMARK SMILES IDX 3 1 4 2 5 3 6 4 7 8 8 9 9 10 2 11 1 12
REMARK H PARENT 6 5 6 6 6 7
REMARK Flexibility Score: inf
ROOT
ATOM      1  C   UNL     1      -2.581   1.519  -0.277  1.00  0.00     0.050 C 
ATOM      2  C   UNL     1      -2.670   2.807  -1.116  1.00  0.00     0.014 C 
ENDROOT
BRANCH   1   3
ATOM      3  C   UNL     1      -3.963   0.813  -0.099  1.00  0.00     0.230 C 
BRANCH   3   4
ATOM      4  N   UNL     1      -4.082  -0.384  -0.946  1.00  0.00    -0.350 N 
ATOM      5  H   UNL     1      -3.214  -0.965  -0.915  1.00  0.00     0.345 HD
ATOM      6  H   UNL     1      -4.276  -0.106  -1.935  1.00  0.00     0.345 HD
ATOM      7  H   UNL     1      -4.881  -0.969  -0.610  1.00  0.00     0.345 HD
ENDBRANCH   3   4
BRANCH   3   8
ATOM      8  C   UNL     1      -4.269   0.481   1.342  1.00  0.00     0.099 C 
ATOM      9  O   UNL     1      -4.726   1.357   2.124  1.00  0.00    -0.544 OA
ATOM     10  O   UNL     1      -4.071  -0.811   1.811  1.00  0.00    -0.544 OA
ENDBRANCH   3   8
ENDBRANCH   1   3
BRANCH   1  11
ATOM     11  C   UNL     1      -1.497   0.588  -0.878  1.00  0.00     0.006 C 
ATOM     12  C   UNL     1      -0.358   1.346  -1.562  1.00  0.00     0.004 C 
ENDBRANCH   1  11
TORSDOF 4
ENDMDL
MODEL 6
REMARK VINA RESULT:    -4.637      3.232      4.385
REMARK INTER + INTRA:          -5.664
REMARK INTER:                  -5.574
REMARK INTRA:                  -0.090
REMARK UNBOUND:                -0.078
REMARK SMILES CC[C@@H](C)[C@@H]([NH3+])C(=O)[O-]
REMARK SMILES IDX 3 1 4 2 5 3 6 4 7 8 8 9 9 10 2 11 1 12
REMARK H PARENT 6 5 6 6 6 7
REMARK Flexibility Score: inf
ROOT
ATOM      1  C   UNL     1       0.508   3.046  -2.375  1.00  0.00     0.050 C 
ATOM      2  C   UNL     1       0.599   3.785  -3.723  1.00  0.00     0.014 C 
ENDROOT
BRANCH   1   3
ATOM      3  C   UNL     1      -0.570   1.916  -2.373  1.00  0.00     0.230 C 
BRANCH   3   4
ATOM      4  N   UNL     1       0.024   0.590  -2.139  1.00  0.00    -0.350 N 
ATOM      5  H   UNL     1      -0.535  -0.167  -2.594  1.00  0.00     0.345 HD
ATOM      6  H   UNL     1       0.088   0.402  -1.112  1.00  0.00     0.345 HD
ATOM      7  H   UNL     1       0.991   0.567  -2.534  1.00  0.00     0.345 HD
ENDBRANCH   3   4
BRANCH   3   8
ATOM      8  C   UNL     1      -1.693   2.179  -1.397  1.00  0.00     0.099 C 
ATOM      9  O   UNL     1      -2.168   3.337  -1.257  1.00  0.00    -0.544 OA
ATOM     10  O   UNL     1      -2.229   1.130  -0.662  1.00  0.00    -0.544 OA
ENDBRANCH   3   8
ENDBRANCH   1   3
BRANCH   1  11
ATOM     11  C   UNL     1       1.917   2.542  -1.968  1.00  0.00     0.006 C 
ATOM     12  C   UNL     1       3.016   2.957  -2.948  1.00  0.00     0.004 C 
ENDBRANCH   1  11
TORSDOF 4
ENDMDL
MODEL 7
REMARK VINA RESULT:    -4.499      4.333      5.354
REMARK INTER + INTRA:          -5.498
REMARK INTER:                  -5.439
REMARK INTRA:                  -0.059
REMARK UNBOUND:                -0.078
REMARK SMILES CC[C@@H](C)[C@@H]([NH3+])C(=O)[O-]
REMARK SMILES IDX 3 1 4 2 5 3 6 4 7 8 8 9 9 10 2 11 1 12
REMARK H PARENT 6 5 6 6 6 7
REMARK Flexibility Score: inf
ROOT
ATOM      1  C   UNL     1      -1.495   1.742  -1.588  1.00  0.00     0.050 C 
ATOM      2  C   UNL     1      -0.463   0.632  -1.315  1.00  0.00     0.014 C 
ENDROOT
BRANCH   1   3
ATOM      3  C   UNL     1      -2.544   1.892  -0.441  1.00  0.00     0.230 C 
BRANCH   3   4
ATOM      4  N   UNL     1      -3.564   2.904  -0.757  1.00  0.00    -0.350 N 
ATOM      5  H   UNL     1      -4.216   2.572  -1.504  1.00  0.00     0.345 HD
ATOM      6  H   UNL     1      -3.106   3.791  -1.068  1.00  0.00     0.345 HD
ATOM      7  H   UNL     1      -4.126   3.111   0.100  1.00  0.00     0.345 HD
ENDBRANCH   3   4
BRANCH   3   8
ATOM      8  C   UNL     1      -3.191   0.580  -0.064  1.00  0.00     0.099 C 
ATOM      9  O   UNL     1      -3.780  -0.122  -0.929  1.00  0.00    -0.544 OA
ATOM     10  O   UNL     1      -3.117   0.125   1.246  1.00  0.00    -0.544 OA
ENDBRANCH   3   8
ENDBRANCH   1   3
BRANCH   1  11
ATOM     11  C   UNL     1      -0.753   3.065  -1.909  1.00  0.00     0.006 C 
ATOM     12  C   UNL     1       0.552   2.858  -2.679  1.00  0.00     0.004 C 
ENDBRANCH   1  11
TORSDOF 4
ENDMDL
MODEL 8
REMARK VINA RESULT:    -4.483      5.036      6.398
REMARK INTER + INTRA:          -5.479
REMARK INTER:                  -5.398
REMARK INTRA:                  -0.081
REMARK UNBOUND:                -0.078
REMARK SMILES CC[C@@H](C)[C@@H]([NH3+])C(=O)[O-]
REMARK SMILES IDX 3 1 4 2 5 3 6 4 7 8 8 9 9 10 2 11 1 12
REMARK H PARENT 6 5 6 6 6 7
REMARK Flexibility Score: inf
ROOT
ATOM      1  C   UNL     1      -4.879   1.422   0.797  1.00  0.00     0.050 C 
ATOM      2  C   UNL     1      -5.090   1.043   2.275  1.00  0.00     0.014 C 
ENDROOT
BRANCH   1   3
ATOM      3  C   UNL     1      -3.724   0.616   0.122  1.00  0.00     0.230 C 
BRANCH   3   4
ATOM      4  N   UNL     1      -4.226  -0.318  -0.897  1.00  0.00    -0.350 N 
ATOM      5  H   UNL     1      -3.951  -0.019  -1.860  1.00  0.00     0.345 HD
ATOM      6  H   UNL     1      -5.268  -0.384  -0.840  1.00  0.00     0.345 HD
ATOM      7  H   UNL     1      -3.829  -1.269  -0.722  1.00  0.00     0.345 HD
ENDBRANCH   3   4
BRANCH   3   8
ATOM      8  C   UNL     1      -2.647   1.507  -0.452  1.00  0.00     0.099 C 
ATOM      9  O   UNL     1      -1.491   1.060  -0.677  1.00  0.00    -0.544 OA
ATOM     10  O   UNL     1      -2.938   2.829  -0.763  1.00  0.00    -0.544 OA
ENDBRANCH   3   8
ENDBRANCH   1   3
BRANCH   1  11
ATOM     11  C   UNL     1      -6.226   1.300   0.039  1.00  0.00     0.006 C 
ATOM     12  C   UNL     1      -7.448   1.481   0.941  1.00  0.00     0.004 C 
ENDBRANCH   1  11
TORSDOF 4
ENDMDL
MODEL 9
REMARK VINA RESULT:    -4.370      4.902      6.773
REMARK INTER + INTRA:          -5.342
REMARK INTER:                  -5.306
REMARK INTRA:                  -0.036
REMARK UNBOUND:                -0.078
REMARK SMILES CC[C@@H](C)[C@@H]([NH3+])C(=O)[O-]
REMARK SMILES IDX 3 1 4 2 5 3 6 4 7 8 8 9 9 10 2 11 1 12
REMARK H PARENT 6 5 6 6 6 7
REMARK Flexibility Score: inf
ROOT
ATOM      1  C   UNL     1       6.976   1.029  -5.066  1.00  0.00     0.050 C 
ATOM      2  C   UNL     1       7.759   2.151  -5.774  1.00  0.00     0.014 C 
ENDROOT
BRANCH   1   3
ATOM      3  C   UNL     1       6.153   1.541  -3.841  1.00  0.00     0.230 C 
BRANCH   3   4
ATOM      4  N   UNL     1       6.795   2.694  -3.191  1.00  0.00    -0.350 N 
ATOM      5  H   UNL     1       7.530   3.120  -3.800  1.00  0.00     0.345 HD
ATOM      6  H   UNL     1       7.225   2.400  -2.284  1.00  0.00     0.345 HD
ATOM      7  H   UNL     1       6.074   3.424  -2.986  1.00  0.00     0.345 HD
ENDBRANCH   3   4
BRANCH   3   8
ATOM      8  C   UNL     1       4.718   1.855  -4.191  1.00  0.00     0.099 C 
ATOM      9  O   UNL     1       3.774   1.155  -3.737  1.00  0.00    -0.544 OA
ATOM     10  O   UNL     1       4.427   2.945  -5.002  1.00  0.00    -0.544 OA
ENDBRANCH   3   8
ENDBRANCH   1   3
BRANCH   1  11
ATOM     11  C   UNL     1       6.110   0.272  -6.105  1.00  0.00     0.006 C 
ATOM     12  C   UNL     1       6.839  -0.900  -6.764  1.00  0.00     0.004 C 
ENDBRANCH   1  11
TORSDOF 4
ENDMDL
