MODEL 1
REMARK VINA RESULT:    -6.291      0.000      0.000
REMARK INTER + INTRA:          -6.856
REMARK INTER:                  -6.843
REMARK INTRA:                  -0.013
REMARK UNBOUND:                -0.013
REMARK SMILES C[C@@H]1[C@H](C)CC[C@]2(C(=O)[O-])CC[C@@]3(C)C(=CC[C@@H]4[C@]5(C)CC[C@@H](O)C(C)(C)[C@H]5CC[C@@]43C)[C@H]12
REMARK SMILES IDX 7 1 6 2 11 3 33 4 5 5 12 6 15 7 2 8 3 9 13 10 16 11 1 12
REMARK SMILES IDX 4 13 14 14 31 15 17 16 18 17 30 18 32 19 19 20 29 21 28 22
REMARK SMILES IDX 21 23 20 24 25 25 22 26 23 27 26 28 27 29 8 30 9 31 10 32
REMARK SMILES IDX 24 33
REMARK H PARENT 24 34
REMARK Flexibility Score: inf
ROOT
ATOM      1  C   UNL     1      25.640   7.533 -22.184  1.00  0.00     0.017 C 
ATOM      2  C   UNL     1      25.608   8.924 -21.474  1.00  0.00     0.014 C 
ATOM      3  C   UNL     1      24.947   7.644 -23.575  1.00  0.00     0.014 C 
ATOM      4  C   UNL     1      24.874   6.417 -21.352  1.00  0.00     0.030 C 
ATOM      5  C   UNL     1      25.652   8.784 -19.936  1.00  0.00     0.004 C 
ATOM      6  C   UNL     1      24.944   6.321 -24.393  1.00  0.00     0.013 C 
ATOM      7  C   UNL     1      24.299   5.289 -22.259  1.00  0.00    -0.063 C 
ATOM      8  C   UNL     1      23.777   7.050 -20.397  1.00  0.00    -0.003 C 
ATOM      9  C   UNL     1      24.406   8.057 -19.368  1.00  0.00    -0.011 C 
ATOM     10  C   UNL     1      24.942   4.963 -23.591  1.00  0.00    -0.006 C 
ATOM     11  C   UNL     1      23.398   4.439 -21.804  1.00  0.00    -0.027 C 
ATOM     12  C   UNL     1      22.557   7.646 -21.136  1.00  0.00     0.008 C 
ATOM     13  C   UNL     1      23.419   9.101 -18.786  1.00  0.00     0.008 C 
ATOM     14  C   UNL     1      26.418   4.499 -23.299  1.00  0.00     0.017 C 
ATOM     15  C   UNL     1      24.179   3.767 -24.430  1.00  0.00    -0.020 C 
ATOM     16  C   UNL     1      22.270   4.053 -22.692  1.00  0.00     0.032 C 
ATOM     17  C   UNL     1      22.609   3.943 -24.222  1.00  0.00     0.006 C 
ATOM     18  C   UNL     1      24.487   2.289 -23.950  1.00  0.00     0.008 C 
ATOM     19  C   UNL     1      24.694   3.841 -25.908  1.00  0.00     0.012 C 
ATOM     20  C   UNL     1      21.678   2.868 -24.959  1.00  0.00    -0.025 C 
ATOM     21  C   UNL     1      23.603   1.174 -24.577  1.00  0.00     0.005 C 
ATOM     22  C   UNL     1      22.073   1.421 -24.458  1.00  0.00     0.003 C 
ATOM     23  C   UNL     1      20.170   3.112 -24.621  1.00  0.00     0.010 C 
ATOM     24  C   UNL     1      21.828   3.058 -26.500  1.00  0.00     0.012 C 
ATOM     25  C   UNL     1      21.123   0.232 -24.919  1.00  0.00    -0.006 C 
ATOM     26  C   UNL     1      19.216   2.026 -25.169  1.00  0.00     0.033 C 
ATOM     27  C   UNL     1      19.620   0.629 -24.654  1.00  0.00     0.120 C 
ATOM     28  C   UNL     1      21.343  -0.194 -26.396  1.00  0.00     0.014 C 
ATOM     29  C   UNL     1      21.385  -1.035 -24.067  1.00  0.00     0.014 C 
ENDROOT
BRANCH   1  30
ATOM     30  C   UNL     1      27.132   7.233 -22.417  1.00  0.00     0.048 C 
ATOM     31  O   UNL     1      27.837   6.657 -21.549  1.00  0.00    -0.550 OA
ATOM     32  O   UNL     1      27.769   7.764 -23.532  1.00  0.00    -0.550 OA
ENDBRANCH   1  30
BRANCH  27  33
ATOM     33  O   UNL     1      18.714  -0.343 -25.109  1.00  0.00    -0.393 OA
ATOM     34  H   UNL     1      17.841  -0.192 -24.669  1.00  0.00     0.210 HD
ENDBRANCH  27  33
TORSDOF 2
ENDMDL
MODEL 2
REMARK VINA RESULT:    -5.906     12.302     14.902
REMARK INTER + INTRA:          -6.437
REMARK INTER:                  -6.424
REMARK INTRA:                  -0.013
REMARK UNBOUND:                -0.013
REMARK SMILES C[C@@H]1[C@H](C)CC[C@]2(C(=O)[O-])CC[C@@]3(C)C(=CC[C@@H]4[C@]5(C)CC[C@@H](O)C(C)(C)[C@H]5CC[C@@]43C)[C@H]12
REMARK SMILES IDX 7 1 6 2 11 3 33 4 5 5 12 6 15 7 2 8 3 9 13 10 16 11 1 12
REMARK SMILES IDX 4 13 14 14 31 15 17 16 18 17 30 18 32 19 19 20 29 21 28 22
REMARK SMILES IDX 21 23 20 24 25 25 22 26 23 27 26 28 27 29 8 30 9 31 10 32
REMARK SMILES IDX 24 33
REMARK H PARENT 24 34
REMARK Flexibility Score: inf
ROOT
ATOM      1  C   UNL     1      30.369  -8.307 -15.613  1.00  0.00     0.017 C 
ATOM      2  C   UNL     1      31.541  -9.296 -15.321  1.00  0.00     0.014 C 
ATOM      3  C   UNL     1      30.584  -7.642 -17.006  1.00  0.00     0.014 C 
ATOM      4  C   UNL     1      30.281  -7.144 -14.533  1.00  0.00     0.030 C 
ATOM      5  C   UNL     1      31.771  -9.481 -13.804  1.00  0.00     0.004 C 
ATOM      6  C   UNL     1      29.457  -6.654 -17.422  1.00  0.00     0.013 C 
ATOM      7  C   UNL     1      29.654  -5.841 -15.112  1.00  0.00    -0.063 C 
ATOM      8  C   UNL     1      31.683  -6.887 -13.836  1.00  0.00    -0.003 C 
ATOM      9  C   UNL     1      32.217  -8.171 -13.106  1.00  0.00    -0.011 C 
ATOM     10  C   UNL     1      28.684  -5.898 -16.274  1.00  0.00    -0.006 C 
ATOM     11  C   UNL     1      29.756  -4.691 -14.474  1.00  0.00    -0.027 C 
ATOM     12  C   UNL     1      32.745  -6.249 -14.760  1.00  0.00     0.008 C 
ATOM     13  C   UNL     1      33.750  -8.205 -12.876  1.00  0.00     0.008 C 
ATOM     14  C   UNL     1      27.440  -6.743 -15.807  1.00  0.00     0.017 C 
ATOM     15  C   UNL     1      28.149  -4.423 -16.776  1.00  0.00    -0.020 C 
ATOM     16  C   UNL     1      30.027  -3.460 -15.262  1.00  0.00     0.032 C 
ATOM     17  C   UNL     1      29.367  -3.400 -16.687  1.00  0.00     0.006 C 
ATOM     18  C   UNL     1      27.009  -3.770 -15.891  1.00  0.00     0.008 C 
ATOM     19  C   UNL     1      27.514  -4.621 -18.195  1.00  0.00     0.012 C 
ATOM     20  C   UNL     1      29.053  -1.893 -17.131  1.00  0.00    -0.025 C 
ATOM     21  C   UNL     1      26.661  -2.290 -16.217  1.00  0.00     0.005 C 
ATOM     22  C   UNL     1      27.882  -1.329 -16.231  1.00  0.00     0.003 C 
ATOM     23  C   UNL     1      30.310  -0.982 -16.934  1.00  0.00     0.010 C 
ATOM     24  C   UNL     1      28.730  -1.885 -18.657  1.00  0.00     0.012 C 
ATOM     25  C   UNL     1      27.564   0.222 -16.379  1.00  0.00    -0.006 C 
ATOM     26  C   UNL     1      30.048   0.520 -17.194  1.00  0.00     0.033 C 
ATOM     27  C   UNL     1      28.908   1.043 -16.295  1.00  0.00     0.120 C 
ATOM     28  C   UNL     1      26.772   0.568 -17.669  1.00  0.00     0.014 C 
ATOM     29  C   UNL     1      26.691   0.714 -15.198  1.00  0.00     0.014 C 
ENDROOT
BRANCH   1  30
ATOM     30  C   UNL     1      29.108  -9.187 -15.694  1.00  0.00     0.048 C 
ATOM     31  O   UNL     1      28.432  -9.476 -14.673  1.00  0.00    -0.550 OA
ATOM     32  O   UNL     1      28.800  -9.829 -16.887  1.00  0.00    -0.550 OA
ENDBRANCH   1  30
BRANCH  27  33
ATOM     33  O   UNL     1      28.716   2.419 -16.495  1.00  0.00    -0.393 OA
ATOM     34  H   UNL     1      28.001   2.544 -17.168  1.00  0.00     0.210 HD
ENDBRANCH  27  33
TORSDOF 2
ENDMDL
MODEL 3
REMARK VINA RESULT:    -5.795     12.750     15.378
REMARK INTER + INTRA:          -6.316
REMARK INTER:                  -6.303
REMARK INTRA:                  -0.013
REMARK UNBOUND:                -0.013
REMARK SMILES C[C@@H]1[C@H](C)CC[C@]2(C(=O)[O-])CC[C@@]3(C)C(=CC[C@@H]4[C@]5(C)CC[C@@H](O)C(C)(C)[C@H]5CC[C@@]43C)[C@H]12
REMARK SMILES IDX 7 1 6 2 11 3 33 4 5 5 12 6 15 7 2 8 3 9 13 10 16 11 1 12
REMARK SMILES IDX 4 13 14 14 31 15 17 16 18 17 30 18 32 19 19 20 29 21 28 22
REMARK SMILES IDX 21 23 20 24 25 25 22 26 23 27 26 28 27 29 8 30 9 31 10 32
REMARK SMILES IDX 24 33
REMARK H PARENT 24 34
REMARK Flexibility Score: inf
ROOT
ATOM      1  C   UNL     1      32.341  -7.884 -22.612  1.00  0.00     0.017 C 
ATOM      2  C   UNL     1      32.253  -7.318 -21.159  1.00  0.00     0.014 C 
ATOM      3  C   UNL     1      33.534  -7.215 -23.359  1.00  0.00     0.014 C 
ATOM      4  C   UNL     1      31.024  -7.592 -23.451  1.00  0.00     0.030 C 
ATOM      5  C   UNL     1      30.814  -7.396 -20.601  1.00  0.00     0.004 C 
ATOM      6  C   UNL     1      33.742  -7.724 -24.814  1.00  0.00     0.013 C 
ATOM      7  C   UNL     1      31.302  -7.497 -24.981  1.00  0.00    -0.063 C 
ATOM      8  C   UNL     1      30.244  -6.326 -22.895  1.00  0.00    -0.003 C 
ATOM      9  C   UNL     1      29.817  -6.515 -21.395  1.00  0.00    -0.011 C 
ATOM     10  C   UNL     1      32.473  -8.230 -25.602  1.00  0.00    -0.006 C 
ATOM     11  C   UNL     1      30.410  -6.984 -25.807  1.00  0.00    -0.027 C 
ATOM     12  C   UNL     1      30.962  -4.979 -23.139  1.00  0.00     0.008 C 
ATOM     13  C   UNL     1      29.556  -5.199 -20.617  1.00  0.00     0.008 C 
ATOM     14  C   UNL     1      32.253  -9.768 -25.350  1.00  0.00     0.017 C 
ATOM     15  C   UNL     1      32.633  -7.988 -27.224  1.00  0.00    -0.020 C 
ATOM     16  C   UNL     1      30.882  -6.096 -26.903  1.00  0.00     0.032 C 
ATOM     17  C   UNL     1      32.272  -6.467 -27.533  1.00  0.00     0.006 C 
ATOM     18  C   UNL     1      31.655  -8.830 -28.142  1.00  0.00     0.008 C 
ATOM     19  C   UNL     1      34.078  -8.451 -27.618  1.00  0.00     0.012 C 
ATOM     20  C   UNL     1      32.363  -6.022 -29.070  1.00  0.00    -0.025 C 
ATOM     21  C   UNL     1      31.637  -8.442 -29.649  1.00  0.00     0.005 C 
ATOM     22  C   UNL     1      31.392  -6.933 -29.924  1.00  0.00     0.003 C 
ATOM     23  C   UNL     1      31.922  -4.531 -29.245  1.00  0.00     0.010 C 
ATOM     24  C   UNL     1      33.853  -6.103 -29.522  1.00  0.00     0.012 C 
ATOM     25  C   UNL     1      31.184  -6.511 -31.443  1.00  0.00    -0.006 C 
ATOM     26  C   UNL     1      31.833  -4.067 -30.717  1.00  0.00     0.033 C 
ATOM     27  C   UNL     1      30.871  -4.968 -31.520  1.00  0.00     0.120 C 
ATOM     28  C   UNL     1      32.381  -6.891 -32.356  1.00  0.00     0.014 C 
ATOM     29  C   UNL     1      29.947  -7.227 -32.041  1.00  0.00     0.014 C 
ENDROOT
BRANCH   1  30
ATOM     30  C   UNL     1      32.662  -9.380 -22.444  1.00  0.00     0.048 C 
ATOM     31  O   UNL     1      31.757 -10.243 -22.305  1.00  0.00    -0.550 OA
ATOM     32  O   UNL     1      33.981  -9.778 -22.261  1.00  0.00    -0.550 OA
ENDBRANCH   1  30
BRANCH  27  33
ATOM     33  O   UNL     1      30.751  -4.505 -32.840  1.00  0.00    -0.393 OA
ATOM     34  H   UNL     1      31.228  -3.641 -32.917  1.00  0.00     0.210 HD
ENDBRANCH  27  33
TORSDOF 2
ENDMDL
MODEL 4
REMARK VINA RESULT:    -5.628      9.589     13.766
REMARK INTER + INTRA:          -6.134
REMARK INTER:                  -6.133
REMARK INTRA:                  -0.002
REMARK UNBOUND:                -0.013
REMARK SMILES C[C@@H]1[C@H](C)CC[C@]2(C(=O)[O-])CC[C@@]3(C)C(=CC[C@@H]4[C@]5(C)CC[C@@H](O)C(C)(C)[C@H]5CC[C@@]43C)[C@H]12
REMARK SMILES IDX 7 1 6 2 11 3 33 4 5 5 12 6 15 7 2 8 3 9 13 10 16 11 1 12
REMARK SMILES IDX 4 13 14 14 31 15 17 16 18 17 30 18 32 19 19 20 29 21 28 22
REMARK SMILES IDX 21 23 20 24 25 25 22 26 23 27 26 28 27 29 8 30 9 31 10 32
REMARK SMILES IDX 24 33
REMARK H PARENT 24 34
REMARK Flexibility Score: inf
ROOT
ATOM      1  C   UNL     1      29.937  -6.609 -30.433  1.00  0.00     0.017 C 
ATOM      2  C   UNL     1      30.418  -7.484 -31.634  1.00  0.00     0.014 C 
ATOM      3  C   UNL     1      28.714  -5.749 -30.873  1.00  0.00     0.014 C 
ATOM      4  C   UNL     1      31.067  -5.614 -29.925  1.00  0.00     0.030 C 
ATOM      5  C   UNL     1      31.919  -7.834 -31.522  1.00  0.00     0.004 C 
ATOM      6  C   UNL     1      28.125  -4.854 -29.745  1.00  0.00     0.013 C 
ATOM      7  C   UNL     1      30.477  -4.330 -29.269  1.00  0.00    -0.063 C 
ATOM      8  C   UNL     1      32.116  -5.287 -31.069  1.00  0.00    -0.003 C 
ATOM      9  C   UNL     1      32.830  -6.583 -31.596  1.00  0.00    -0.011 C 
ATOM     10  C   UNL     1      29.108  -4.350 -28.621  1.00  0.00    -0.006 C 
ATOM     11  C   UNL     1      31.228  -3.268 -29.049  1.00  0.00    -0.027 C 
ATOM     12  C   UNL     1      31.556  -4.414 -32.215  1.00  0.00     0.008 C 
ATOM     13  C   UNL     1      33.435  -6.465 -33.019  1.00  0.00     0.008 C 
ATOM     14  C   UNL     1      29.163  -5.388 -27.438  1.00  0.00     0.017 C 
ATOM     15  C   UNL     1      28.633  -2.895 -28.010  1.00  0.00    -0.020 C 
ATOM     16  C   UNL     1      30.656  -1.922 -29.317  1.00  0.00     0.032 C 
ATOM     17  C   UNL     1      29.124  -1.757 -29.011  1.00  0.00     0.006 C 
ATOM     18  C   UNL     1      29.260  -2.500 -26.611  1.00  0.00     0.008 C 
ATOM     19  C   UNL     1      27.087  -2.981 -27.766  1.00  0.00     0.012 C 
ATOM     20  C   UNL     1      28.763  -0.252 -28.595  1.00  0.00    -0.025 C 
ATOM     21  C   UNL     1      29.002  -1.041 -26.138  1.00  0.00     0.005 C 
ATOM     22  C   UNL     1      29.388   0.050 -27.175  1.00  0.00     0.003 C 
ATOM     23  C   UNL     1      29.357   0.768 -29.623  1.00  0.00     0.010 C 
ATOM     24  C   UNL     1      27.213  -0.084 -28.644  1.00  0.00     0.012 C 
ATOM     25  C   UNL     1      29.315   1.559 -26.679  1.00  0.00    -0.006 C 
ATOM     26  C   UNL     1      29.185   2.249 -29.215  1.00  0.00     0.033 C 
ATOM     27  C   UNL     1      29.814   2.514 -27.831  1.00  0.00     0.120 C 
ATOM     28  C   UNL     1      27.907   1.973 -26.173  1.00  0.00     0.014 C 
ATOM     29  C   UNL     1      30.280   1.788 -25.489  1.00  0.00     0.014 C 
ENDROOT
BRANCH   1  30
ATOM     30  C   UNL     1      29.457  -7.613 -29.369  1.00  0.00     0.048 C 
ATOM     31  O   UNL     1      30.251  -8.150 -28.555  1.00  0.00    -0.550 OA
ATOM     32  O   UNL     1      28.149  -8.080 -29.414  1.00  0.00    -0.550 OA
ENDBRANCH   1  30
BRANCH  27  33
ATOM     33  O   UNL     1      29.705   3.873 -27.494  1.00  0.00    -0.393 OA
ATOM     34  H   UNL     1      30.422   4.097 -26.849  1.00  0.00     0.210 HD
ENDBRANCH  27  33
TORSDOF 2
ENDMDL
MODEL 5
REMARK VINA RESULT:    -5.600     10.717     12.766
REMARK INTER + INTRA:          -6.104
REMARK INTER:                  -6.096
REMARK INTRA:                  -0.009
REMARK UNBOUND:                -0.013
REMARK SMILES C[C@@H]1[C@H](C)CC[C@]2(C(=O)[O-])CC[C@@]3(C)C(=CC[C@@H]4[C@]5(C)CC[C@@H](O)C(C)(C)[C@H]5CC[C@@]43C)[C@H]12
REMARK SMILES IDX 7 1 6 2 11 3 33 4 5 5 12 6 15 7 2 8 3 9 13 10 16 11 1 12
REMARK SMILES IDX 4 13 14 14 31 15 17 16 18 17 30 18 32 19 19 20 29 21 28 22
REMARK SMILES IDX 21 23 20 24 25 25 22 26 23 27 26 28 27 29 8 30 9 31 10 32
REMARK SMILES IDX 24 33
REMARK H PARENT 24 34
REMARK Flexibility Score: inf
ROOT
ATOM      1  C   UNL     1      31.323   1.483 -29.394  1.00  0.00     0.017 C 
ATOM      2  C   UNL     1      30.368   2.678 -29.080  1.00  0.00     0.014 C 
ATOM      3  C   UNL     1      31.123   1.033 -30.872  1.00  0.00     0.014 C 
ATOM      4  C   UNL     1      31.037   0.226 -28.465  1.00  0.00     0.030 C 
ATOM      5  C   UNL     1      30.019   2.752 -27.576  1.00  0.00     0.004 C 
ATOM      6  C   UNL     1      32.048  -0.138 -31.313  1.00  0.00     0.013 C 
ATOM      7  C   UNL     1      31.427  -1.119 -29.148  1.00  0.00    -0.063 C 
ATOM      8  C   UNL     1      29.545   0.224 -27.926  1.00  0.00    -0.003 C 
ATOM      9  C   UNL     1      29.225   1.514 -27.088  1.00  0.00    -0.011 C 
ATOM     10  C   UNL     1      32.508  -1.165 -30.208  1.00  0.00    -0.006 C 
ATOM     11  C   UNL     1      31.008  -2.275 -28.670  1.00  0.00    -0.027 C 
ATOM     12  C   UNL     1      28.478  -0.056 -29.008  1.00  0.00     0.008 C 
ATOM     13  C   UNL     1      27.720   1.872 -26.985  1.00  0.00     0.008 C 
ATOM     14  C   UNL     1      33.847  -0.679 -29.536  1.00  0.00     0.017 C 
ATOM     15  C   UNL     1      32.763  -2.663 -30.844  1.00  0.00    -0.020 C 
ATOM     16  C   UNL     1      30.565  -3.324 -29.626  1.00  0.00     0.032 C 
ATOM     17  C   UNL     1      31.349  -3.385 -30.986  1.00  0.00     0.006 C 
ATOM     18  C   UNL     1      33.630  -3.647 -29.955  1.00  0.00     0.008 C 
ATOM     19  C   UNL     1      33.578  -2.469 -32.168  1.00  0.00     0.012 C 
ATOM     20  C   UNL     1      31.376  -4.870 -31.588  1.00  0.00    -0.025 C 
ATOM     21  C   UNL     1      33.682  -5.126 -30.433  1.00  0.00     0.005 C 
ATOM     22  C   UNL     1      32.291  -5.776 -30.671  1.00  0.00     0.003 C 
ATOM     23  C   UNL     1      29.938  -5.486 -31.613  1.00  0.00     0.010 C 
ATOM     24  C   UNL     1      31.856  -4.794 -33.070  1.00  0.00     0.012 C 
ATOM     25  C   UNL     1      32.279  -7.335 -30.985  1.00  0.00    -0.006 C 
ATOM     26  C   UNL     1      29.895  -6.972 -32.036  1.00  0.00     0.033 C 
ATOM     27  C   UNL     1      30.788  -7.831 -31.117  1.00  0.00     0.120 C 
ATOM     28  C   UNL     1      33.115  -7.717 -32.236  1.00  0.00     0.014 C 
ATOM     29  C   UNL     1      32.890  -8.132 -29.805  1.00  0.00     0.014 C 
ENDROOT
BRANCH   1  30
ATOM     30  C   UNL     1      32.746   2.056 -29.258  1.00  0.00     0.048 C 
ATOM     31  O   UNL     1      33.340   2.104 -28.150  1.00  0.00    -0.550 OA
ATOM     32  O   UNL     1      33.328   2.700 -30.343  1.00  0.00    -0.550 OA
ENDBRANCH   1  30
BRANCH  27  33
ATOM     33  O   UNL     1      30.698  -9.188 -31.472  1.00  0.00    -0.393 OA
ATOM     34  H   UNL     1      30.159  -9.263 -32.298  1.00  0.00     0.210 HD
ENDBRANCH  27  33
TORSDOF 2
ENDMDL
MODEL 6
REMARK VINA RESULT:    -5.586     12.542     14.668
REMARK INTER + INTRA:          -6.088
REMARK INTER:                  -6.135
REMARK INTRA:                   0.046
REMARK UNBOUND:                -0.013
REMARK SMILES C[C@@H]1[C@H](C)CC[C@]2(C(=O)[O-])CC[C@@]3(C)C(=CC[C@@H]4[C@]5(C)CC[C@@H](O)C(C)(C)[C@H]5CC[C@@]43C)[C@H]12
REMARK SMILES IDX 7 1 6 2 11 3 33 4 5 5 12 6 15 7 2 8 3 9 13 10 16 11 1 12
REMARK SMILES IDX 4 13 14 14 31 15 17 16 18 17 30 18 32 19 19 20 29 21 28 22
REMARK SMILES IDX 21 23 20 24 25 25 22 26 23 27 26 28 27 29 8 30 9 31 10 32
REMARK SMILES IDX 24 33
REMARK H PARENT 24 34
REMARK Flexibility Score: inf
ROOT
ATOM      1  C   UNL     1      32.052  -8.626 -24.555  1.00  0.00     0.017 C 
ATOM      2  C   UNL     1      33.084  -8.468 -25.717  1.00  0.00     0.014 C 
ATOM      3  C   UNL     1      31.216  -9.922 -24.775  1.00  0.00     0.014 C 
ATOM      4  C   UNL     1      31.037  -7.406 -24.484  1.00  0.00     0.030 C 
ATOM      5  C   UNL     1      33.465  -6.989 -25.948  1.00  0.00     0.004 C 
ATOM      6  C   UNL     1      30.170 -10.204 -23.659  1.00  0.00     0.013 C 
ATOM      7  C   UNL     1      29.664  -7.809 -23.870  1.00  0.00    -0.063 C 
ATOM      8  C   UNL     1      30.888  -6.686 -25.890  1.00  0.00    -0.003 C 
ATOM      9  C   UNL     1      32.261  -6.129 -26.411  1.00  0.00    -0.011 C 
ATOM     10  C   UNL     1      29.560  -8.966 -22.897  1.00  0.00    -0.006 C 
ATOM     11  C   UNL     1      28.607  -7.029 -23.987  1.00  0.00    -0.027 C 
ATOM     12  C   UNL     1      30.148  -7.524 -26.957  1.00  0.00     0.008 C 
ATOM     13  C   UNL     1      32.341  -5.911 -27.944  1.00  0.00     0.008 C 
ATOM     14  C   UNL     1      30.444  -8.607 -21.644  1.00  0.00     0.017 C 
ATOM     15  C   UNL     1      28.027  -9.271 -22.377  1.00  0.00    -0.020 C 
ATOM     16  C   UNL     1      27.288  -7.653 -24.270  1.00  0.00     0.032 C 
ATOM     17  C   UNL     1      27.038  -9.055 -23.608  1.00  0.00     0.006 C 
ATOM     18  C   UNL     1      27.481  -8.305 -21.247  1.00  0.00     0.008 C 
ATOM     19  C   UNL     1      28.034 -10.701 -21.737  1.00  0.00     0.012 C 
ATOM     20  C   UNL     1      25.482  -9.301 -23.310  1.00  0.00    -0.025 C 
ATOM     21  C   UNL     1      25.967  -8.436 -20.915  1.00  0.00     0.005 C 
ATOM     22  C   UNL     1      25.025  -8.332 -22.147  1.00  0.00     0.003 C 
ATOM     23  C   UNL     1      24.618  -8.993 -24.577  1.00  0.00     0.010 C 
ATOM     24  C   UNL     1      25.274 -10.811 -22.983  1.00  0.00     0.012 C 
ATOM     25  C   UNL     1      23.465  -8.277 -21.847  1.00  0.00    -0.006 C 
ATOM     26  C   UNL     1      23.092  -9.057 -24.332  1.00  0.00     0.033 C 
ATOM     27  C   UNL     1      22.677  -8.093 -23.201  1.00  0.00     0.120 C 
ATOM     28  C   UNL     1      22.947  -9.509 -21.056  1.00  0.00     0.014 C 
ATOM     29  C   UNL     1      23.120  -7.039 -20.982  1.00  0.00     0.014 C 
ENDROOT
BRANCH   1  30
ATOM     30  C   UNL     1      32.901  -8.815 -23.284  1.00  0.00     0.048 C 
ATOM     31  O   UNL     1      33.443  -7.844 -22.696  1.00  0.00    -0.550 OA
ATOM     32  O   UNL     1      33.230 -10.100 -22.869  1.00  0.00    -0.550 OA
ENDBRANCH   1  30
BRANCH  27  33
ATOM     33  O   UNL     1      21.284  -8.114 -23.024  1.00  0.00    -0.393 OA
ATOM     34  H   UNL     1      21.073  -8.690 -22.248  1.00  0.00     0.210 HD
ENDBRANCH  27  33
TORSDOF 2
ENDMDL
MODEL 7
REMARK VINA RESULT:    -5.542     13.808     15.651
REMARK INTER + INTRA:          -6.041
REMARK INTER:                  -6.027
REMARK INTRA:                  -0.014
REMARK UNBOUND:                -0.013
REMARK SMILES C[C@@H]1[C@H](C)CC[C@]2(C(=O)[O-])CC[C@@]3(C)C(=CC[C@@H]4[C@]5(C)CC[C@@H](O)C(C)(C)[C@H]5CC[C@@]43C)[C@H]12
REMARK SMILES IDX 7 1 6 2 11 3 33 4 5 5 12 6 15 7 2 8 3 9 13 10 16 11 1 12
REMARK SMILES IDX 4 13 14 14 31 15 17 16 18 17 30 18 32 19 19 20 29 21 28 22
REMARK SMILES IDX 21 23 20 24 25 25 22 26 23 27 26 28 27 29 8 30 9 31 10 32
REMARK SMILES IDX 24 33
REMARK H PARENT 24 34
REMARK Flexibility Score: inf
ROOT
ATOM      1  C   UNL     1      31.522  -8.067 -22.488  1.00  0.00     0.017 C 
ATOM      2  C   UNL     1      30.558  -8.482 -21.332  1.00  0.00     0.014 C 
ATOM      3  C   UNL     1      31.259  -6.582 -22.876  1.00  0.00     0.014 C 
ATOM      4  C   UNL     1      31.310  -8.950 -23.792  1.00  0.00     0.030 C 
ATOM      5  C   UNL     1      30.282 -10.003 -21.334  1.00  0.00     0.004 C 
ATOM      6  C   UNL     1      32.186  -6.042 -24.004  1.00  0.00     0.013 C 
ATOM      7  C   UNL     1      31.695  -8.188 -25.095  1.00  0.00    -0.063 C 
ATOM      8  C   UNL     1      29.847  -9.560 -23.854  1.00  0.00    -0.003 C 
ATOM      9  C   UNL     1      29.541 -10.472 -22.612  1.00  0.00    -0.011 C 
ATOM     10  C   UNL     1      32.723  -7.075 -25.067  1.00  0.00    -0.006 C 
ATOM     11  C   UNL     1      31.325  -8.632 -26.282  1.00  0.00    -0.027 C 
ATOM     12  C   UNL     1      28.734  -8.520 -24.111  1.00  0.00     0.008 C 
ATOM     13  C   UNL     1      28.035 -10.664 -22.295  1.00  0.00     0.008 C 
ATOM     14  C   UNL     1      34.082  -7.703 -24.580  1.00  0.00     0.017 C 
ATOM     15  C   UNL     1      32.978  -6.360 -26.529  1.00  0.00    -0.020 C 
ATOM     16  C   UNL     1      30.859  -7.651 -27.296  1.00  0.00     0.032 C 
ATOM     17  C   UNL     1      31.575  -6.253 -27.277  1.00  0.00     0.006 C 
ATOM     18  C   UNL     1      33.910  -7.159 -27.530  1.00  0.00     0.008 C 
ATOM     19  C   UNL     1      33.722  -5.008 -26.256  1.00  0.00     0.012 C 
ATOM     20  C   UNL     1      31.604  -5.583 -28.733  1.00  0.00    -0.025 C 
ATOM     21  C   UNL     1      33.970  -6.611 -28.985  1.00  0.00     0.005 C 
ATOM     22  C   UNL     1      32.584  -6.411 -29.657  1.00  0.00     0.003 C 
ATOM     23  C   UNL     1      30.181  -5.599 -29.382  1.00  0.00     0.010 C 
ATOM     24  C   UNL     1      32.008  -4.084 -28.579  1.00  0.00     0.012 C 
ATOM     25  C   UNL     1      32.590  -6.027 -31.200  1.00  0.00    -0.006 C 
ATOM     26  C   UNL     1      30.149  -5.110 -30.848  1.00  0.00     0.033 C 
ATOM     27  C   UNL     1      31.106  -5.945 -31.726  1.00  0.00     0.120 C 
ATOM     28  C   UNL     1      33.371  -4.720 -31.505  1.00  0.00     0.014 C 
ATOM     29  C   UNL     1      33.276  -7.137 -32.034  1.00  0.00     0.014 C 
ENDROOT
BRANCH   1  30
ATOM     30  C   UNL     1      32.937  -8.160 -21.888  1.00  0.00     0.048 C 
ATOM     31  O   UNL     1      33.603  -9.227 -21.918  1.00  0.00    -0.550 OA
ATOM     32  O   UNL     1      33.429  -7.101 -21.135  1.00  0.00    -0.550 OA
ENDBRANCH   1  30
BRANCH  27  33
ATOM     33  O   UNL     1      31.028  -5.533 -33.066  1.00  0.00    -0.393 OA
ATOM     34  H   UNL     1      30.558  -6.232 -33.585  1.00  0.00     0.210 HD
ENDBRANCH  27  33
TORSDOF 2
ENDMDL
MODEL 8
REMARK VINA RESULT:    -5.457     11.029     14.250
REMARK INTER + INTRA:          -5.948
REMARK INTER:                  -5.931
REMARK INTRA:                  -0.017
REMARK UNBOUND:                -0.013
REMARK SMILES C[C@@H]1[C@H](C)CC[C@]2(C(=O)[O-])CC[C@@]3(C)C(=CC[C@@H]4[C@]5(C)CC[C@@H](O)C(C)(C)[C@H]5CC[C@@]43C)[C@H]12
REMARK SMILES IDX 7 1 6 2 11 3 33 4 5 5 12 6 15 7 2 8 3 9 13 10 16 11 1 12
REMARK SMILES IDX 4 13 14 14 31 15 17 16 18 17 30 18 32 19 19 20 29 21 28 22
REMARK SMILES IDX 21 23 20 24 25 25 22 26 23 27 26 28 27 29 8 30 9 31 10 32
REMARK SMILES IDX 24 33
REMARK H PARENT 24 34
REMARK Flexibility Score: inf
ROOT
ATOM      1  C   UNL     1      26.309  -7.253 -23.830  1.00  0.00     0.017 C 
ATOM      2  C   UNL     1      26.046  -8.108 -22.550  1.00  0.00     0.014 C 
ATOM      3  C   UNL     1      26.019  -8.112 -25.097  1.00  0.00     0.014 C 
ATOM      4  C   UNL     1      27.815  -6.755 -23.920  1.00  0.00     0.030 C 
ATOM      5  C   UNL     1      26.888  -7.617 -21.351  1.00  0.00     0.004 C 
ATOM      6  C   UNL     1      26.217  -7.354 -26.441  1.00  0.00     0.013 C 
ATOM      7  C   UNL     1      28.281  -6.533 -25.390  1.00  0.00    -0.063 C 
ATOM      8  C   UNL     1      28.794  -7.704 -23.109  1.00  0.00    -0.003 C 
ATOM      9  C   UNL     1      28.411  -7.775 -21.587  1.00  0.00    -0.011 C 
ATOM     10  C   UNL     1      27.281  -6.190 -26.476  1.00  0.00    -0.006 C 
ATOM     11  C   UNL     1      29.559  -6.403 -25.690  1.00  0.00    -0.027 C 
ATOM     12  C   UNL     1      28.989  -9.103 -23.735  1.00  0.00     0.008 C 
ATOM     13  C   UNL     1      28.922  -9.035 -20.841  1.00  0.00     0.008 C 
ATOM     14  C   UNL     1      26.608  -4.823 -26.081  1.00  0.00     0.017 C 
ATOM     15  C   UNL     1      27.947  -6.025 -27.974  1.00  0.00    -0.020 C 
ATOM     16  C   UNL     1      30.076  -7.071 -26.914  1.00  0.00     0.032 C 
ATOM     17  C   UNL     1      29.085  -7.129 -28.132  1.00  0.00     0.006 C 
ATOM     18  C   UNL     1      28.679  -4.649 -28.251  1.00  0.00     0.008 C 
ATOM     19  C   UNL     1      26.772  -6.089 -29.009  1.00  0.00     0.012 C 
ATOM     20  C   UNL     1      29.867  -7.138 -29.531  1.00  0.00    -0.025 C 
ATOM     21  C   UNL     1      29.504  -4.571 -29.567  1.00  0.00     0.005 C 
ATOM     22  C   UNL     1      30.534  -5.721 -29.752  1.00  0.00     0.003 C 
ATOM     23  C   UNL     1      30.996  -8.220 -29.531  1.00  0.00     0.010 C 
ATOM     24  C   UNL     1      28.863  -7.538 -30.655  1.00  0.00     0.012 C 
ATOM     25  C   UNL     1      31.527  -5.595 -30.987  1.00  0.00    -0.006 C 
ATOM     26  C   UNL     1      31.899  -8.191 -30.786  1.00  0.00     0.033 C 
ATOM     27  C   UNL     1      32.543  -6.801 -30.967  1.00  0.00     0.120 C 
ATOM     28  C   UNL     1      30.799  -5.491 -32.354  1.00  0.00     0.014 C 
ATOM     29  C   UNL     1      32.387  -4.312 -30.864  1.00  0.00     0.014 C 
ENDROOT
BRANCH   1  30
ATOM     30  C   UNL     1      25.272  -6.116 -23.776  1.00  0.00     0.048 C 
ATOM     31  O   UNL     1      25.500  -5.036 -23.174  1.00  0.00    -0.550 OA
ATOM     32  O   UNL     1      23.985  -6.345 -24.247  1.00  0.00    -0.550 OA
ENDBRANCH   1  30
BRANCH  27  33
ATOM     33  O   UNL     1      33.406  -6.800 -32.076  1.00  0.00    -0.393 OA
ATOM     34  H   UNL     1      34.297  -6.484 -31.782  1.00  0.00     0.210 HD
ENDBRANCH  27  33
TORSDOF 2
ENDMDL
