MODEL 1
REMARK VINA RESULT:    -6.333      0.000      0.000
REMARK INTER + INTRA:         -10.999
REMARK INTER:                  -9.665
REMARK INTRA:                  -1.334
REMARK UNBOUND:                -1.334
REMARK SMILES OC[C@@H]1O[C@@H](O[C@]2(CO)O[C@H](CO)[C@@H](O)[C@@H]2O)[C@@H](O)[C@@H](O)[C@H]1O
REMARK SMILES IDX 6 1 5 2 3 3 22 4 4 5 20 6 18 7 2 8 1 9 23 11 21 13 19 15
REMARK SMILES IDX 7 17 16 18 10 19 14 20 11 21 8 22 9 23 17 25 15 27 12 29
REMARK SMILES IDX 13 30
REMARK H PARENT 1 10 23 12 21 14 19 16 9 24 17 26 15 28 13 31
REMARK Flexibility Score: inf
ROOT
ATOM      1  O   UNL     1      30.636 -38.304 -15.667  1.00  0.00    -0.313 OA
ENDROOT
BRANCH   1   2
ATOM      2  C   UNL     1      30.078 -38.287 -14.351  1.00  0.00     0.285 C 
ATOM      3  C   UNL     1      29.619 -35.918 -14.345  1.00  0.00     0.178 C 
ATOM      4  C   UNL     1      31.152 -35.739 -14.136  1.00  0.00     0.177 C 
ATOM      5  O   UNL     1      29.116 -37.252 -14.234  1.00  0.00    -0.341 OA
ATOM      6  C   UNL     1      31.657 -36.682 -13.029  1.00  0.00     0.179 C 
ATOM      7  C   UNL     1      31.178 -38.150 -13.263  1.00  0.00     0.202 C 
BRANCH   3   8
ATOM      8  C   UNL     1      28.840 -35.059 -13.337  1.00  0.00     0.191 C 
BRANCH   8   9
ATOM      9  O   UNL     1      28.345 -35.891 -12.322  1.00  0.00    -0.394 OA
ATOM     10  H   UNL     1      28.314 -36.803 -12.702  1.00  0.00     0.210 HD
ENDBRANCH   8   9
ENDBRANCH   3   8
BRANCH   4  11
ATOM     11  O   UNL     1      31.797 -35.973 -15.358  1.00  0.00    -0.387 OA
ATOM     12  H   UNL     1      32.682 -36.396 -15.170  1.00  0.00     0.211 HD
ENDBRANCH   4  11
BRANCH   6  13
ATOM     13  O   UNL     1      33.056 -36.622 -12.894  1.00  0.00    -0.387 OA
ATOM     14  H   UNL     1      33.385 -35.944 -13.544  1.00  0.00     0.211 HD
ENDBRANCH   6  13
BRANCH   7  15
ATOM     15  O   UNL     1      32.253 -39.022 -13.512  1.00  0.00    -0.385 OA
ATOM     16  H   UNL     1      31.884 -39.942 -13.577  1.00  0.00     0.211 HD
ENDBRANCH   7  15
ENDBRANCH   1   2
BRANCH   1  17
ATOM     17  C   UNL     1      29.907 -39.061 -16.651  1.00  0.00     0.224 C 
ATOM     18  C   UNL     1      30.707 -40.372 -16.942  1.00  0.00     0.208 C 
ATOM     19  O   UNL     1      28.622 -39.437 -16.180  1.00  0.00    -0.337 OA
ATOM     20  C   UNL     1      29.732 -41.466 -16.553  1.00  0.00     0.180 C 
ATOM     21  C   UNL     1      28.390 -40.762 -16.575  1.00  0.00     0.179 C 
BRANCH  17  22
ATOM     22  C   UNL     1      29.730 -38.149 -17.908  1.00  0.00     0.225 C 
BRANCH  22  23
ATOM     23  O   UNL     1      30.727 -37.159 -18.033  1.00  0.00    -0.391 OA
ATOM     24  H   UNL     1      30.910 -36.809 -17.123  1.00  0.00     0.210 HD
ENDBRANCH  22  23
ENDBRANCH  17  22
BRANCH  18  25
ATOM     25  O   UNL     1      31.872 -40.455 -16.149  1.00  0.00    -0.385 OA
ATOM     26  H   UNL     1      31.561 -40.701 -15.235  1.00  0.00     0.211 HD
ENDBRANCH  18  25
BRANCH  20  27
ATOM     27  O   UNL     1      29.762 -42.532 -17.470  1.00  0.00    -0.387 OA
ATOM     28  H   UNL     1      30.540 -43.094 -17.206  1.00  0.00     0.211 HD
ENDBRANCH  20  27
BRANCH  21  29
ATOM     29  C   UNL     1      27.374 -41.418 -15.633  1.00  0.00     0.191 C 
BRANCH  29  30
ATOM     30  O   UNL     1      26.945 -42.627 -16.183  1.00  0.00    -0.394 OA
ATOM     31  H   UNL     1      26.764 -42.428 -17.152  1.00  0.00     0.210 HD
ENDBRANCH  29  30
ENDBRANCH  21  29
ENDBRANCH   1  17
TORSDOF 13
ENDMDL
MODEL 2
REMARK VINA RESULT:    -6.305      1.243      5.963
REMARK INTER + INTRA:         -10.956
REMARK INTER:                  -9.856
REMARK INTRA:                  -1.100
REMARK UNBOUND:                -1.334
REMARK SMILES OC[C@@H]1O[C@@H](O[C@]2(CO)O[C@H](CO)[C@@H](O)[C@@H]2O)[C@@H](O)[C@@H](O)[C@H]1O
REMARK SMILES IDX 6 1 5 2 3 3 22 4 4 5 20 6 18 7 2 8 1 9 23 11 21 13 19 15
REMARK SMILES IDX 7 17 16 18 10 19 14 20 11 21 8 22 9 23 17 25 15 27 12 29
REMARK SMILES IDX 13 30
REMARK H PARENT 1 10 23 12 21 14 19 16 9 24 17 26 15 28 13 31
REMARK Flexibility Score: inf
ROOT
ATOM      1  O   UNL     1      30.546 -38.246 -15.228  1.00  0.00    -0.313 OA
ENDROOT
BRANCH   1   2
ATOM      2  C   UNL     1      29.394 -38.414 -16.058  1.00  0.00     0.285 C 
ATOM      3  C   UNL     1      29.445 -40.826 -16.009  1.00  0.00     0.178 C 
ATOM      4  C   UNL     1      30.641 -40.705 -16.999  1.00  0.00     0.177 C 
ATOM      5  O   UNL     1      28.723 -39.620 -15.737  1.00  0.00    -0.341 OA
ATOM      6  C   UNL     1      30.305 -39.715 -18.130  1.00  0.00     0.179 C 
ATOM      7  C   UNL     1      29.761 -38.364 -17.566  1.00  0.00     0.202 C 
BRANCH   3   8
ATOM      8  C   UNL     1      28.425 -41.851 -16.528  1.00  0.00     0.191 C 
BRANCH   8   9
ATOM      9  O   UNL     1      27.166 -41.550 -15.988  1.00  0.00    -0.394 OA
ATOM     10  H   UNL     1      27.296 -41.465 -15.013  1.00  0.00     0.210 HD
ENDBRANCH   8   9
ENDBRANCH   3   8
BRANCH   4  11
ATOM     11  O   UNL     1      31.776 -40.310 -16.278  1.00  0.00    -0.387 OA
ATOM     12  H   UNL     1      31.560 -40.349 -15.304  1.00  0.00     0.211 HD
ENDBRANCH   4  11
BRANCH   6  13
ATOM     13  O   UNL     1      31.407 -39.503 -18.978  1.00  0.00    -0.387 OA
ATOM     14  H   UNL     1      31.740 -40.398 -19.256  1.00  0.00     0.211 HD
ENDBRANCH   6  13
BRANCH   7  15
ATOM     15  O   UNL     1      30.625 -37.290 -17.847  1.00  0.00    -0.385 OA
ATOM     16  H   UNL     1      31.548 -37.654 -17.895  1.00  0.00     0.211 HD
ENDBRANCH   7  15
ENDBRANCH   1   2
BRANCH   1  17
ATOM     17  C   UNL     1      30.493 -37.158 -14.288  1.00  0.00     0.224 C 
ATOM     18  C   UNL     1      30.916 -37.709 -12.887  1.00  0.00     0.208 C 
ATOM     19  O   UNL     1      31.399 -36.121 -14.632  1.00  0.00    -0.337 OA
ATOM     20  C   UNL     1      32.141 -36.883 -12.545  1.00  0.00     0.180 C 
ATOM     21  C   UNL     1      32.013 -35.676 -13.452  1.00  0.00     0.179 C 
BRANCH  17  22
ATOM     22  C   UNL     1      29.041 -36.582 -14.316  1.00  0.00     0.225 C 
BRANCH  22  23
ATOM     23  O   UNL     1      28.443 -36.494 -13.042  1.00  0.00    -0.391 OA
ATOM     24  H   UNL     1      27.708 -35.830 -13.105  1.00  0.00     0.210 HD
ENDBRANCH  22  23
ENDBRANCH  17  22
BRANCH  18  25
ATOM     25  O   UNL     1      31.254 -39.078 -12.949  1.00  0.00    -0.385 OA
ATOM     26  H   UNL     1      32.023 -39.138 -13.581  1.00  0.00     0.211 HD
ENDBRANCH  18  25
BRANCH  20  27
ATOM     27  O   UNL     1      32.143 -36.503 -11.191  1.00  0.00    -0.387 OA
ATOM     28  H   UNL     1      32.876 -35.835 -11.099  1.00  0.00     0.211 HD
ENDBRANCH  20  27
BRANCH  21  29
ATOM     29  C   UNL     1      33.372 -35.046 -13.776  1.00  0.00     0.191 C 
BRANCH  29  30
ATOM     30  O   UNL     1      33.965 -34.589 -12.597  1.00  0.00    -0.394 OA
ATOM     31  H   UNL     1      34.938 -34.827 -12.682  1.00  0.00     0.210 HD
ENDBRANCH  29  30
ENDBRANCH  21  29
ENDBRANCH   1  17
TORSDOF 13
ENDMDL
MODEL 3
REMARK VINA RESULT:    -6.254      1.788      3.985
REMARK INTER + INTRA:         -10.878
REMARK INTER:                  -9.242
REMARK INTRA:                  -1.636
REMARK UNBOUND:                -1.334
REMARK SMILES OC[C@@H]1O[C@@H](O[C@]2(CO)O[C@H](CO)[C@@H](O)[C@@H]2O)[C@@H](O)[C@@H](O)[C@H]1O
REMARK SMILES IDX 6 1 5 2 3 3 22 4 4 5 20 6 18 7 2 8 1 9 23 11 21 13 19 15
REMARK SMILES IDX 7 17 16 18 10 19 14 20 11 21 8 22 9 23 17 25 15 27 12 29
REMARK SMILES IDX 13 30
REMARK H PARENT 1 10 23 12 21 14 19 16 9 24 17 26 15 28 13 31
REMARK Flexibility Score: inf
ROOT
ATOM      1  O   UNL     1      29.347 -38.392 -15.283  1.00  0.00    -0.313 OA
ENDROOT
BRANCH   1   2
ATOM      2  C   UNL     1      30.645 -37.869 -14.995  1.00  0.00     0.285 C 
ATOM      3  C   UNL     1      30.362 -37.902 -12.599  1.00  0.00     0.178 C 
ATOM      4  C   UNL     1      29.459 -36.650 -12.804  1.00  0.00     0.177 C 
ATOM      5  O   UNL     1      31.104 -38.343 -13.740  1.00  0.00    -0.341 OA
ATOM      6  C   UNL     1      30.149 -35.636 -13.736  1.00  0.00     0.179 C 
ATOM      7  C   UNL     1      30.663 -36.317 -15.045  1.00  0.00     0.202 C 
BRANCH   3   8
ATOM      8  C   UNL     1      31.378 -37.647 -11.475  1.00  0.00     0.191 C 
BRANCH   8   9
ATOM      9  O   UNL     1      30.770 -36.859 -10.486  1.00  0.00    -0.394 OA
ATOM     10  H   UNL     1      29.808 -37.082 -10.508  1.00  0.00     0.210 HD
ENDBRANCH   8   9
ENDBRANCH   3   8
BRANCH   4  11
ATOM     11  O   UNL     1      28.224 -37.072 -13.315  1.00  0.00    -0.387 OA
ATOM     12  H   UNL     1      27.680 -36.263 -13.530  1.00  0.00     0.211 HD
ENDBRANCH   4  11
BRANCH   6  13
ATOM     13  O   UNL     1      29.312 -34.545 -14.027  1.00  0.00    -0.387 OA
ATOM     14  H   UNL     1      29.774 -33.995 -14.716  1.00  0.00     0.211 HD
ENDBRANCH   6  13
BRANCH   7  15
ATOM     15  O   UNL     1      29.995 -35.835 -16.185  1.00  0.00    -0.385 OA
ATOM     16  H   UNL     1      30.190 -34.863 -16.257  1.00  0.00     0.211 HD
ENDBRANCH   7  15
ENDBRANCH   1   2
BRANCH   1  17
ATOM     17  C   UNL     1      29.186 -39.006 -16.575  1.00  0.00     0.224 C 
ATOM     18  C   UNL     1      27.913 -38.394 -17.245  1.00  0.00     0.208 C 
ATOM     19  O   UNL     1      30.290 -38.737 -17.425  1.00  0.00    -0.337 OA
ATOM     20  C   UNL     1      28.458 -37.759 -18.510  1.00  0.00     0.180 C 
ATOM     21  C   UNL     1      29.789 -38.456 -18.705  1.00  0.00     0.179 C 
BRANCH  17  22
ATOM     22  C   UNL     1      29.091 -40.550 -16.353  1.00  0.00     0.225 C 
BRANCH  22  23
ATOM     23  O   UNL     1      27.766 -41.035 -16.328  1.00  0.00    -0.391 OA
ATOM     24  H   UNL     1      27.212 -40.357 -15.862  1.00  0.00     0.210 HD
ENDBRANCH  22  23
ENDBRANCH  17  22
BRANCH  18  25
ATOM     25  O   UNL     1      27.316 -37.412 -16.426  1.00  0.00    -0.385 OA
ATOM     26  H   UNL     1      28.022 -36.726 -16.268  1.00  0.00     0.211 HD
ENDBRANCH  18  25
BRANCH  20  27
ATOM     27  O   UNL     1      27.604 -37.977 -19.605  1.00  0.00    -0.387 OA
ATOM     28  H   UNL     1      27.539 -37.102 -20.075  1.00  0.00     0.211 HD
ENDBRANCH  20  27
BRANCH  21  29
ATOM     29  C   UNL     1      30.791 -37.592 -19.479  1.00  0.00     0.191 C 
BRANCH  29  30
ATOM     30  O   UNL     1      31.069 -36.436 -18.747  1.00  0.00    -0.394 OA
ATOM     31  H   UNL     1      30.181 -35.983 -18.622  1.00  0.00     0.210 HD
ENDBRANCH  29  30
ENDBRANCH  21  29
ENDBRANCH   1  17
TORSDOF 13
ENDMDL
MODEL 4
REMARK VINA RESULT:    -6.068     10.853     13.251
REMARK INTER + INTRA:         -10.595
REMARK INTER:                  -9.270
REMARK INTRA:                  -1.324
REMARK UNBOUND:                -1.334
REMARK SMILES OC[C@@H]1O[C@@H](O[C@]2(CO)O[C@H](CO)[C@@H](O)[C@@H]2O)[C@@H](O)[C@@H](O)[C@H]1O
REMARK SMILES IDX 6 1 5 2 3 3 22 4 4 5 20 6 18 7 2 8 1 9 23 11 21 13 19 15
REMARK SMILES IDX 7 17 16 18 10 19 14 20 11 21 8 22 9 23 17 25 15 27 12 29
REMARK SMILES IDX 13 30
REMARK H PARENT 1 10 23 12 21 14 19 16 9 24 17 26 15 28 13 31
REMARK Flexibility Score: inf
ROOT
ATOM      1  O   UNL     1      35.141 -39.322  -3.400  1.00  0.00    -0.313 OA
ENDROOT
BRANCH   1   2
ATOM      2  C   UNL     1      35.653 -40.448  -4.115  1.00  0.00     0.285 C 
ATOM      3  C   UNL     1      37.764 -40.501  -2.947  1.00  0.00     0.178 C 
ATOM      4  C   UNL     1      38.143 -39.264  -3.815  1.00  0.00     0.177 C 
ATOM      5  O   UNL     1      36.557 -41.180  -3.306  1.00  0.00    -0.341 OA
ATOM      6  C   UNL     1      37.789 -39.515  -5.292  1.00  0.00     0.179 C 
ATOM      7  C   UNL     1      36.321 -40.023  -5.452  1.00  0.00     0.202 C 
BRANCH   3   8
ATOM      8  C   UNL     1      38.893 -41.542  -2.982  1.00  0.00     0.191 C 
BRANCH   8   9
ATOM      9  O   UNL     1      38.330 -42.822  -2.871  1.00  0.00    -0.394 OA
ATOM     10  H   UNL     1      37.899 -43.011  -3.739  1.00  0.00     0.210 HD
ENDBRANCH   8   9
ENDBRANCH   3   8
BRANCH   4  11
ATOM     11  O   UNL     1      37.480 -38.141  -3.301  1.00  0.00    -0.387 OA
ATOM     12  H   UNL     1      37.049 -37.656  -4.060  1.00  0.00     0.211 HD
ENDBRANCH   4  11
BRANCH   6  13
ATOM     13  O   UNL     1      38.019 -38.374  -6.082  1.00  0.00    -0.387 OA
ATOM     14  H   UNL     1      37.898 -37.581  -5.494  1.00  0.00     0.211 HD
ENDBRANCH   6  13
BRANCH   7  15
ATOM     15  O   UNL     1      35.519 -39.104  -6.154  1.00  0.00    -0.385 OA
ATOM     16  H   UNL     1      35.213 -39.550  -6.987  1.00  0.00     0.211 HD
ENDBRANCH   7  15
ENDBRANCH   1   2
BRANCH   1  17
ATOM     17  C   UNL     1      33.765 -39.411  -2.983  1.00  0.00     0.224 C 
ATOM     18  C   UNL     1      33.016 -38.147  -3.518  1.00  0.00     0.208 C 
ATOM     19  O   UNL     1      33.125 -40.554  -3.529  1.00  0.00    -0.337 OA
ATOM     20  C   UNL     1      31.942 -38.735  -4.414  1.00  0.00     0.180 C 
ATOM     21  C   UNL     1      31.840 -40.171  -3.941  1.00  0.00     0.179 C 
BRANCH  17  22
ATOM     22  C   UNL     1      33.753 -39.528  -1.425  1.00  0.00     0.225 C 
BRANCH  22  23
ATOM     23  O   UNL     1      34.500 -40.620  -0.935  1.00  0.00    -0.391 OA
ATOM     24  H   UNL     1      33.908 -41.133  -0.327  1.00  0.00     0.210 HD
ENDBRANCH  22  23
ENDBRANCH  17  22
BRANCH  18  25
ATOM     25  O   UNL     1      33.873 -37.315  -4.269  1.00  0.00    -0.385 OA
ATOM     26  H   UNL     1      34.299 -37.907  -4.948  1.00  0.00     0.211 HD
ENDBRANCH  18  25
BRANCH  20  27
ATOM     27  O   UNL     1      30.718 -38.061  -4.260  1.00  0.00    -0.387 OA
ATOM     28  H   UNL     1      30.773 -37.597  -3.381  1.00  0.00     0.211 HD
ENDBRANCH  20  27
BRANCH  21  29
ATOM     29  C   UNL     1      31.342 -41.113  -5.043  1.00  0.00     0.191 C 
BRANCH  29  30
ATOM     30  O   UNL     1      31.791 -42.409  -4.784  1.00  0.00    -0.394 OA
ATOM     31  H   UNL     1      32.610 -42.296  -4.212  1.00  0.00     0.210 HD
ENDBRANCH  29  30
ENDBRANCH  21  29
ENDBRANCH   1  17
TORSDOF 13
ENDMDL
MODEL 5
REMARK VINA RESULT:    -6.052      1.516      2.914
REMARK INTER + INTRA:         -10.569
REMARK INTER:                  -9.454
REMARK INTRA:                  -1.115
REMARK UNBOUND:                -1.334
REMARK SMILES OC[C@@H]1O[C@@H](O[C@]2(CO)O[C@H](CO)[C@@H](O)[C@@H]2O)[C@@H](O)[C@@H](O)[C@H]1O
REMARK SMILES IDX 6 1 5 2 3 3 22 4 4 5 20 6 18 7 2 8 1 9 23 11 21 13 19 15
REMARK SMILES IDX 7 17 16 18 10 19 14 20 11 21 8 22 9 23 17 25 15 27 12 29
REMARK SMILES IDX 13 30
REMARK H PARENT 1 10 23 12 21 14 19 16 9 24 17 26 15 28 13 31
REMARK Flexibility Score: inf
ROOT
ATOM      1  O   UNL     1      30.185 -38.379 -15.783  1.00  0.00    -0.313 OA
ENDROOT
BRANCH   1   2
ATOM      2  C   UNL     1      29.792 -38.356 -14.409  1.00  0.00     0.285 C 
ATOM      3  C   UNL     1      29.464 -35.967 -14.322  1.00  0.00     0.178 C 
ATOM      4  C   UNL     1      31.019 -35.871 -14.299  1.00  0.00     0.177 C 
ATOM      5  O   UNL     1      28.908 -37.275 -14.164  1.00  0.00    -0.341 OA
ATOM      6  C   UNL     1      31.603 -36.858 -13.272  1.00  0.00     0.179 C 
ATOM      7  C   UNL     1      31.021 -38.295 -13.461  1.00  0.00     0.202 C 
BRANCH   3   8
ATOM      8  C   UNL     1      28.860 -35.086 -13.217  1.00  0.00     0.191 C 
BRANCH   8   9
ATOM      9  O   UNL     1      28.323 -35.916 -12.222  1.00  0.00    -0.394 OA
ATOM     10  H   UNL     1      28.695 -36.817 -12.382  1.00  0.00     0.210 HD
ENDBRANCH   8   9
ENDBRANCH   3   8
BRANCH   4  11
ATOM     11  O   UNL     1      31.498 -36.118 -15.593  1.00  0.00    -0.387 OA
ATOM     12  H   UNL     1      30.766 -36.539 -16.125  1.00  0.00     0.211 HD
ENDBRANCH   4  11
BRANCH   6  13
ATOM     13  O   UNL     1      33.009 -36.872 -13.307  1.00  0.00    -0.387 OA
ATOM     14  H   UNL     1      33.300 -37.795 -13.075  1.00  0.00     0.211 HD
ENDBRANCH   6  13
BRANCH   7  15
ATOM     15  O   UNL     1      32.011 -39.216 -13.849  1.00  0.00    -0.385 OA
ATOM     16  H   UNL     1      32.285 -38.989 -14.776  1.00  0.00     0.211 HD
ENDBRANCH   7  15
ENDBRANCH   1   2
BRANCH   1  17
ATOM     17  C   UNL     1      29.502 -39.333 -16.618  1.00  0.00     0.224 C 
ATOM     18  C   UNL     1      28.502 -38.548 -17.529  1.00  0.00     0.208 C 
ATOM     19  O   UNL     1      30.402 -40.027 -17.467  1.00  0.00    -0.337 OA
ATOM     20  C   UNL     1      28.980 -38.876 -18.930  1.00  0.00     0.180 C 
ATOM     21  C   UNL     1      29.807 -40.130 -18.733  1.00  0.00     0.179 C 
BRANCH  17  22
ATOM     22  C   UNL     1      28.805 -40.367 -15.677  1.00  0.00     0.225 C 
BRANCH  22  23
ATOM     23  O   UNL     1      27.481 -40.672 -16.055  1.00  0.00    -0.391 OA
ATOM     24  H   UNL     1      27.059 -41.148 -15.294  1.00  0.00     0.210 HD
ENDBRANCH  22  23
ENDBRANCH  17  22
BRANCH  18  25
ATOM     25  O   UNL     1      28.577 -37.157 -17.302  1.00  0.00    -0.385 OA
ATOM     26  H   UNL     1      28.687 -37.049 -16.318  1.00  0.00     0.211 HD
ENDBRANCH  18  25
BRANCH  20  27
ATOM     27  O   UNL     1      27.901 -39.110 -19.800  1.00  0.00    -0.387 OA
ATOM     28  H   UNL     1      27.143 -39.395 -19.220  1.00  0.00     0.211 HD
ENDBRANCH  20  27
BRANCH  21  29
ATOM     29  C   UNL     1      30.889 -40.288 -19.808  1.00  0.00     0.191 C 
BRANCH  29  30
ATOM     30  O   UNL     1      31.708 -39.158 -19.812  1.00  0.00    -0.394 OA
ATOM     31  H   UNL     1      31.152 -38.431 -20.230  1.00  0.00     0.210 HD
ENDBRANCH  29  30
ENDBRANCH  21  29
ENDBRANCH   1  17
TORSDOF 13
ENDMDL
MODEL 6
REMARK VINA RESULT:    -5.986      1.790      6.041
REMARK INTER + INTRA:         -10.469
REMARK INTER:                  -9.299
REMARK INTRA:                  -1.170
REMARK UNBOUND:                -1.334
REMARK SMILES OC[C@@H]1O[C@@H](O[C@]2(CO)O[C@H](CO)[C@@H](O)[C@@H]2O)[C@@H](O)[C@@H](O)[C@H]1O
REMARK SMILES IDX 6 1 5 2 3 3 22 4 4 5 20 6 18 7 2 8 1 9 23 11 21 13 19 15
REMARK SMILES IDX 7 17 16 18 10 19 14 20 11 21 8 22 9 23 17 25 15 27 12 29
REMARK SMILES IDX 13 30
REMARK H PARENT 1 10 23 12 21 14 19 16 9 24 17 26 15 28 13 31
REMARK Flexibility Score: inf
ROOT
ATOM      1  O   UNL     1      29.336 -39.454 -17.174  1.00  0.00    -0.313 OA
ENDROOT
BRANCH   1   2
ATOM      2  C   UNL     1      30.113 -40.606 -16.842  1.00  0.00     0.285 C 
ATOM      3  C   UNL     1      31.070 -40.860 -19.043  1.00  0.00     0.178 C 
ATOM      4  C   UNL     1      29.677 -41.419 -19.458  1.00  0.00     0.177 C 
ATOM      5  O   UNL     1      31.282 -40.664 -17.641  1.00  0.00    -0.341 OA
ATOM      6  C   UNL     1      29.187 -42.458 -18.432  1.00  0.00     0.179 C 
ATOM      7  C   UNL     1      29.285 -41.914 -16.972  1.00  0.00     0.202 C 
BRANCH   3   8
ATOM      8  C   UNL     1      32.186 -41.791 -19.539  1.00  0.00     0.191 C 
BRANCH   8   9
ATOM      9  O   UNL     1      33.249 -41.750 -18.625  1.00  0.00    -0.394 OA
ATOM     10  H   UNL     1      32.982 -41.113 -17.919  1.00  0.00     0.210 HD
ENDBRANCH   8   9
ENDBRANCH   3   8
BRANCH   4  11
ATOM     11  O   UNL     1      28.785 -40.344 -19.578  1.00  0.00    -0.387 OA
ATOM     12  H   UNL     1      29.102 -39.604 -18.987  1.00  0.00     0.211 HD
ENDBRANCH   4  11
BRANCH   6  13
ATOM     13  O   UNL     1      27.884 -42.900 -18.722  1.00  0.00    -0.387 OA
ATOM     14  H   UNL     1      27.877 -43.888 -18.612  1.00  0.00     0.211 HD
ENDBRANCH   6  13
BRANCH   7  15
ATOM     15  O   UNL     1      28.019 -41.778 -16.375  1.00  0.00    -0.385 OA
ATOM     16  H   UNL     1      27.389 -42.363 -16.873  1.00  0.00     0.211 HD
ENDBRANCH   7  15
ENDBRANCH   1   2
BRANCH   1  17
ATOM     17  C   UNL     1      29.676 -38.241 -16.477  1.00  0.00     0.224 C 
ATOM     18  C   UNL     1      28.438 -37.809 -15.626  1.00  0.00     0.208 C 
ATOM     19  O   UNL     1      30.764 -38.434 -15.587  1.00  0.00    -0.337 OA
ATOM     20  C   UNL     1      28.973 -37.821 -14.207  1.00  0.00     0.180 C 
ATOM     21  C   UNL     1      30.474 -37.748 -14.398  1.00  0.00     0.179 C 
BRANCH  17  22
ATOM     22  C   UNL     1      30.092 -37.184 -17.550  1.00  0.00     0.225 C 
BRANCH  22  23
ATOM     23  O   UNL     1      31.125 -37.623 -18.405  1.00  0.00    -0.391 OA
ATOM     24  H   UNL     1      31.701 -38.237 -17.880  1.00  0.00     0.210 HD
ENDBRANCH  22  23
ENDBRANCH  17  22
BRANCH  18  25
ATOM     25  O   UNL     1      27.375 -38.729 -15.753  1.00  0.00    -0.385 OA
ATOM     26  H   UNL     1      27.683 -39.562 -15.302  1.00  0.00     0.211 HD
ENDBRANCH  18  25
BRANCH  20  27
ATOM     27  O   UNL     1      28.500 -36.721 -13.470  1.00  0.00    -0.387 OA
ATOM     28  H   UNL     1      29.304 -36.176 -13.251  1.00  0.00     0.211 HD
ENDBRANCH  20  27
BRANCH  21  29
ATOM     29  C   UNL     1      31.240 -38.379 -13.230  1.00  0.00     0.191 C 
BRANCH  29  30
ATOM     30  O   UNL     1      32.250 -39.204 -13.730  1.00  0.00    -0.394 OA
ATOM     31  H   UNL     1      33.099 -38.678 -13.620  1.00  0.00     0.210 HD
ENDBRANCH  29  30
ENDBRANCH  21  29
ENDBRANCH   1  17
TORSDOF 13
ENDMDL
MODEL 7
REMARK VINA RESULT:    -5.967     11.942     14.686
REMARK INTER + INTRA:         -10.441
REMARK INTER:                  -9.410
REMARK INTRA:                  -1.031
REMARK UNBOUND:                -1.334
REMARK SMILES OC[C@@H]1O[C@@H](O[C@]2(CO)O[C@H](CO)[C@@H](O)[C@@H]2O)[C@@H](O)[C@@H](O)[C@H]1O
REMARK SMILES IDX 6 1 5 2 3 3 22 4 4 5 20 6 18 7 2 8 1 9 23 11 21 13 19 15
REMARK SMILES IDX 7 17 16 18 10 19 14 20 11 21 8 22 9 23 17 25 15 27 12 29
REMARK SMILES IDX 13 30
REMARK H PARENT 1 10 23 12 21 14 19 16 9 24 17 26 15 28 13 31
REMARK Flexibility Score: inf
ROOT
ATOM      1  O   UNL     1      35.452 -40.355  -2.787  1.00  0.00    -0.313 OA
ENDROOT
BRANCH   1   2
ATOM      2  C   UNL     1      35.015 -39.494  -3.841  1.00  0.00     0.285 C 
ATOM      3  C   UNL     1      33.949 -37.896  -2.381  1.00  0.00     0.178 C 
ATOM      4  C   UNL     1      32.819 -38.959  -2.233  1.00  0.00     0.177 C 
ATOM      5  O   UNL     1      34.934 -38.155  -3.386  1.00  0.00    -0.341 OA
ATOM      6  C   UNL     1      32.414 -39.508  -3.613  1.00  0.00     0.179 C 
ATOM      7  C   UNL     1      33.660 -39.962  -4.439  1.00  0.00     0.202 C 
BRANCH   3   8
ATOM      8  C   UNL     1      33.345 -36.517  -2.690  1.00  0.00     0.191 C 
BRANCH   8   9
ATOM      9  O   UNL     1      32.054 -36.457  -2.144  1.00  0.00    -0.394 OA
ATOM     10  H   UNL     1      32.012 -37.163  -1.454  1.00  0.00     0.210 HD
ENDBRANCH   8   9
ENDBRANCH   3   8
BRANCH   4  11
ATOM     11  O   UNL     1      33.274 -39.973  -1.379  1.00  0.00    -0.387 OA
ATOM     12  H   UNL     1      32.843 -40.831  -1.654  1.00  0.00     0.211 HD
ENDBRANCH   4  11
BRANCH   6  13
ATOM     13  O   UNL     1      31.474 -40.548  -3.502  1.00  0.00    -0.387 OA
ATOM     14  H   UNL     1      31.599 -40.963  -2.606  1.00  0.00     0.211 HD
ENDBRANCH   6  13
BRANCH   7  15
ATOM     15  O   UNL     1      33.657 -41.348  -4.676  1.00  0.00    -0.385 OA
ATOM     16  H   UNL     1      34.604 -41.647  -4.712  1.00  0.00     0.211 HD
ENDBRANCH   7  15
ENDBRANCH   1   2
BRANCH   1  17
ATOM     17  C   UNL     1      36.872 -40.577  -2.702  1.00  0.00     0.224 C 
ATOM     18  C   UNL     1      37.396 -39.864  -1.412  1.00  0.00     0.208 C 
ATOM     19  O   UNL     1      37.183 -41.957  -2.587  1.00  0.00    -0.337 OA
ATOM     20  C   UNL     1      37.984 -41.003  -0.602  1.00  0.00     0.180 C 
ATOM     21  C   UNL     1      38.205 -42.089  -1.635  1.00  0.00     0.179 C 
BRANCH  17  22
ATOM     22  C   UNL     1      37.513 -40.030  -4.018  1.00  0.00     0.225 C 
BRANCH  22  23
ATOM     23  O   UNL     1      38.588 -39.144  -3.797  1.00  0.00    -0.391 OA
ATOM     24  H   UNL     1      38.213 -38.320  -3.392  1.00  0.00     0.210 HD
ENDBRANCH  22  23
ENDBRANCH  17  22
BRANCH  18  25
ATOM     25  O   UNL     1      36.346 -39.250  -0.697  1.00  0.00    -0.385 OA
ATOM     26  H   UNL     1      35.570 -39.229  -1.322  1.00  0.00     0.211 HD
ENDBRANCH  18  25
BRANCH  20  27
ATOM     27  O   UNL     1      39.194 -40.629   0.008  1.00  0.00    -0.387 OA
ATOM     28  H   UNL     1      39.210 -39.633  -0.012  1.00  0.00     0.211 HD
ENDBRANCH  20  27
BRANCH  21  29
ATOM     29  C   UNL     1      38.167 -43.493  -1.020  1.00  0.00     0.191 C 
BRANCH  29  30
ATOM     30  O   UNL     1      37.019 -43.626  -0.237  1.00  0.00    -0.394 OA
ATOM     31  H   UNL     1      37.082 -44.543   0.169  1.00  0.00     0.210 HD
ENDBRANCH  29  30
ENDBRANCH  21  29
ENDBRANCH   1  17
TORSDOF 13
ENDMDL
MODEL 8
REMARK VINA RESULT:    -5.949     11.102     13.822
REMARK INTER + INTRA:         -10.413
REMARK INTER:                  -9.092
REMARK INTRA:                  -1.321
REMARK UNBOUND:                -1.334
REMARK SMILES OC[C@@H]1O[C@@H](O[C@]2(CO)O[C@H](CO)[C@@H](O)[C@@H]2O)[C@@H](O)[C@@H](O)[C@H]1O
REMARK SMILES IDX 6 1 5 2 3 3 22 4 4 5 20 6 18 7 2 8 1 9 23 11 21 13 19 15
REMARK SMILES IDX 7 17 16 18 10 19 14 20 11 21 8 22 9 23 17 25 15 27 12 29
REMARK SMILES IDX 13 30
REMARK H PARENT 1 10 23 12 21 14 19 16 9 24 17 26 15 28 13 31
REMARK Flexibility Score: inf
ROOT
ATOM      1  O   UNL     1      35.590 -39.161  -4.008  1.00  0.00    -0.313 OA
ENDROOT
BRANCH   1   2
ATOM      2  C   UNL     1      34.863 -40.240  -3.417  1.00  0.00     0.285 C 
ATOM      3  C   UNL     1      32.841 -39.848  -4.675  1.00  0.00     0.178 C 
ATOM      4  C   UNL     1      32.618 -38.640  -3.718  1.00  0.00     0.177 C 
ATOM      5  O   UNL     1      33.900 -40.745  -4.326  1.00  0.00    -0.341 OA
ATOM      6  C   UNL     1      32.842 -39.063  -2.255  1.00  0.00     0.179 C 
ATOM      7  C   UNL     1      34.198 -39.818  -2.078  1.00  0.00     0.202 C 
BRANCH   3   8
ATOM      8  C   UNL     1      31.558 -40.688  -4.780  1.00  0.00     0.191 C 
BRANCH   8   9
ATOM      9  O   UNL     1      31.905 -42.047  -4.761  1.00  0.00    -0.394 OA
ATOM     10  H   UNL     1      31.054 -42.549  -4.757  1.00  0.00     0.210 HD
ENDBRANCH   8   9
ENDBRANCH   3   8
BRANCH   4  11
ATOM     11  O   UNL     1      33.482 -37.604  -4.102  1.00  0.00    -0.387 OA
ATOM     12  H   UNL     1      32.930 -36.833  -4.414  1.00  0.00     0.211 HD
ENDBRANCH   4  11
BRANCH   6  13
ATOM     13  O   UNL     1      32.755 -37.967  -1.378  1.00  0.00    -0.387 OA
ATOM     14  H   UNL     1      33.626 -37.903  -0.901  1.00  0.00     0.211 HD
ENDBRANCH   6  13
BRANCH   7  15
ATOM     15  O   UNL     1      35.096 -39.104  -1.265  1.00  0.00    -0.385 OA
ATOM     16  H   UNL     1      35.905 -38.913  -1.809  1.00  0.00     0.211 HD
ENDBRANCH   7  15
ENDBRANCH   1   2
BRANCH   1  17
ATOM     17  C   UNL     1      36.987 -39.404  -4.260  1.00  0.00     0.224 C 
ATOM     18  C   UNL     1      37.812 -38.322  -3.489  1.00  0.00     0.208 C 
ATOM     19  O   UNL     1      37.393 -40.676  -3.780  1.00  0.00    -0.337 OA
ATOM     20  C   UNL     1      38.666 -39.145  -2.545  1.00  0.00     0.180 C 
ATOM     21  C   UNL     1      38.647 -40.526  -3.170  1.00  0.00     0.179 C 
BRANCH  17  22
ATOM     22  C   UNL     1      37.200 -39.363  -5.807  1.00  0.00     0.225 C 
BRANCH  22  23
ATOM     23  O   UNL     1      36.254 -40.123  -6.527  1.00  0.00    -0.391 OA
ATOM     24  H   UNL     1      36.662 -41.010  -6.704  1.00  0.00     0.210 HD
ENDBRANCH  22  23
ENDBRANCH  17  22
BRANCH  18  25
ATOM     25  O   UNL     1      36.973 -37.455  -2.756  1.00  0.00    -0.385 OA
ATOM     26  H   UNL     1      37.018 -37.770  -1.812  1.00  0.00     0.211 HD
ENDBRANCH  18  25
BRANCH  20  27
ATOM     27  O   UNL     1      39.976 -38.642  -2.465  1.00  0.00    -0.387 OA
ATOM     28  H   UNL     1      40.216 -38.364  -3.390  1.00  0.00     0.211 HD
ENDBRANCH  20  27
BRANCH  21  29
ATOM     29  C   UNL     1      38.861 -41.636  -2.135  1.00  0.00     0.191 C 
BRANCH  29  30
ATOM     30  O   UNL     1      38.936 -42.869  -2.786  1.00  0.00    -0.394 OA
ATOM     31  H   UNL     1      38.098 -43.357  -2.523  1.00  0.00     0.210 HD
ENDBRANCH  29  30
ENDBRANCH  21  29
ENDBRANCH   1  17
TORSDOF 13
ENDMDL
MODEL 9
REMARK VINA RESULT:    -5.841     11.333     13.934
REMARK INTER + INTRA:         -10.248
REMARK INTER:                  -9.253
REMARK INTRA:                  -0.996
REMARK UNBOUND:                -1.334
REMARK SMILES OC[C@@H]1O[C@@H](O[C@]2(CO)O[C@H](CO)[C@@H](O)[C@@H]2O)[C@@H](O)[C@@H](O)[C@H]1O
REMARK SMILES IDX 6 1 5 2 3 3 22 4 4 5 20 6 18 7 2 8 1 9 23 11 21 13 19 15
REMARK SMILES IDX 7 17 16 18 10 19 14 20 11 21 8 22 9 23 17 25 15 27 12 29
REMARK SMILES IDX 13 30
REMARK H PARENT 1 10 23 12 21 14 19 16 9 24 17 26 15 28 13 31
REMARK Flexibility Score: inf
ROOT
ATOM      1  O   UNL     1      34.840 -38.819  -3.530  1.00  0.00    -0.313 OA
ENDROOT
BRANCH   1   2
ATOM      2  C   UNL     1      35.008 -40.084  -4.174  1.00  0.00     0.285 C 
ATOM      3  C   UNL     1      36.971 -40.704  -2.916  1.00  0.00     0.178 C 
ATOM      4  C   UNL     1      37.730 -39.687  -3.820  1.00  0.00     0.177 C 
ATOM      5  O   UNL     1      35.626 -41.009  -3.297  1.00  0.00    -0.341 OA
ATOM      6  C   UNL     1      37.357 -39.899  -5.299  1.00  0.00     0.179 C 
ATOM      7  C   UNL     1      35.809 -39.951  -5.499  1.00  0.00     0.202 C 
BRANCH   3   8
ATOM      8  C   UNL     1      37.734 -42.036  -2.858  1.00  0.00     0.191 C 
BRANCH   8   9
ATOM      9  O   UNL     1      36.807 -43.089  -2.874  1.00  0.00    -0.394 OA
ATOM     10  H   UNL     1      35.913 -42.670  -2.911  1.00  0.00     0.210 HD
ENDBRANCH   8   9
ENDBRANCH   3   8
BRANCH   4  11
ATOM     11  O   UNL     1      37.422 -38.390  -3.384  1.00  0.00    -0.387 OA
ATOM     12  H   UNL     1      36.902 -37.932  -4.102  1.00  0.00     0.211 HD
ENDBRANCH   4  11
BRANCH   6  13
ATOM     13  O   UNL     1      37.942 -38.924  -6.126  1.00  0.00    -0.387 OA
ATOM     14  H   UNL     1      38.689 -39.364  -6.615  1.00  0.00     0.211 HD
ENDBRANCH   6  13
BRANCH   7  15
ATOM     15  O   UNL     1      35.342 -38.874  -6.273  1.00  0.00    -0.385 OA
ATOM     16  H   UNL     1      35.201 -38.104  -5.660  1.00  0.00     0.211 HD
ENDBRANCH   7  15
ENDBRANCH   1   2
BRANCH   1  17
ATOM     17  C   UNL     1      33.491 -38.472  -3.165  1.00  0.00     0.224 C 
ATOM     18  C   UNL     1      33.317 -38.751  -1.637  1.00  0.00     0.208 C 
ATOM     19  O   UNL     1      33.225 -37.095  -3.383  1.00  0.00    -0.337 OA
ATOM     20  C   UNL     1      32.963 -37.388  -1.074  1.00  0.00     0.180 C 
ATOM     21  C   UNL     1      32.485 -36.621  -2.290  1.00  0.00     0.179 C 
BRANCH  17  22
ATOM     22  C   UNL     1      32.529 -39.314  -4.064  1.00  0.00     0.225 C 
BRANCH  22  23
ATOM     23  O   UNL     1      31.670 -40.161  -3.333  1.00  0.00    -0.391 OA
ATOM     24  H   UNL     1      30.810 -40.204  -3.825  1.00  0.00     0.210 HD
ENDBRANCH  22  23
ENDBRANCH  17  22
BRANCH  18  25
ATOM     25  O   UNL     1      34.515 -39.221  -1.056  1.00  0.00    -0.385 OA
ATOM     26  H   UNL     1      35.217 -38.563  -1.315  1.00  0.00     0.211 HD
ENDBRANCH  18  25
BRANCH  20  27
ATOM     27  O   UNL     1      31.952 -37.480  -0.102  1.00  0.00    -0.387 OA
ATOM     28  H   UNL     1      31.384 -38.252  -0.374  1.00  0.00     0.211 HD
ENDBRANCH  20  27
BRANCH  21  29
ATOM     29  C   UNL     1      32.686 -35.109  -2.140  1.00  0.00     0.191 C 
BRANCH  29  30
ATOM     30  O   UNL     1      31.441 -34.479  -2.082  1.00  0.00    -0.394 OA
ATOM     31  H   UNL     1      31.240 -34.381  -1.102  1.00  0.00     0.210 HD
ENDBRANCH  29  30
ENDBRANCH  21  29
ENDBRANCH   1  17
TORSDOF 13
ENDMDL
