MODEL 1
REMARK VINA RESULT:    -0.188      0.000      0.000
REMARK INTER + INTRA:          -0.558
REMARK INTER:                  -0.227
REMARK INTRA:                  -0.331
REMARK UNBOUND:                -0.331
REMARK SMILES NC(=O)C[C@H]([NH3+])C(=O)[O-]
REMARK SMILES IDX 4 1 5 2 6 3 7 7 8 8 9 9 2 10 3 11 1 12
REMARK H PARENT 6 4 6 5 6 6 1 13 1 14
REMARK Flexibility Score: inf
ROOT
ATOM      1  C   UNL     1       2.332  -0.461  -5.790  1.00  0.00     0.171 C 
ENDROOT
BRANCH   1   2
ATOM      2  C   UNL     1       3.105  -0.658  -7.108  1.00  0.00     0.237 C 
BRANCH   2   3
ATOM      3  N   UNL     1       4.404   0.030  -7.077  1.00  0.00    -0.350 N 
ATOM      4  H   UNL     1       4.355   0.888  -6.482  1.00  0.00     0.345 HD
ATOM      5  H   UNL     1       4.684   0.302  -8.048  1.00  0.00     0.345 HD
ATOM      6  H   UNL     1       5.140  -0.610  -6.700  1.00  0.00     0.345 HD
ENDBRANCH   2   3
BRANCH   2   7
ATOM      7  C   UNL     1       2.280  -0.151  -8.260  1.00  0.00     0.100 C 
ATOM      8  O   UNL     1       2.809   0.560  -9.154  1.00  0.00    -0.544 OA
ATOM      9  O   UNL     1       0.931  -0.477  -8.352  1.00  0.00    -0.544 OA
ENDBRANCH   2   7
ENDBRANCH   1   2
BRANCH   1  10
ATOM     10  C   UNL     1       2.083   0.991  -5.503  1.00  0.00     0.223 C 
ATOM     11  O   UNL     1       2.932   1.654  -4.850  1.00  0.00    -0.275 OA
ATOM     12  N   UNL     1       0.907   1.636  -5.994  1.00  0.00    -0.369 N 
ATOM     13  H   UNL     1       0.743   2.649  -5.802  1.00  0.00     0.159 HD
ATOM     14  H   UNL     1       0.204   1.107  -6.557  1.00  0.00     0.159 HD
ENDBRANCH   1  10
TORSDOF 4
ENDMDL
MODEL 2
REMARK VINA RESULT:    -0.140      1.142      2.606
REMARK INTER + INTRA:          -0.499
REMARK INTER:                  -0.306
REMARK INTRA:                  -0.194
REMARK UNBOUND:                -0.331
REMARK SMILES NC(=O)C[C@H]([NH3+])C(=O)[O-]
REMARK SMILES IDX 4 1 5 2 6 3 7 7 8 8 9 9 2 10 3 11 1 12
REMARK H PARENT 6 4 6 5 6 6 1 13 1 14
REMARK Flexibility Score: inf
ROOT
ATOM      1  C   UNL     1       2.549  -0.334  -6.006  1.00  0.00     0.171 C 
ENDROOT
BRANCH   1   2
ATOM      2  C   UNL     1       1.927   0.687  -6.979  1.00  0.00     0.237 C 
BRANCH   2   3
ATOM      3  N   UNL     1       0.659   1.219  -6.461  1.00  0.00    -0.350 N 
ATOM      4  H   UNL     1       0.471   0.858  -5.498  1.00  0.00     0.345 HD
ATOM      5  H   UNL     1      -0.127   0.939  -7.092  1.00  0.00     0.345 HD
ATOM      6  H   UNL     1       0.692   2.264  -6.436  1.00  0.00     0.345 HD
ENDBRANCH   2   3
BRANCH   2   7
ATOM      7  C   UNL     1       1.706   0.039  -8.319  1.00  0.00     0.100 C 
ATOM      8  O   UNL     1       0.701  -0.695  -8.510  1.00  0.00    -0.544 OA
ATOM      9  O   UNL     1       2.602   0.258  -9.360  1.00  0.00    -0.544 OA
ENDBRANCH   2   7
ENDBRANCH   1   2
BRANCH   1  10
ATOM     10  C   UNL     1       4.035  -0.155  -5.887  1.00  0.00     0.223 C 
ATOM     11  O   UNL     1       4.555   0.017  -4.752  1.00  0.00    -0.275 OA
ATOM     12  N   UNL     1       4.868  -0.212  -7.046  1.00  0.00    -0.369 N 
ATOM     13  H   UNL     1       5.902  -0.098  -6.957  1.00  0.00     0.159 HD
ATOM     14  H   UNL     1       4.456  -0.377  -7.991  1.00  0.00     0.159 HD
ENDBRANCH   1  10
TORSDOF 4
ENDMDL
MODEL 3
REMARK VINA RESULT:     0.241      1.701      3.525
REMARK INTER + INTRA:          -0.041
REMARK INTER:                   0.016
REMARK INTRA:                  -0.056
REMARK UNBOUND:                -0.331
REMARK SMILES NC(=O)C[C@H]([NH3+])C(=O)[O-]
REMARK SMILES IDX 4 1 5 2 6 3 7 7 8 8 9 9 2 10 3 11 1 12
REMARK H PARENT 6 4 6 5 6 6 1 13 1 14
REMARK Flexibility Score: inf
ROOT
ATOM      1  C   UNL     1       2.087  -0.482  -6.878  1.00  0.00     0.171 C 
ENDROOT
BRANCH   1   2
ATOM      2  C   UNL     1       3.294   0.370  -6.439  1.00  0.00     0.237 C 
BRANCH   2   3
ATOM      3  N   UNL     1       4.541  -0.407  -6.476  1.00  0.00    -0.350 N 
ATOM      4  H   UNL     1       5.373   0.226  -6.480  1.00  0.00     0.345 HD
ATOM      5  H   UNL     1       4.560  -1.005  -7.335  1.00  0.00     0.345 HD
ATOM      6  H   UNL     1       4.594  -1.040  -5.645  1.00  0.00     0.345 HD
ENDBRANCH   2   3
BRANCH   2   7
ATOM      7  C   UNL     1       3.059   0.903  -5.051  1.00  0.00     0.100 C 
ATOM      8  O   UNL     1       3.730   0.461  -4.081  1.00  0.00    -0.544 OA
ATOM      9  O   UNL     1       2.113   1.898  -4.833  1.00  0.00    -0.544 OA
ENDBRANCH   2   7
ENDBRANCH   1   2
BRANCH   1  10
ATOM     10  C   UNL     1       1.759  -0.275  -8.328  1.00  0.00     0.223 C 
ATOM     11  O   UNL     1       0.701  -0.766  -8.806  1.00  0.00    -0.275 OA
ATOM     12  N   UNL     1       2.619   0.502  -9.163  1.00  0.00    -0.369 N 
ATOM     13  H   UNL     1       2.381   0.652 -10.169  1.00  0.00     0.159 HD
ATOM     14  H   UNL     1       3.487   0.935  -8.778  1.00  0.00     0.159 HD
ENDBRANCH   1  10
TORSDOF 4
ENDMDL
MODEL 4
REMARK VINA RESULT:     0.350      1.345      3.798
REMARK INTER + INTRA:           0.090
REMARK INTER:                   0.355
REMARK INTRA:                  -0.265
REMARK UNBOUND:                -0.331
REMARK SMILES NC(=O)C[C@H]([NH3+])C(=O)[O-]
REMARK SMILES IDX 4 1 5 2 6 3 7 7 8 8 9 9 2 10 3 11 1 12
REMARK H PARENT 6 4 6 5 6 6 1 13 1 14
REMARK Flexibility Score: inf
ROOT
ATOM      1  C   UNL     1       2.747  -0.331  -7.092  1.00  0.00     0.171 C 
ENDROOT
BRANCH   1   2
ATOM      2  C   UNL     1       1.878   0.320  -5.999  1.00  0.00     0.237 C 
BRANCH   2   3
ATOM      3  N   UNL     1       0.899   1.253  -6.575  1.00  0.00    -0.350 N 
ATOM      4  H   UNL     1       1.135   1.471  -7.570  1.00  0.00     0.345 HD
ATOM      5  H   UNL     1       0.889   2.141  -6.022  1.00  0.00     0.345 HD
ATOM      6  H   UNL     1      -0.059   0.838  -6.531  1.00  0.00     0.345 HD
ENDBRANCH   2   3
BRANCH   2   7
ATOM      7  C   UNL     1       2.760   1.040  -5.014  1.00  0.00     0.100 C 
ATOM      8  O   UNL     1       2.474   2.210  -4.646  1.00  0.00    -0.544 OA
ATOM      9  O   UNL     1       3.885   0.413  -4.491  1.00  0.00    -0.544 OA
ENDBRANCH   2   7
ENDBRANCH   1   2
BRANCH   1  10
ATOM     10  C   UNL     1       2.162  -0.131  -8.460  1.00  0.00     0.223 C 
ATOM     11  O   UNL     1       1.069  -0.681  -8.759  1.00  0.00    -0.275 OA
ATOM     12  N   UNL     1       2.816   0.707  -9.414  1.00  0.00    -0.369 N 
ATOM     13  H   UNL     1       2.400   0.852 -10.360  1.00  0.00     0.159 HD
ATOM     14  H   UNL     1       3.711   1.189  -9.175  1.00  0.00     0.159 HD
ENDBRANCH   1  10
TORSDOF 4
ENDMDL
MODEL 5
REMARK VINA RESULT:     0.413      4.419      6.373
REMARK INTER + INTRA:           0.166
REMARK INTER:                   0.434
REMARK INTRA:                  -0.268
REMARK UNBOUND:                -0.331
REMARK SMILES NC(=O)C[C@H]([NH3+])C(=O)[O-]
REMARK SMILES IDX 4 1 5 2 6 3 7 7 8 8 9 9 2 10 3 11 1 12
REMARK H PARENT 6 4 6 5 6 6 1 13 1 14
REMARK Flexibility Score: inf
ROOT
ATOM      1  C   UNL     1      -0.242   2.996  -4.573  1.00  0.00     0.171 C 
ENDROOT
BRANCH   1   2
ATOM      2  C   UNL     1      -1.521   3.844  -4.719  1.00  0.00     0.237 C 
BRANCH   2   3
ATOM      3  N   UNL     1      -1.455   4.717  -5.900  1.00  0.00    -0.350 N 
ATOM      4  H   UNL     1      -1.925   4.268  -6.719  1.00  0.00     0.345 HD
ATOM      5  H   UNL     1      -0.456   4.911  -6.142  1.00  0.00     0.345 HD
ATOM      6  H   UNL     1      -1.918   5.632  -5.695  1.00  0.00     0.345 HD
ENDBRANCH   2   3
BRANCH   2   7
ATOM      7  C   UNL     1      -1.724   4.670  -3.477  1.00  0.00     0.100 C 
ATOM      8  O   UNL     1      -1.978   4.109  -2.378  1.00  0.00    -0.544 OA
ATOM      9  O   UNL     1      -1.618   6.055  -3.532  1.00  0.00    -0.544 OA
ENDBRANCH   2   7
ENDBRANCH   1   2
BRANCH   1  10
ATOM     10  C   UNL     1      -0.068   2.050  -5.726  1.00  0.00     0.223 C 
ATOM     11  O   UNL     1      -1.054   1.769  -6.459  1.00  0.00    -0.275 OA
ATOM     12  N   UNL     1       1.214   1.492  -6.020  1.00  0.00    -0.369 N 
ATOM     13  H   UNL     1       1.332   0.844  -6.830  1.00  0.00     0.159 HD
ATOM     14  H   UNL     1       2.046   1.732  -5.437  1.00  0.00     0.159 HD
ENDBRANCH   1  10
TORSDOF 4
ENDMDL
MODEL 6
REMARK VINA RESULT:     0.863      2.507      3.236
REMARK INTER + INTRA:           0.709
REMARK INTER:                   0.994
REMARK INTRA:                  -0.285
REMARK UNBOUND:                -0.331
REMARK SMILES NC(=O)C[C@H]([NH3+])C(=O)[O-]
REMARK SMILES IDX 4 1 5 2 6 3 7 7 8 8 9 9 2 10 3 11 1 12
REMARK H PARENT 6 4 6 5 6 6 1 13 1 14
REMARK Flexibility Score: inf
ROOT
ATOM      1  C   UNL     1      -0.085   1.893  -6.154  1.00  0.00     0.171 C 
ENDROOT
BRANCH   1   2
ATOM      2  C   UNL     1       1.132   1.250  -5.460  1.00  0.00     0.237 C 
BRANCH   2   3
ATOM      3  N   UNL     1       2.029   2.269  -4.896  1.00  0.00    -0.350 N 
ATOM      4  H   UNL     1       1.863   3.199  -5.345  1.00  0.00     0.345 HD
ATOM      5  H   UNL     1       3.025   1.987  -5.047  1.00  0.00     0.345 HD
ATOM      6  H   UNL     1       1.873   2.352  -3.865  1.00  0.00     0.345 HD
ENDBRANCH   2   3
BRANCH   2   7
ATOM      7  C   UNL     1       1.880   0.392  -6.445  1.00  0.00     0.100 C 
ATOM      8  O   UNL     1       1.438   0.236  -7.613  1.00  0.00    -0.544 OA
ATOM      9  O   UNL     1       3.073  -0.221  -6.075  1.00  0.00    -0.544 OA
ENDBRANCH   2   7
ENDBRANCH   1   2
BRANCH   1  10
ATOM     10  C   UNL     1      -0.748   2.916  -5.278  1.00  0.00     0.223 C 
ATOM     11  O   UNL     1      -0.949   2.661  -4.061  1.00  0.00    -0.275 OA
ATOM     12  N   UNL     1      -1.121   4.190  -5.805  1.00  0.00    -0.369 N 
ATOM     13  H   UNL     1      -1.572   4.903  -5.189  1.00  0.00     0.159 HD
ATOM     14  H   UNL     1      -0.941   4.427  -6.805  1.00  0.00     0.159 HD
ENDBRANCH   1  10
TORSDOF 4
ENDMDL
MODEL 7
REMARK VINA RESULT:     1.093      1.899      2.186
REMARK INTER + INTRA:           0.985
REMARK INTER:                   1.135
REMARK INTRA:                  -0.150
REMARK UNBOUND:                -0.331
REMARK SMILES NC(=O)C[C@H]([NH3+])C(=O)[O-]
REMARK SMILES IDX 4 1 5 2 6 3 7 7 8 8 9 9 2 10 3 11 1 12
REMARK H PARENT 6 4 6 5 6 6 1 13 1 14
REMARK Flexibility Score: inf
ROOT
ATOM      1  C   UNL     1       1.847  -0.187  -6.446  1.00  0.00     0.171 C 
ENDROOT
BRANCH   1   2
ATOM      2  C   UNL     1       1.746   0.078  -7.960  1.00  0.00     0.237 C 
BRANCH   2   3
ATOM      3  N   UNL     1       1.060  -1.022  -8.654  1.00  0.00    -0.350 N 
ATOM      4  H   UNL     1       1.658  -1.879  -8.671  1.00  0.00     0.345 HD
ATOM      5  H   UNL     1       0.838  -0.738  -9.636  1.00  0.00     0.345 HD
ATOM      6  H   UNL     1       0.158  -1.241  -8.173  1.00  0.00     0.345 HD
ENDBRANCH   2   3
BRANCH   2   7
ATOM      7  C   UNL     1       3.124   0.270  -8.533  1.00  0.00     0.100 C 
ATOM      8  O   UNL     1       3.279   0.426  -9.774  1.00  0.00    -0.544 OA
ATOM      9  O   UNL     1       4.234   0.293  -7.697  1.00  0.00    -0.544 OA
ENDBRANCH   2   7
ENDBRANCH   1   2
BRANCH   1  10
ATOM     10  C   UNL     1       1.811   1.089  -5.654  1.00  0.00     0.223 C 
ATOM     11  O   UNL     1       0.775   1.804  -5.669  1.00  0.00    -0.275 OA
ATOM     12  N   UNL     1       2.930   1.480  -4.858  1.00  0.00    -0.369 N 
ATOM     13  H   UNL     1       2.897   2.362  -4.300  1.00  0.00     0.159 HD
ATOM     14  H   UNL     1       3.789   0.887  -4.816  1.00  0.00     0.159 HD
ENDBRANCH   1  10
TORSDOF 4
ENDMDL
MODEL 8
REMARK VINA RESULT:     1.334      2.218      3.070
REMARK INTER + INTRA:           1.276
REMARK INTER:                   0.164
REMARK INTRA:                   1.111
REMARK UNBOUND:                -0.331
REMARK SMILES NC(=O)C[C@H]([NH3+])C(=O)[O-]
REMARK SMILES IDX 4 1 5 2 6 3 7 7 8 8 9 9 2 10 3 11 1 12
REMARK H PARENT 6 4 6 5 6 6 1 13 1 14
REMARK Flexibility Score: inf
ROOT
ATOM      1  C   UNL     1       2.487  -0.736  -6.136  1.00  0.00     0.171 C 
ENDROOT
BRANCH   1   2
ATOM      2  C   UNL     1       1.514   0.225  -6.847  1.00  0.00     0.237 C 
BRANCH   2   3
ATOM      3  N   UNL     1       2.082   0.731  -8.105  1.00  0.00    -0.350 N 
ATOM      4  H   UNL     1       1.476   0.472  -8.916  1.00  0.00     0.345 HD
ATOM      5  H   UNL     1       3.038   0.331  -8.248  1.00  0.00     0.345 HD
ATOM      6  H   UNL     1       2.175   1.772  -8.063  1.00  0.00     0.345 HD
ENDBRANCH   2   3
BRANCH   2   7
ATOM      7  C   UNL     1       1.179   1.373  -5.933  1.00  0.00     0.100 C 
ATOM      8  O   UNL     1       0.041   1.911  -5.982  1.00  0.00    -0.544 OA
ATOM      9  O   UNL     1       2.117   1.837  -5.017  1.00  0.00    -0.544 OA
ENDBRANCH   2   7
ENDBRANCH   1   2
BRANCH   1  10
ATOM     10  C   UNL     1       3.879  -0.176  -6.079  1.00  0.00     0.223 C 
ATOM     11  O   UNL     1       4.361   0.187  -4.973  1.00  0.00    -0.275 OA
ATOM     12  N   UNL     1       4.673  -0.084  -7.262  1.00  0.00    -0.369 N 
ATOM     13  H   UNL     1       5.645   0.296  -7.215  1.00  0.00     0.159 HD
ATOM     14  H   UNL     1       4.298  -0.402  -8.182  1.00  0.00     0.159 HD
ENDBRANCH   1  10
TORSDOF 4
ENDMDL
MODEL 9
REMARK VINA RESULT:     1.359      2.147      2.349
REMARK INTER + INTRA:           1.307
REMARK INTER:                   1.181
REMARK INTRA:                   0.126
REMARK UNBOUND:                -0.331
REMARK SMILES NC(=O)C[C@H]([NH3+])C(=O)[O-]
REMARK SMILES IDX 4 1 5 2 6 3 7 7 8 8 9 9 2 10 3 11 1 12
REMARK H PARENT 6 4 6 5 6 6 1 13 1 14
REMARK Flexibility Score: inf
ROOT
ATOM      1  C   UNL     1       1.310   0.459  -6.205  1.00  0.00     0.171 C 
ENDROOT
BRANCH   1   2
ATOM      2  C   UNL     1       2.552   0.609  -7.106  1.00  0.00     0.237 C 
BRANCH   2   3
ATOM      3  N   UNL     1       2.363  -0.065  -8.398  1.00  0.00    -0.350 N 
ATOM      4  H   UNL     1       3.138  -0.743  -8.579  1.00  0.00     0.345 HD
ATOM      5  H   UNL     1       2.340   0.644  -9.168  1.00  0.00     0.345 HD
ATOM      6  H   UNL     1       1.450  -0.575  -8.406  1.00  0.00     0.345 HD
ENDBRANCH   2   3
BRANCH   2   7
ATOM      7  C   UNL     1       3.758   0.049  -6.402  1.00  0.00     0.100 C 
ATOM      8  O   UNL     1       4.732  -0.392  -7.068  1.00  0.00    -0.544 OA
ATOM      9  O   UNL     1       3.813   0.029  -5.013  1.00  0.00    -0.544 OA
ENDBRANCH   2   7
ENDBRANCH   1   2
BRANCH   1  10
ATOM     10  C   UNL     1       0.979   1.740  -5.495  1.00  0.00     0.223 C 
ATOM     11  O   UNL     1       1.832   2.272  -4.736  1.00  0.00    -0.275 OA
ATOM     12  N   UNL     1      -0.281   2.379  -5.702  1.00  0.00    -0.369 N 
ATOM     13  H   UNL     1      -0.502   3.276  -5.215  1.00  0.00     0.159 HD
ATOM     14  H   UNL     1      -0.990   1.965  -6.346  1.00  0.00     0.159 HD
ENDBRANCH   1  10
TORSDOF 4
ENDMDL
