MODEL 1
REMARK VINA RESULT:    -3.175      0.000      0.000
REMARK INTER + INTRA:          -5.197
REMARK INTER:                  -4.475
REMARK INTRA:                  -0.722
REMARK UNBOUND:                -0.722
REMARK SMILES CCCCCCCCC(=O)[O-]
REMARK SMILES IDX 6 1 7 2 8 3 9 4 10 5 11 6 5 7 4 8 3 9 2 10 1 11
REMARK H PARENT
REMARK Flexibility Score: inf
ROOT
ATOM      1  C   UNL     1     -24.528   2.446 -33.130  1.00  0.00     0.000 C 
ENDROOT
BRANCH   1   2
ATOM      2  C   UNL     1     -23.130   2.470 -33.757  1.00  0.00     0.006 C 
BRANCH   2   3
ATOM      3  C   UNL     1     -23.204   2.272 -35.274  1.00  0.00     0.053 C 
BRANCH   3   4
ATOM      4  C   UNL     1     -22.778   3.516 -35.987  1.00  0.00     0.041 C 
ATOM      5  O   UNL     1     -22.333   3.452 -37.163  1.00  0.00    -0.550 OA
ATOM      6  O   UNL     1     -22.825   4.741 -35.334  1.00  0.00    -0.550 OA
ENDBRANCH   3   4
ENDBRANCH   2   3
ENDBRANCH   1   2
BRANCH   1   7
ATOM      7  C   UNL     1     -24.775   3.702 -32.287  1.00  0.00     0.000 C 
BRANCH   7   8
ATOM      8  C   UNL     1     -25.994   4.479 -32.798  1.00  0.00    -0.000 C 
BRANCH   8   9
ATOM      9  C   UNL     1     -26.891   3.589 -33.665  1.00  0.00    -0.000 C 
BRANCH   9  10
ATOM     10  C   UNL     1     -27.431   4.362 -34.874  1.00  0.00    -0.003 C 
ATOM     11  C   UNL     1     -26.304   4.754 -35.826  1.00  0.00     0.004 C 
ENDBRANCH   9  10
ENDBRANCH   8   9
ENDBRANCH   7   8
ENDBRANCH   1   7
TORSDOF 7
ENDMDL
MODEL 2
REMARK VINA RESULT:    -3.010      1.243      2.041
REMARK INTER + INTRA:          -4.964
REMARK INTER:                  -4.296
REMARK INTRA:                  -0.668
REMARK UNBOUND:                -0.722
REMARK SMILES CCCCCCCCC(=O)[O-]
REMARK SMILES IDX 6 1 7 2 8 3 9 4 10 5 11 6 5 7 4 8 3 9 2 10 1 11
REMARK H PARENT
REMARK Flexibility Score: inf
ROOT
ATOM      1  C   UNL     1     -22.758   1.898 -34.541  1.00  0.00     0.000 C 
ENDROOT
BRANCH   1   2
ATOM      2  C   UNL     1     -22.786   2.268 -36.028  1.00  0.00     0.006 C 
BRANCH   2   3
ATOM      3  C   UNL     1     -22.856   3.787 -36.216  1.00  0.00     0.053 C 
BRANCH   3   4
ATOM      4  C   UNL     1     -23.052   4.128 -37.659  1.00  0.00     0.041 C 
ATOM      5  O   UNL     1     -22.093   4.025 -38.469  1.00  0.00    -0.550 OA
ATOM      6  O   UNL     1     -24.279   4.605 -38.101  1.00  0.00    -0.550 OA
ENDBRANCH   3   4
ENDBRANCH   2   3
ENDBRANCH   1   2
BRANCH   1   7
ATOM      7  C   UNL     1     -23.157   3.094 -33.668  1.00  0.00     0.000 C 
BRANCH   7   8
ATOM      8  C   UNL     1     -24.349   2.745 -32.768  1.00  0.00    -0.000 C 
BRANCH   8   9
ATOM      9  C   UNL     1     -25.438   3.821 -32.855  1.00  0.00    -0.000 C 
BRANCH   9  10
ATOM     10  C   UNL     1     -26.478   3.466 -33.924  1.00  0.00    -0.003 C 
ATOM     11  C   UNL     1     -26.363   4.390 -35.133  1.00  0.00     0.004 C 
ENDBRANCH   9  10
ENDBRANCH   8   9
ENDBRANCH   7   8
ENDBRANCH   1   7
TORSDOF 7
ENDMDL
MODEL 3
REMARK VINA RESULT:    -2.973      2.742      4.465
REMARK INTER + INTRA:          -4.912
REMARK INTER:                  -4.354
REMARK INTRA:                  -0.557
REMARK UNBOUND:                -0.722
REMARK SMILES CCCCCCCCC(=O)[O-]
REMARK SMILES IDX 6 1 7 2 8 3 9 4 10 5 11 6 5 7 4 8 3 9 2 10 1 11
REMARK H PARENT
REMARK Flexibility Score: inf
ROOT
ATOM      1  C   UNL     1     -25.241   2.495 -33.940  1.00  0.00     0.000 C 
ENDROOT
BRANCH   1   2
ATOM      2  C   UNL     1     -26.387   3.400 -33.474  1.00  0.00     0.006 C 
BRANCH   2   3
ATOM      3  C   UNL     1     -26.713   4.462 -34.528  1.00  0.00     0.053 C 
BRANCH   3   4
ATOM      4  C   UNL     1     -28.139   4.347 -34.965  1.00  0.00     0.041 C 
ATOM      5  O   UNL     1     -28.520   4.895 -36.033  1.00  0.00    -0.550 OA
ATOM      6  O   UNL     1     -29.058   3.677 -34.167  1.00  0.00    -0.550 OA
ENDBRANCH   3   4
ENDBRANCH   2   3
ENDBRANCH   1   2
BRANCH   1   7
ATOM      7  C   UNL     1     -23.976   2.737 -33.109  1.00  0.00     0.000 C 
BRANCH   7   8
ATOM      8  C   UNL     1     -22.763   2.991 -34.012  1.00  0.00    -0.000 C 
BRANCH   8   9
ATOM      9  C   UNL     1     -22.916   2.271 -35.357  1.00  0.00    -0.000 C 
BRANCH   9  10
ATOM     10  C   UNL     1     -22.738   3.246 -36.526  1.00  0.00    -0.003 C 
ATOM     11  C   UNL     1     -22.753   4.693 -36.044  1.00  0.00     0.004 C 
ENDBRANCH   9  10
ENDBRANCH   8   9
ENDBRANCH   7   8
ENDBRANCH   1   7
TORSDOF 7
ENDMDL
MODEL 4
REMARK VINA RESULT:    -2.961      2.603      4.429
REMARK INTER + INTRA:          -4.895
REMARK INTER:                  -4.358
REMARK INTRA:                  -0.537
REMARK UNBOUND:                -0.722
REMARK SMILES CCCCCCCCC(=O)[O-]
REMARK SMILES IDX 6 1 7 2 8 3 9 4 10 5 11 6 5 7 4 8 3 9 2 10 1 11
REMARK H PARENT
REMARK Flexibility Score: inf
ROOT
ATOM      1  C   UNL     1     -24.957   2.509 -34.424  1.00  0.00     0.000 C 
ENDROOT
BRANCH   1   2
ATOM      2  C   UNL     1     -26.133   2.743 -33.470  1.00  0.00     0.006 C 
BRANCH   2   3
ATOM      3  C   UNL     1     -26.571   4.211 -33.486  1.00  0.00     0.053 C 
BRANCH   3   4
ATOM      4  C   UNL     1     -27.778   4.388 -34.352  1.00  0.00     0.041 C 
ATOM      5  O   UNL     1     -28.928   4.176 -33.886  1.00  0.00    -0.550 OA
ATOM      6  O   UNL     1     -27.629   4.739 -35.688  1.00  0.00    -0.550 OA
ENDBRANCH   3   4
ENDBRANCH   2   3
ENDBRANCH   1   2
BRANCH   1   7
ATOM      7  C   UNL     1     -23.629   2.464 -33.661  1.00  0.00     0.000 C 
BRANCH   7   8
ATOM      8  C   UNL     1     -22.563   3.319 -34.357  1.00  0.00    -0.000 C 
BRANCH   8   9
ATOM      9  C   UNL     1     -23.175   4.603 -34.929  1.00  0.00    -0.000 C 
BRANCH   9  10
ATOM     10  C   UNL     1     -22.640   4.887 -36.338  1.00  0.00    -0.003 C 
ATOM     11  C   UNL     1     -22.441   3.594 -37.123  1.00  0.00     0.004 C 
ENDBRANCH   9  10
ENDBRANCH   8   9
ENDBRANCH   7   8
ENDBRANCH   1   7
TORSDOF 7
ENDMDL
MODEL 5
REMARK VINA RESULT:    -2.929     21.052     22.318
REMARK INTER + INTRA:          -4.850
REMARK INTER:                  -4.601
REMARK INTRA:                  -0.249
REMARK UNBOUND:                -0.722
REMARK SMILES CCCCCCCCC(=O)[O-]
REMARK SMILES IDX 6 1 7 2 8 3 9 4 10 5 11 6 5 7 4 8 3 9 2 10 1 11
REMARK H PARENT
REMARK Flexibility Score: inf
ROOT
ATOM      1  C   UNL     1     -21.851 -13.175 -19.258  1.00  0.00     0.000 C 
ENDROOT
BRANCH   1   2
ATOM      2  C   UNL     1     -20.418 -12.791 -18.875  1.00  0.00     0.006 C 
BRANCH   2   3
ATOM      3  C   UNL     1     -20.231 -11.271 -18.897  1.00  0.00     0.053 C 
BRANCH   3   4
ATOM      4  C   UNL     1     -19.030 -10.901 -19.709  1.00  0.00     0.041 C 
ATOM      5  O   UNL     1     -18.693  -9.694 -19.827  1.00  0.00    -0.550 OA
ATOM      6  O   UNL     1     -18.313 -11.886 -20.376  1.00  0.00    -0.550 OA
ENDBRANCH   3   4
ENDBRANCH   2   3
ENDBRANCH   1   2
BRANCH   1   7
ATOM      7  C   UNL     1     -22.056 -14.692 -19.175  1.00  0.00     0.000 C 
BRANCH   7   8
ATOM      8  C   UNL     1     -23.297 -15.125 -19.964  1.00  0.00    -0.000 C 
BRANCH   8   9
ATOM      9  C   UNL     1     -23.417 -14.341 -21.276  1.00  0.00    -0.000 C 
BRANCH   9  10
ATOM     10  C   UNL     1     -24.461 -14.976 -22.203  1.00  0.00    -0.003 C 
ATOM     11  C   UNL     1     -24.550 -14.226 -23.529  1.00  0.00     0.004 C 
ENDBRANCH   9  10
ENDBRANCH   8   9
ENDBRANCH   7   8
ENDBRANCH   1   7
TORSDOF 7
ENDMDL
MODEL 6
REMARK VINA RESULT:    -2.799      1.581      2.690
REMARK INTER + INTRA:          -4.667
REMARK INTER:                  -4.111
REMARK INTRA:                  -0.556
REMARK UNBOUND:                -0.722
REMARK SMILES CCCCCCCCC(=O)[O-]
REMARK SMILES IDX 6 1 7 2 8 3 9 4 10 5 11 6 5 7 4 8 3 9 2 10 1 11
REMARK H PARENT
REMARK Flexibility Score: inf
ROOT
ATOM      1  C   UNL     1     -26.015   4.232 -32.851  1.00  0.00     0.000 C 
ENDROOT
BRANCH   1   2
ATOM      2  C   UNL     1     -24.640   3.670 -32.474  1.00  0.00     0.006 C 
BRANCH   2   3
ATOM      3  C   UNL     1     -24.393   2.319 -33.154  1.00  0.00     0.053 C 
BRANCH   3   4
ATOM      4  C   UNL     1     -23.055   2.307 -33.823  1.00  0.00     0.041 C 
ATOM      5  O   UNL     1     -22.457   1.217 -34.023  1.00  0.00    -0.550 OA
ATOM      6  O   UNL     1     -22.446   3.503 -34.181  1.00  0.00    -0.550 OA
ENDBRANCH   3   4
ENDBRANCH   2   3
ENDBRANCH   1   2
BRANCH   1   7
ATOM      7  C   UNL     1     -26.469   3.706 -34.217  1.00  0.00     0.000 C 
BRANCH   7   8
ATOM      8  C   UNL     1     -27.098   4.824 -35.057  1.00  0.00    -0.000 C 
BRANCH   8   9
ATOM      9  C   UNL     1     -26.439   4.914 -36.438  1.00  0.00    -0.000 C 
BRANCH   9  10
ATOM     10  C   UNL     1     -24.961   4.510 -36.369  1.00  0.00    -0.003 C 
ATOM     11  C   UNL     1     -24.298   4.611 -37.740  1.00  0.00     0.004 C 
ENDBRANCH   9  10
ENDBRANCH   8   9
ENDBRANCH   7   8
ENDBRANCH   1   7
TORSDOF 7
ENDMDL
MODEL 7
REMARK VINA RESULT:    -2.736      1.677      2.853
REMARK INTER + INTRA:          -4.577
REMARK INTER:                  -3.943
REMARK INTRA:                  -0.634
REMARK UNBOUND:                -0.722
REMARK SMILES CCCCCCCCC(=O)[O-]
REMARK SMILES IDX 6 1 7 2 8 3 9 4 10 5 11 6 5 7 4 8 3 9 2 10 1 11
REMARK H PARENT
REMARK Flexibility Score: inf
ROOT
ATOM      1  C   UNL     1     -24.314   4.071 -36.754  1.00  0.00     0.000 C 
ENDROOT
BRANCH   1   2
ATOM      2  C   UNL     1     -22.868   3.702 -36.407  1.00  0.00     0.006 C 
BRANCH   2   3
ATOM      3  C   UNL     1     -22.765   2.241 -35.960  1.00  0.00     0.053 C 
BRANCH   3   4
ATOM      4  C   UNL     1     -22.501   2.159 -34.490  1.00  0.00     0.041 C 
ATOM      5  O   UNL     1     -22.440   1.039 -33.919  1.00  0.00    -0.550 OA
ATOM      6  O   UNL     1     -22.371   3.322 -33.742  1.00  0.00    -0.550 OA
ENDBRANCH   3   4
ENDBRANCH   2   3
ENDBRANCH   1   2
BRANCH   1   7
ATOM      7  C   UNL     1     -24.922   4.985 -35.683  1.00  0.00     0.000 C 
BRANCH   7   8
ATOM      8  C   UNL     1     -26.453   4.979 -35.757  1.00  0.00    -0.000 C 
BRANCH   8   9
ATOM      9  C   UNL     1     -27.066   4.469 -34.447  1.00  0.00    -0.000 C 
BRANCH   9  10
ATOM     10  C   UNL     1     -25.977   3.986 -33.482  1.00  0.00    -0.003 C 
ATOM     11  C   UNL     1     -25.922   2.462 -33.430  1.00  0.00     0.004 C 
ENDBRANCH   9  10
ENDBRANCH   8   9
ENDBRANCH   7   8
ENDBRANCH   1   7
TORSDOF 7
ENDMDL
MODEL 8
REMARK VINA RESULT:    -2.671      2.473      4.285
REMARK INTER + INTRA:          -4.486
REMARK INTER:                  -4.125
REMARK INTRA:                  -0.361
REMARK UNBOUND:                -0.722
REMARK SMILES CCCCCCCCC(=O)[O-]
REMARK SMILES IDX 6 1 7 2 8 3 9 4 10 5 11 6 5 7 4 8 3 9 2 10 1 11
REMARK H PARENT
REMARK Flexibility Score: inf
ROOT
ATOM      1  C   UNL     1     -23.365   2.296 -34.255  1.00  0.00     0.000 C 
ENDROOT
BRANCH   1   2
ATOM      2  C   UNL     1     -24.247   2.466 -33.013  1.00  0.00     0.006 C 
BRANCH   2   3
ATOM      3  C   UNL     1     -25.706   2.722 -33.406  1.00  0.00     0.053 C 
BRANCH   3   4
ATOM      4  C   UNL     1     -26.078   4.145 -33.135  1.00  0.00     0.041 C 
ATOM      5  O   UNL     1     -26.749   4.795 -33.980  1.00  0.00    -0.550 OA
ATOM      6  O   UNL     1     -25.643   4.769 -31.973  1.00  0.00    -0.550 OA
ENDBRANCH   3   4
ENDBRANCH   2   3
ENDBRANCH   1   2
BRANCH   1   7
ATOM      7  C   UNL     1     -22.768   3.637 -34.694  1.00  0.00     0.000 C 
BRANCH   7   8
ATOM      8  C   UNL     1     -23.395   4.117 -36.009  1.00  0.00    -0.000 C 
BRANCH   8   9
ATOM      9  C   UNL     1     -22.406   3.983 -37.172  1.00  0.00    -0.000 C 
BRANCH   9  10
ATOM     10  C   UNL     1     -23.141   3.942 -38.517  1.00  0.00    -0.003 C 
ATOM     11  C   UNL     1     -23.102   2.543 -39.125  1.00  0.00     0.004 C 
ENDBRANCH   9  10
ENDBRANCH   8   9
ENDBRANCH   7   8
ENDBRANCH   1   7
TORSDOF 7
ENDMDL
MODEL 9
REMARK VINA RESULT:    -2.646      1.271      3.318
REMARK INTER + INTRA:          -4.452
REMARK INTER:                  -3.838
REMARK INTRA:                  -0.614
REMARK UNBOUND:                -0.722
REMARK SMILES CCCCCCCCC(=O)[O-]
REMARK SMILES IDX 6 1 7 2 8 3 9 4 10 5 11 6 5 7 4 8 3 9 2 10 1 11
REMARK H PARENT
REMARK Flexibility Score: inf
ROOT
ATOM      1  C   UNL     1     -26.815   4.294 -34.626  1.00  0.00     0.000 C 
ENDROOT
BRANCH   1   2
ATOM      2  C   UNL     1     -25.667   5.067 -35.283  1.00  0.00     0.006 C 
BRANCH   2   3
ATOM      3  C   UNL     1     -25.673   4.875 -36.803  1.00  0.00     0.053 C 
BRANCH   3   4
ATOM      4  C   UNL     1     -24.279   4.695 -37.315  1.00  0.00     0.041 C 
ATOM      5  O   UNL     1     -24.078   4.113 -38.413  1.00  0.00    -0.550 OA
ATOM      6  O   UNL     1     -23.199   5.125 -36.554  1.00  0.00    -0.550 OA
ENDBRANCH   3   4
ENDBRANCH   2   3
ENDBRANCH   1   2
BRANCH   1   7
ATOM      7  C   UNL     1     -26.298   3.393 -33.499  1.00  0.00     0.000 C 
BRANCH   7   8
ATOM      8  C   UNL     1     -25.148   2.504 -33.987  1.00  0.00    -0.000 C 
BRANCH   8   9
ATOM      9  C   UNL     1     -23.895   2.701 -33.127  1.00  0.00    -0.000 C 
BRANCH   9  10
ATOM     10  C   UNL     1     -22.658   2.937 -34.003  1.00  0.00    -0.003 C 
ATOM     11  C   UNL     1     -22.625   1.969 -35.182  1.00  0.00     0.004 C 
ENDBRANCH   9  10
ENDBRANCH   8   9
ENDBRANCH   7   8
ENDBRANCH   1   7
TORSDOF 7
ENDMDL
