MODEL 1
REMARK VINA RESULT:    -4.393      0.000      0.000
REMARK INTER + INTRA:          -6.891
REMARK INTER:                  -6.448
REMARK INTRA:                  -0.443
REMARK UNBOUND:                -0.443
REMARK SMILES O=C([O-])CCCCCCCC(=O)[O-]
REMARK SMILES IDX 7 1 6 2 5 3 4 4 2 5 1 6 3 7 8 8 9 9 10 10 11 11 12 12 13 13
REMARK H PARENT
REMARK Flexibility Score: inf
ROOT
ATOM      1  C   UNL     1      50.164  33.556   3.759  1.00  0.00     0.000 C 
ENDROOT
BRANCH   1   2
ATOM      2  C   UNL     1      51.241  32.693   4.435  1.00  0.00     0.000 C 
BRANCH   2   3
ATOM      3  C   UNL     1      50.862  32.283   5.866  1.00  0.00     0.006 C 
BRANCH   3   4
ATOM      4  C   UNL     1      49.372  32.524   6.127  1.00  0.00     0.053 C 
BRANCH   4   5
ATOM      5  C   UNL     1      49.186  33.446   7.291  1.00  0.00     0.041 C 
ATOM      6  O   UNL     1      48.376  33.152   8.209  1.00  0.00    -0.550 OA
ATOM      7  O   UNL     1      49.943  34.606   7.388  1.00  0.00    -0.550 OA
ENDBRANCH   4   5
ENDBRANCH   3   4
ENDBRANCH   2   3
ENDBRANCH   1   2
BRANCH   1   8
ATOM      8  C   UNL     1      50.510  33.896   2.299  1.00  0.00     0.000 C 
BRANCH   8   9
ATOM      9  C   UNL     1      51.783  33.183   1.807  1.00  0.00     0.006 C 
BRANCH   9  10
ATOM     10  C   UNL     1      51.546  32.165   0.679  1.00  0.00     0.053 C 
BRANCH  10  11
ATOM     11  C   UNL     1      50.776  32.757  -0.460  1.00  0.00     0.041 C 
ATOM     12  O   UNL     1      49.608  32.360  -0.710  1.00  0.00    -0.550 OA
ATOM     13  O   UNL     1      51.362  33.723  -1.269  1.00  0.00    -0.550 OA
ENDBRANCH  10  11
ENDBRANCH   9  10
ENDBRANCH   8   9
ENDBRANCH   1   8
TORSDOF 8
ENDMDL
MODEL 2
REMARK VINA RESULT:    -4.258      0.588      6.634
REMARK INTER + INTRA:          -6.693
REMARK INTER:                  -6.310
REMARK INTRA:                  -0.383
REMARK UNBOUND:                -0.443
REMARK SMILES O=C([O-])CCCCCCCC(=O)[O-]
REMARK SMILES IDX 7 1 6 2 5 3 4 4 2 5 1 6 3 7 8 8 9 9 10 10 11 11 12 12 13 13
REMARK H PARENT
REMARK Flexibility Score: inf
ROOT
ATOM      1  C   UNL     1      50.541  33.756   4.069  1.00  0.00     0.000 C 
ENDROOT
BRANCH   1   2
ATOM      2  C   UNL     1      50.607  33.647   2.537  1.00  0.00     0.000 C 
BRANCH   2   3
ATOM      3  C   UNL     1      51.942  33.073   2.040  1.00  0.00     0.006 C 
BRANCH   3   4
ATOM      4  C   UNL     1      51.712  32.001   0.970  1.00  0.00     0.053 C 
BRANCH   4   5
ATOM      5  C   UNL     1      51.028  32.589  -0.223  1.00  0.00     0.041 C 
ATOM      6  O   UNL     1      49.862  32.226  -0.528  1.00  0.00    -0.550 OA
ATOM      7  O   UNL     1      51.659  33.575  -0.971  1.00  0.00    -0.550 OA
ENDBRANCH   4   5
ENDBRANCH   3   4
ENDBRANCH   2   3
ENDBRANCH   1   2
BRANCH   1   8
ATOM      8  C   UNL     1      50.961  32.454   4.772  1.00  0.00     0.000 C 
BRANCH   8   9
ATOM      9  C   UNL     1      49.927  31.974   5.806  1.00  0.00     0.006 C 
BRANCH   9  10
ATOM     10  C   UNL     1      50.233  32.395   7.253  1.00  0.00     0.053 C 
BRANCH  10  11
ATOM     11  C   UNL     1      49.443  33.596   7.670  1.00  0.00     0.041 C 
ATOM     12  O   UNL     1      48.343  33.456   8.265  1.00  0.00    -0.550 OA
ATOM     13  O   UNL     1      49.906  34.871   7.369  1.00  0.00    -0.550 OA
ENDBRANCH  10  11
ENDBRANCH   9  10
ENDBRANCH   8   9
ENDBRANCH   1   8
TORSDOF 8
ENDMDL
MODEL 3
REMARK VINA RESULT:    -4.226     13.914     16.385
REMARK INTER + INTRA:          -6.646
REMARK INTER:                  -6.060
REMARK INTRA:                  -0.586
REMARK UNBOUND:                -0.443
REMARK SMILES O=C([O-])CCCCCCCC(=O)[O-]
REMARK SMILES IDX 7 1 6 2 5 3 4 4 2 5 1 6 3 7 8 8 9 9 10 10 11 11 12 12 13 13
REMARK H PARENT
REMARK Flexibility Score: inf
ROOT
ATOM      1  C   UNL     1      51.351  46.413  12.308  1.00  0.00     0.000 C 
ENDROOT
BRANCH   1   2
ATOM      2  C   UNL     1      52.705  46.579  13.017  1.00  0.00     0.000 C 
BRANCH   2   3
ATOM      3  C   UNL     1      53.898  46.311  12.087  1.00  0.00     0.006 C 
BRANCH   3   4
ATOM      4  C   UNL     1      54.307  44.836  12.133  1.00  0.00     0.053 C 
BRANCH   4   5
ATOM      5  C   UNL     1      54.191  44.217  10.776  1.00  0.00     0.041 C 
ATOM      6  O   UNL     1      54.193  44.941   9.746  1.00  0.00    -0.550 OA
ATOM      7  O   UNL     1      54.129  42.836  10.645  1.00  0.00    -0.550 OA
ENDBRANCH   4   5
ENDBRANCH   3   4
ENDBRANCH   2   3
ENDBRANCH   1   2
BRANCH   1   8
ATOM      8  C   UNL     1      51.365  46.965  10.872  1.00  0.00     0.000 C 
BRANCH   8   9
ATOM      9  C   UNL     1      50.819  48.402  10.781  1.00  0.00     0.006 C 
BRANCH   9  10
ATOM     10  C   UNL     1      49.658  48.703  11.742  1.00  0.00     0.053 C 
BRANCH  10  11
ATOM     11  C   UNL     1      48.338  48.270  11.183  1.00  0.00     0.041 C 
ATOM     12  O   UNL     1      47.855  48.851  10.176  1.00  0.00    -0.550 OA
ATOM     13  O   UNL     1      47.625  47.247  11.796  1.00  0.00    -0.550 OA
ENDBRANCH  10  11
ENDBRANCH   9  10
ENDBRANCH   8   9
ENDBRANCH   1   8
TORSDOF 8
ENDMDL
MODEL 4
REMARK VINA RESULT:    -4.212     13.807     16.012
REMARK INTER + INTRA:          -6.625
REMARK INTER:                  -6.108
REMARK INTRA:                  -0.517
REMARK UNBOUND:                -0.443
REMARK SMILES O=C([O-])CCCCCCCC(=O)[O-]
REMARK SMILES IDX 7 1 6 2 5 3 4 4 2 5 1 6 3 7 8 8 9 9 10 10 11 11 12 12 13 13
REMARK H PARENT
REMARK Flexibility Score: inf
ROOT
ATOM      1  C   UNL     1      51.358  46.286  12.296  1.00  0.00     0.000 C 
ENDROOT
BRANCH   1   2
ATOM      2  C   UNL     1      51.530  46.809  10.861  1.00  0.00     0.000 C 
BRANCH   2   3
ATOM      3  C   UNL     1      50.811  48.147  10.627  1.00  0.00     0.006 C 
BRANCH   3   4
ATOM      4  C   UNL     1      49.880  48.479  11.796  1.00  0.00     0.053 C 
BRANCH   4   5
ATOM      5  C   UNL     1      48.455  48.211  11.426  1.00  0.00     0.041 C 
ATOM      6  O   UNL     1      47.727  47.507  12.174  1.00  0.00    -0.550 OA
ATOM      7  O   UNL     1      47.916  48.779  10.279  1.00  0.00    -0.550 OA
ENDBRANCH   4   5
ENDBRANCH   3   4
ENDBRANCH   2   3
ENDBRANCH   1   2
BRANCH   1   8
ATOM      8  C   UNL     1      52.673  46.306  13.094  1.00  0.00     0.000 C 
BRANCH   8   9
ATOM      9  C   UNL     1      53.910  46.068  12.209  1.00  0.00     0.006 C 
BRANCH   9  10
ATOM     10  C   UNL     1      54.381  44.605  12.155  1.00  0.00     0.053 C 
BRANCH  10  11
ATOM     11  C   UNL     1      54.251  44.023  10.781  1.00  0.00     0.041 C 
ATOM     12  O   UNL     1      54.155  42.777  10.628  1.00  0.00    -0.550 OA
ATOM     13  O   UNL     1      54.272  44.854   9.669  1.00  0.00    -0.550 OA
ENDBRANCH  10  11
ENDBRANCH   9  10
ENDBRANCH   8   9
ENDBRANCH   1   8
TORSDOF 8
ENDMDL
MODEL 5
REMARK VINA RESULT:    -4.196      1.501      2.319
REMARK INTER + INTRA:          -6.602
REMARK INTER:                  -6.313
REMARK INTRA:                  -0.288
REMARK UNBOUND:                -0.443
REMARK SMILES O=C([O-])CCCCCCCC(=O)[O-]
REMARK SMILES IDX 7 1 6 2 5 3 4 4 2 5 1 6 3 7 8 8 9 9 10 10 11 11 12 12 13 13
REMARK H PARENT
REMARK Flexibility Score: inf
ROOT
ATOM      1  C   UNL     1      50.701  32.480   5.300  1.00  0.00     0.000 C 
ENDROOT
BRANCH   1   2
ATOM      2  C   UNL     1      50.257  32.661   6.761  1.00  0.00     0.000 C 
BRANCH   2   3
ATOM      3  C   UNL     1      49.397  33.917   6.968  1.00  0.00     0.006 C 
BRANCH   3   4
ATOM      4  C   UNL     1      50.029  34.848   8.007  1.00  0.00     0.053 C 
BRANCH   4   5
ATOM      5  C   UNL     1      49.184  34.910   9.240  1.00  0.00     0.041 C 
ATOM      6  O   UNL     1      49.499  35.677  10.187  1.00  0.00    -0.550 OA
ATOM      7  O   UNL     1      48.019  34.157   9.323  1.00  0.00    -0.550 OA
ENDBRANCH   4   5
ENDBRANCH   3   4
ENDBRANCH   2   3
ENDBRANCH   1   2
BRANCH   1   8
ATOM      8  C   UNL     1      49.977  33.441   4.341  1.00  0.00     0.000 C 
BRANCH   8   9
ATOM      9  C   UNL     1      50.786  33.725   3.061  1.00  0.00     0.006 C 
BRANCH   9  10
ATOM     10  C   UNL     1      49.935  33.854   1.787  1.00  0.00     0.053 C 
BRANCH  10  11
ATOM     11  C   UNL     1      50.601  33.230   0.600  1.00  0.00     0.041 C 
ATOM     12  O   UNL     1      49.939  32.509  -0.192  1.00  0.00    -0.550 OA
ATOM     13  O   UNL     1      51.962  33.416   0.389  1.00  0.00    -0.550 OA
ENDBRANCH  10  11
ENDBRANCH   9  10
ENDBRANCH   8   9
ENDBRANCH   1   8
TORSDOF 8
ENDMDL
MODEL 6
REMARK VINA RESULT:    -4.160     14.898     16.284
REMARK INTER + INTRA:          -6.548
REMARK INTER:                  -6.011
REMARK INTRA:                  -0.537
REMARK UNBOUND:                -0.443
REMARK SMILES O=C([O-])CCCCCCCC(=O)[O-]
REMARK SMILES IDX 7 1 6 2 5 3 4 4 2 5 1 6 3 7 8 8 9 9 10 10 11 11 12 12 13 13
REMARK H PARENT
REMARK Flexibility Score: inf
ROOT
ATOM      1  C   UNL     1      51.592  47.016  10.395  1.00  0.00     0.000 C 
ENDROOT
BRANCH   1   2
ATOM      2  C   UNL     1      50.946  48.400  10.568  1.00  0.00     0.000 C 
BRANCH   2   3
ATOM      3  C   UNL     1      49.891  48.428  11.685  1.00  0.00     0.006 C 
BRANCH   3   4
ATOM      4  C   UNL     1      48.478  48.330  11.104  1.00  0.00     0.053 C 
BRANCH   4   5
ATOM      5  C   UNL     1      47.768  47.132  11.652  1.00  0.00     0.041 C 
ATOM      6  O   UNL     1      46.628  46.818  11.219  1.00  0.00    -0.550 OA
ATOM      7  O   UNL     1      48.385  46.333  12.606  1.00  0.00    -0.550 OA
ENDBRANCH   4   5
ENDBRANCH   3   4
ENDBRANCH   2   3
ENDBRANCH   1   2
BRANCH   1   8
ATOM      8  C   UNL     1      51.875  46.325  11.740  1.00  0.00     0.000 C 
BRANCH   8   9
ATOM      9  C   UNL     1      53.230  46.735  12.346  1.00  0.00     0.006 C 
BRANCH   9  10
ATOM     10  C   UNL     1      54.451  46.090  11.670  1.00  0.00     0.053 C 
BRANCH  10  11
ATOM     11  C   UNL     1      54.541  44.622  11.953  1.00  0.00     0.041 C 
ATOM     12  O   UNL     1      54.746  44.215  13.127  1.00  0.00    -0.550 OA
ATOM     13  O   UNL     1      54.433  43.706  10.915  1.00  0.00    -0.550 OA
ENDBRANCH  10  11
ENDBRANCH   9  10
ENDBRANCH   8   9
ENDBRANCH   1   8
TORSDOF 8
ENDMDL
MODEL 7
REMARK VINA RESULT:    -4.121      1.525      6.794
REMARK INTER + INTRA:          -6.491
REMARK INTER:                  -5.986
REMARK INTRA:                  -0.505
REMARK UNBOUND:                -0.443
REMARK SMILES O=C([O-])CCCCCCCC(=O)[O-]
REMARK SMILES IDX 7 1 6 2 5 3 4 4 2 5 1 6 3 7 8 8 9 9 10 10 11 11 12 12 13 13
REMARK H PARENT
REMARK Flexibility Score: inf
ROOT
ATOM      1  C   UNL     1      50.097  33.736   1.462  1.00  0.00     0.000 C 
ENDROOT
BRANCH   1   2
ATOM      2  C   UNL     1      49.916  33.018   0.115  1.00  0.00     0.000 C 
BRANCH   2   3
ATOM      3  C   UNL     1      51.048  32.022  -0.184  1.00  0.00     0.006 C 
BRANCH   3   4
ATOM      4  C   UNL     1      51.679  32.305  -1.550  1.00  0.00     0.053 C 
BRANCH   4   5
ATOM      5  C   UNL     1      52.136  33.727  -1.632  1.00  0.00     0.041 C 
ATOM      6  O   UNL     1      53.095  34.127  -0.921  1.00  0.00    -0.550 OA
ATOM      7  O   UNL     1      51.538  34.600  -2.532  1.00  0.00    -0.550 OA
ENDBRANCH   4   5
ENDBRANCH   3   4
ENDBRANCH   2   3
ENDBRANCH   1   2
BRANCH   1   8
ATOM      8  C   UNL     1      51.427  33.378   2.147  1.00  0.00     0.000 C 
BRANCH   8   9
ATOM      9  C   UNL     1      51.249  32.980   3.623  1.00  0.00     0.006 C 
BRANCH   9  10
ATOM     10  C   UNL     1      50.056  33.652   4.323  1.00  0.00     0.053 C 
BRANCH  10  11
ATOM     11  C   UNL     1      50.014  33.340   5.787  1.00  0.00     0.041 C 
ATOM     12  O   UNL     1      49.202  33.941   6.540  1.00  0.00    -0.550 OA
ATOM     13  O   UNL     1      50.895  32.411   6.326  1.00  0.00    -0.550 OA
ENDBRANCH  10  11
ENDBRANCH   9  10
ENDBRANCH   8   9
ENDBRANCH   1   8
TORSDOF 8
ENDMDL
MODEL 8
REMARK VINA RESULT:    -4.109     14.035     16.551
REMARK INTER + INTRA:          -6.474
REMARK INTER:                  -5.797
REMARK INTRA:                  -0.677
REMARK UNBOUND:                -0.443
REMARK SMILES O=C([O-])CCCCCCCC(=O)[O-]
REMARK SMILES IDX 7 1 6 2 5 3 4 4 2 5 1 6 3 7 8 8 9 9 10 10 11 11 12 12 13 13
REMARK H PARENT
REMARK Flexibility Score: inf
ROOT
ATOM      1  C   UNL     1      51.995  46.517  13.758  1.00  0.00     0.000 C 
ENDROOT
BRANCH   1   2
ATOM      2  C   UNL     1      53.113  47.252  13.001  1.00  0.00     0.000 C 
BRANCH   2   3
ATOM      3  C   UNL     1      53.969  46.308  12.142  1.00  0.00     0.006 C 
BRANCH   3   4
ATOM      4  C   UNL     1      53.087  45.326  11.366  1.00  0.00     0.053 C 
BRANCH   4   5
ATOM      5  C   UNL     1      53.929  44.405  10.540  1.00  0.00     0.041 C 
ATOM      6  O   UNL     1      54.306  44.751   9.391  1.00  0.00    -0.550 OA
ATOM      7  O   UNL     1      54.338  43.183  11.060  1.00  0.00    -0.550 OA
ENDBRANCH   4   5
ENDBRANCH   3   4
ENDBRANCH   2   3
ENDBRANCH   1   2
BRANCH   1   8
ATOM      8  C   UNL     1      50.639  47.234  13.649  1.00  0.00     0.000 C 
BRANCH   8   9
ATOM      9  C   UNL     1      49.770  46.694  12.499  1.00  0.00     0.006 C 
BRANCH   9  10
ATOM     10  C   UNL     1      49.294  47.766  11.504  1.00  0.00     0.053 C 
BRANCH  10  11
ATOM     11  C   UNL     1      50.439  48.472  10.847  1.00  0.00     0.041 C 
ATOM     12  O   UNL     1      51.191  47.854  10.049  1.00  0.00    -0.550 OA
ATOM     13  O   UNL     1      50.696  49.805  11.143  1.00  0.00    -0.550 OA
ENDBRANCH  10  11
ENDBRANCH   9  10
ENDBRANCH   8   9
ENDBRANCH   1   8
TORSDOF 8
ENDMDL
MODEL 9
REMARK VINA RESULT:    -4.037      2.193      7.520
REMARK INTER + INTRA:          -6.368
REMARK INTER:                  -6.081
REMARK INTRA:                  -0.287
REMARK UNBOUND:                -0.443
REMARK SMILES O=C([O-])CCCCCCCC(=O)[O-]
REMARK SMILES IDX 7 1 6 2 5 3 4 4 2 5 1 6 3 7 8 8 9 9 10 10 11 11 12 12 13 13
REMARK H PARENT
REMARK Flexibility Score: inf
ROOT
ATOM      1  C   UNL     1      49.558  33.534   6.093  1.00  0.00     0.000 C 
ENDROOT
BRANCH   1   2
ATOM      2  C   UNL     1      50.572  32.437   5.735  1.00  0.00     0.000 C 
BRANCH   2   3
ATOM      3  C   UNL     1      51.195  32.635   4.344  1.00  0.00     0.006 C 
BRANCH   3   4
ATOM      4  C   UNL     1      50.480  33.752   3.579  1.00  0.00     0.053 C 
BRANCH   4   5
ATOM      5  C   UNL     1      50.749  33.639   2.112  1.00  0.00     0.041 C 
ATOM      6  O   UNL     1      51.907  33.372   1.698  1.00  0.00    -0.550 OA
ATOM      7  O   UNL     1      49.709  33.778   1.201  1.00  0.00    -0.550 OA
ENDBRANCH   4   5
ENDBRANCH   3   4
ENDBRANCH   2   3
ENDBRANCH   1   2
BRANCH   1   8
ATOM      8  C   UNL     1      49.677  33.993   7.557  1.00  0.00     0.000 C 
BRANCH   8   9
ATOM      9  C   UNL     1      48.657  33.303   8.482  1.00  0.00     0.006 C 
BRANCH   9  10
ATOM     10  C   UNL     1      49.068  33.263   9.964  1.00  0.00     0.053 C 
BRANCH  10  11
ATOM     11  C   UNL     1      49.342  34.631  10.509  1.00  0.00     0.041 C 
ATOM     12  O   UNL     1      48.476  35.539  10.404  1.00  0.00    -0.550 OA
ATOM     13  O   UNL     1      50.567  34.911  11.101  1.00  0.00    -0.550 OA
ENDBRANCH  10  11
ENDBRANCH   9  10
ENDBRANCH   8   9
ENDBRANCH   1   8
TORSDOF 8
ENDMDL
