MODEL 1
REMARK VINA RESULT:    -5.186      0.000      0.000
REMARK INTER + INTRA:          -6.412
REMARK INTER:                  -5.944
REMARK INTRA:                  -0.468
REMARK UNBOUND:                -0.468
REMARK SMILES O=C1C[C@H](c2ccc(O)cc2)Oc2cc(O)cc(O)c21
REMARK SMILES IDX 3 1 4 2 12 3 13 4 14 5 15 6 17 7 18 8 20 9 2 10 1 11 5 12
REMARK SMILES IDX 6 13 11 14 7 15 10 16 8 17 9 18 19 20 16 22
REMARK H PARENT 9 19 19 21 16 23
REMARK Flexibility Score: inf
ROOT
ATOM      1  C   UNL     1      38.500 -77.327  39.843  1.00  0.00     0.131 C 
ATOM      2  C   UNL     1      38.557 -76.875  38.373  1.00  0.00     0.211 C 
ATOM      3  O   UNL     1      39.744 -77.349  37.723  1.00  0.00    -0.484 OA
ATOM      4  C   UNL     1      40.401 -78.543  38.063  1.00  0.00     0.138 A 
ATOM      5  C   UNL     1      41.456 -78.985  37.261  1.00  0.00     0.093 A 
ATOM      6  C   UNL     1      42.113 -80.180  37.553  1.00  0.00     0.123 A 
ATOM      7  C   UNL     1      41.732 -80.927  38.673  1.00  0.00     0.093 A 
ATOM      8  C   UNL     1      40.701 -80.485  39.511  1.00  0.00     0.133 A 
ATOM      9  C   UNL     1      40.002 -79.294  39.188  1.00  0.00     0.102 A 
ATOM     10  C   UNL     1      38.844 -78.780  39.955  1.00  0.00     0.174 C 
ATOM     11  O   UNL     1      38.116 -79.541  40.646  1.00  0.00    -0.294 OA
ENDROOT
BRANCH   2  12
ATOM     12  C   UNL     1      37.310 -77.293  37.617  1.00  0.00    -0.007 A 
ATOM     13  C   UNL     1      37.412 -77.649  36.260  1.00  0.00     0.011 A 
ATOM     14  C   UNL     1      36.037 -77.274  38.220  1.00  0.00     0.011 A 
ATOM     15  C   UNL     1      36.274 -78.003  35.530  1.00  0.00     0.046 A 
ATOM     16  C   UNL     1      34.901 -77.628  37.486  1.00  0.00     0.046 A 
ATOM     17  C   UNL     1      35.015 -77.994  36.143  1.00  0.00     0.115 A 
BRANCH  17  18
ATOM     18  O   UNL     1      33.873 -78.346  35.426  1.00  0.00    -0.508 OA
ATOM     19  H   UNL     1      33.933 -78.843  34.545  1.00  0.00     0.293 HD
ENDBRANCH  17  18
ENDBRANCH   2  12
BRANCH   8  20
ATOM     20  O   UNL     1      40.434 -81.237  40.656  1.00  0.00    -0.507 OA
ATOM     21  H   UNL     1      41.132 -81.769  41.155  1.00  0.00     0.293 HD
ENDBRANCH   8  20
BRANCH   6  22
ATOM     22  O   UNL     1      43.150 -80.613  36.729  1.00  0.00    -0.508 OA
ATOM     23  H   UNL     1      44.114 -80.598  37.039  1.00  0.00     0.293 HD
ENDBRANCH   6  22
TORSDOF 4
ENDMDL
MODEL 2
REMARK VINA RESULT:    -5.147     18.651     20.137
REMARK INTER + INTRA:          -6.367
REMARK INTER:                  -5.980
REMARK INTRA:                  -0.387
REMARK UNBOUND:                -0.468
REMARK SMILES O=C1C[C@H](c2ccc(O)cc2)Oc2cc(O)cc(O)c21
REMARK SMILES IDX 3 1 4 2 12 3 13 4 14 5 15 6 17 7 18 8 20 9 2 10 1 11 5 12
REMARK SMILES IDX 6 13 11 14 7 15 10 16 8 17 9 18 19 20 16 22
REMARK H PARENT 9 19 19 21 16 23
REMARK Flexibility Score: inf
ROOT
ATOM      1  C   UNL     1      29.938 -97.125  39.339  1.00  0.00     0.131 C 
ATOM      2  C   UNL     1      29.956 -96.648  37.876  1.00  0.00     0.211 C 
ATOM      3  O   UNL     1      28.634 -96.596  37.324  1.00  0.00    -0.484 OA
ATOM      4  C   UNL     1      27.478 -96.337  38.078  1.00  0.00     0.138 A 
ATOM      5  C   UNL     1      26.264 -96.153  37.412  1.00  0.00     0.093 A 
ATOM      6  C   UNL     1      25.101 -95.868  38.128  1.00  0.00     0.123 A 
ATOM      7  C   UNL     1      25.146 -95.791  39.524  1.00  0.00     0.093 A 
ATOM      8  C   UNL     1      26.345 -96.006  40.215  1.00  0.00     0.133 A 
ATOM      9  C   UNL     1      27.536 -96.251  39.485  1.00  0.00     0.102 A 
ATOM     10  C   UNL     1      28.870 -96.409  40.107  1.00  0.00     0.174 C 
ATOM     11  O   UNL     1      29.141 -95.910  41.231  1.00  0.00    -0.294 OA
ENDROOT
BRANCH   2  12
ATOM     12  C   UNL     1      30.665 -95.314  37.738  1.00  0.00    -0.007 A 
ATOM     13  C   UNL     1      29.985 -94.228  37.159  1.00  0.00     0.011 A 
ATOM     14  C   UNL     1      32.011 -95.148  38.117  1.00  0.00     0.011 A 
ATOM     15  C   UNL     1      30.627 -92.998  36.987  1.00  0.00     0.046 A 
ATOM     16  C   UNL     1      32.649 -93.917  37.943  1.00  0.00     0.046 A 
ATOM     17  C   UNL     1      31.961 -92.839  37.380  1.00  0.00     0.115 A 
BRANCH  17  18
ATOM     18  O   UNL     1      32.610 -91.618  37.214  1.00  0.00    -0.508 OA
ATOM     19  H   UNL     1      32.340 -90.798  37.744  1.00  0.00     0.293 HD
ENDBRANCH  17  18
ENDBRANCH   2  12
BRANCH   8  20
ATOM     20  O   UNL     1      26.296 -96.000  41.610  1.00  0.00    -0.507 OA
ATOM     21  H   UNL     1      27.056 -95.690  42.198  1.00  0.00     0.293 HD
ENDBRANCH   8  20
BRANCH   6  22
ATOM     22  O   UNL     1      23.904 -95.668  37.444  1.00  0.00    -0.508 OA
ATOM     23  H   UNL     1      23.526 -96.373  36.822  1.00  0.00     0.293 HD
ENDBRANCH   6  22
TORSDOF 4
ENDMDL
MODEL 3
REMARK VINA RESULT:    -4.988      1.651      6.137
REMARK INTER + INTRA:          -6.185
REMARK INTER:                  -5.746
REMARK INTRA:                  -0.439
REMARK UNBOUND:                -0.468
REMARK SMILES O=C1C[C@H](c2ccc(O)cc2)Oc2cc(O)cc(O)c21
REMARK SMILES IDX 3 1 4 2 12 3 13 4 14 5 15 6 17 7 18 8 20 9 2 10 1 11 5 12
REMARK SMILES IDX 6 13 11 14 7 15 10 16 8 17 9 18 19 20 16 22
REMARK H PARENT 9 19 19 21 16 23
REMARK Flexibility Score: inf
ROOT
ATOM      1  C   UNL     1      40.038 -76.875  38.159  1.00  0.00     0.131 C 
ATOM      2  C   UNL     1      39.399 -77.434  39.442  1.00  0.00     0.211 C 
ATOM      3  O   UNL     1      37.967 -77.453  39.351  1.00  0.00    -0.484 OA
ATOM      4  C   UNL     1      37.260 -77.612  38.149  1.00  0.00     0.138 A 
ATOM      5  C   UNL     1      35.873 -77.773  38.198  1.00  0.00     0.093 A 
ATOM      6  C   UNL     1      35.141 -77.960  37.025  1.00  0.00     0.123 A 
ATOM      7  C   UNL     1      35.797 -77.959  35.790  1.00  0.00     0.093 A 
ATOM      8  C   UNL     1      37.182 -77.765  35.714  1.00  0.00     0.133 A 
ATOM      9  C   UNL     1      37.932 -77.620  36.909  1.00  0.00     0.102 A 
ATOM     10  C   UNL     1      39.406 -77.493  36.950  1.00  0.00     0.174 C 
ATOM     11  O   UNL     1      40.136 -77.940  36.026  1.00  0.00    -0.294 OA
ENDROOT
BRANCH   2  12
ATOM     12  C   UNL     1      39.948 -78.807  39.781  1.00  0.00    -0.007 A 
ATOM     13  C   UNL     1      39.170 -79.692  40.549  1.00  0.00     0.011 A 
ATOM     14  C   UNL     1      41.246 -79.200  39.399  1.00  0.00     0.011 A 
ATOM     15  C   UNL     1      39.666 -80.949  40.905  1.00  0.00     0.046 A 
ATOM     16  C   UNL     1      41.739 -80.458  39.758  1.00  0.00     0.046 A 
ATOM     17  C   UNL     1      40.952 -81.336  40.509  1.00  0.00     0.115 A 
BRANCH  17  18
ATOM     18  O   UNL     1      41.457 -82.586  40.857  1.00  0.00    -0.508 OA
ATOM     19  H   UNL     1      42.142 -83.061  40.280  1.00  0.00     0.293 HD
ENDBRANCH  17  18
ENDBRANCH   2  12
BRANCH   8  20
ATOM     20  O   UNL     1      37.754 -77.690  34.443  1.00  0.00    -0.507 OA
ATOM     21  H   UNL     1      38.390 -78.380  34.071  1.00  0.00     0.293 HD
ENDBRANCH   8  20
BRANCH   6  22
ATOM     22  O   UNL     1      33.761 -78.139  37.097  1.00  0.00    -0.508 OA
ATOM     23  H   UNL     1      33.147 -77.820  36.358  1.00  0.00     0.293 HD
ENDBRANCH   6  22
TORSDOF 4
ENDMDL
MODEL 4
REMARK VINA RESULT:    -4.706      1.907      2.394
REMARK INTER + INTRA:          -5.862
REMARK INTER:                  -5.591
REMARK INTRA:                  -0.271
REMARK UNBOUND:                -0.468
REMARK SMILES O=C1C[C@H](c2ccc(O)cc2)Oc2cc(O)cc(O)c21
REMARK SMILES IDX 3 1 4 2 12 3 13 4 14 5 15 6 17 7 18 8 20 9 2 10 1 11 5 12
REMARK SMILES IDX 6 13 11 14 7 15 10 16 8 17 9 18 19 20 16 22
REMARK H PARENT 9 19 19 21 16 23
REMARK Flexibility Score: inf
ROOT
ATOM      1  C   UNL     1      38.337 -79.493  40.584  1.00  0.00     0.131 C 
ATOM      2  C   UNL     1      38.145 -78.077  40.015  1.00  0.00     0.211 C 
ATOM      3  O   UNL     1      39.383 -77.352  39.980  1.00  0.00    -0.484 OA
ATOM      4  C   UNL     1      40.641 -77.955  39.817  1.00  0.00     0.138 A 
ATOM      5  C   UNL     1      41.762 -77.140  39.641  1.00  0.00     0.093 A 
ATOM      6  C   UNL     1      43.023 -77.705  39.449  1.00  0.00     0.123 A 
ATOM      7  C   UNL     1      43.170 -79.096  39.461  1.00  0.00     0.093 A 
ATOM      8  C   UNL     1      42.065 -79.931  39.671  1.00  0.00     0.133 A 
ATOM      9  C   UNL     1      40.776 -79.359  39.820  1.00  0.00     0.102 A 
ATOM     10  C   UNL     1      39.532 -80.148  39.963  1.00  0.00     0.174 C 
ATOM     11  O   UNL     1      39.439 -81.325  39.527  1.00  0.00    -0.294 OA
ENDROOT
BRANCH   2  12
ATOM     12  C   UNL     1      37.491 -78.114  38.647  1.00  0.00    -0.007 A 
ATOM     13  C   UNL     1      36.103 -78.318  38.550  1.00  0.00     0.011 A 
ATOM     14  C   UNL     1      38.246 -78.012  37.462  1.00  0.00     0.011 A 
ATOM     15  C   UNL     1      35.480 -78.393  37.301  1.00  0.00     0.046 A 
ATOM     16  C   UNL     1      37.620 -78.087  36.214  1.00  0.00     0.046 A 
ATOM     17  C   UNL     1      36.238 -78.276  36.129  1.00  0.00     0.115 A 
BRANCH  17  18
ATOM     18  O   UNL     1      35.628 -78.348  34.879  1.00  0.00    -0.508 OA
ATOM     19  H   UNL     1      34.755 -77.871  34.686  1.00  0.00     0.293 HD
ENDBRANCH  17  18
ENDBRANCH   2  12
BRANCH   8  20
ATOM     20  O   UNL     1      42.302 -81.305  39.756  1.00  0.00    -0.507 OA
ATOM     21  H   UNL     1      41.574 -82.004  39.713  1.00  0.00     0.293 HD
ENDBRANCH   8  20
BRANCH   6  22
ATOM     22  O   UNL     1      44.125 -76.876  39.255  1.00  0.00    -0.508 OA
ATOM     23  H   UNL     1      44.962 -77.207  38.790  1.00  0.00     0.293 HD
ENDBRANCH   6  22
TORSDOF 4
ENDMDL
MODEL 5
REMARK VINA RESULT:    -4.533     17.695     19.060
REMARK INTER + INTRA:          -5.664
REMARK INTER:                  -5.198
REMARK INTRA:                  -0.467
REMARK UNBOUND:                -0.468
REMARK SMILES O=C1C[C@H](c2ccc(O)cc2)Oc2cc(O)cc(O)c21
REMARK SMILES IDX 3 1 4 2 12 3 13 4 14 5 15 6 17 7 18 8 20 9 2 10 1 11 5 12
REMARK SMILES IDX 6 13 11 14 7 15 10 16 8 17 9 18 19 20 16 22
REMARK H PARENT 9 19 19 21 16 23
REMARK Flexibility Score: inf
ROOT
ATOM      1  C   UNL     1      31.090 -95.703  37.741  1.00  0.00     0.131 C 
ATOM      2  C   UNL     1      30.317 -94.851  36.719  1.00  0.00     0.211 C 
ATOM      3  O   UNL     1      28.940 -95.245  36.640  1.00  0.00    -0.484 OA
ATOM      4  C   UNL     1      28.217 -95.789  37.714  1.00  0.00     0.138 A 
ATOM      5  C   UNL     1      26.842 -95.989  37.570  1.00  0.00     0.093 A 
ATOM      6  C   UNL     1      26.088 -96.501  38.625  1.00  0.00     0.123 A 
ATOM      7  C   UNL     1      26.717 -96.842  39.827  1.00  0.00     0.093 A 
ATOM      8  C   UNL     1      28.100 -96.683  39.983  1.00  0.00     0.133 A 
ATOM      9  C   UNL     1      28.859 -96.119  38.926  1.00  0.00     0.102 A 
ATOM     10  C   UNL     1      30.309 -95.829  39.012  1.00  0.00     0.174 C 
ATOM     11  O   UNL     1      30.880 -95.631  40.116  1.00  0.00    -0.294 OA
ENDROOT
BRANCH   2  12
ATOM     12  C   UNL     1      30.451 -93.371  37.020  1.00  0.00    -0.007 A 
ATOM     13  C   UNL     1      29.382 -92.506  36.723  1.00  0.00     0.011 A 
ATOM     14  C   UNL     1      31.643 -92.823  37.533  1.00  0.00     0.011 A 
ATOM     15  C   UNL     1      29.492 -91.133  36.957  1.00  0.00     0.046 A 
ATOM     16  C   UNL     1      31.750 -91.449  37.765  1.00  0.00     0.046 A 
ATOM     17  C   UNL     1      30.677 -90.601  37.480  1.00  0.00     0.115 A 
BRANCH  17  18
ATOM     18  O   UNL     1      30.798 -89.234  37.718  1.00  0.00    -0.508 OA
ATOM     19  H   UNL     1      31.312 -88.878  38.515  1.00  0.00     0.293 HD
ENDBRANCH  17  18
ENDBRANCH   2  12
BRANCH   8  20
ATOM     20  O   UNL     1      28.670 -97.125  41.178  1.00  0.00    -0.507 OA
ATOM     21  H   UNL     1      29.285 -97.922  41.245  1.00  0.00     0.293 HD
ENDBRANCH   8  20
BRANCH   6  22
ATOM     22  O   UNL     1      24.715 -96.675  38.468  1.00  0.00    -0.508 OA
ATOM     23  H   UNL     1      24.226 -97.449  38.901  1.00  0.00     0.293 HD
ENDBRANCH   6  22
TORSDOF 4
ENDMDL
MODEL 6
REMARK VINA RESULT:    -4.354     16.740     18.728
REMARK INTER + INTRA:          -5.459
REMARK INTER:                  -5.137
REMARK INTRA:                  -0.321
REMARK UNBOUND:                -0.468
REMARK SMILES O=C1C[C@H](c2ccc(O)cc2)Oc2cc(O)cc(O)c21
REMARK SMILES IDX 3 1 4 2 12 3 13 4 14 5 15 6 17 7 18 8 20 9 2 10 1 11 5 12
REMARK SMILES IDX 6 13 11 14 7 15 10 16 8 17 9 18 19 20 16 22
REMARK H PARENT 9 19 19 21 16 23
REMARK Flexibility Score: inf
ROOT
ATOM      1  C   UNL     1      42.872 -97.125  30.941  1.00  0.00     0.131 C 
ATOM      2  C   UNL     1      41.451 -97.072  30.356  1.00  0.00     0.211 C 
ATOM      3  O   UNL     1      40.468 -96.862  31.380  1.00  0.00    -0.484 OA
ATOM      4  C   UNL     1      40.711 -96.151  32.566  1.00  0.00     0.138 A 
ATOM      5  C   UNL     1      39.639 -95.874  33.418  1.00  0.00     0.093 A 
ATOM      6  C   UNL     1      39.840 -95.146  34.591  1.00  0.00     0.123 A 
ATOM      7  C   UNL     1      41.126 -94.714  34.930  1.00  0.00     0.093 A 
ATOM      8  C   UNL     1      42.221 -95.011  34.108  1.00  0.00     0.133 A 
ATOM      9  C   UNL     1      42.011 -95.710  32.893  1.00  0.00     0.102 A 
ATOM     10  C   UNL     1      43.079 -96.003  31.911  1.00  0.00     0.174 C 
ATOM     11  O   UNL     1      44.122 -95.301  31.837  1.00  0.00    -0.294 OA
ENDROOT
BRANCH   2  12
ATOM     12  C   UNL     1      41.340 -96.025  29.264  1.00  0.00    -0.007 A 
ATOM     13  C   UNL     1      41.937 -96.265  28.013  1.00  0.00     0.011 A 
ATOM     14  C   UNL     1      40.708 -94.786  29.487  1.00  0.00     0.011 A 
ATOM     15  C   UNL     1      41.881 -95.302  27.002  1.00  0.00     0.046 A 
ATOM     16  C   UNL     1      40.654 -93.825  28.473  1.00  0.00     0.046 A 
ATOM     17  C   UNL     1      41.238 -94.079  27.229  1.00  0.00     0.115 A 
BRANCH  17  18
ATOM     18  O   UNL     1      41.175 -93.112  26.228  1.00  0.00    -0.508 OA
ATOM     19  H   UNL     1      41.773 -93.156  25.411  1.00  0.00     0.293 HD
ENDBRANCH  17  18
ENDBRANCH   2  12
BRANCH   8  20
ATOM     20  O   UNL     1      43.486 -94.623  34.554  1.00  0.00    -0.507 OA
ATOM     21  H   UNL     1      44.251 -94.389  33.938  1.00  0.00     0.293 HD
ENDBRANCH   8  20
BRANCH   6  22
ATOM     22  O   UNL     1      38.755 -94.864  35.418  1.00  0.00    -0.508 OA
ATOM     23  H   UNL     1      38.423 -95.532  36.104  1.00  0.00     0.293 HD
ENDBRANCH   6  22
TORSDOF 4
ENDMDL
MODEL 7
REMARK VINA RESULT:    -4.219     18.298     19.308
REMARK INTER + INTRA:          -5.304
REMARK INTER:                  -4.998
REMARK INTRA:                  -0.306
REMARK UNBOUND:                -0.468
REMARK SMILES O=C1C[C@H](c2ccc(O)cc2)Oc2cc(O)cc(O)c21
REMARK SMILES IDX 3 1 4 2 12 3 13 4 14 5 15 6 17 7 18 8 20 9 2 10 1 11 5 12
REMARK SMILES IDX 6 13 11 14 7 15 10 16 8 17 9 18 19 20 16 22
REMARK H PARENT 9 19 19 21 16 23
REMARK Flexibility Score: inf
ROOT
ATOM      1  C   UNL     1      29.170 -95.265  36.749  1.00  0.00     0.131 C 
ATOM      2  C   UNL     1      29.100 -96.570  37.561  1.00  0.00     0.211 C 
ATOM      3  O   UNL     1      30.404 -97.125  37.777  1.00  0.00    -0.484 OA
ATOM      4  C   UNL     1      31.577 -96.358  37.878  1.00  0.00     0.138 A 
ATOM      5  C   UNL     1      32.767 -96.990  38.246  1.00  0.00     0.093 A 
ATOM      6  C   UNL     1      33.944 -96.254  38.382  1.00  0.00     0.123 A 
ATOM      7  C   UNL     1      33.939 -94.880  38.121  1.00  0.00     0.093 A 
ATOM      8  C   UNL     1      32.765 -94.232  37.717  1.00  0.00     0.133 A 
ATOM      9  C   UNL     1      31.558 -94.971  37.623  1.00  0.00     0.102 A 
ATOM     10  C   UNL     1      30.246 -94.373  37.287  1.00  0.00     0.174 C 
ATOM     11  O   UNL     1      29.999 -93.156  37.496  1.00  0.00    -0.294 OA
ENDROOT
BRANCH   2  12
ATOM     12  C   UNL     1      28.362 -96.368  38.871  1.00  0.00    -0.007 A 
ATOM     13  C   UNL     1      29.077 -96.420  40.081  1.00  0.00     0.011 A 
ATOM     14  C   UNL     1      26.965 -96.190  38.914  1.00  0.00     0.011 A 
ATOM     15  C   UNL     1      28.415 -96.273  41.304  1.00  0.00     0.046 A 
ATOM     16  C   UNL     1      26.308 -96.044  40.139  1.00  0.00     0.046 A 
ATOM     17  C   UNL     1      27.029 -96.083  41.336  1.00  0.00     0.115 A 
BRANCH  17  18
ATOM     18  O   UNL     1      26.359 -95.934  42.548  1.00  0.00    -0.508 OA
ATOM     19  H   UNL     1      26.767 -96.248  43.420  1.00  0.00     0.293 HD
ENDBRANCH  17  18
ENDBRANCH   2  12
BRANCH   8  20
ATOM     20  O   UNL     1      32.855 -92.878  37.391  1.00  0.00    -0.507 OA
ATOM     21  H   UNL     1      32.056 -92.269  37.293  1.00  0.00     0.293 HD
ENDBRANCH   8  20
BRANCH   6  22
ATOM     22  O   UNL     1      35.117 -96.900  38.769  1.00  0.00    -0.508 OA
ATOM     23  H   UNL     1      36.014 -96.652  38.370  1.00  0.00     0.293 HD
ENDBRANCH   6  22
TORSDOF 4
ENDMDL
MODEL 8
REMARK VINA RESULT:    -3.866      3.112      5.397
REMARK INTER + INTRA:          -4.900
REMARK INTER:                  -4.798
REMARK INTRA:                  -0.101
REMARK UNBOUND:                -0.468
REMARK SMILES O=C1C[C@H](c2ccc(O)cc2)Oc2cc(O)cc(O)c21
REMARK SMILES IDX 3 1 4 2 12 3 13 4 14 5 15 6 17 7 18 8 20 9 2 10 1 11 5 12
REMARK SMILES IDX 6 13 11 14 7 15 10 16 8 17 9 18 19 20 16 22
REMARK H PARENT 9 19 19 21 16 23
REMARK Flexibility Score: inf
ROOT
ATOM      1  C   UNL     1      41.537 -76.875  39.312  1.00  0.00     0.131 C 
ATOM      2  C   UNL     1      40.127 -77.468  39.142  1.00  0.00     0.211 C 
ATOM      3  O   UNL     1      39.652 -77.315  37.797  1.00  0.00    -0.484 OA
ATOM      4  C   UNL     1      40.487 -77.287  36.668  1.00  0.00     0.138 A 
ATOM      5  C   UNL     1      39.905 -77.292  35.398  1.00  0.00     0.093 A 
ATOM      6  C   UNL     1      40.705 -77.292  34.255  1.00  0.00     0.123 A 
ATOM      7  C   UNL     1      42.097 -77.257  34.381  1.00  0.00     0.093 A 
ATOM      8  C   UNL     1      42.701 -77.216  35.644  1.00  0.00     0.133 A 
ATOM      9  C   UNL     1      41.891 -77.263  36.807  1.00  0.00     0.102 A 
ATOM     10  C   UNL     1      42.424 -77.309  38.187  1.00  0.00     0.174 C 
ATOM     11  O   UNL     1      43.575 -77.754  38.438  1.00  0.00    -0.294 OA
ENDROOT
BRANCH   2  12
ATOM     12  C   UNL     1      40.080 -78.919  39.582  1.00  0.00    -0.007 A 
ATOM     13  C   UNL     1      39.638 -79.234  40.879  1.00  0.00     0.011 A 
ATOM     14  C   UNL     1      40.527 -79.961  38.746  1.00  0.00     0.011 A 
ATOM     15  C   UNL     1      39.619 -80.559  41.322  1.00  0.00     0.046 A 
ATOM     16  C   UNL     1      40.507 -81.285  39.192  1.00  0.00     0.046 A 
ATOM     17  C   UNL     1      40.052 -81.589  40.478  1.00  0.00     0.115 A 
BRANCH  17  18
ATOM     18  O   UNL     1      40.037 -82.914  40.908  1.00  0.00    -0.508 OA
ATOM     19  H   UNL     1      40.260 -83.677  40.280  1.00  0.00     0.293 HD
ENDBRANCH  17  18
ENDBRANCH   2  12
BRANCH   8  20
ATOM     20  O   UNL     1      44.091 -77.096  35.691  1.00  0.00    -0.507 OA
ATOM     21  H   UNL     1      44.650 -77.340  36.496  1.00  0.00     0.293 HD
ENDBRANCH   8  20
BRANCH   6  22
ATOM     22  O   UNL     1      40.105 -77.317  32.998  1.00  0.00    -0.508 OA
ATOM     23  H   UNL     1      39.733 -78.174  32.606  1.00  0.00     0.293 HD
ENDBRANCH   6  22
TORSDOF 4
ENDMDL
MODEL 9
REMARK VINA RESULT:    -3.798      2.689      3.346
REMARK INTER + INTRA:          -4.821
REMARK INTER:                  -4.462
REMARK INTRA:                  -0.359
REMARK UNBOUND:                -0.468
REMARK SMILES O=C1C[C@H](c2ccc(O)cc2)Oc2cc(O)cc(O)c21
REMARK SMILES IDX 3 1 4 2 12 3 13 4 14 5 15 6 17 7 18 8 20 9 2 10 1 11 5 12
REMARK SMILES IDX 6 13 11 14 7 15 10 16 8 17 9 18 19 20 16 22
REMARK H PARENT 9 19 19 21 16 23
REMARK Flexibility Score: inf
ROOT
ATOM      1  C   UNL     1      38.313 -78.882  38.187  1.00  0.00     0.131 C 
ATOM      2  C   UNL     1      38.591 -77.442  37.722  1.00  0.00     0.211 C 
ATOM      3  O   UNL     1      39.714 -76.875  38.413  1.00  0.00    -0.484 OA
ATOM      4  C   UNL     1      40.798 -77.625  38.895  1.00  0.00     0.138 A 
ATOM      5  C   UNL     1      41.908 -76.951  39.411  1.00  0.00     0.093 A 
ATOM      6  C   UNL     1      43.015 -77.664  39.874  1.00  0.00     0.123 A 
ATOM      7  C   UNL     1      43.002 -79.062  39.847  1.00  0.00     0.093 A 
ATOM      8  C   UNL     1      41.886 -79.759  39.366  1.00  0.00     0.133 A 
ATOM      9  C   UNL     1      40.780 -79.035  38.853  1.00  0.00     0.102 A 
ATOM     10  C   UNL     1      39.587 -79.667  38.246  1.00  0.00     0.174 C 
ATOM     11  O   UNL     1      39.635 -80.815  37.731  1.00  0.00    -0.294 OA
ENDROOT
BRANCH   2  12
ATOM     12  C   UNL     1      38.776 -77.372  36.219  1.00  0.00    -0.007 A 
ATOM     13  C   UNL     1      37.680 -77.622  35.375  1.00  0.00     0.011 A 
ATOM     14  C   UNL     1      40.036 -77.123  35.638  1.00  0.00     0.011 A 
ATOM     15  C   UNL     1      37.831 -77.598  33.985  1.00  0.00     0.046 A 
ATOM     16  C   UNL     1      40.184 -77.101  34.249  1.00  0.00     0.046 A 
ATOM     17  C   UNL     1      39.085 -77.336  33.419  1.00  0.00     0.115 A 
BRANCH  17  18
ATOM     18  O   UNL     1      39.248 -77.310  32.036  1.00  0.00    -0.508 OA
ATOM     19  H   UNL     1      38.819 -78.006  31.438  1.00  0.00     0.293 HD
ENDBRANCH  17  18
ENDBRANCH   2  12
BRANCH   8  20
ATOM     20  O   UNL     1      41.910 -81.152  39.450  1.00  0.00    -0.507 OA
ATOM     21  H   UNL     1      41.556 -81.765  38.729  1.00  0.00     0.293 HD
ENDBRANCH   8  20
BRANCH   6  22
ATOM     22  O   UNL     1      44.120 -76.973  40.367  1.00  0.00    -0.508 OA
ATOM     23  H   UNL     1      44.906 -76.740  39.773  1.00  0.00     0.293 HD
ENDBRANCH   6  22
TORSDOF 4
ENDMDL
