MODEL 1
REMARK VINA RESULT:    -3.746      0.000      0.000
REMARK INTER + INTRA:          -5.042
REMARK INTER:                  -4.841
REMARK INTRA:                  -0.201
REMARK UNBOUND:                -0.201
REMARK SMILES CCCCCCC(=O)[O-]
REMARK SMILES IDX 5 1 6 2 7 3 8 4 9 5 4 6 3 7 2 8 1 9
REMARK H PARENT
REMARK Flexibility Score: inf
ROOT
ATOM      1  C   UNL     1       3.155  42.851  68.769  1.00  0.00     0.006 C 
ENDROOT
BRANCH   1   2
ATOM      2  C   UNL     1       2.649  43.053  70.204  1.00  0.00     0.053 C 
BRANCH   2   3
ATOM      3  C   UNL     1       3.748  43.481  71.126  1.00  0.00     0.041 C 
ATOM      4  O   UNL     1       4.893  42.965  71.031  1.00  0.00    -0.550 OA
ATOM      5  O   UNL     1       3.500  44.426  72.113  1.00  0.00    -0.550 OA
ENDBRANCH   2   3
ENDBRANCH   1   2
BRANCH   1   6
ATOM      6  C   UNL     1       3.186  44.164  67.973  1.00  0.00     0.000 C 
BRANCH   6   7
ATOM      7  C   UNL     1       2.016  44.230  66.979  1.00  0.00    -0.000 C 
BRANCH   7   8
ATOM      8  C   UNL     1       2.141  43.197  65.850  1.00  0.00    -0.003 C 
ATOM      9  C   UNL     1       3.447  43.333  65.066  1.00  0.00     0.004 C 
ENDBRANCH   7   8
ENDBRANCH   6   7
ENDBRANCH   1   6
TORSDOF 5
ENDMDL
MODEL 2
REMARK VINA RESULT:    -3.645      9.159     10.405
REMARK INTER + INTRA:          -4.912
REMARK INTER:                  -4.737
REMARK INTRA:                  -0.175
REMARK UNBOUND:                -0.201
REMARK SMILES CCCCCCC(=O)[O-]
REMARK SMILES IDX 5 1 6 2 7 3 8 4 9 5 4 6 3 7 2 8 1 9
REMARK H PARENT
REMARK Flexibility Score: inf
ROOT
ATOM      1  C   UNL     1       7.094  33.715  70.012  1.00  0.00     0.006 C 
ENDROOT
BRANCH   1   2
ATOM      2  C   UNL     1       7.332  34.779  68.931  1.00  0.00     0.053 C 
BRANCH   2   3
ATOM      3  C   UNL     1       7.335  34.185  67.557  1.00  0.00     0.041 C 
ATOM      4  O   UNL     1       6.707  34.747  66.622  1.00  0.00    -0.550 OA
ATOM      5  O   UNL     1       8.004  32.991  67.316  1.00  0.00    -0.550 OA
ENDBRANCH   2   3
ENDBRANCH   1   2
BRANCH   1   6
ATOM      6  C   UNL     1       5.877  34.041  70.890  1.00  0.00     0.000 C 
BRANCH   6   7
ATOM      7  C   UNL     1       5.356  35.457  70.602  1.00  0.00    -0.000 C 
BRANCH   7   8
ATOM      8  C   UNL     1       3.823  35.520  70.535  1.00  0.00    -0.003 C 
ATOM      9  C   UNL     1       3.185  35.863  71.882  1.00  0.00     0.004 C 
ENDBRANCH   7   8
ENDBRANCH   6   7
ENDBRANCH   1   6
TORSDOF 5
ENDMDL
MODEL 3
REMARK VINA RESULT:    -3.635      3.051      5.075
REMARK INTER + INTRA:          -4.899
REMARK INTER:                  -4.752
REMARK INTRA:                  -0.146
REMARK UNBOUND:                -0.201
REMARK SMILES CCCCCCC(=O)[O-]
REMARK SMILES IDX 5 1 6 2 7 3 8 4 9 5 4 6 3 7 2 8 1 9
REMARK H PARENT
REMARK Flexibility Score: inf
ROOT
ATOM      1  C   UNL     1       2.444  44.272  67.588  1.00  0.00     0.006 C 
ENDROOT
BRANCH   1   2
ATOM      2  C   UNL     1       3.271  44.524  66.320  1.00  0.00     0.053 C 
BRANCH   2   3
ATOM      3  C   UNL     1       3.382  43.293  65.474  1.00  0.00     0.041 C 
ATOM      4  O   UNL     1       3.118  42.163  65.962  1.00  0.00    -0.550 OA
ATOM      5  O   UNL     1       3.808  43.390  64.156  1.00  0.00    -0.550 OA
ENDBRANCH   2   3
ENDBRANCH   1   2
BRANCH   1   6
ATOM      6  C   UNL     1       3.329  44.049  68.824  1.00  0.00     0.000 C 
BRANCH   6   7
ATOM      7  C   UNL     1       2.773  42.915  69.699  1.00  0.00    -0.000 C 
BRANCH   7   8
ATOM      8  C   UNL     1       2.487  43.366  71.139  1.00  0.00    -0.003 C 
ATOM      9  C   UNL     1       3.665  44.107  71.771  1.00  0.00     0.004 C 
ENDBRANCH   7   8
ENDBRANCH   6   7
ENDBRANCH   1   6
TORSDOF 5
ENDMDL
MODEL 4
REMARK VINA RESULT:    -3.604     12.893     14.413
REMARK INTER + INTRA:          -4.858
REMARK INTER:                  -4.623
REMARK INTRA:                  -0.236
REMARK UNBOUND:                -0.201
REMARK SMILES CCCCCCC(=O)[O-]
REMARK SMILES IDX 5 1 6 2 7 3 8 4 9 5 4 6 3 7 2 8 1 9
REMARK H PARENT
REMARK Flexibility Score: inf
ROOT
ATOM      1  C   UNL     1      16.475  42.904  73.892  1.00  0.00     0.006 C 
ENDROOT
BRANCH   1   2
ATOM      2  C   UNL     1      14.945  42.962  74.001  1.00  0.00     0.053 C 
BRANCH   2   3
ATOM      3  C   UNL     1      14.489  44.141  74.802  1.00  0.00     0.041 C 
ATOM      4  O   UNL     1      15.131  45.224  74.758  1.00  0.00    -0.550 OA
ATOM      5  O   UNL     1      13.372  44.037  75.622  1.00  0.00    -0.550 OA
ENDBRANCH   2   3
ENDBRANCH   1   2
BRANCH   1   6
ATOM      6  C   UNL     1      17.082  41.817  74.793  1.00  0.00     0.000 C 
BRANCH   6   7
ATOM      7  C   UNL     1      17.976  40.868  73.980  1.00  0.00    -0.000 C 
BRANCH   7   8
ATOM      8  C   UNL     1      17.529  39.402  74.085  1.00  0.00    -0.003 C 
ATOM      9  C   UNL     1      16.012  39.253  74.203  1.00  0.00     0.004 C 
ENDBRANCH   7   8
ENDBRANCH   6   7
ENDBRANCH   1   6
TORSDOF 5
ENDMDL
MODEL 5
REMARK VINA RESULT:    -3.582     13.077     14.856
REMARK INTER + INTRA:          -4.830
REMARK INTER:                  -4.660
REMARK INTRA:                  -0.170
REMARK UNBOUND:                -0.201
REMARK SMILES CCCCCCC(=O)[O-]
REMARK SMILES IDX 5 1 6 2 7 3 8 4 9 5 4 6 3 7 2 8 1 9
REMARK H PARENT
REMARK Flexibility Score: inf
ROOT
ATOM      1  C   UNL     1      17.446  42.061  74.814  1.00  0.00     0.006 C 
ENDROOT
BRANCH   1   2
ATOM      2  C   UNL     1      17.827  40.717  74.178  1.00  0.00     0.053 C 
BRANCH   2   3
ATOM      3  C   UNL     1      17.042  39.584  74.760  1.00  0.00     0.041 C 
ATOM      4  O   UNL     1      15.963  39.218  74.223  1.00  0.00    -0.550 OA
ATOM      5  O   UNL     1      17.484  38.951  75.915  1.00  0.00    -0.550 OA
ENDBRANCH   2   3
ENDBRANCH   1   2
BRANCH   1   6
ATOM      6  C   UNL     1      16.790  43.017  73.806  1.00  0.00     0.000 C 
BRANCH   6   7
ATOM      7  C   UNL     1      15.271  43.088  74.027  1.00  0.00    -0.000 C 
BRANCH   7   8
ATOM      8  C   UNL     1      14.874  44.146  75.067  1.00  0.00    -0.003 C 
ATOM      9  C   UNL     1      13.385  44.109  75.410  1.00  0.00     0.004 C 
ENDBRANCH   7   8
ENDBRANCH   6   7
ENDBRANCH   1   6
TORSDOF 5
ENDMDL
MODEL 6
REMARK VINA RESULT:    -3.527      8.813      9.588
REMARK INTER + INTRA:          -4.760
REMARK INTER:                  -4.561
REMARK INTRA:                  -0.199
REMARK UNBOUND:                -0.201
REMARK SMILES CCCCCCC(=O)[O-]
REMARK SMILES IDX 5 1 6 2 7 3 8 4 9 5 4 6 3 7 2 8 1 9
REMARK H PARENT
REMARK Flexibility Score: inf
ROOT
ATOM      1  C   UNL     1       5.505  34.123  70.934  1.00  0.00     0.006 C 
ENDROOT
BRANCH   1   2
ATOM      2  C   UNL     1       5.026  35.536  70.570  1.00  0.00     0.053 C 
BRANCH   2   3
ATOM      3  C   UNL     1       3.552  35.693  70.777  1.00  0.00     0.041 C 
ATOM      4  O   UNL     1       2.770  35.695  69.790  1.00  0.00    -0.550 OA
ATOM      5  O   UNL     1       3.044  35.871  72.058  1.00  0.00    -0.550 OA
ENDBRANCH   2   3
ENDBRANCH   1   2
BRANCH   1   6
ATOM      6  C   UNL     1       7.021  33.957  70.750  1.00  0.00     0.000 C 
BRANCH   6   7
ATOM      7  C   UNL     1       7.348  33.421  69.348  1.00  0.00    -0.000 C 
BRANCH   7   8
ATOM      8  C   UNL     1       7.762  34.533  68.372  1.00  0.00    -0.003 C 
ATOM      9  C   UNL     1       7.003  34.469  67.047  1.00  0.00     0.004 C 
ENDBRANCH   7   8
ENDBRANCH   6   7
ENDBRANCH   1   6
TORSDOF 5
ENDMDL
MODEL 7
REMARK VINA RESULT:    -3.472     10.903     12.331
REMARK INTER + INTRA:          -4.689
REMARK INTER:                  -4.560
REMARK INTRA:                  -0.129
REMARK UNBOUND:                -0.201
REMARK SMILES CCCCCCC(=O)[O-]
REMARK SMILES IDX 5 1 6 2 7 3 8 4 9 5 4 6 3 7 2 8 1 9
REMARK H PARENT
REMARK Flexibility Score: inf
ROOT
ATOM      1  C   UNL     1       6.820  33.136  70.163  1.00  0.00     0.006 C 
ENDROOT
BRANCH   1   2
ATOM      2  C   UNL     1       7.155  34.378  69.324  1.00  0.00     0.053 C 
BRANCH   2   3
ATOM      3  C   UNL     1       7.682  34.009  67.972  1.00  0.00     0.041 C 
ATOM      4  O   UNL     1       8.631  33.189  67.863  1.00  0.00    -0.550 OA
ATOM      5  O   UNL     1       7.146  34.597  66.832  1.00  0.00    -0.550 OA
ENDBRANCH   2   3
ENDBRANCH   1   2
BRANCH   1   6
ATOM      6  C   UNL     1       7.300  33.269  71.615  1.00  0.00     0.000 C 
BRANCH   6   7
ATOM      7  C   UNL     1       7.470  31.887  72.265  1.00  0.00    -0.000 C 
BRANCH   7   8
ATOM      8  C   UNL     1       7.892  31.976  73.739  1.00  0.00    -0.003 C 
ATOM      9  C   UNL     1       8.672  33.252  74.055  1.00  0.00     0.004 C 
ENDBRANCH   7   8
ENDBRANCH   6   7
ENDBRANCH   1   6
TORSDOF 5
ENDMDL
MODEL 8
REMARK VINA RESULT:    -3.457     10.989     12.099
REMARK INTER + INTRA:          -4.668
REMARK INTER:                  -4.242
REMARK INTRA:                  -0.426
REMARK UNBOUND:                -0.201
REMARK SMILES CCCCCCC(=O)[O-]
REMARK SMILES IDX 5 1 6 2 7 3 8 4 9 5 4 6 3 7 2 8 1 9
REMARK H PARENT
REMARK Flexibility Score: inf
ROOT
ATOM      1  C   UNL     1       7.192  33.973  67.127  1.00  0.00     0.006 C 
ENDROOT
BRANCH   1   2
ATOM      2  C   UNL     1       7.082  32.445  67.226  1.00  0.00     0.053 C 
BRANCH   2   3
ATOM      3  C   UNL     1       8.394  31.815  67.574  1.00  0.00     0.041 C 
ATOM      4  O   UNL     1       8.503  31.107  68.610  1.00  0.00    -0.550 OA
ATOM      5  O   UNL     1       9.507  32.034  66.771  1.00  0.00    -0.550 OA
ENDBRANCH   2   3
ENDBRANCH   1   2
BRANCH   1   6
ATOM      6  C   UNL     1       7.794  34.597  68.395  1.00  0.00     0.000 C 
BRANCH   6   7
ATOM      7  C   UNL     1       6.758  34.644  69.528  1.00  0.00    -0.000 C 
BRANCH   7   8
ATOM      8  C   UNL     1       7.196  33.844  70.763  1.00  0.00    -0.003 C 
ATOM      9  C   UNL     1       6.419  32.537  70.927  1.00  0.00     0.004 C 
ENDBRANCH   7   8
ENDBRANCH   6   7
ENDBRANCH   1   6
TORSDOF 5
ENDMDL
MODEL 9
REMARK VINA RESULT:    -3.379     14.784     16.353
REMARK INTER + INTRA:          -4.568
REMARK INTER:                  -4.295
REMARK INTRA:                  -0.273
REMARK UNBOUND:                -0.201
REMARK SMILES CCCCCCC(=O)[O-]
REMARK SMILES IDX 5 1 6 2 7 3 8 4 9 5 4 6 3 7 2 8 1 9
REMARK H PARENT
REMARK Flexibility Score: inf
ROOT
ATOM      1  C   UNL     1      17.412  39.426  74.367  1.00  0.00     0.006 C 
ENDROOT
BRANCH   1   2
ATOM      2  C   UNL     1      17.528  39.186  75.879  1.00  0.00     0.053 C 
BRANCH   2   3
ATOM      3  C   UNL     1      18.867  38.631  76.252  1.00  0.00     0.041 C 
ATOM      4  O   UNL     1      19.043  37.386  76.312  1.00  0.00    -0.550 OA
ATOM      5  O   UNL     1      19.913  39.489  76.568  1.00  0.00    -0.550 OA
ENDBRANCH   2   3
ENDBRANCH   1   2
BRANCH   1   6
ATOM      6  C   UNL     1      17.933  40.811  73.956  1.00  0.00     0.000 C 
BRANCH   6   7
ATOM      7  C   UNL     1      17.265  41.917  74.787  1.00  0.00    -0.000 C 
BRANCH   7   8
ATOM      8  C   UNL     1      16.368  42.832  73.941  1.00  0.00    -0.003 C 
ATOM      9  C   UNL     1      14.952  42.282  73.773  1.00  0.00     0.004 C 
ENDBRANCH   7   8
ENDBRANCH   6   7
ENDBRANCH   1   6
TORSDOF 5
ENDMDL
