MODEL 1
REMARK VINA RESULT:    -4.105      0.000      0.000
REMARK INTER + INTRA:          -4.429
REMARK INTER:                  -4.945
REMARK INTRA:                   0.516
REMARK UNBOUND:                 0.516
REMARK SMILES O=c1c(O)c(-c2ccc(O)c(O)c2)oc2cc(O)cc(O)c12
REMARK SMILES IDX 5 1 3 2 2 3 1 4 22 5 20 6 19 7 17 8 16 9 15 10 14 11 6 12
REMARK SMILES IDX 7 13 8 14 9 15 13 16 11 17 10 18 12 20 4 22 21 24 18 26
REMARK H PARENT 10 19 12 21 4 23 21 25 18 27
REMARK Flexibility Score: inf
ROOT
ATOM      1  C   UNL     1       1.100  32.567   6.672  1.00  0.00     0.180 A 
ATOM      2  C   UNL     1       1.612  31.277   6.898  1.00  0.00     0.208 A 
ATOM      3  C   UNL     1       2.146  30.969   8.160  1.00  0.00     0.238 A 
ATOM      4  O   UNL     1       2.652  29.830   8.339  1.00  0.00    -0.285 OA
ATOM      5  C   UNL     1       2.147  31.946   9.183  1.00  0.00     0.111 A 
ATOM      6  C   UNL     1       2.625  31.730  10.510  1.00  0.00     0.134 A 
ATOM      7  C   UNL     1       2.698  32.806  11.403  1.00  0.00     0.093 A 
ATOM      8  C   UNL     1       2.250  34.075  11.038  1.00  0.00     0.123 A 
ATOM      9  C   UNL     1       1.724  34.285   9.763  1.00  0.00     0.094 A 
ATOM     10  C   UNL     1       1.672  33.238   8.838  1.00  0.00     0.146 A 
ATOM     11  O   UNL     1       1.175  33.482   7.632  1.00  0.00    -0.452 OA
ENDROOT
BRANCH   1  12
ATOM     12  C   UNL     1       0.499  32.960   5.377  1.00  0.00     0.025 A 
ATOM     13  C   UNL     1      -0.197  34.172   5.232  1.00  0.00     0.016 A 
ATOM     14  C   UNL     1      -0.735  34.535   3.994  1.00  0.00     0.051 A 
ATOM     15  C   UNL     1      -0.574  33.702   2.882  1.00  0.00     0.157 A 
ATOM     16  C   UNL     1       0.676  32.136   4.254  1.00  0.00     0.062 A 
ATOM     17  C   UNL     1       0.137  32.498   3.011  1.00  0.00     0.158 A 
BRANCH  15  18
ATOM     18  O   UNL     1      -1.125  34.088   1.661  1.00  0.00    -0.504 OA
ATOM     19  H   UNL     1      -0.549  34.368   0.876  1.00  0.00     0.293 HD
ENDBRANCH  15  18
BRANCH  17  20
ATOM     20  O   UNL     1       0.307  31.666   1.905  1.00  0.00    -0.504 OA
ATOM     21  H   UNL     1       1.180  31.639   1.390  1.00  0.00     0.293 HD
ENDBRANCH  17  20
ENDBRANCH   1  12
BRANCH   2  22
ATOM     22  O   UNL     1       1.622  30.334   5.867  1.00  0.00    -0.502 OA
ATOM     23  H   UNL     1       2.242  30.407   5.069  1.00  0.00     0.293 HD
ENDBRANCH   2  22
BRANCH   6  24
ATOM     24  O   UNL     1       3.012  30.481  11.006  1.00  0.00    -0.507 OA
ATOM     25  H   UNL     1       2.470  29.635  10.921  1.00  0.00     0.293 HD
ENDBRANCH   6  24
BRANCH   8  26
ATOM     26  O   UNL     1       2.322  35.120  11.957  1.00  0.00    -0.508 OA
ATOM     27  H   UNL     1       1.518  35.397  12.508  1.00  0.00     0.293 HD
ENDBRANCH   8  26
TORSDOF 6
ENDMDL
MODEL 2
REMARK VINA RESULT:    -3.984      1.430      2.793
REMARK INTER + INTRA:          -4.284
REMARK INTER:                  -4.339
REMARK INTRA:                   0.055
REMARK UNBOUND:                 0.516
REMARK SMILES O=c1c(O)c(-c2ccc(O)c(O)c2)oc2cc(O)cc(O)c12
REMARK SMILES IDX 5 1 3 2 2 3 1 4 22 5 20 6 19 7 17 8 16 9 15 10 14 11 6 12
REMARK SMILES IDX 7 13 8 14 9 15 13 16 11 17 10 18 12 20 4 22 21 24 18 26
REMARK H PARENT 10 19 12 21 4 23 21 25 18 27
REMARK Flexibility Score: inf
ROOT
ATOM      1  C   UNL     1       0.834  33.177   6.410  1.00  0.00     0.180 A 
ATOM      2  C   UNL     1       0.242  33.658   7.591  1.00  0.00     0.208 A 
ATOM      3  C   UNL     1       0.815  33.318   8.828  1.00  0.00     0.238 A 
ATOM      4  O   UNL     1       0.249  33.707   9.883  1.00  0.00    -0.285 OA
ATOM      5  C   UNL     1       1.981  32.517   8.868  1.00  0.00     0.111 A 
ATOM      6  C   UNL     1       2.669  32.146  10.062  1.00  0.00     0.134 A 
ATOM      7  C   UNL     1       3.736  31.242   9.992  1.00  0.00     0.093 A 
ATOM      8  C   UNL     1       4.181  30.747   8.767  1.00  0.00     0.123 A 
ATOM      9  C   UNL     1       3.555  31.150   7.587  1.00  0.00     0.094 A 
ATOM     10  C   UNL     1       2.464  32.023   7.628  1.00  0.00     0.146 A 
ATOM     11  O   UNL     1       1.889  32.373   6.484  1.00  0.00    -0.452 OA
ENDROOT
BRANCH   1  12
ATOM     12  C   UNL     1       0.303  33.511   5.070  1.00  0.00     0.025 A 
ATOM     13  C   UNL     1      -0.090  34.821   4.745  1.00  0.00     0.016 A 
ATOM     14  C   UNL     1      -0.566  35.119   3.466  1.00  0.00     0.051 A 
ATOM     15  C   UNL     1      -0.643  34.121   2.489  1.00  0.00     0.157 A 
ATOM     16  C   UNL     1       0.243  32.516   4.081  1.00  0.00     0.062 A 
ATOM     17  C   UNL     1      -0.234  32.813   2.796  1.00  0.00     0.158 A 
BRANCH  15  18
ATOM     18  O   UNL     1      -1.125  34.448   1.222  1.00  0.00    -0.504 OA
ATOM     19  H   UNL     1      -0.807  35.269   0.721  1.00  0.00     0.293 HD
ENDBRANCH  15  18
BRANCH  17  20
ATOM     20  O   UNL     1      -0.302  31.814   1.825  1.00  0.00    -0.504 OA
ATOM     21  H   UNL     1      -0.006  31.981   0.871  1.00  0.00     0.293 HD
ENDBRANCH  17  20
ENDBRANCH   1  12
BRANCH   2  22
ATOM     22  O   UNL     1      -0.921  34.429   7.530  1.00  0.00    -0.502 OA
ATOM     23  H   UNL     1      -1.842  34.042   7.705  1.00  0.00     0.293 HD
ENDBRANCH   2  22
BRANCH   6  24
ATOM     24  O   UNL     1       2.363  32.654  11.328  1.00  0.00    -0.507 OA
ATOM     25  H   UNL     1       2.458  32.140  12.191  1.00  0.00     0.293 HD
ENDBRANCH   6  24
BRANCH   8  26
ATOM     26  O   UNL     1       5.257  29.862   8.733  1.00  0.00    -0.508 OA
ATOM     27  H   UNL     1       6.184  30.164   8.456  1.00  0.00     0.293 HD
ENDBRANCH   8  26
TORSDOF 6
ENDMDL
MODEL 3
REMARK VINA RESULT:    -3.923      2.257      2.561
REMARK INTER + INTRA:          -4.210
REMARK INTER:                  -3.993
REMARK INTRA:                  -0.217
REMARK UNBOUND:                 0.516
REMARK SMILES O=c1c(O)c(-c2ccc(O)c(O)c2)oc2cc(O)cc(O)c12
REMARK SMILES IDX 5 1 3 2 2 3 1 4 22 5 20 6 19 7 17 8 16 9 15 10 14 11 6 12
REMARK SMILES IDX 7 13 8 14 9 15 13 16 11 17 10 18 12 20 4 22 21 24 18 26
REMARK H PARENT 10 19 12 21 4 23 21 25 18 27
REMARK Flexibility Score: inf
ROOT
ATOM      1  C   UNL     1       1.035  32.118   6.103  1.00  0.00     0.180 A 
ATOM      2  C   UNL     1       0.248  31.326   6.957  1.00  0.00     0.208 A 
ATOM      3  C   UNL     1       0.864  30.667   8.034  1.00  0.00     0.238 A 
ATOM      4  O   UNL     1       0.164  29.916   8.763  1.00  0.00    -0.285 OA
ATOM      5  C   UNL     1       2.254  30.821   8.253  1.00  0.00     0.111 A 
ATOM      6  C   UNL     1       2.974  30.234   9.336  1.00  0.00     0.134 A 
ATOM      7  C   UNL     1       4.369  30.347   9.379  1.00  0.00     0.093 A 
ATOM      8  C   UNL     1       5.063  31.080   8.418  1.00  0.00     0.123 A 
ATOM      9  C   UNL     1       4.363  31.710   7.388  1.00  0.00     0.094 A 
ATOM     10  C   UNL     1       2.974  31.585   7.297  1.00  0.00     0.146 A 
ATOM     11  O   UNL     1       2.347  32.190   6.296  1.00  0.00    -0.452 OA
ENDROOT
BRANCH   1  12
ATOM     12  C   UNL     1       0.455  32.862   4.962  1.00  0.00     0.025 A 
ATOM     13  C   UNL     1       0.379  34.265   4.967  1.00  0.00     0.016 A 
ATOM     14  C   UNL     1      -0.151  34.948   3.868  1.00  0.00     0.051 A 
ATOM     15  C   UNL     1      -0.598  34.244   2.746  1.00  0.00     0.157 A 
ATOM     16  C   UNL     1       0.024  32.159   3.825  1.00  0.00     0.062 A 
ATOM     17  C   UNL     1      -0.507  32.842   2.722  1.00  0.00     0.158 A 
BRANCH  15  18
ATOM     18  O   UNL     1      -1.124  34.952   1.666  1.00  0.00    -0.504 OA
ATOM     19  H   UNL     1      -0.885  34.727   0.708  1.00  0.00     0.293 HD
ENDBRANCH  15  18
BRANCH  17  20
ATOM     20  O   UNL     1      -0.945  32.134   1.603  1.00  0.00    -0.504 OA
ATOM     21  H   UNL     1      -0.608  31.199   1.401  1.00  0.00     0.293 HD
ENDBRANCH  17  20
ENDBRANCH   1  12
BRANCH   2  22
ATOM     22  O   UNL     1      -1.118  31.169   6.710  1.00  0.00    -0.502 OA
ATOM     23  H   UNL     1      -1.820  31.765   7.134  1.00  0.00     0.293 HD
ENDBRANCH   2  22
BRANCH   6  24
ATOM     24  O   UNL     1       2.369  29.557  10.399  1.00  0.00    -0.507 OA
ATOM     25  H   UNL     1       2.740  28.728  10.838  1.00  0.00     0.293 HD
ENDBRANCH   6  24
BRANCH   8  26
ATOM     26  O   UNL     1       6.449  31.185   8.502  1.00  0.00    -0.508 OA
ATOM     27  H   UNL     1       7.031  31.197   7.672  1.00  0.00     0.293 HD
ENDBRANCH   8  26
TORSDOF 6
ENDMDL
MODEL 4
REMARK VINA RESULT:    -3.801      1.359      6.680
REMARK INTER + INTRA:          -4.063
REMARK INTER:                  -3.740
REMARK INTRA:                  -0.322
REMARK UNBOUND:                 0.516
REMARK SMILES O=c1c(O)c(-c2ccc(O)c(O)c2)oc2cc(O)cc(O)c12
REMARK SMILES IDX 5 1 3 2 2 3 1 4 22 5 20 6 19 7 17 8 16 9 15 10 14 11 6 12
REMARK SMILES IDX 7 13 8 14 9 15 13 16 11 17 10 18 12 20 4 22 21 24 18 26
REMARK H PARENT 10 19 12 21 4 23 21 25 18 27
REMARK Flexibility Score: inf
ROOT
ATOM      1  C   UNL     1       1.216  33.089   7.433  1.00  0.00     0.180 A 
ATOM      2  C   UNL     1       1.377  31.728   7.118  1.00  0.00     0.208 A 
ATOM      3  C   UNL     1       1.042  31.284   5.828  1.00  0.00     0.238 A 
ATOM      4  O   UNL     1       1.138  30.055   5.569  1.00  0.00    -0.285 OA
ATOM      5  C   UNL     1       0.567  32.206   4.866  1.00  0.00     0.111 A 
ATOM      6  C   UNL     1       0.237  31.874   3.518  1.00  0.00     0.134 A 
ATOM      7  C   UNL     1      -0.348  32.840   2.691  1.00  0.00     0.093 A 
ATOM      8  C   UNL     1      -0.554  34.144   3.142  1.00  0.00     0.123 A 
ATOM      9  C   UNL     1      -0.180  34.497   4.439  1.00  0.00     0.094 A 
ATOM     10  C   UNL     1       0.373  33.544   5.299  1.00  0.00     0.146 A 
ATOM     11  O   UNL     1       0.706  33.918   6.528  1.00  0.00    -0.452 OA
ENDROOT
BRANCH   1  12
ATOM     12  C   UNL     1       1.570  33.637   8.762  1.00  0.00     0.025 A 
ATOM     13  C   UNL     1       0.646  33.641   9.821  1.00  0.00     0.016 A 
ATOM     14  C   UNL     1       1.009  34.140  11.074  1.00  0.00     0.051 A 
ATOM     15  C   UNL     1       2.301  34.630  11.293  1.00  0.00     0.157 A 
ATOM     16  C   UNL     1       2.872  34.111   8.991  1.00  0.00     0.062 A 
ATOM     17  C   UNL     1       3.239  34.612  10.247  1.00  0.00     0.158 A 
BRANCH  15  18
ATOM     18  O   UNL     1       2.634  35.125  12.553  1.00  0.00    -0.504 OA
ATOM     19  H   UNL     1       2.098  35.858  13.003  1.00  0.00     0.293 HD
ENDBRANCH  15  18
BRANCH  17  20
ATOM     20  O   UNL     1       4.531  35.093  10.461  1.00  0.00    -0.504 OA
ATOM     21  H   UNL     1       4.945  35.108  11.385  1.00  0.00     0.293 HD
ENDBRANCH  17  20
ENDBRANCH   1  12
BRANCH   2  22
ATOM     22  O   UNL     1       1.827  30.831   8.089  1.00  0.00    -0.502 OA
ATOM     23  H   UNL     1       2.170  29.905   7.858  1.00  0.00     0.293 HD
ENDBRANCH   2  22
BRANCH   6  24
ATOM     24  O   UNL     1       0.486  30.625   2.939  1.00  0.00    -0.507 OA
ATOM     25  H   UNL     1      -0.067  30.212   2.204  1.00  0.00     0.293 HD
ENDBRANCH   6  24
BRANCH   8  26
ATOM     26  O   UNL     1      -1.124  35.084   2.286  1.00  0.00    -0.508 OA
ATOM     27  H   UNL     1      -1.768  35.789   2.627  1.00  0.00     0.293 HD
ENDBRANCH   8  26
TORSDOF 6
ENDMDL
MODEL 5
REMARK VINA RESULT:    -1.516      1.730      7.360
REMARK INTER + INTRA:          -1.310
REMARK INTER:                  -1.245
REMARK INTRA:                  -0.065
REMARK UNBOUND:                 0.516
REMARK SMILES O=c1c(O)c(-c2ccc(O)c(O)c2)oc2cc(O)cc(O)c12
REMARK SMILES IDX 5 1 3 2 2 3 1 4 22 5 20 6 19 7 17 8 16 9 15 10 14 11 6 12
REMARK SMILES IDX 7 13 8 14 9 15 13 16 11 17 10 18 12 20 4 22 21 24 18 26
REMARK H PARENT 10 19 12 21 4 23 21 25 18 27
REMARK Flexibility Score: inf
ROOT
ATOM      1  C   UNL     1       1.370  32.285   6.092  1.00  0.00     0.180 A 
ATOM      2  C   UNL     1       0.984  33.614   5.840  1.00  0.00     0.208 A 
ATOM      3  C   UNL     1       0.374  33.925   4.614  1.00  0.00     0.238 A 
ATOM      4  O   UNL     1       0.080  35.125   4.373  1.00  0.00    -0.285 OA
ATOM      5  C   UNL     1       0.143  32.903   3.662  1.00  0.00     0.111 A 
ATOM      6  C   UNL     1      -0.505  33.097   2.406  1.00  0.00     0.134 A 
ATOM      7  C   UNL     1      -0.563  32.041   1.488  1.00  0.00     0.093 A 
ATOM      8  C   UNL     1      -0.057  30.781   1.807  1.00  0.00     0.123 A 
ATOM      9  C   UNL     1       0.524  30.563   3.057  1.00  0.00     0.094 A 
ATOM     10  C   UNL     1       0.630  31.608   3.979  1.00  0.00     0.146 A 
ATOM     11  O   UNL     1       1.199  31.362   5.153  1.00  0.00    -0.452 OA
ENDROOT
BRANCH   1  12
ATOM     12  C   UNL     1       1.996  31.876   7.369  1.00  0.00     0.025 A 
ATOM     13  C   UNL     1       1.391  32.164   8.605  1.00  0.00     0.016 A 
ATOM     14  C   UNL     1       1.988  31.746   9.798  1.00  0.00     0.051 A 
ATOM     15  C   UNL     1       3.185  31.025   9.775  1.00  0.00     0.157 A 
ATOM     16  C   UNL     1       3.188  31.134   7.349  1.00  0.00     0.062 A 
ATOM     17  C   UNL     1       3.788  30.714   8.545  1.00  0.00     0.158 A 
BRANCH  15  18
ATOM     18  O   UNL     1       3.759  30.623  10.981  1.00  0.00    -0.504 OA
ATOM     19  H   UNL     1       3.429  30.968  11.875  1.00  0.00     0.293 HD
ENDBRANCH  15  18
BRANCH  17  20
ATOM     20  O   UNL     1       4.979  29.988   8.514  1.00  0.00    -0.504 OA
ATOM     21  H   UNL     1       5.007  29.004   8.755  1.00  0.00     0.293 HD
ENDBRANCH  17  20
ENDBRANCH   1  12
BRANCH   2  22
ATOM     22  O   UNL     1       1.242  34.611   6.783  1.00  0.00    -0.502 OA
ATOM     23  H   UNL     1       2.091  35.165   6.773  1.00  0.00     0.293 HD
ENDBRANCH   2  22
BRANCH   6  24
ATOM     24  O   UNL     1      -1.125  34.290   2.023  1.00  0.00    -0.507 OA
ATOM     25  H   UNL     1      -0.664  35.050   1.546  1.00  0.00     0.293 HD
ENDBRANCH   6  24
BRANCH   8  26
ATOM     26  O   UNL     1      -0.147  29.749   0.876  1.00  0.00    -0.508 OA
ATOM     27  H   UNL     1      -1.026  29.284   0.683  1.00  0.00     0.293 HD
ENDBRANCH   8  26
TORSDOF 6
ENDMDL
