MODEL 1
REMARK VINA RESULT:    -4.850      0.000      0.000
REMARK INTER + INTRA:         -13.348
REMARK INTER:                 -11.087
REMARK INTRA:                  -2.261
REMARK UNBOUND:                -2.261
REMARK SMILES CCCCCCCCCCCCCCCCCCCCCCCC(=O)[O-]
REMARK SMILES IDX 13 1 14 2 15 3 16 4 17 5 18 6 19 7 20 8 21 9 22 10 23 11
REMARK SMILES IDX 24 12 25 13 26 14 12 15 11 16 10 17 9 18 8 19 7 20 6 21 5 22
REMARK SMILES IDX 4 23 3 24 2 25 1 26
REMARK H PARENT
REMARK Flexibility Score: inf
ROOT
ATOM      1  C   UNL     1     -12.917 -27.205 -35.418  1.00  0.00     0.000 C 
ENDROOT
BRANCH   1   2
ATOM      2  C   UNL     1     -13.474 -27.684 -34.067  1.00  0.00     0.000 C 
BRANCH   2   3
ATOM      3  C   UNL     1     -12.455 -28.390 -33.152  1.00  0.00     0.000 C 
BRANCH   3   4
ATOM      4  C   UNL     1     -12.957 -28.604 -31.707  1.00  0.00     0.000 C 
BRANCH   4   5
ATOM      5  C   UNL     1     -11.839 -28.416 -30.665  1.00  0.00     0.000 C 
BRANCH   5   6
ATOM      6  C   UNL     1     -10.886 -27.254 -31.006  1.00  0.00     0.000 C 
BRANCH   6   7
ATOM      7  C   UNL     1     -11.230 -25.906 -30.342  1.00  0.00     0.000 C 
BRANCH   7   8
ATOM      8  C   UNL     1     -12.347 -25.140 -31.072  1.00  0.00     0.000 C 
BRANCH   8   9
ATOM      9  C   UNL     1     -12.005 -23.655 -31.294  1.00  0.00     0.000 C 
BRANCH   9  10
ATOM     10  C   UNL     1     -10.500 -23.337 -31.404  1.00  0.00     0.006 C 
BRANCH  10  11
ATOM     11  C   UNL     1      -9.970 -22.390 -30.315  1.00  0.00     0.053 C 
BRANCH  11  12
ATOM     12  C   UNL     1      -8.490 -22.189 -30.420  1.00  0.00     0.041 C 
ATOM     13  O   UNL     1      -8.025 -21.077 -30.784  1.00  0.00    -0.550 OA
ATOM     14  O   UNL     1      -7.623 -23.241 -30.146  1.00  0.00    -0.550 OA
ENDBRANCH  11  12
ENDBRANCH  10  11
ENDBRANCH   9  10
ENDBRANCH   8   9
ENDBRANCH   7   8
ENDBRANCH   6   7
ENDBRANCH   5   6
ENDBRANCH   4   5
ENDBRANCH   3   4
ENDBRANCH   2   3
ENDBRANCH   1   2
BRANCH   1  15
ATOM     15  C   UNL     1     -11.742 -26.223 -35.264  1.00  0.00     0.000 C 
BRANCH  15  16
ATOM     16  C   UNL     1     -12.178 -24.872 -34.674  1.00  0.00     0.000 C 
BRANCH  16  17
ATOM     17  C   UNL     1     -12.858 -23.963 -35.709  1.00  0.00     0.000 C 
BRANCH  17  18
ATOM     18  C   UNL     1     -12.080 -22.650 -35.882  1.00  0.00    -0.000 C 
BRANCH  18  19
ATOM     19  C   UNL     1     -12.529 -21.551 -34.902  1.00  0.00    -0.000 C 
BRANCH  19  20
ATOM     20  C   UNL     1     -13.571 -20.564 -35.463  1.00  0.00    -0.000 C 
BRANCH  20  21
ATOM     21  C   UNL     1     -12.937 -19.309 -36.081  1.00  0.00    -0.000 C 
BRANCH  21  22
ATOM     22  C   UNL     1     -11.489 -19.132 -35.599  1.00  0.00    -0.000 C 
BRANCH  22  23
ATOM     23  C   UNL     1     -10.498 -18.947 -36.759  1.00  0.00    -0.000 C 
BRANCH  23  24
ATOM     24  C   UNL     1      -9.060 -19.342 -36.381  1.00  0.00    -0.000 C 
BRANCH  24  25
ATOM     25  C   UNL     1      -8.160 -19.537 -37.610  1.00  0.00    -0.003 C 
ATOM     26  C   UNL     1      -6.677 -19.609 -37.250  1.00  0.00     0.004 C 
ENDBRANCH  24  25
ENDBRANCH  23  24
ENDBRANCH  22  23
ENDBRANCH  21  22
ENDBRANCH  20  21
ENDBRANCH  19  20
ENDBRANCH  18  19
ENDBRANCH  17  18
ENDBRANCH  16  17
ENDBRANCH  15  16
ENDBRANCH   1  15
TORSDOF 22
ENDMDL
MODEL 2
REMARK VINA RESULT:    -4.804      1.835      6.593
REMARK INTER + INTRA:         -13.244
REMARK INTER:                 -10.280
REMARK INTRA:                  -2.964
REMARK UNBOUND:                -2.261
REMARK SMILES CCCCCCCCCCCCCCCCCCCCCCCC(=O)[O-]
REMARK SMILES IDX 13 1 14 2 15 3 16 4 17 5 18 6 19 7 20 8 21 9 22 10 23 11
REMARK SMILES IDX 24 12 25 13 26 14 12 15 11 16 10 17 9 18 8 19 7 20 6 21 5 22
REMARK SMILES IDX 4 23 3 24 2 25 1 26
REMARK H PARENT
REMARK Flexibility Score: inf
ROOT
ATOM      1  C   UNL     1     -12.625 -23.725 -35.877  1.00  0.00     0.000 C 
ENDROOT
BRANCH   1   2
ATOM      2  C   UNL     1     -12.873 -22.605 -34.852  1.00  0.00     0.000 C 
BRANCH   2   3
ATOM      3  C   UNL     1     -12.846 -21.175 -35.427  1.00  0.00     0.000 C 
BRANCH   3   4
ATOM      4  C   UNL     1     -11.425 -20.644 -35.714  1.00  0.00     0.000 C 
BRANCH   4   5
ATOM      5  C   UNL     1     -10.957 -19.625 -34.658  1.00  0.00     0.000 C 
BRANCH   5   6
ATOM      6  C   UNL     1     -12.068 -19.229 -33.667  1.00  0.00     0.000 C 
BRANCH   6   7
ATOM      7  C   UNL     1     -11.758 -19.511 -32.185  1.00  0.00     0.000 C 
BRANCH   7   8
ATOM      8  C   UNL     1     -10.919 -20.784 -31.975  1.00  0.00     0.000 C 
BRANCH   8   9
ATOM      9  C   UNL     1     -10.311 -20.872 -30.562  1.00  0.00     0.000 C 
BRANCH   9  10
ATOM     10  C   UNL     1      -8.770 -20.935 -30.514  1.00  0.00     0.006 C 
BRANCH  10  11
ATOM     11  C   UNL     1      -8.194 -22.360 -30.496  1.00  0.00     0.053 C 
BRANCH  11  12
ATOM     12  C   UNL     1      -6.696 -22.358 -30.517  1.00  0.00     0.041 C 
ATOM     13  O   UNL     1      -6.070 -21.378 -31.001  1.00  0.00    -0.550 OA
ATOM     14  O   UNL     1      -5.991 -23.453 -30.032  1.00  0.00    -0.550 OA
ENDBRANCH  11  12
ENDBRANCH  10  11
ENDBRANCH   9  10
ENDBRANCH   8   9
ENDBRANCH   7   8
ENDBRANCH   6   7
ENDBRANCH   5   6
ENDBRANCH   4   5
ENDBRANCH   3   4
ENDBRANCH   2   3
ENDBRANCH   1   2
BRANCH   1  15
ATOM     15  C   UNL     1     -12.488 -25.111 -35.222  1.00  0.00     0.000 C 
BRANCH  15  16
ATOM     16  C   UNL     1     -13.399 -26.163 -35.876  1.00  0.00     0.000 C 
BRANCH  16  17
ATOM     17  C   UNL     1     -13.267 -27.549 -35.227  1.00  0.00     0.000 C 
BRANCH  17  18
ATOM     18  C   UNL     1     -11.829 -27.797 -34.747  1.00  0.00    -0.000 C 
BRANCH  18  19
ATOM     19  C   UNL     1     -11.755 -28.250 -33.278  1.00  0.00    -0.000 C 
BRANCH  19  20
ATOM     20  C   UNL     1     -13.101 -28.256 -32.530  1.00  0.00    -0.000 C 
BRANCH  20  21
ATOM     21  C   UNL     1     -12.955 -28.569 -31.033  1.00  0.00    -0.000 C 
BRANCH  21  22
ATOM     22  C   UNL     1     -12.956 -27.278 -30.201  1.00  0.00    -0.000 C 
BRANCH  22  23
ATOM     23  C   UNL     1     -13.388 -26.049 -31.016  1.00  0.00    -0.000 C 
BRANCH  23  24
ATOM     24  C   UNL     1     -12.633 -24.772 -30.612  1.00  0.00    -0.000 C 
BRANCH  24  25
ATOM     25  C   UNL     1     -11.639 -24.310 -31.689  1.00  0.00    -0.003 C 
ATOM     26  C   UNL     1     -10.383 -25.180 -31.745  1.00  0.00     0.004 C 
ENDBRANCH  24  25
ENDBRANCH  23  24
ENDBRANCH  22  23
ENDBRANCH  21  22
ENDBRANCH  20  21
ENDBRANCH  19  20
ENDBRANCH  18  19
ENDBRANCH  17  18
ENDBRANCH  16  17
ENDBRANCH  15  16
ENDBRANCH   1  15
TORSDOF 22
ENDMDL
MODEL 3
REMARK VINA RESULT:    -4.691      1.939      6.688
REMARK INTER + INTRA:         -12.984
REMARK INTER:                 -10.796
REMARK INTRA:                  -2.188
REMARK UNBOUND:                -2.261
REMARK SMILES CCCCCCCCCCCCCCCCCCCCCCCC(=O)[O-]
REMARK SMILES IDX 13 1 14 2 15 3 16 4 17 5 18 6 19 7 20 8 21 9 22 10 23 11
REMARK SMILES IDX 24 12 25 13 26 14 12 15 11 16 10 17 9 18 8 19 7 20 6 21 5 22
REMARK SMILES IDX 4 23 3 24 2 25 1 26
REMARK H PARENT
REMARK Flexibility Score: inf
ROOT
ATOM      1  C   UNL     1     -13.056 -26.790 -35.009  1.00  0.00     0.000 C 
ENDROOT
BRANCH   1   2
ATOM      2  C   UNL     1     -12.672 -25.376 -34.539  1.00  0.00     0.000 C 
BRANCH   2   3
ATOM      3  C   UNL     1     -11.929 -24.519 -35.581  1.00  0.00     0.000 C 
BRANCH   3   4
ATOM      4  C   UNL     1     -12.620 -23.171 -35.887  1.00  0.00     0.000 C 
BRANCH   4   5
ATOM      5  C   UNL     1     -12.629 -22.229 -34.669  1.00  0.00     0.000 C 
BRANCH   5   6
ATOM      6  C   UNL     1     -13.724 -21.149 -34.750  1.00  0.00     0.000 C 
BRANCH   6   7
ATOM      7  C   UNL     1     -13.212 -19.700 -34.859  1.00  0.00     0.000 C 
BRANCH   7   8
ATOM      8  C   UNL     1     -12.295 -19.473 -36.074  1.00  0.00     0.000 C 
BRANCH   8   9
ATOM      9  C   UNL     1     -10.854 -19.103 -35.675  1.00  0.00     0.000 C 
BRANCH   9  10
ATOM     10  C   UNL     1      -9.754 -19.988 -36.296  1.00  0.00     0.006 C 
BRANCH  10  11
ATOM     11  C   UNL     1      -8.818 -19.251 -37.267  1.00  0.00     0.053 C 
BRANCH  11  12
ATOM     12  C   UNL     1      -7.396 -19.272 -36.798  1.00  0.00     0.041 C 
ATOM     13  O   UNL     1      -6.479 -19.653 -37.573  1.00  0.00    -0.550 OA
ATOM     14  O   UNL     1      -7.087 -18.901 -35.495  1.00  0.00    -0.550 OA
ENDBRANCH  11  12
ENDBRANCH  10  11
ENDBRANCH   9  10
ENDBRANCH   8   9
ENDBRANCH   7   8
ENDBRANCH   6   7
ENDBRANCH   5   6
ENDBRANCH   4   5
ENDBRANCH   3   4
ENDBRANCH   2   3
ENDBRANCH   1   2
BRANCH   1  15
ATOM     15  C   UNL     1     -11.938 -27.821 -34.771  1.00  0.00     0.000 C 
BRANCH  15  16
ATOM     16  C   UNL     1     -12.194 -28.689 -33.528  1.00  0.00     0.000 C 
BRANCH  16  17
ATOM     17  C   UNL     1     -13.139 -28.020 -32.519  1.00  0.00     0.000 C 
BRANCH  17  18
ATOM     18  C   UNL     1     -12.806 -28.451 -31.084  1.00  0.00    -0.000 C 
BRANCH  18  19
ATOM     19  C   UNL     1     -11.346 -28.158 -30.692  1.00  0.00    -0.000 C 
BRANCH  19  20
ATOM     20  C   UNL     1     -11.044 -26.684 -30.362  1.00  0.00    -0.000 C 
BRANCH  20  21
ATOM     21  C   UNL     1     -10.145 -26.007 -31.407  1.00  0.00    -0.000 C 
BRANCH  21  22
ATOM     22  C   UNL     1     -10.681 -24.615 -31.772  1.00  0.00    -0.000 C 
BRANCH  22  23
ATOM     23  C   UNL     1     -10.570 -23.615 -30.610  1.00  0.00    -0.000 C 
BRANCH  23  24
ATOM     24  C   UNL     1     -10.172 -22.204 -31.076  1.00  0.00    -0.000 C 
BRANCH  24  25
ATOM     25  C   UNL     1      -8.797 -21.773 -30.543  1.00  0.00    -0.003 C 
ATOM     26  C   UNL     1      -7.870 -22.958 -30.275  1.00  0.00     0.004 C 
ENDBRANCH  24  25
ENDBRANCH  23  24
ENDBRANCH  22  23
ENDBRANCH  21  22
ENDBRANCH  20  21
ENDBRANCH  19  20
ENDBRANCH  18  19
ENDBRANCH  17  18
ENDBRANCH  16  17
ENDBRANCH  15  16
ENDBRANCH   1  15
TORSDOF 22
ENDMDL
MODEL 4
REMARK VINA RESULT:    -4.567     16.037     18.948
REMARK INTER + INTRA:         -12.703
REMARK INTER:                  -8.915
REMARK INTRA:                  -3.788
REMARK UNBOUND:                -2.261
REMARK SMILES CCCCCCCCCCCCCCCCCCCCCCCC(=O)[O-]
REMARK SMILES IDX 13 1 14 2 15 3 16 4 17 5 18 6 19 7 20 8 21 9 22 10 23 11
REMARK SMILES IDX 24 12 25 13 26 14 12 15 11 16 10 17 9 18 8 19 7 20 6 21 5 22
REMARK SMILES IDX 4 23 3 24 2 25 1 26
REMARK H PARENT
REMARK Flexibility Score: inf
ROOT
ATOM      1  C   UNL     1      -9.985 -34.573 -44.101  1.00  0.00     0.000 C 
ENDROOT
BRANCH   1   2
ATOM      2  C   UNL     1      -8.978 -35.188 -45.087  1.00  0.00     0.000 C 
BRANCH   2   3
ATOM      3  C   UNL     1      -9.053 -34.643 -46.526  1.00  0.00     0.000 C 
BRANCH   3   4
ATOM      4  C   UNL     1      -9.515 -35.687 -47.566  1.00  0.00     0.000 C 
BRANCH   4   5
ATOM      5  C   UNL     1      -9.932 -35.039 -48.900  1.00  0.00     0.000 C 
BRANCH   5   6
ATOM      6  C   UNL     1     -10.604 -33.665 -48.719  1.00  0.00     0.000 C 
BRANCH   6   7
ATOM      7  C   UNL     1     -10.098 -32.557 -49.664  1.00  0.00     0.000 C 
BRANCH   7   8
ATOM      8  C   UNL     1      -9.632 -31.294 -48.918  1.00  0.00     0.000 C 
BRANCH   8   9
ATOM      9  C   UNL     1      -8.583 -30.488 -49.707  1.00  0.00     0.000 C 
BRANCH   9  10
ATOM     10  C   UNL     1      -7.138 -30.597 -49.178  1.00  0.00     0.006 C 
BRANCH  10  11
ATOM     11  C   UNL     1      -6.946 -31.641 -48.066  1.00  0.00     0.053 C 
BRANCH  11  12
ATOM     12  C   UNL     1      -6.205 -32.847 -48.552  1.00  0.00     0.041 C 
ATOM     13  O   UNL     1      -6.718 -33.600 -49.422  1.00  0.00    -0.550 OA
ATOM     14  O   UNL     1      -4.958 -33.159 -48.022  1.00  0.00    -0.550 OA
ENDBRANCH  11  12
ENDBRANCH  10  11
ENDBRANCH   9  10
ENDBRANCH   8   9
ENDBRANCH   7   8
ENDBRANCH   6   7
ENDBRANCH   5   6
ENDBRANCH   4   5
ENDBRANCH   3   4
ENDBRANCH   2   3
ENDBRANCH   1   2
BRANCH   1  15
ATOM     15  C   UNL     1     -11.263 -34.067 -44.793  1.00  0.00     0.000 C 
BRANCH  15  16
ATOM     16  C   UNL     1     -12.543 -34.571 -44.106  1.00  0.00     0.000 C 
BRANCH  16  17
ATOM     17  C   UNL     1     -13.482 -35.314 -45.068  1.00  0.00     0.000 C 
BRANCH  17  18
ATOM     18  C   UNL     1     -12.772 -35.632 -46.392  1.00  0.00    -0.000 C 
BRANCH  18  19
ATOM     19  C   UNL     1     -12.951 -37.096 -46.834  1.00  0.00    -0.000 C 
BRANCH  19  20
ATOM     20  C   UNL     1     -13.624 -37.283 -48.207  1.00  0.00    -0.000 C 
BRANCH  20  21
ATOM     21  C   UNL     1     -13.527 -36.035 -49.099  1.00  0.00    -0.000 C 
BRANCH  21  22
ATOM     22  C   UNL     1     -14.923 -35.490 -49.432  1.00  0.00    -0.000 C 
BRANCH  22  23
ATOM     23  C   UNL     1     -16.018 -36.077 -48.527  1.00  0.00    -0.000 C 
BRANCH  23  24
ATOM     24  C   UNL     1     -16.519 -35.075 -47.473  1.00  0.00    -0.000 C 
BRANCH  24  25
ATOM     25  C   UNL     1     -17.170 -35.766 -46.266  1.00  0.00    -0.003 C 
ATOM     26  C   UNL     1     -16.643 -37.183 -46.042  1.00  0.00     0.004 C 
ENDBRANCH  24  25
ENDBRANCH  23  24
ENDBRANCH  22  23
ENDBRANCH  21  22
ENDBRANCH  20  21
ENDBRANCH  19  20
ENDBRANCH  18  19
ENDBRANCH  17  18
ENDBRANCH  16  17
ENDBRANCH  15  16
ENDBRANCH   1  15
TORSDOF 22
ENDMDL
MODEL 5
REMARK VINA RESULT:    -4.521     16.117     18.224
REMARK INTER + INTRA:         -12.596
REMARK INTER:                 -10.064
REMARK INTRA:                  -2.532
REMARK UNBOUND:                -2.261
REMARK SMILES CCCCCCCCCCCCCCCCCCCCCCCC(=O)[O-]
REMARK SMILES IDX 13 1 14 2 15 3 16 4 17 5 18 6 19 7 20 8 21 9 22 10 23 11
REMARK SMILES IDX 24 12 25 13 26 14 12 15 11 16 10 17 9 18 8 19 7 20 6 21 5 22
REMARK SMILES IDX 4 23 3 24 2 25 1 26
REMARK H PARENT
REMARK Flexibility Score: inf
ROOT
ATOM      1  C   UNL     1     -11.602 -34.807 -45.124  1.00  0.00     0.000 C 
ENDROOT
BRANCH   1   2
ATOM      2  C   UNL     1     -12.979 -34.845 -44.440  1.00  0.00     0.000 C 
BRANCH   2   3
ATOM      3  C   UNL     1     -14.074 -35.603 -45.216  1.00  0.00     0.000 C 
BRANCH   3   4
ATOM      4  C   UNL     1     -13.524 -36.652 -46.207  1.00  0.00     0.000 C 
BRANCH   4   5
ATOM      5  C   UNL     1     -14.522 -37.799 -46.458  1.00  0.00     0.000 C 
BRANCH   5   6
ATOM      6  C   UNL     1     -15.560 -37.953 -45.331  1.00  0.00     0.000 C 
BRANCH   6   7
ATOM      7  C   UNL     1     -17.033 -37.884 -45.780  1.00  0.00     0.000 C 
BRANCH   7   8
ATOM      8  C   UNL     1     -17.572 -36.445 -45.862  1.00  0.00     0.000 C 
BRANCH   8   9
ATOM      9  C   UNL     1     -17.626 -35.909 -47.304  1.00  0.00     0.000 C 
BRANCH   9  10
ATOM     10  C   UNL     1     -16.687 -34.721 -47.598  1.00  0.00     0.006 C 
BRANCH  10  11
ATOM     11  C   UNL     1     -16.577 -34.350 -49.086  1.00  0.00     0.053 C 
BRANCH  11  12
ATOM     12  C   UNL     1     -17.109 -32.978 -49.362  1.00  0.00     0.041 C 
ATOM     13  O   UNL     1     -18.348 -32.758 -49.328  1.00  0.00    -0.550 OA
ATOM     14  O   UNL     1     -16.236 -31.946 -49.688  1.00  0.00    -0.550 OA
ENDBRANCH  11  12
ENDBRANCH  10  11
ENDBRANCH   9  10
ENDBRANCH   8   9
ENDBRANCH   7   8
ENDBRANCH   6   7
ENDBRANCH   5   6
ENDBRANCH   4   5
ENDBRANCH   3   4
ENDBRANCH   2   3
ENDBRANCH   1   2
BRANCH   1  15
ATOM     15  C   UNL     1     -10.516 -34.170 -44.239  1.00  0.00     0.000 C 
BRANCH  15  16
ATOM     16  C   UNL     1      -9.158 -34.878 -44.373  1.00  0.00     0.000 C 
BRANCH  16  17
ATOM     17  C   UNL     1      -8.793 -35.195 -45.831  1.00  0.00     0.000 C 
BRANCH  17  18
ATOM     18  C   UNL     1      -8.096 -33.999 -46.496  1.00  0.00    -0.000 C 
BRANCH  18  19
ATOM     19  C   UNL     1      -8.570 -33.753 -47.940  1.00  0.00    -0.000 C 
BRANCH  19  20
ATOM     20  C   UNL     1     -10.039 -33.310 -48.076  1.00  0.00    -0.000 C 
BRANCH  20  21
ATOM     21  C   UNL     1     -10.190 -31.909 -48.687  1.00  0.00    -0.000 C 
BRANCH  21  22
ATOM     22  C   UNL     1      -9.081 -31.637 -49.714  1.00  0.00    -0.000 C 
BRANCH  22  23
ATOM     23  C   UNL     1      -8.526 -30.207 -49.619  1.00  0.00    -0.000 C 
BRANCH  23  24
ATOM     24  C   UNL     1      -7.386 -30.078 -48.595  1.00  0.00    -0.000 C 
BRANCH  24  25
ATOM     25  C   UNL     1      -6.094 -30.766 -49.062  1.00  0.00    -0.003 C 
ATOM     26  C   UNL     1      -5.548 -31.757 -48.034  1.00  0.00     0.004 C 
ENDBRANCH  24  25
ENDBRANCH  23  24
ENDBRANCH  22  23
ENDBRANCH  21  22
ENDBRANCH  20  21
ENDBRANCH  19  20
ENDBRANCH  18  19
ENDBRANCH  17  18
ENDBRANCH  16  17
ENDBRANCH  15  16
ENDBRANCH   1  15
TORSDOF 22
ENDMDL
MODEL 6
REMARK VINA RESULT:    -4.516      2.385      6.682
REMARK INTER + INTRA:         -12.585
REMARK INTER:                  -9.621
REMARK INTRA:                  -2.963
REMARK UNBOUND:                -2.261
REMARK SMILES CCCCCCCCCCCCCCCCCCCCCCCC(=O)[O-]
REMARK SMILES IDX 13 1 14 2 15 3 16 4 17 5 18 6 19 7 20 8 21 9 22 10 23 11
REMARK SMILES IDX 24 12 25 13 26 14 12 15 11 16 10 17 9 18 8 19 7 20 6 21 5 22
REMARK SMILES IDX 4 23 3 24 2 25 1 26
REMARK H PARENT
REMARK Flexibility Score: inf
ROOT
ATOM      1  C   UNL     1     -12.502 -21.367 -35.601  1.00  0.00     0.000 C 
ENDROOT
BRANCH   1   2
ATOM      2  C   UNL     1     -13.696 -20.436 -35.324  1.00  0.00     0.000 C 
BRANCH   2   3
ATOM      3  C   UNL     1     -13.329 -19.056 -34.744  1.00  0.00     0.000 C 
BRANCH   3   4
ATOM      4  C   UNL     1     -13.370 -18.997 -33.202  1.00  0.00     0.000 C 
BRANCH   4   5
ATOM      5  C   UNL     1     -11.989 -19.254 -32.569  1.00  0.00     0.000 C 
BRANCH   5   6
ATOM      6  C   UNL     1     -11.850 -20.669 -31.976  1.00  0.00     0.000 C 
BRANCH   6   7
ATOM      7  C   UNL     1     -10.427 -21.060 -31.536  1.00  0.00     0.000 C 
BRANCH   7   8
ATOM      8  C   UNL     1      -9.576 -19.855 -31.100  1.00  0.00     0.000 C 
BRANCH   8   9
ATOM      9  C   UNL     1      -8.078 -20.193 -30.978  1.00  0.00     0.000 C 
BRANCH   9  10
ATOM     10  C   UNL     1      -7.754 -21.438 -30.128  1.00  0.00     0.006 C 
BRANCH  10  11
ATOM     11  C   UNL     1      -6.587 -22.285 -30.660  1.00  0.00     0.053 C 
BRANCH  11  12
ATOM     12  C   UNL     1      -5.439 -21.435 -31.111  1.00  0.00     0.041 C 
ATOM     13  O   UNL     1      -5.088 -21.433 -32.321  1.00  0.00    -0.550 OA
ATOM     14  O   UNL     1      -4.735 -20.669 -30.190  1.00  0.00    -0.550 OA
ENDBRANCH  11  12
ENDBRANCH  10  11
ENDBRANCH   9  10
ENDBRANCH   8   9
ENDBRANCH   7   8
ENDBRANCH   6   7
ENDBRANCH   5   6
ENDBRANCH   4   5
ENDBRANCH   3   4
ENDBRANCH   2   3
ENDBRANCH   1   2
BRANCH   1  15
ATOM     15  C   UNL     1     -12.661 -22.750 -34.947  1.00  0.00     0.000 C 
BRANCH  15  16
ATOM     16  C   UNL     1     -12.623 -23.894 -35.973  1.00  0.00     0.000 C 
BRANCH  16  17
ATOM     17  C   UNL     1     -12.708 -25.282 -35.320  1.00  0.00     0.000 C 
BRANCH  17  18
ATOM     18  C   UNL     1     -11.392 -26.054 -35.496  1.00  0.00    -0.000 C 
BRANCH  18  19
ATOM     19  C   UNL     1     -11.378 -27.399 -34.747  1.00  0.00    -0.000 C 
BRANCH  19  20
ATOM     20  C   UNL     1     -12.769 -27.966 -34.403  1.00  0.00    -0.000 C 
BRANCH  20  21
ATOM     21  C   UNL     1     -12.951 -28.241 -32.903  1.00  0.00    -0.000 C 
BRANCH  21  22
ATOM     22  C   UNL     1     -11.698 -27.830 -32.115  1.00  0.00    -0.000 C 
BRANCH  22  23
ATOM     23  C   UNL     1     -11.988 -26.741 -31.070  1.00  0.00    -0.000 C 
BRANCH  23  24
ATOM     24  C   UNL     1     -12.338 -25.385 -31.707  1.00  0.00    -0.000 C 
BRANCH  24  25
ATOM     25  C   UNL     1     -11.091 -24.551 -32.040  1.00  0.00    -0.003 C 
ATOM     26  C   UNL     1      -9.958 -24.759 -31.036  1.00  0.00     0.004 C 
ENDBRANCH  24  25
ENDBRANCH  23  24
ENDBRANCH  22  23
ENDBRANCH  21  22
ENDBRANCH  20  21
ENDBRANCH  19  20
ENDBRANCH  18  19
ENDBRANCH  17  18
ENDBRANCH  16  17
ENDBRANCH  15  16
ENDBRANCH   1  15
TORSDOF 22
ENDMDL
MODEL 7
REMARK VINA RESULT:    -4.491     15.601     18.772
REMARK INTER + INTRA:         -12.528
REMARK INTER:                  -9.824
REMARK INTRA:                  -2.704
REMARK UNBOUND:                -2.261
REMARK SMILES CCCCCCCCCCCCCCCCCCCCCCCC(=O)[O-]
REMARK SMILES IDX 13 1 14 2 15 3 16 4 17 5 18 6 19 7 20 8 21 9 22 10 23 11
REMARK SMILES IDX 24 12 25 13 26 14 12 15 11 16 10 17 9 18 8 19 7 20 6 21 5 22
REMARK SMILES IDX 4 23 3 24 2 25 1 26
REMARK H PARENT
REMARK Flexibility Score: inf
ROOT
ATOM      1  C   UNL     1     -11.354 -34.154 -44.761  1.00  0.00     0.000 C 
ENDROOT
BRANCH   1   2
ATOM      2  C   UNL     1     -10.185 -34.260 -43.766  1.00  0.00     0.000 C 
BRANCH   2   3
ATOM      3  C   UNL     1      -8.883 -34.847 -44.346  1.00  0.00     0.000 C 
BRANCH   3   4
ATOM      4  C   UNL     1      -9.000 -35.288 -45.821  1.00  0.00     0.000 C 
BRANCH   4   5
ATOM      5  C   UNL     1      -8.402 -34.251 -46.790  1.00  0.00     0.000 C 
BRANCH   5   6
ATOM      6  C   UNL     1      -8.963 -34.368 -48.220  1.00  0.00     0.000 C 
BRANCH   6   7
ATOM      7  C   UNL     1     -10.470 -34.079 -48.362  1.00  0.00     0.000 C 
BRANCH   7   8
ATOM      8  C   UNL     1     -10.772 -32.889 -49.289  1.00  0.00     0.000 C 
BRANCH   8   9
ATOM      9  C   UNL     1     -10.015 -31.610 -48.887  1.00  0.00     0.000 C 
BRANCH   9  10
ATOM     10  C   UNL     1      -8.829 -31.235 -49.799  1.00  0.00     0.006 C 
BRANCH  10  11
ATOM     11  C   UNL     1      -8.159 -29.895 -49.452  1.00  0.00     0.053 C 
BRANCH  11  12
ATOM     12  C   UNL     1      -6.867 -30.088 -48.720  1.00  0.00     0.041 C 
ATOM     13  O   UNL     1      -5.960 -29.218 -48.795  1.00  0.00    -0.550 OA
ATOM     14  O   UNL     1      -6.651 -31.246 -47.981  1.00  0.00    -0.550 OA
ENDBRANCH  11  12
ENDBRANCH  10  11
ENDBRANCH   9  10
ENDBRANCH   8   9
ENDBRANCH   7   8
ENDBRANCH   6   7
ENDBRANCH   5   6
ENDBRANCH   4   5
ENDBRANCH   3   4
ENDBRANCH   2   3
ENDBRANCH   1   2
BRANCH   1  15
ATOM     15  C   UNL     1     -12.689 -34.635 -44.165  1.00  0.00     0.000 C 
BRANCH  15  16
ATOM     16  C   UNL     1     -13.578 -35.336 -45.204  1.00  0.00     0.000 C 
BRANCH  16  17
ATOM     17  C   UNL     1     -12.770 -36.151 -46.225  1.00  0.00     0.000 C 
BRANCH  17  18
ATOM     18  C   UNL     1     -13.673 -36.665 -47.356  1.00  0.00    -0.000 C 
BRANCH  18  19
ATOM     19  C   UNL     1     -14.014 -38.160 -47.220  1.00  0.00    -0.000 C 
BRANCH  19  20
ATOM     20  C   UNL     1     -14.511 -38.591 -45.827  1.00  0.00    -0.000 C 
BRANCH  20  21
ATOM     21  C   UNL     1     -16.019 -38.880 -45.790  1.00  0.00    -0.000 C 
BRANCH  21  22
ATOM     22  C   UNL     1     -16.761 -37.813 -44.973  1.00  0.00    -0.000 C 
BRANCH  22  23
ATOM     23  C   UNL     1     -17.043 -36.538 -45.783  1.00  0.00    -0.000 C 
BRANCH  23  24
ATOM     24  C   UNL     1     -17.939 -36.797 -47.007  1.00  0.00    -0.000 C 
BRANCH  24  25
ATOM     25  C   UNL     1     -17.734 -35.757 -48.118  1.00  0.00    -0.003 C 
ATOM     26  C   UNL     1     -16.771 -34.642 -47.712  1.00  0.00     0.004 C 
ENDBRANCH  24  25
ENDBRANCH  23  24
ENDBRANCH  22  23
ENDBRANCH  21  22
ENDBRANCH  20  21
ENDBRANCH  19  20
ENDBRANCH  18  19
ENDBRANCH  17  18
ENDBRANCH  16  17
ENDBRANCH  15  16
ENDBRANCH   1  15
TORSDOF 22
ENDMDL
MODEL 8
REMARK VINA RESULT:    -4.491      2.198      6.071
REMARK INTER + INTRA:         -12.527
REMARK INTER:                  -9.731
REMARK INTRA:                  -2.796
REMARK UNBOUND:                -2.261
REMARK SMILES CCCCCCCCCCCCCCCCCCCCCCCC(=O)[O-]
REMARK SMILES IDX 13 1 14 2 15 3 16 4 17 5 18 6 19 7 20 8 21 9 22 10 23 11
REMARK SMILES IDX 24 12 25 13 26 14 12 15 11 16 10 17 9 18 8 19 7 20 6 21 5 22
REMARK SMILES IDX 4 23 3 24 2 25 1 26
REMARK H PARENT
REMARK Flexibility Score: inf
ROOT
ATOM      1  C   UNL     1     -13.269 -27.915 -35.100  1.00  0.00     0.000 C 
ENDROOT
BRANCH   1   2
ATOM      2  C   UNL     1     -13.498 -26.418 -35.369  1.00  0.00     0.000 C 
BRANCH   2   3
ATOM      3  C   UNL     1     -12.249 -25.527 -35.218  1.00  0.00     0.000 C 
BRANCH   3   4
ATOM      4  C   UNL     1     -12.385 -24.144 -35.892  1.00  0.00     0.000 C 
BRANCH   4   5
ATOM      5  C   UNL     1     -12.619 -23.016 -34.869  1.00  0.00     0.000 C 
BRANCH   5   6
ATOM      6  C   UNL     1     -13.256 -21.759 -35.493  1.00  0.00     0.000 C 
BRANCH   6   7
ATOM      7  C   UNL     1     -13.241 -20.504 -34.600  1.00  0.00     0.000 C 
BRANCH   7   8
ATOM      8  C   UNL     1     -13.246 -19.191 -35.404  1.00  0.00     0.000 C 
BRANCH   8   9
ATOM      9  C   UNL     1     -12.215 -19.187 -36.548  1.00  0.00     0.000 C 
BRANCH   9  10
ATOM     10  C   UNL     1     -10.765 -18.879 -36.124  1.00  0.00     0.006 C 
BRANCH  10  11
ATOM     11  C   UNL     1      -9.775 -20.031 -36.361  1.00  0.00     0.053 C 
BRANCH  11  12
ATOM     12  C   UNL     1      -8.415 -19.531 -36.739  1.00  0.00     0.041 C 
ATOM     13  O   UNL     1      -8.071 -19.480 -37.949  1.00  0.00    -0.550 OA
ATOM     14  O   UNL     1      -7.514 -19.150 -35.751  1.00  0.00    -0.550 OA
ENDBRANCH  11  12
ENDBRANCH  10  11
ENDBRANCH   9  10
ENDBRANCH   8   9
ENDBRANCH   7   8
ENDBRANCH   6   7
ENDBRANCH   5   6
ENDBRANCH   4   5
ENDBRANCH   3   4
ENDBRANCH   2   3
ENDBRANCH   1   2
BRANCH   1  15
ATOM     15  C   UNL     1     -12.279 -28.169 -33.950  1.00  0.00     0.000 C 
BRANCH  15  16
ATOM     16  C   UNL     1     -12.979 -28.297 -32.587  1.00  0.00     0.000 C 
BRANCH  16  17
ATOM     17  C   UNL     1     -12.489 -27.259 -31.567  1.00  0.00     0.000 C 
BRANCH  17  18
ATOM     18  C   UNL     1     -11.062 -26.797 -31.896  1.00  0.00    -0.000 C 
BRANCH  18  19
ATOM     19  C   UNL     1     -10.279 -26.332 -30.655  1.00  0.00    -0.000 C 
BRANCH  19  20
ATOM     20  C   UNL     1     -10.272 -24.809 -30.422  1.00  0.00    -0.000 C 
BRANCH  20  21
ATOM     21  C   UNL     1     -10.781 -24.014 -31.634  1.00  0.00    -0.000 C 
BRANCH  21  22
ATOM     22  C   UNL     1     -12.049 -23.223 -31.278  1.00  0.00    -0.000 C 
BRANCH  22  23
ATOM     23  C   UNL     1     -11.763 -21.736 -31.015  1.00  0.00    -0.000 C 
BRANCH  23  24
ATOM     24  C   UNL     1     -10.374 -21.301 -31.514  1.00  0.00    -0.000 C 
BRANCH  24  25
ATOM     25  C   UNL     1     -10.146 -19.788 -31.373  1.00  0.00    -0.003 C 
ATOM     26  C   UNL     1      -9.938 -19.095 -32.720  1.00  0.00     0.004 C 
ENDBRANCH  24  25
ENDBRANCH  23  24
ENDBRANCH  22  23
ENDBRANCH  21  22
ENDBRANCH  20  21
ENDBRANCH  19  20
ENDBRANCH  18  19
ENDBRANCH  17  18
ENDBRANCH  16  17
ENDBRANCH  15  16
ENDBRANCH   1  15
TORSDOF 22
ENDMDL
MODEL 9
REMARK VINA RESULT:    -4.429      2.956      5.417
REMARK INTER + INTRA:         -12.385
REMARK INTER:                  -9.217
REMARK INTRA:                  -3.168
REMARK UNBOUND:                -2.261
REMARK SMILES CCCCCCCCCCCCCCCCCCCCCCCC(=O)[O-]
REMARK SMILES IDX 13 1 14 2 15 3 16 4 17 5 18 6 19 7 20 8 21 9 22 10 23 11
REMARK SMILES IDX 24 12 25 13 26 14 12 15 11 16 10 17 9 18 8 19 7 20 6 21 5 22
REMARK SMILES IDX 4 23 3 24 2 25 1 26
REMARK H PARENT
REMARK Flexibility Score: inf
ROOT
ATOM      1  C   UNL     1     -12.990 -22.697 -34.125  1.00  0.00     0.000 C 
ENDROOT
BRANCH   1   2
ATOM      2  C   UNL     1     -11.893 -23.239 -33.194  1.00  0.00     0.000 C 
BRANCH   2   3
ATOM      3  C   UNL     1     -12.382 -24.212 -32.103  1.00  0.00     0.000 C 
BRANCH   3   4
ATOM      4  C   UNL     1     -11.342 -24.478 -30.993  1.00  0.00     0.000 C 
BRANCH   4   5
ATOM      5  C   UNL     1     -10.343 -25.584 -31.380  1.00  0.00     0.000 C 
BRANCH   5   6
ATOM      6  C   UNL     1     -10.441 -26.829 -30.478  1.00  0.00     0.000 C 
BRANCH   6   7
ATOM      7  C   UNL     1     -11.356 -27.952 -31.004  1.00  0.00     0.000 C 
BRANCH   7   8
ATOM      8  C   UNL     1     -11.543 -27.912 -32.531  1.00  0.00     0.000 C 
BRANCH   8   9
ATOM      9  C   UNL     1     -12.966 -28.305 -32.969  1.00  0.00     0.000 C 
BRANCH   9  10
ATOM     10  C   UNL     1     -13.761 -27.195 -33.688  1.00  0.00     0.006 C 
BRANCH  10  11
ATOM     11  C   UNL     1     -13.663 -27.236 -35.222  1.00  0.00     0.053 C 
BRANCH  11  12
ATOM     12  C   UNL     1     -12.908 -26.063 -35.766  1.00  0.00     0.041 C 
ATOM     13  O   UNL     1     -13.483 -25.233 -36.519  1.00  0.00    -0.550 OA
ATOM     14  O   UNL     1     -11.560 -25.904 -35.469  1.00  0.00    -0.550 OA
ENDBRANCH  11  12
ENDBRANCH  10  11
ENDBRANCH   9  10
ENDBRANCH   8   9
ENDBRANCH   7   8
ENDBRANCH   6   7
ENDBRANCH   5   6
ENDBRANCH   4   5
ENDBRANCH   3   4
ENDBRANCH   2   3
ENDBRANCH   1   2
BRANCH   1  15
ATOM     15  C   UNL     1     -12.427 -22.110 -35.432  1.00  0.00     0.000 C 
BRANCH  15  16
ATOM     16  C   UNL     1     -12.690 -20.601 -35.560  1.00  0.00     0.000 C 
BRANCH  16  17
ATOM     17  C   UNL     1     -14.103 -20.202 -35.107  1.00  0.00     0.000 C 
BRANCH  17  18
ATOM     18  C   UNL     1     -14.045 -19.188 -33.956  1.00  0.00    -0.000 C 
BRANCH  18  19
ATOM     19  C   UNL     1     -12.644 -19.068 -33.329  1.00  0.00    -0.000 C 
BRANCH  19  20
ATOM     20  C   UNL     1     -12.499 -19.702 -31.933  1.00  0.00    -0.000 C 
BRANCH  20  21
ATOM     21  C   UNL     1     -11.140 -19.411 -31.279  1.00  0.00    -0.000 C 
BRANCH  21  22
ATOM     22  C   UNL     1     -10.139 -20.538 -31.570  1.00  0.00    -0.000 C 
BRANCH  22  23
ATOM     23  C   UNL     1      -9.499 -21.105 -30.293  1.00  0.00    -0.000 C 
BRANCH  23  24
ATOM     24  C   UNL     1      -8.594 -22.318 -30.569  1.00  0.00    -0.000 C 
BRANCH  24  25
ATOM     25  C   UNL     1      -7.183 -22.145 -29.987  1.00  0.00    -0.003 C 
ATOM     26  C   UNL     1      -6.279 -21.289 -30.875  1.00  0.00     0.004 C 
ENDBRANCH  24  25
ENDBRANCH  23  24
ENDBRANCH  22  23
ENDBRANCH  21  22
ENDBRANCH  20  21
ENDBRANCH  19  20
ENDBRANCH  18  19
ENDBRANCH  17  18
ENDBRANCH  16  17
ENDBRANCH  15  16
ENDBRANCH   1  15
TORSDOF 22
ENDMDL
