MODEL 1
REMARK VINA RESULT:    -2.265      0.000      0.000
REMARK INTER + INTRA:          -2.265
REMARK INTER:                  -2.265
REMARK INTRA:                   0.000
REMARK UNBOUND:                 0.000
REMARK SMILES CC(=O)[O-]
REMARK SMILES IDX 1 1 2 2 3 3 4 4
REMARK H PARENT
REMARK Flexibility Score: inf
ROOT
ATOM      1  C   UNL     1     -34.399 -54.590  30.201  1.00  0.00     0.063 C 
ATOM      2  C   UNL     1     -35.430 -55.292  29.384  1.00  0.00     0.038 C 
ATOM      3  O   UNL     1     -35.103 -56.269  28.660  1.00  0.00    -0.550 OA
ATOM      4  O   UNL     1     -36.741 -54.836  29.376  1.00  0.00    -0.550 OA
ENDROOT
TORSDOF 0
ENDMDL
MODEL 2
REMARK VINA RESULT:    -2.252      1.166      2.124
REMARK INTER + INTRA:          -2.252
REMARK INTER:                  -2.252
REMARK INTRA:                   0.000
REMARK UNBOUND:                 0.000
REMARK SMILES CC(=O)[O-]
REMARK SMILES IDX 1 1 2 2 3 3 4 4
REMARK H PARENT
REMARK Flexibility Score: inf
ROOT
ATOM      1  C   UNL     1     -35.283 -53.885  27.871  1.00  0.00     0.063 C 
ATOM      2  C   UNL     1     -35.885 -54.957  28.715  1.00  0.00     0.038 C 
ATOM      3  O   UNL     1     -36.949 -54.736  29.351  1.00  0.00    -0.550 OA
ATOM      4  O   UNL     1     -35.245 -56.182  28.846  1.00  0.00    -0.550 OA
ENDROOT
TORSDOF 0
ENDMDL
MODEL 3
REMARK VINA RESULT:    -2.228      1.736      1.757
REMARK INTER + INTRA:          -2.228
REMARK INTER:                  -2.228
REMARK INTRA:                   0.000
REMARK UNBOUND:                 0.000
REMARK SMILES CC(=O)[O-]
REMARK SMILES IDX 1 1 2 2 3 3 4 4
REMARK H PARENT
REMARK Flexibility Score: inf
ROOT
ATOM      1  C   UNL     1     -35.215 -56.014  28.891  1.00  0.00     0.063 C 
ATOM      2  C   UNL     1     -36.149 -54.860  28.753  1.00  0.00     0.038 C 
ATOM      3  O   UNL     1     -35.963 -54.001  27.852  1.00  0.00    -0.550 OA
ATOM      4  O   UNL     1     -37.196 -54.700  29.652  1.00  0.00    -0.550 OA
ENDROOT
TORSDOF 0
ENDMDL
MODEL 4
REMARK VINA RESULT:    -2.044      9.414      9.759
REMARK INTER + INTRA:          -2.044
REMARK INTER:                  -2.044
REMARK INTRA:                   0.000
REMARK UNBOUND:                 0.000
REMARK SMILES CC(=O)[O-]
REMARK SMILES IDX 1 1 2 2 3 3 4 4
REMARK H PARENT
REMARK Flexibility Score: inf
ROOT
ATOM      1  C   UNL     1     -29.636 -53.974  22.773  1.00  0.00     0.063 C 
ATOM      2  C   UNL     1     -28.236 -54.230  23.219  1.00  0.00     0.038 C 
ATOM      3  O   UNL     1     -27.433 -53.270  23.362  1.00  0.00    -0.550 OA
ATOM      4  O   UNL     1     -27.797 -55.531  23.424  1.00  0.00    -0.550 OA
ENDROOT
TORSDOF 0
ENDMDL
MODEL 5
REMARK VINA RESULT:    -2.033     13.094     13.374
REMARK INTER + INTRA:          -2.033
REMARK INTER:                  -2.033
REMARK INTRA:                   0.000
REMARK UNBOUND:                 0.000
REMARK SMILES CC(=O)[O-]
REMARK SMILES IDX 1 1 2 2 3 3 4 4
REMARK H PARENT
REMARK Flexibility Score: inf
ROOT
ATOM      1  C   UNL     1     -31.309 -44.062  22.853  1.00  0.00     0.063 C 
ATOM      2  C   UNL     1     -32.685 -43.744  23.332  1.00  0.00     0.038 C 
ATOM      3  O   UNL     1     -33.058 -42.545  23.432  1.00  0.00    -0.550 OA
ATOM      4  O   UNL     1     -33.541 -44.765  23.721  1.00  0.00    -0.550 OA
ENDROOT
TORSDOF 0
ENDMDL
MODEL 6
REMARK VINA RESULT:    -2.022      1.730      2.229
REMARK INTER + INTRA:          -2.022
REMARK INTER:                  -2.022
REMARK INTRA:                   0.000
REMARK UNBOUND:                 0.000
REMARK SMILES CC(=O)[O-]
REMARK SMILES IDX 1 1 2 2 3 3 4 4
REMARK H PARENT
REMARK Flexibility Score: inf
ROOT
ATOM      1  C   UNL     1     -35.336 -55.882  29.122  1.00  0.00     0.063 C 
ATOM      2  C   UNL     1     -35.301 -54.478  29.625  1.00  0.00     0.038 C 
ATOM      3  O   UNL     1     -35.973 -53.584  29.047  1.00  0.00    -0.550 OA
ATOM      4  O   UNL     1     -34.485 -54.142  30.697  1.00  0.00    -0.550 OA
ENDROOT
TORSDOF 0
ENDMDL
MODEL 7
REMARK VINA RESULT:    -1.969     12.423     12.836
REMARK INTER + INTRA:          -1.969
REMARK INTER:                  -1.969
REMARK INTRA:                   0.000
REMARK UNBOUND:                 0.000
REMARK SMILES CC(=O)[O-]
REMARK SMILES IDX 1 1 2 2 3 3 4 4
REMARK H PARENT
REMARK Flexibility Score: inf
ROOT
ATOM      1  C   UNL     1     -25.533 -49.238  35.392  1.00  0.00     0.063 C 
ATOM      2  C   UNL     1     -24.852 -50.199  34.478  1.00  0.00     0.038 C 
ATOM      3  O   UNL     1     -23.955 -50.964  34.920  1.00  0.00    -0.550 OA
ATOM      4  O   UNL     1     -25.165 -50.214  33.125  1.00  0.00    -0.550 OA
ENDROOT
TORSDOF 0
ENDMDL
MODEL 8
REMARK VINA RESULT:    -1.920     11.161     11.628
REMARK INTER + INTRA:          -1.920
REMARK INTER:                  -1.920
REMARK INTRA:                   0.000
REMARK UNBOUND:                 0.000
REMARK SMILES CC(=O)[O-]
REMARK SMILES IDX 1 1 2 2 3 3 4 4
REMARK H PARENT
REMARK Flexibility Score: inf
ROOT
ATOM      1  C   UNL     1     -36.241 -44.811  28.723  1.00  0.00     0.063 C 
ATOM      2  C   UNL     1     -35.479 -43.749  29.442  1.00  0.00     0.038 C 
ATOM      3  O   UNL     1     -34.907 -42.834  28.795  1.00  0.00    -0.550 OA
ATOM      4  O   UNL     1     -35.352 -43.798  30.824  1.00  0.00    -0.550 OA
ENDROOT
TORSDOF 0
ENDMDL
MODEL 9
REMARK VINA RESULT:    -1.907     10.925     11.400
REMARK INTER + INTRA:          -1.907
REMARK INTER:                  -1.907
REMARK INTRA:                   0.000
REMARK UNBOUND:                 0.000
REMARK SMILES CC(=O)[O-]
REMARK SMILES IDX 1 1 2 2 3 3 4 4
REMARK H PARENT
REMARK Flexibility Score: inf
ROOT
ATOM      1  C   UNL     1     -35.286 -44.114  31.054  1.00  0.00     0.063 C 
ATOM      2  C   UNL     1     -35.603 -43.943  29.607  1.00  0.00     0.038 C 
ATOM      3  O   UNL     1     -36.435 -44.707  29.049  1.00  0.00    -0.550 OA
ATOM      4  O   UNL     1     -34.943 -42.979  28.858  1.00  0.00    -0.550 OA
ENDROOT
TORSDOF 0
ENDMDL
