MODEL 1
REMARK VINA RESULT:    -4.740      0.000      0.000
REMARK INTER + INTRA:          -5.248
REMARK INTER:                  -5.155
REMARK INTRA:                  -0.093
REMARK UNBOUND:                -0.093
REMARK SMILES C=C(C)[C@H]1CC[C@H](C)[C@@H](O)C1
REMARK SMILES IDX 8 1 7 2 6 3 5 4 4 5 11 6 9 7 10 8 2 10 1 11 3 12
REMARK H PARENT 10 9
REMARK Flexibility Score: inf
ROOT
ATOM      1  C   UNL     1       9.130  -4.684  24.865  1.00  0.00     0.010 C 
ATOM      2  C   UNL     1       9.312  -6.050  25.543  1.00  0.00     0.015 C 
ATOM      3  C   UNL     1      10.775  -6.222  25.998  1.00  0.00     0.006 C 
ATOM      4  C   UNL     1      10.986  -7.571  26.695  1.00  0.00     0.008 C 
ATOM      5  C   UNL     1      10.029  -7.722  27.891  1.00  0.00     0.017 C 
ATOM      6  C   UNL     1       8.564  -7.562  27.441  1.00  0.00     0.040 C 
ATOM      7  C   UNL     1       8.344  -6.208  26.739  1.00  0.00     0.117 C 
ENDROOT
BRANCH   7   8
ATOM      8  O   UNL     1       7.017  -6.131  26.285  1.00  0.00    -0.393 OA
ATOM      9  H   UNL     1       7.057  -6.046  25.297  1.00  0.00     0.210 HD
ENDBRANCH   7   8
BRANCH   5  10
ATOM     10  C   UNL     1      10.243  -9.051  28.603  1.00  0.00    -0.077 C 
ATOM     11  C   UNL     1       9.763  -9.236  29.842  1.00  0.00     0.008 C 
ATOM     12  C   UNL     1      10.993 -10.184  27.944  1.00  0.00     0.039 C 
ENDBRANCH   5  10
TORSDOF 2
ENDMDL
MODEL 2
REMARK VINA RESULT:    -4.729      2.220      4.506
REMARK INTER + INTRA:          -5.236
REMARK INTER:                  -5.141
REMARK INTRA:                  -0.095
REMARK UNBOUND:                -0.093
REMARK SMILES C=C(C)[C@H]1CC[C@H](C)[C@@H](O)C1
REMARK SMILES IDX 8 1 7 2 6 3 5 4 4 5 11 6 9 7 10 8 2 10 1 11 3 12
REMARK H PARENT 10 9
REMARK Flexibility Score: inf
ROOT
ATOM      1  C   UNL     1      12.522 -10.468  26.708  1.00  0.00     0.010 C 
ATOM      2  C   UNL     1      11.240  -9.661  26.456  1.00  0.00     0.015 C 
ATOM      3  C   UNL     1      10.605  -9.247  27.799  1.00  0.00     0.006 C 
ATOM      4  C   UNL     1       9.329  -8.424  27.581  1.00  0.00     0.008 C 
ATOM      5  C   UNL     1       9.622  -7.183  26.719  1.00  0.00     0.017 C 
ATOM      6  C   UNL     1      10.247  -7.590  25.371  1.00  0.00     0.040 C 
ATOM      7  C   UNL     1      11.530  -8.418  25.582  1.00  0.00     0.117 C 
ENDROOT
BRANCH   7   8
ATOM      8  O   UNL     1      12.028  -8.826  24.333  1.00  0.00    -0.393 OA
ATOM      9  H   UNL     1      11.746  -9.769  24.206  1.00  0.00     0.210 HD
ENDBRANCH   7   8
BRANCH   5  10
ATOM     10  C   UNL     1       8.366  -6.347  26.513  1.00  0.00    -0.077 C 
ATOM     11  C   UNL     1       8.267  -5.531  25.452  1.00  0.00     0.008 C 
ATOM     12  C   UNL     1       7.211  -6.412  27.483  1.00  0.00     0.039 C 
ENDBRANCH   5  10
TORSDOF 2
ENDMDL
MODEL 3
REMARK VINA RESULT:    -4.631      6.095      8.486
REMARK INTER + INTRA:          -5.130
REMARK INTER:                  -5.040
REMARK INTRA:                  -0.090
REMARK UNBOUND:                -0.093
REMARK SMILES C=C(C)[C@H]1CC[C@H](C)[C@@H](O)C1
REMARK SMILES IDX 8 1 7 2 6 3 5 4 4 5 11 6 9 7 10 8 2 10 1 11 3 12
REMARK H PARENT 10 9
REMARK Flexibility Score: inf
ROOT
ATOM      1  C   UNL     1      14.389 -16.155  25.888  1.00  0.00     0.010 C 
ATOM      2  C   UNL     1      13.895 -14.795  25.375  1.00  0.00     0.015 C 
ATOM      3  C   UNL     1      13.726 -14.841  23.842  1.00  0.00     0.006 C 
ATOM      4  C   UNL     1      13.216 -13.500  23.299  1.00  0.00     0.008 C 
ATOM      5  C   UNL     1      11.890 -13.106  23.976  1.00  0.00     0.017 C 
ATOM      6  C   UNL     1      12.055 -13.049  25.506  1.00  0.00     0.040 C 
ATOM      7  C   UNL     1      12.567 -14.393  26.060  1.00  0.00     0.117 C 
ENDROOT
BRANCH   7   8
ATOM      8  O   UNL     1      12.769 -14.277  27.445  1.00  0.00    -0.393 OA
ATOM      9  H   UNL     1      11.930 -14.575  27.883  1.00  0.00     0.210 HD
ENDBRANCH   7   8
BRANCH   5  10
ATOM     10  C   UNL     1      11.365 -11.786  23.429  1.00  0.00    -0.077 C 
ATOM     11  C   UNL     1      10.759 -11.746  22.232  1.00  0.00     0.008 C 
ATOM     12  C   UNL     1      11.508 -10.500  24.207  1.00  0.00     0.039 C 
ENDBRANCH   5  10
TORSDOF 2
ENDMDL
MODEL 4
REMARK VINA RESULT:    -4.556      1.930      3.118
REMARK INTER + INTRA:          -5.048
REMARK INTER:                  -4.958
REMARK INTRA:                  -0.090
REMARK UNBOUND:                -0.093
REMARK SMILES C=C(C)[C@H]1CC[C@H](C)[C@@H](O)C1
REMARK SMILES IDX 8 1 7 2 6 3 5 4 4 5 11 6 9 7 10 8 2 10 1 11 3 12
REMARK H PARENT 10 9
REMARK Flexibility Score: inf
ROOT
ATOM      1  C   UNL     1      12.037  -9.262  24.487  1.00  0.00     0.010 C 
ATOM      2  C   UNL     1      11.009  -9.277  25.628  1.00  0.00     0.015 C 
ATOM      3  C   UNL     1      11.628  -9.924  26.884  1.00  0.00     0.006 C 
ATOM      4  C   UNL     1      10.631  -9.939  28.049  1.00  0.00     0.008 C 
ATOM      5  C   UNL     1      10.137  -8.515  28.364  1.00  0.00     0.017 C 
ATOM      6  C   UNL     1       9.509  -7.868  27.115  1.00  0.00     0.040 C 
ATOM      7  C   UNL     1      10.505  -7.848  25.940  1.00  0.00     0.117 C 
ENDROOT
BRANCH   7   8
ATOM      8  O   UNL     1       9.872  -7.314  24.804  1.00  0.00    -0.393 OA
ATOM      9  H   UNL     1       9.703  -8.073  24.187  1.00  0.00     0.210 HD
ENDBRANCH   7   8
BRANCH   5  10
ATOM     10  C   UNL     1       9.161  -8.517  29.532  1.00  0.00    -0.077 C 
ATOM     11  C   UNL     1       9.619  -8.587  30.792  1.00  0.00     0.008 C 
ATOM     12  C   UNL     1       7.670  -8.441  29.312  1.00  0.00     0.039 C 
ENDBRANCH   5  10
TORSDOF 2
ENDMDL
MODEL 5
REMARK VINA RESULT:    -4.523      1.913      4.818
REMARK INTER + INTRA:          -5.012
REMARK INTER:                  -4.914
REMARK INTRA:                  -0.098
REMARK UNBOUND:                -0.093
REMARK SMILES C=C(C)[C@H]1CC[C@H](C)[C@@H](O)C1
REMARK SMILES IDX 8 1 7 2 6 3 5 4 4 5 11 6 9 7 10 8 2 10 1 11 3 12
REMARK H PARENT 10 9
REMARK Flexibility Score: inf
ROOT
ATOM      1  C   UNL     1      10.255  -9.655  28.495  1.00  0.00     0.010 C 
ATOM      2  C   UNL     1       9.898  -8.689  27.356  1.00  0.00     0.015 C 
ATOM      3  C   UNL     1       8.834  -7.680  27.836  1.00  0.00     0.006 C 
ATOM      4  C   UNL     1       8.467  -6.688  26.726  1.00  0.00     0.008 C 
ATOM      5  C   UNL     1       9.719  -5.951  26.218  1.00  0.00     0.017 C 
ATOM      6  C   UNL     1      10.781  -6.953  25.727  1.00  0.00     0.040 C 
ATOM      7  C   UNL     1      11.156  -7.953  26.838  1.00  0.00     0.117 C 
ENDROOT
BRANCH   7   8
ATOM      8  O   UNL     1      12.072  -8.889  26.330  1.00  0.00    -0.393 OA
ATOM      9  H   UNL     1      12.707  -9.097  27.064  1.00  0.00     0.210 HD
ENDBRANCH   7   8
BRANCH   5  10
ATOM     10  C   UNL     1       9.363  -4.949  25.128  1.00  0.00    -0.077 C 
ATOM     11  C   UNL     1       8.318  -5.179  24.318  1.00  0.00     0.008 C 
ATOM     12  C   UNL     1      10.164  -3.685  24.929  1.00  0.00     0.039 C 
ENDBRANCH   5  10
TORSDOF 2
ENDMDL
MODEL 6
REMARK VINA RESULT:    -4.495      1.375      4.358
REMARK INTER + INTRA:          -4.982
REMARK INTER:                  -4.891
REMARK INTRA:                  -0.090
REMARK UNBOUND:                -0.093
REMARK SMILES C=C(C)[C@H]1CC[C@H](C)[C@@H](O)C1
REMARK SMILES IDX 8 1 7 2 6 3 5 4 4 5 11 6 9 7 10 8 2 10 1 11 3 12
REMARK H PARENT 10 9
REMARK Flexibility Score: inf
ROOT
ATOM      1  C   UNL     1      10.271  -9.806  28.607  1.00  0.00     0.010 C 
ATOM      2  C   UNL     1      10.169  -8.455  27.883  1.00  0.00     0.015 C 
ATOM      3  C   UNL     1      10.751  -8.575  26.460  1.00  0.00     0.006 C 
ATOM      4  C   UNL     1      10.648  -7.245  25.704  1.00  0.00     0.008 C 
ATOM      5  C   UNL     1       9.188  -6.760  25.649  1.00  0.00     0.017 C 
ATOM      6  C   UNL     1       8.604  -6.629  27.069  1.00  0.00     0.040 C 
ATOM      7  C   UNL     1       8.703  -7.961  27.835  1.00  0.00     0.117 C 
ENDROOT
BRANCH   7   8
ATOM      8  O   UNL     1       8.225  -7.781  29.144  1.00  0.00    -0.393 OA
ATOM      9  H   UNL     1       7.249  -7.962  29.120  1.00  0.00     0.210 HD
ENDBRANCH   7   8
BRANCH   5  10
ATOM     10  C   UNL     1       9.072  -5.449  24.883  1.00  0.00    -0.077 C 
ATOM     11  C   UNL     1       8.058  -5.259  24.025  1.00  0.00     0.008 C 
ATOM     12  C   UNL     1      10.080  -4.340  25.064  1.00  0.00     0.039 C 
ENDBRANCH   5  10
TORSDOF 2
ENDMDL
MODEL 7
REMARK VINA RESULT:    -4.355      2.025      4.619
REMARK INTER + INTRA:          -4.829
REMARK INTER:                  -4.738
REMARK INTRA:                  -0.091
REMARK UNBOUND:                -0.093
REMARK SMILES C=C(C)[C@H]1CC[C@H](C)[C@@H](O)C1
REMARK SMILES IDX 8 1 7 2 6 3 5 4 4 5 11 6 9 7 10 8 2 10 1 11 3 12
REMARK H PARENT 10 9
REMARK Flexibility Score: inf
ROOT
ATOM      1  C   UNL     1       7.107  -8.882  29.797  1.00  0.00     0.010 C 
ATOM      2  C   UNL     1       7.514  -8.325  28.425  1.00  0.00     0.015 C 
ATOM      3  C   UNL     1       6.936  -6.907  28.240  1.00  0.00     0.006 C 
ATOM      4  C   UNL     1       7.339  -6.315  26.884  1.00  0.00     0.008 C 
ATOM      5  C   UNL     1       8.871  -6.297  26.731  1.00  0.00     0.017 C 
ATOM      6  C   UNL     1       9.453  -7.712  26.904  1.00  0.00     0.040 C 
ATOM      7  C   UNL     1       9.052  -8.314  28.265  1.00  0.00     0.117 C 
ENDROOT
BRANCH   7   8
ATOM      8  O   UNL     1       9.544  -9.627  28.354  1.00  0.00    -0.393 OA
ATOM      9  H   UNL     1       8.760 -10.218  28.501  1.00  0.00     0.210 HD
ENDBRANCH   7   8
BRANCH   5  10
ATOM     10  C   UNL     1       9.282  -5.692  25.395  1.00  0.00    -0.077 C 
ATOM     11  C   UNL     1      10.371  -4.911  25.317  1.00  0.00     0.008 C 
ATOM     12  C   UNL     1       8.489  -5.949  24.137  1.00  0.00     0.039 C 
ENDBRANCH   5  10
TORSDOF 2
ENDMDL
MODEL 8
REMARK VINA RESULT:    -4.268      2.809      3.875
REMARK INTER + INTRA:          -4.735
REMARK INTER:                  -4.637
REMARK INTRA:                  -0.098
REMARK UNBOUND:                -0.093
REMARK SMILES C=C(C)[C@H]1CC[C@H](C)[C@@H](O)C1
REMARK SMILES IDX 8 1 7 2 6 3 5 4 4 5 11 6 9 7 10 8 2 10 1 11 3 12
REMARK H PARENT 10 9
REMARK Flexibility Score: inf
ROOT
ATOM      1  C   UNL     1      12.463  -9.217  24.758  1.00  0.00     0.010 C 
ATOM      2  C   UNL     1      11.774  -8.858  26.082  1.00  0.00     0.015 C 
ATOM      3  C   UNL     1      10.503  -8.029  25.807  1.00  0.00     0.006 C 
ATOM      4  C   UNL     1       9.781  -7.668  27.110  1.00  0.00     0.008 C 
ATOM      5  C   UNL     1       9.433  -8.937  27.910  1.00  0.00     0.017 C 
ATOM      6  C   UNL     1      10.701  -9.764  28.198  1.00  0.00     0.040 C 
ATOM      7  C   UNL     1      11.432 -10.131  26.892  1.00  0.00     0.117 C 
ENDROOT
BRANCH   7   8
ATOM      8  O   UNL     1      12.614 -10.824  27.202  1.00  0.00    -0.393 OA
ATOM      9  H   UNL     1      13.213 -10.735  26.416  1.00  0.00     0.210 HD
ENDBRANCH   7   8
BRANCH   5  10
ATOM     10  C   UNL     1       8.698  -8.591  29.198  1.00  0.00    -0.077 C 
ATOM     11  C   UNL     1       9.363  -8.552  30.363  1.00  0.00     0.008 C 
ATOM     12  C   UNL     1       7.220  -8.285  29.202  1.00  0.00     0.039 C 
ENDBRANCH   5  10
TORSDOF 2
ENDMDL
MODEL 9
REMARK VINA RESULT:    -4.142      2.986      4.563
REMARK INTER + INTRA:          -4.598
REMARK INTER:                  -4.508
REMARK INTRA:                  -0.090
REMARK UNBOUND:                -0.093
REMARK SMILES C=C(C)[C@H]1CC[C@H](C)[C@@H](O)C1
REMARK SMILES IDX 8 1 7 2 6 3 5 4 4 5 11 6 9 7 10 8 2 10 1 11 3 12
REMARK H PARENT 10 9
REMARK Flexibility Score: inf
ROOT
ATOM      1  C   UNL     1       9.940  -7.567  27.450  1.00  0.00     0.010 C 
ATOM      2  C   UNL     1      10.992  -8.611  27.049  1.00  0.00     0.015 C 
ATOM      3  C   UNL     1      10.754  -9.923  27.823  1.00  0.00     0.006 C 
ATOM      4  C   UNL     1      11.780 -10.994  27.431  1.00  0.00     0.008 C 
ATOM      5  C   UNL     1      11.748 -11.250  25.913  1.00  0.00     0.017 C 
ATOM      6  C   UNL     1      11.995  -9.944  25.134  1.00  0.00     0.040 C 
ATOM      7  C   UNL     1      10.968  -8.863  25.522  1.00  0.00     0.117 C 
ENDROOT
BRANCH   7   8
ATOM      8  O   UNL     1      11.270  -7.671  24.843  1.00  0.00    -0.393 OA
ATOM      9  H   UNL     1      10.700  -6.962  25.241  1.00  0.00     0.210 HD
ENDBRANCH   7   8
BRANCH   5  10
ATOM     10  C   UNL     1      12.750 -12.326  25.516  1.00  0.00    -0.077 C 
ATOM     11  C   UNL     1      12.524 -13.609  25.840  1.00  0.00     0.008 C 
ATOM     12  C   UNL     1      14.009 -11.986  24.756  1.00  0.00     0.039 C 
ENDBRANCH   5  10
TORSDOF 2
ENDMDL
