MODEL 1
REMARK VINA RESULT:    -2.541      0.000      0.000
REMARK INTER + INTRA:          -5.222
REMARK INTER:                  -4.101
REMARK INTRA:                  -1.122
REMARK UNBOUND:                -1.122
REMARK SMILES CCCCCCCCCCCCO
REMARK SMILES IDX 7 1 6 2 5 3 4 4 3 5 2 6 1 7 8 8 9 9 10 10 11 11 12 12 13 13
REMARK H PARENT 13 14
REMARK Flexibility Score: inf
ROOT
ATOM      1  C   UNL     1     129.202 113.241 118.965  1.00  0.00     0.000 C 
ENDROOT
BRANCH   1   2
ATOM      2  C   UNL     1     128.299 114.408 118.548  1.00  0.00    -0.000 C 
BRANCH   2   3
ATOM      3  C   UNL     1     127.692 115.101 119.774  1.00  0.00    -0.000 C 
BRANCH   3   4
ATOM      4  C   UNL     1     126.171 114.916 119.815  1.00  0.00    -0.000 C 
BRANCH   4   5
ATOM      5  C   UNL     1     125.737 114.211 121.109  1.00  0.00    -0.000 C 
BRANCH   5   6
ATOM      6  C   UNL     1     126.010 112.699 121.078  1.00  0.00    -0.003 C 
ATOM      7  C   UNL     1     125.120 111.958 120.080  1.00  0.00     0.004 C 
ENDBRANCH   5   6
ENDBRANCH   4   5
ENDBRANCH   3   4
ENDBRANCH   2   3
ENDBRANCH   1   2
BRANCH   1   8
ATOM      8  C   UNL     1     128.722 111.923 118.346  1.00  0.00     0.000 C 
BRANCH   8   9
ATOM      9  C   UNL     1     127.525 112.158 117.412  1.00  0.00     0.000 C 
BRANCH   9  10
ATOM     10  C   UNL     1     127.090 110.883 116.674  1.00  0.00     0.002 C 
BRANCH  10  11
ATOM     11  C   UNL     1     126.521 111.172 115.277  1.00  0.00     0.028 C 
BRANCH  11  12
ATOM     12  C   UNL     1     125.096 110.629 115.141  1.00  0.00     0.156 C 
BRANCH  12  13
ATOM     13  O   UNL     1     124.190 111.684 114.961  1.00  0.00    -0.396 OA
ATOM     14  H   UNL     1     123.327 111.387 115.350  1.00  0.00     0.210 HD
ENDBRANCH  12  13
ENDBRANCH  11  12
ENDBRANCH  10  11
ENDBRANCH   9  10
ENDBRANCH   8   9
ENDBRANCH   1   8
TORSDOF 11
ENDMDL
MODEL 2
REMARK VINA RESULT:    -2.537     11.821     13.534
REMARK INTER + INTRA:          -5.216
REMARK INTER:                  -4.618
REMARK INTRA:                  -0.597
REMARK UNBOUND:                -1.122
REMARK SMILES CCCCCCCCCCCCO
REMARK SMILES IDX 7 1 6 2 5 3 4 4 3 5 2 6 1 7 8 8 9 9 10 10 11 11 12 12 13 13
REMARK H PARENT 13 14
REMARK Flexibility Score: inf
ROOT
ATOM      1  C   UNL     1     128.909 127.344 116.600  1.00  0.00     0.000 C 
ENDROOT
BRANCH   1   2
ATOM      2  C   UNL     1     128.205 128.011 117.788  1.00  0.00    -0.000 C 
BRANCH   2   3
ATOM      3  C   UNL     1     126.726 127.611 117.846  1.00  0.00    -0.000 C 
BRANCH   3   4
ATOM      4  C   UNL     1     125.882 128.717 118.491  1.00  0.00    -0.000 C 
BRANCH   4   5
ATOM      5  C   UNL     1     124.410 128.291 118.603  1.00  0.00    -0.000 C 
BRANCH   5   6
ATOM      6  C   UNL     1     124.148 127.382 119.813  1.00  0.00    -0.003 C 
ATOM      7  C   UNL     1     123.484 126.059 119.426  1.00  0.00     0.004 C 
ENDBRANCH   5   6
ENDBRANCH   4   5
ENDBRANCH   3   4
ENDBRANCH   2   3
ENDBRANCH   1   2
BRANCH   1   8
ATOM      8  C   UNL     1     127.891 126.816 115.581  1.00  0.00     0.000 C 
BRANCH   8   9
ATOM      9  C   UNL     1     128.362 125.486 114.972  1.00  0.00     0.000 C 
BRANCH   9  10
ATOM     10  C   UNL     1     128.612 124.405 116.034  1.00  0.00     0.002 C 
BRANCH  10  11
ATOM     11  C   UNL     1     129.177 123.108 115.437  1.00  0.00     0.028 C 
BRANCH  11  12
ATOM     12  C   UNL     1     128.193 121.947 115.610  1.00  0.00     0.156 C 
BRANCH  12  13
ATOM     13  O   UNL     1     126.904 122.344 115.226  1.00  0.00    -0.396 OA
ATOM     14  H   UNL     1     126.766 122.005 114.303  1.00  0.00     0.210 HD
ENDBRANCH  12  13
ENDBRANCH  11  12
ENDBRANCH  10  11
ENDBRANCH   9  10
ENDBRANCH   8   9
ENDBRANCH   1   8
TORSDOF 11
ENDMDL
MODEL 3
REMARK VINA RESULT:    -2.491     18.301     20.201
REMARK INTER + INTRA:          -5.143
REMARK INTER:                  -4.386
REMARK INTRA:                  -0.757
REMARK UNBOUND:                -1.122
REMARK SMILES CCCCCCCCCCCCO
REMARK SMILES IDX 7 1 6 2 5 3 4 4 3 5 2 6 1 7 8 8 9 9 10 10 11 11 12 12 13 13
REMARK H PARENT 13 14
REMARK Flexibility Score: inf
ROOT
ATOM      1  C   UNL     1     113.622 127.857 115.135  1.00  0.00     0.000 C 
ENDROOT
BRANCH   1   2
ATOM      2  C   UNL     1     112.169 127.884 115.623  1.00  0.00    -0.000 C 
BRANCH   2   3
ATOM      3  C   UNL     1     112.092 128.295 117.099  1.00  0.00    -0.000 C 
BRANCH   3   4
ATOM      4  C   UNL     1     112.054 127.063 118.012  1.00  0.00    -0.000 C 
BRANCH   4   5
ATOM      5  C   UNL     1     110.686 126.368 117.940  1.00  0.00    -0.000 C 
BRANCH   5   6
ATOM      6  C   UNL     1     110.494 125.325 119.051  1.00  0.00    -0.003 C 
ATOM      7  C   UNL     1     111.319 124.058 118.822  1.00  0.00     0.004 C 
ENDBRANCH   5   6
ENDBRANCH   4   5
ENDBRANCH   3   4
ENDBRANCH   2   3
ENDBRANCH   1   2
BRANCH   1   8
ATOM      8  C   UNL     1     114.143 129.277 114.875  1.00  0.00     0.000 C 
BRANCH   8   9
ATOM      9  C   UNL     1     115.595 129.426 115.355  1.00  0.00     0.000 C 
BRANCH   9  10
ATOM     10  C   UNL     1     115.697 129.644 116.872  1.00  0.00     0.002 C 
BRANCH  10  11
ATOM     11  C   UNL     1     116.178 128.391 117.619  1.00  0.00     0.028 C 
BRANCH  11  12
ATOM     12  C   UNL     1     117.260 127.657 116.823  1.00  0.00     0.156 C 
BRANCH  12  13
ATOM     13  O   UNL     1     117.450 126.367 117.337  1.00  0.00    -0.396 OA
ATOM     14  H   UNL     1     117.558 125.763 116.557  1.00  0.00     0.210 HD
ENDBRANCH  12  13
ENDBRANCH  11  12
ENDBRANCH  10  11
ENDBRANCH   9  10
ENDBRANCH   8   9
ENDBRANCH   1   8
TORSDOF 11
ENDMDL
MODEL 4
REMARK VINA RESULT:    -2.445     19.290     21.165
REMARK INTER + INTRA:          -5.067
REMARK INTER:                  -4.030
REMARK INTRA:                  -1.037
REMARK UNBOUND:                -1.122
REMARK SMILES CCCCCCCCCCCCO
REMARK SMILES IDX 7 1 6 2 5 3 4 4 3 5 2 6 1 7 8 8 9 9 10 10 11 11 12 12 13 13
REMARK H PARENT 13 14
REMARK Flexibility Score: inf
ROOT
ATOM      1  C   UNL     1     110.734 129.791 116.715  1.00  0.00     0.000 C 
ENDROOT
BRANCH   1   2
ATOM      2  C   UNL     1     110.606 129.520 118.219  1.00  0.00    -0.000 C 
BRANCH   2   3
ATOM      3  C   UNL     1     111.935 129.028 118.804  1.00  0.00    -0.000 C 
BRANCH   3   4
ATOM      4  C   UNL     1     111.806 127.595 119.335  1.00  0.00    -0.000 C 
BRANCH   4   5
ATOM      5  C   UNL     1     111.785 126.581 118.181  1.00  0.00    -0.000 C 
BRANCH   5   6
ATOM      6  C   UNL     1     110.600 125.608 118.271  1.00  0.00    -0.003 C 
ATOM      7  C   UNL     1     110.905 124.385 119.137  1.00  0.00     0.004 C 
ENDBRANCH   5   6
ENDBRANCH   4   5
ENDBRANCH   3   4
ENDBRANCH   2   3
ENDBRANCH   1   2
BRANCH   1   8
ATOM      8  C   UNL     1     112.201 129.744 116.269  1.00  0.00     0.000 C 
BRANCH   8   9
ATOM      9  C   UNL     1     112.412 128.681 115.180  1.00  0.00     0.000 C 
BRANCH   9  10
ATOM     10  C   UNL     1     113.882 128.257 115.043  1.00  0.00     0.002 C 
BRANCH  10  11
ATOM     11  C   UNL     1     114.773 128.849 116.145  1.00  0.00     0.028 C 
BRANCH  11  12
ATOM     12  C   UNL     1     116.189 128.269 116.078  1.00  0.00     0.156 C 
BRANCH  12  13
ATOM     13  O   UNL     1     116.215 127.151 115.233  1.00  0.00    -0.396 OA
ATOM     14  H   UNL     1     116.460 127.483 114.330  1.00  0.00     0.210 HD
ENDBRANCH  12  13
ENDBRANCH  11  12
ENDBRANCH  10  11
ENDBRANCH   9  10
ENDBRANCH   8   9
ENDBRANCH   1   8
TORSDOF 11
ENDMDL
MODEL 5
REMARK VINA RESULT:    -2.408     19.379     20.479
REMARK INTER + INTRA:          -5.008
REMARK INTER:                  -4.177
REMARK INTRA:                  -0.831
REMARK UNBOUND:                -1.122
REMARK SMILES CCCCCCCCCCCCO
REMARK SMILES IDX 7 1 6 2 5 3 4 4 3 5 2 6 1 7 8 8 9 9 10 10 11 11 12 12 13 13
REMARK H PARENT 13 14
REMARK Flexibility Score: inf
ROOT
ATOM      1  C   UNL     1     112.051 127.232 118.062  1.00  0.00     0.000 C 
ENDROOT
BRANCH   1   2
ATOM      2  C   UNL     1     110.551 126.966 118.243  1.00  0.00    -0.000 C 
BRANCH   2   3
ATOM      3  C   UNL     1     110.260 125.461 118.278  1.00  0.00    -0.000 C 
BRANCH   3   4
ATOM      4  C   UNL     1     111.414 124.691 118.931  1.00  0.00    -0.000 C 
BRANCH   4   5
ATOM      5  C   UNL     1     110.996 124.132 120.300  1.00  0.00    -0.000 C 
BRANCH   5   6
ATOM      6  C   UNL     1     111.009 125.201 121.404  1.00  0.00    -0.003 C 
ATOM      7  C   UNL     1     112.365 125.893 121.541  1.00  0.00     0.004 C 
ENDBRANCH   5   6
ENDBRANCH   4   5
ENDBRANCH   3   4
ENDBRANCH   2   3
ENDBRANCH   1   2
BRANCH   1   8
ATOM      8  C   UNL     1     112.291 128.385 117.080  1.00  0.00     0.000 C 
BRANCH   8   9
ATOM      9  C   UNL     1     112.289 127.882 115.628  1.00  0.00     0.000 C 
BRANCH   9  10
ATOM     10  C   UNL     1     113.578 128.244 114.875  1.00  0.00     0.002 C 
BRANCH  10  11
ATOM     11  C   UNL     1     114.481 129.198 115.671  1.00  0.00     0.028 C 
BRANCH  11  12
ATOM     12  C   UNL     1     115.886 128.614 115.838  1.00  0.00     0.156 C 
BRANCH  12  13
ATOM     13  O   UNL     1     115.956 127.343 115.250  1.00  0.00    -0.396 OA
ATOM     14  H   UNL     1     116.177 126.705 115.978  1.00  0.00     0.210 HD
ENDBRANCH  12  13
ENDBRANCH  11  12
ENDBRANCH  10  11
ENDBRANCH   9  10
ENDBRANCH   8   9
ENDBRANCH   1   8
TORSDOF 11
ENDMDL
MODEL 6
REMARK VINA RESULT:    -2.398      9.555     11.333
REMARK INTER + INTRA:          -4.992
REMARK INTER:                  -4.037
REMARK INTRA:                  -0.955
REMARK UNBOUND:                -1.122
REMARK SMILES CCCCCCCCCCCCO
REMARK SMILES IDX 7 1 6 2 5 3 4 4 3 5 2 6 1 7 8 8 9 9 10 10 11 11 12 12 13 13
REMARK H PARENT 13 14
REMARK Flexibility Score: inf
ROOT
ATOM      1  C   UNL     1     128.831 123.494 117.083  1.00  0.00     0.000 C 
ENDROOT
BRANCH   1   2
ATOM      2  C   UNL     1     130.091 123.798 116.264  1.00  0.00    -0.000 C 
BRANCH   2   3
ATOM      3  C   UNL     1     129.728 124.336 114.875  1.00  0.00    -0.000 C 
BRANCH   3   4
ATOM      4  C   UNL     1     128.558 125.324 114.956  1.00  0.00    -0.000 C 
BRANCH   4   5
ATOM      5  C   UNL     1     129.065 126.771 115.046  1.00  0.00    -0.000 C 
BRANCH   5   6
ATOM      6  C   UNL     1     128.942 127.354 116.462  1.00  0.00    -0.003 C 
ATOM      7  C   UNL     1     127.531 127.218 117.036  1.00  0.00     0.004 C 
ENDBRANCH   5   6
ENDBRANCH   4   5
ENDBRANCH   3   4
ENDBRANCH   2   3
ENDBRANCH   1   2
BRANCH   1   8
ATOM      8  C   UNL     1     128.771 122.011 117.473  1.00  0.00     0.000 C 
BRANCH   8   9
ATOM      9  C   UNL     1     128.448 121.135 116.253  1.00  0.00     0.000 C 
BRANCH   9  10
ATOM     10  C   UNL     1     127.122 121.523 115.581  1.00  0.00     0.002 C 
BRANCH  10  11
ATOM     11  C   UNL     1     126.026 120.465 115.779  1.00  0.00     0.028 C 
BRANCH  11  12
ATOM     12  C   UNL     1     126.634 119.075 115.984  1.00  0.00     0.156 C 
BRANCH  12  13
ATOM     13  O   UNL     1     126.059 118.454 117.102  1.00  0.00    -0.396 OA
ATOM     14  H   UNL     1     126.797 117.998 117.584  1.00  0.00     0.210 HD
ENDBRANCH  12  13
ENDBRANCH  11  12
ENDBRANCH  10  11
ENDBRANCH   9  10
ENDBRANCH   8   9
ENDBRANCH   1   8
TORSDOF 11
ENDMDL
MODEL 7
REMARK VINA RESULT:    -2.397     17.810     19.687
REMARK INTER + INTRA:          -4.989
REMARK INTER:                  -4.029
REMARK INTRA:                  -0.961
REMARK UNBOUND:                -1.122
REMARK SMILES CCCCCCCCCCCCO
REMARK SMILES IDX 7 1 6 2 5 3 4 4 3 5 2 6 1 7 8 8 9 9 10 10 11 11 12 12 13 13
REMARK H PARENT 13 14
REMARK Flexibility Score: inf
ROOT
ATOM      1  C   UNL     1     115.440 129.128 117.215  1.00  0.00     0.000 C 
ENDROOT
BRANCH   1   2
ATOM      2  C   UNL     1     114.526 130.119 116.483  1.00  0.00    -0.000 C 
BRANCH   2   3
ATOM      3  C   UNL     1     114.285 129.679 115.034  1.00  0.00    -0.000 C 
BRANCH   3   4
ATOM      4  C   UNL     1     113.534 128.343 114.983  1.00  0.00    -0.000 C 
BRANCH   4   5
ATOM      5  C   UNL     1     112.123 128.482 115.575  1.00  0.00    -0.000 C 
BRANCH   5   6
ATOM      6  C   UNL     1     111.844 127.458 116.685  1.00  0.00    -0.003 C 
ATOM      7  C   UNL     1     111.803 128.090 118.077  1.00  0.00     0.004 C 
ENDBRANCH   5   6
ENDBRANCH   4   5
ENDBRANCH   3   4
ENDBRANCH   2   3
ENDBRANCH   1   2
BRANCH   1   8
ATOM      8  C   UNL     1     116.844 129.714 117.410  1.00  0.00     0.000 C 
BRANCH   8   9
ATOM      9  C   UNL     1     117.762 129.343 116.235  1.00  0.00     0.000 C 
BRANCH   9  10
ATOM     10  C   UNL     1     117.562 127.896 115.761  1.00  0.00     0.002 C 
BRANCH  10  11
ATOM     11  C   UNL     1     118.405 126.890 116.559  1.00  0.00     0.028 C 
BRANCH  11  12
ATOM     12  C   UNL     1     119.421 126.186 115.656  1.00  0.00     0.156 C 
BRANCH  12  13
ATOM     13  O   UNL     1     120.108 127.126 114.875  1.00  0.00    -0.396 OA
ATOM     14  H   UNL     1     119.486 127.886 114.733  1.00  0.00     0.210 HD
ENDBRANCH  12  13
ENDBRANCH  11  12
ENDBRANCH  10  11
ENDBRANCH   9  10
ENDBRANCH   8   9
ENDBRANCH   1   8
TORSDOF 11
ENDMDL
MODEL 8
REMARK VINA RESULT:    -2.368     12.955     14.674
REMARK INTER + INTRA:          -4.943
REMARK INTER:                  -3.388
REMARK INTRA:                  -1.555
REMARK UNBOUND:                -1.122
REMARK SMILES CCCCCCCCCCCCO
REMARK SMILES IDX 7 1 6 2 5 3 4 4 3 5 2 6 1 7 8 8 9 9 10 10 11 11 12 12 13 13
REMARK H PARENT 13 14
REMARK Flexibility Score: inf
ROOT
ATOM      1  C   UNL     1     124.948 128.597 118.624  1.00  0.00     0.000 C 
ENDROOT
BRANCH   1   2
ATOM      2  C   UNL     1     124.174 127.944 119.776  1.00  0.00    -0.000 C 
BRANCH   2   3
ATOM      3  C   UNL     1     124.330 126.419 119.748  1.00  0.00    -0.000 C 
BRANCH   3   4
ATOM      4  C   UNL     1     125.333 125.949 120.809  1.00  0.00    -0.000 C 
BRANCH   4   5
ATOM      5  C   UNL     1     126.507 125.199 120.161  1.00  0.00    -0.000 C 
BRANCH   5   6
ATOM      6  C   UNL     1     127.872 125.679 120.678  1.00  0.00    -0.003 C 
ATOM      7  C   UNL     1     127.762 126.896 121.598  1.00  0.00     0.004 C 
ENDBRANCH   5   6
ENDBRANCH   4   5
ENDBRANCH   3   4
ENDBRANCH   2   3
ENDBRANCH   1   2
BRANCH   1   8
ATOM      8  C   UNL     1     126.301 129.137 119.106  1.00  0.00     0.000 C 
BRANCH   8   9
ATOM      9  C   UNL     1     127.446 128.619 118.223  1.00  0.00     0.000 C 
BRANCH   9  10
ATOM     10  C   UNL     1     127.007 127.475 117.296  1.00  0.00     0.002 C 
BRANCH  10  11
ATOM     11  C   UNL     1     128.171 126.555 116.900  1.00  0.00     0.028 C 
BRANCH  11  12
ATOM     12  C   UNL     1     128.303 126.460 115.377  1.00  0.00     0.156 C 
BRANCH  12  13
ATOM     13  O   UNL     1     127.431 125.483 114.876  1.00  0.00    -0.396 OA
ATOM     14  H   UNL     1     127.254 124.851 115.621  1.00  0.00     0.210 HD
ENDBRANCH  12  13
ENDBRANCH  11  12
ENDBRANCH  10  11
ENDBRANCH   9  10
ENDBRANCH   8   9
ENDBRANCH   1   8
TORSDOF 11
ENDMDL
MODEL 9
REMARK VINA RESULT:    -0.266     11.258     13.001
REMARK INTER + INTRA:          -1.550
REMARK INTER:                  -0.763
REMARK INTRA:                  -0.788
REMARK UNBOUND:                -1.122
REMARK SMILES CCCCCCCCCCCCO
REMARK SMILES IDX 7 1 6 2 5 3 4 4 3 5 2 6 1 7 8 8 9 9 10 10 11 11 12 12 13 13
REMARK H PARENT 13 14
REMARK Flexibility Score: inf
ROOT
ATOM      1  C   UNL     1     128.193 125.271 115.039  1.00  0.00     0.000 C 
ENDROOT
BRANCH   1   2
ATOM      2  C   UNL     1     128.125 126.760 115.398  1.00  0.00    -0.000 C 
BRANCH   2   3
ATOM      3  C   UNL     1     129.119 127.103 116.514  1.00  0.00    -0.000 C 
BRANCH   3   4
ATOM      4  C   UNL     1     128.400 127.708 117.726  1.00  0.00    -0.000 C 
BRANCH   4   5
ATOM      5  C   UNL     1     126.880 127.519 117.614  1.00  0.00    -0.000 C 
BRANCH   5   6
ATOM      6  C   UNL     1     126.092 128.637 118.314  1.00  0.00    -0.003 C 
ATOM      7  C   UNL     1     124.675 128.210 118.698  1.00  0.00     0.004 C 
ENDBRANCH   5   6
ENDBRANCH   4   5
ENDBRANCH   3   4
ENDBRANCH   2   3
ENDBRANCH   1   2
BRANCH   1   8
ATOM      8  C   UNL     1     129.647 124.809 114.875  1.00  0.00     0.000 C 
BRANCH   8   9
ATOM      9  C   UNL     1     129.815 123.351 115.330  1.00  0.00     0.000 C 
BRANCH   9  10
ATOM     10  C   UNL     1     129.215 123.093 116.720  1.00  0.00     0.002 C 
BRANCH  10  11
ATOM     11  C   UNL     1     128.380 121.805 116.775  1.00  0.00     0.028 C 
BRANCH  11  12
ATOM     12  C   UNL     1     127.781 121.480 115.404  1.00  0.00     0.156 C 
BRANCH  12  13
ATOM     13  O   UNL     1     126.535 122.106 115.258  1.00  0.00    -0.396 OA
ATOM     14  H   UNL     1     125.928 121.687 115.923  1.00  0.00     0.210 HD
ENDBRANCH  12  13
ENDBRANCH  11  12
ENDBRANCH  10  11
ENDBRANCH   9  10
ENDBRANCH   8   9
ENDBRANCH   1   8
TORSDOF 11
ENDMDL
