MODEL 1
REMARK VINA RESULT:    -3.063      0.000      0.000
REMARK INTER + INTRA:          -4.148
REMARK INTER:                  -3.959
REMARK INTRA:                  -0.189
REMARK UNBOUND:                -0.189
REMARK SMILES CCCCCCC(=O)[O-]
REMARK SMILES IDX 5 1 6 2 7 3 8 4 9 5 4 6 3 7 2 8 1 9
REMARK H PARENT
REMARK Flexibility Score: inf
ROOT
ATOM      1  C   UNL     1     -96.256 -27.204  81.409  1.00  0.00     0.006 C 
ENDROOT
BRANCH   1   2
ATOM      2  C   UNL     1     -95.396 -25.946  81.585  1.00  0.00     0.053 C 
BRANCH   2   3
ATOM      3  C   UNL     1     -94.393 -25.796  80.483  1.00  0.00     0.041 C 
ATOM      4  O   UNL     1     -94.728 -26.011  79.288  1.00  0.00    -0.550 OA
ATOM      5  O   UNL     1     -93.095 -25.390  80.770  1.00  0.00    -0.550 OA
ENDBRANCH   2   3
ENDBRANCH   1   2
BRANCH   1   6
ATOM      6  C   UNL     1     -96.475 -27.948  82.737  1.00  0.00     0.000 C 
BRANCH   6   7
ATOM      7  C   UNL     1     -96.459 -27.007  83.953  1.00  0.00    -0.000 C 
BRANCH   7   8
ATOM      8  C   UNL     1     -96.354 -27.763  85.286  1.00  0.00    -0.003 C 
ATOM      9  C   UNL     1     -95.954 -29.218  85.061  1.00  0.00     0.004 C 
ENDBRANCH   7   8
ENDBRANCH   6   7
ENDBRANCH   1   6
TORSDOF 5
ENDMDL
MODEL 2
REMARK VINA RESULT:    -3.030      2.038      2.552
REMARK INTER + INTRA:          -4.105
REMARK INTER:                  -3.932
REMARK INTRA:                  -0.173
REMARK UNBOUND:                -0.189
REMARK SMILES CCCCCCC(=O)[O-]
REMARK SMILES IDX 5 1 6 2 7 3 8 4 9 5 4 6 3 7 2 8 1 9
REMARK H PARENT
REMARK Flexibility Score: inf
ROOT
ATOM      1  C   UNL     1     -96.258 -27.791  82.355  1.00  0.00     0.006 C 
ENDROOT
BRANCH   1   2
ATOM      2  C   UNL     1     -96.261 -27.174  80.951  1.00  0.00     0.053 C 
BRANCH   2   3
ATOM      3  C   UNL     1     -96.652 -28.171  79.904  1.00  0.00     0.041 C 
ATOM      4  O   UNL     1     -97.569 -29.004  80.134  1.00  0.00    -0.550 OA
ATOM      5  O   UNL     1     -96.027 -28.161  78.663  1.00  0.00    -0.550 OA
ENDBRANCH   2   3
ENDBRANCH   1   2
BRANCH   1   6
ATOM      6  C   UNL     1     -96.513 -26.743  83.452  1.00  0.00     0.000 C 
BRANCH   6   7
ATOM      7  C   UNL     1     -96.570 -27.360  84.859  1.00  0.00    -0.000 C 
BRANCH   7   8
ATOM      8  C   UNL     1     -96.864 -28.867  84.833  1.00  0.00    -0.003 C 
ATOM      9  C   UNL     1     -95.843 -29.640  85.661  1.00  0.00     0.004 C 
ENDBRANCH   7   8
ENDBRANCH   6   7
ENDBRANCH   1   6
TORSDOF 5
ENDMDL
MODEL 3
REMARK VINA RESULT:    -2.990     14.373     16.269
REMARK INTER + INTRA:          -4.053
REMARK INTER:                  -3.666
REMARK INTRA:                  -0.387
REMARK UNBOUND:                -0.189
REMARK SMILES CCCCCCC(=O)[O-]
REMARK SMILES IDX 5 1 6 2 7 3 8 4 9 5 4 6 3 7 2 8 1 9
REMARK H PARENT
REMARK Flexibility Score: inf
ROOT
ATOM      1  C   UNL     1     -96.211 -41.900  87.684  1.00  0.00     0.006 C 
ENDROOT
BRANCH   1   2
ATOM      2  C   UNL     1     -97.325 -40.896  87.363  1.00  0.00     0.053 C 
BRANCH   2   3
ATOM      3  C   UNL     1     -97.454 -39.847  88.425  1.00  0.00     0.041 C 
ATOM      4  O   UNL     1     -98.146 -40.068  89.453  1.00  0.00    -0.550 OA
ATOM      5  O   UNL     1     -96.784 -38.636  88.293  1.00  0.00    -0.550 OA
ENDBRANCH   2   3
ENDBRANCH   1   2
BRANCH   1   6
ATOM      6  C   UNL     1     -96.757 -43.319  87.920  1.00  0.00     0.000 C 
BRANCH   6   7
ATOM      7  C   UNL     1     -96.845 -43.678  89.412  1.00  0.00    -0.000 C 
BRANCH   7   8
ATOM      8  C   UNL     1     -95.859 -42.876  90.274  1.00  0.00    -0.003 C 
ATOM      9  C   UNL     1     -96.545 -42.315  91.516  1.00  0.00     0.004 C 
ENDBRANCH   7   8
ENDBRANCH   6   7
ENDBRANCH   1   6
TORSDOF 5
ENDMDL
MODEL 4
REMARK VINA RESULT:    -2.984     15.581     16.816
REMARK INTER + INTRA:          -4.045
REMARK INTER:                  -3.698
REMARK INTRA:                  -0.347
REMARK UNBOUND:                -0.189
REMARK SMILES CCCCCCC(=O)[O-]
REMARK SMILES IDX 5 1 6 2 7 3 8 4 9 5 4 6 3 7 2 8 1 9
REMARK H PARENT
REMARK Flexibility Score: inf
ROOT
ATOM      1  C   UNL     1     -98.427 -41.100  89.993  1.00  0.00     0.006 C 
ENDROOT
BRANCH   1   2
ATOM      2  C   UNL     1     -98.080 -41.097  91.487  1.00  0.00     0.053 C 
BRANCH   2   3
ATOM      3  C   UNL     1     -96.665 -41.526  91.732  1.00  0.00     0.041 C 
ATOM      4  O   UNL     1     -96.022 -41.059  92.710  1.00  0.00    -0.550 OA
ATOM      5  O   UNL     1     -96.066 -42.463  90.899  1.00  0.00    -0.550 OA
ENDBRANCH   2   3
ENDBRANCH   1   2
BRANCH   1   6
ATOM      6  C   UNL     1     -97.941 -39.825  89.282  1.00  0.00     0.000 C 
BRANCH   6   7
ATOM      7  C   UNL     1     -97.163 -40.127  87.991  1.00  0.00    -0.000 C 
BRANCH   7   8
ATOM      8  C   UNL     1     -97.338 -41.579  87.521  1.00  0.00    -0.003 C 
ATOM      9  C   UNL     1     -95.992 -42.292  87.432  1.00  0.00     0.004 C 
ENDBRANCH   7   8
ENDBRANCH   6   7
ENDBRANCH   1   6
TORSDOF 5
ENDMDL
MODEL 5
REMARK VINA RESULT:    -2.943     15.001     16.222
REMARK INTER + INTRA:          -3.992
REMARK INTER:                  -3.556
REMARK INTRA:                  -0.436
REMARK UNBOUND:                -0.189
REMARK SMILES CCCCCCC(=O)[O-]
REMARK SMILES IDX 5 1 6 2 7 3 8 4 9 5 4 6 3 7 2 8 1 9
REMARK H PARENT
REMARK Flexibility Score: inf
ROOT
ATOM      1  C   UNL     1     -97.296 -40.193  87.668  1.00  0.00     0.006 C 
ENDROOT
BRANCH   1   2
ATOM      2  C   UNL     1     -97.624 -41.676  87.449  1.00  0.00     0.053 C 
BRANCH   2   3
ATOM      3  C   UNL     1     -96.417 -42.546  87.622  1.00  0.00     0.041 C 
ATOM      4  O   UNL     1     -95.316 -42.209  87.112  1.00  0.00    -0.550 OA
ATOM      5  O   UNL     1     -96.500 -43.713  88.372  1.00  0.00    -0.550 OA
ENDBRANCH   2   3
ENDBRANCH   1   2
BRANCH   1   6
ATOM      6  C   UNL     1     -97.242 -39.824  89.160  1.00  0.00     0.000 C 
BRANCH   6   7
ATOM      7  C   UNL     1     -98.403 -40.434  89.963  1.00  0.00    -0.000 C 
BRANCH   7   8
ATOM      8  C   UNL     1     -97.921 -41.312  91.127  1.00  0.00    -0.003 C 
ATOM      9  C   UNL     1     -96.397 -41.342  91.197  1.00  0.00     0.004 C 
ENDBRANCH   7   8
ENDBRANCH   6   7
ENDBRANCH   1   6
TORSDOF 5
ENDMDL
MODEL 6
REMARK VINA RESULT:    -2.909      3.824      4.560
REMARK INTER + INTRA:          -3.948
REMARK INTER:                  -3.623
REMARK INTRA:                  -0.325
REMARK UNBOUND:                -0.189
REMARK SMILES CCCCCCC(=O)[O-]
REMARK SMILES IDX 5 1 6 2 7 3 8 4 9 5 4 6 3 7 2 8 1 9
REMARK H PARENT
REMARK Flexibility Score: inf
ROOT
ATOM      1  C   UNL     1     -98.960 -28.104  83.976  1.00  0.00     0.006 C 
ENDROOT
BRANCH   1   2
ATOM      2  C   UNL     1     -99.856 -26.877  84.192  1.00  0.00     0.053 C 
BRANCH   2   3
ATOM      3  C   UNL     1     -99.089 -25.718  84.751  1.00  0.00     0.041 C 
ATOM      4  O   UNL     1     -99.033 -24.631  84.117  1.00  0.00    -0.550 OA
ATOM      5  O   UNL     1     -98.462 -25.827  85.986  1.00  0.00    -0.550 OA
ENDBRANCH   2   3
ENDBRANCH   1   2
BRANCH   1   6
ATOM      6  C   UNL     1     -97.832 -27.829  82.967  1.00  0.00     0.000 C 
BRANCH   6   7
ATOM      7  C   UNL     1     -96.461 -28.317  83.464  1.00  0.00    -0.000 C 
BRANCH   7   8
ATOM      8  C   UNL     1     -96.349 -28.307  84.995  1.00  0.00    -0.003 C 
ATOM      9  C   UNL     1     -95.823 -29.642  85.515  1.00  0.00     0.004 C 
ENDBRANCH   7   8
ENDBRANCH   6   7
ENDBRANCH   1   6
TORSDOF 5
ENDMDL
MODEL 7
REMARK VINA RESULT:    -2.875      3.259      4.929
REMARK INTER + INTRA:          -3.904
REMARK INTER:                  -3.678
REMARK INTRA:                  -0.226
REMARK UNBOUND:                -0.189
REMARK SMILES CCCCCCC(=O)[O-]
REMARK SMILES IDX 5 1 6 2 7 3 8 4 9 5 4 6 3 7 2 8 1 9
REMARK H PARENT
REMARK Flexibility Score: inf
ROOT
ATOM      1  C   UNL     1     -97.351 -27.001  83.452  1.00  0.00     0.006 C 
ENDROOT
BRANCH   1   2
ATOM      2  C   UNL     1     -96.591 -28.322  83.624  1.00  0.00     0.053 C 
BRANCH   2   3
ATOM      3  C   UNL     1     -96.172 -28.543  85.045  1.00  0.00     0.041 C 
ATOM      4  O   UNL     1     -96.033 -27.563  85.824  1.00  0.00    -0.550 OA
ATOM      5  O   UNL     1     -95.965 -29.833  85.518  1.00  0.00    -0.550 OA
ENDBRANCH   2   3
ENDBRANCH   1   2
BRANCH   1   6
ATOM      6  C   UNL     1     -96.813 -26.171  82.273  1.00  0.00     0.000 C 
BRANCH   6   7
ATOM      7  C   UNL     1     -96.183 -27.042  81.175  1.00  0.00    -0.000 C 
BRANCH   7   8
ATOM      8  C   UNL     1     -95.229 -26.252  80.266  1.00  0.00    -0.003 C 
ATOM      9  C   UNL     1     -94.248 -25.422  81.090  1.00  0.00     0.004 C 
ENDBRANCH   7   8
ENDBRANCH   6   7
ENDBRANCH   1   6
TORSDOF 5
ENDMDL
MODEL 8
REMARK VINA RESULT:    -2.874     15.070     16.476
REMARK INTER + INTRA:          -3.903
REMARK INTER:                  -3.637
REMARK INTRA:                  -0.265
REMARK UNBOUND:                -0.189
REMARK SMILES CCCCCCC(=O)[O-]
REMARK SMILES IDX 5 1 6 2 7 3 8 4 9 5 4 6 3 7 2 8 1 9
REMARK H PARENT
REMARK Flexibility Score: inf
ROOT
ATOM      1  C   UNL     1     -97.249 -40.622  89.907  1.00  0.00     0.006 C 
ENDROOT
BRANCH   1   2
ATOM      2  C   UNL     1     -98.614 -41.016  90.487  1.00  0.00     0.053 C 
BRANCH   2   3
ATOM      3  C   UNL     1     -99.113 -40.005  91.473  1.00  0.00     0.041 C 
ATOM      4  O   UNL     1     -99.012 -40.223  92.710  1.00  0.00    -0.550 OA
ATOM      5  O   UNL     1     -99.662 -38.808  91.028  1.00  0.00    -0.550 OA
ENDBRANCH   2   3
ENDBRANCH   1   2
BRANCH   1   6
ATOM      6  C   UNL     1     -97.378 -39.920  88.544  1.00  0.00     0.000 C 
BRANCH   6   7
ATOM      7  C   UNL     1     -97.279 -40.899  87.362  1.00  0.00    -0.000 C 
BRANCH   7   8
ATOM      8  C   UNL     1     -96.280 -42.036  87.618  1.00  0.00    -0.003 C 
ATOM      9  C   UNL     1     -96.912 -43.396  87.334  1.00  0.00     0.004 C 
ENDBRANCH   7   8
ENDBRANCH   6   7
ENDBRANCH   1   6
TORSDOF 5
ENDMDL
MODEL 9
REMARK VINA RESULT:    -2.853      3.452      4.999
REMARK INTER + INTRA:          -3.876
REMARK INTER:                  -3.709
REMARK INTRA:                  -0.167
REMARK UNBOUND:                -0.189
REMARK SMILES CCCCCCC(=O)[O-]
REMARK SMILES IDX 5 1 6 2 7 3 8 4 9 5 4 6 3 7 2 8 1 9
REMARK H PARENT
REMARK Flexibility Score: inf
ROOT
ATOM      1  C   UNL     1     -96.228 -26.835  83.139  1.00  0.00     0.006 C 
ENDROOT
BRANCH   1   2
ATOM      2  C   UNL     1     -96.557 -28.267  83.580  1.00  0.00     0.053 C 
BRANCH   2   3
ATOM      3  C   UNL     1     -96.183 -28.509  85.011  1.00  0.00     0.041 C 
ATOM      4  O   UNL     1     -96.075 -27.541  85.810  1.00  0.00    -0.550 OA
ATOM      5  O   UNL     1     -95.985 -29.805  85.470  1.00  0.00    -0.550 OA
ENDBRANCH   2   3
ENDBRANCH   1   2
BRANCH   1   6
ATOM      6  C   UNL     1     -96.706 -26.544  81.706  1.00  0.00     0.000 C 
BRANCH   6   7
ATOM      7  C   UNL     1     -97.084 -27.821  80.938  1.00  0.00    -0.000 C 
BRANCH   7   8
ATOM      8  C   UNL     1     -96.441 -27.886  79.545  1.00  0.00    -0.003 C 
ATOM      9  C   UNL     1     -96.480 -29.307  78.988  1.00  0.00     0.004 C 
ENDBRANCH   7   8
ENDBRANCH   6   7
ENDBRANCH   1   6
TORSDOF 5
ENDMDL
