MODEL 1
REMARK VINA RESULT:    -1.724      0.000      0.000
REMARK INTER + INTRA:          -3.693
REMARK INTER:                  -2.127
REMARK INTRA:                  -1.565
REMARK UNBOUND:                -1.565
REMARK SMILES CC(C)=CCC[C@H](C)c1ccc(C)cc1
REMARK SMILES IDX 6 1 7 2 8 3 9 4 13 5 12 6 11 7 14 8 10 9 15 10 5 11 4 12
REMARK SMILES IDX 2 13 1 14 3 15
REMARK H PARENT
REMARK Flexibility Score: inf
ROOT
ATOM      1  C   UNL     1      51.823  36.395  29.298  1.00  0.00     0.012 C 
ENDROOT
BRANCH   1   2
ATOM      2  C   UNL     1      51.485  35.486  28.094  1.00  0.00     0.016 C 
ATOM      3  C   UNL     1      49.970  35.346  27.876  1.00  0.00     0.013 C 
BRANCH   2   4
ATOM      4  C   UNL     1      52.122  34.120  28.267  1.00  0.00    -0.045 A 
ATOM      5  C   UNL     1      53.968  30.245  28.761  1.00  0.00     0.044 C 
ATOM      6  C   UNL     1      53.315  31.587  28.619  1.00  0.00    -0.051 A 
ATOM      7  C   UNL     1      52.028  31.693  28.072  1.00  0.00     0.004 A 
ATOM      8  C   UNL     1      54.013  32.754  28.966  1.00  0.00     0.004 A 
ATOM      9  C   UNL     1      51.432  32.946  27.905  1.00  0.00     0.004 A 
ATOM     10  C   UNL     1      53.419  34.008  28.797  1.00  0.00     0.004 A 
ENDBRANCH   2   4
ENDBRANCH   1   2
BRANCH   1  11
ATOM     11  C   UNL     1      50.884  36.170  30.492  1.00  0.00     0.028 C 
BRANCH  11  12
ATOM     12  C   UNL     1      51.555  35.324  31.545  1.00  0.00    -0.028 C 
ATOM     13  C   UNL     1      51.155  34.081  31.895  1.00  0.00    -0.080 C 
ATOM     14  C   UNL     1      51.899  33.372  32.998  1.00  0.00     0.039 C 
ATOM     15  C   UNL     1      50.005  33.387  31.205  1.00  0.00     0.039 C 
ENDBRANCH  11  12
ENDBRANCH   1  11
TORSDOF 4
ENDMDL
MODEL 2
REMARK VINA RESULT:    -1.707      1.824      2.797
REMARK INTER + INTRA:          -3.672
REMARK INTER:                  -2.134
REMARK INTRA:                  -1.538
REMARK UNBOUND:                -1.565
REMARK SMILES CC(C)=CCC[C@H](C)c1ccc(C)cc1
REMARK SMILES IDX 6 1 7 2 8 3 9 4 13 5 12 6 11 7 14 8 10 9 15 10 5 11 4 12
REMARK SMILES IDX 2 13 1 14 3 15
REMARK H PARENT
REMARK Flexibility Score: inf
ROOT
ATOM      1  C   UNL     1      53.674  34.377  28.778  1.00  0.00     0.012 C 
ENDROOT
BRANCH   1   2
ATOM      2  C   UNL     1      52.238  34.518  28.224  1.00  0.00     0.016 C 
ATOM      3  C   UNL     1      51.399  35.525  29.026  1.00  0.00     0.013 C 
BRANCH   2   4
ATOM      4  C   UNL     1      51.548  33.166  28.190  1.00  0.00    -0.045 A 
ATOM      5  C   UNL     1      49.614  29.305  28.074  1.00  0.00     0.044 C 
ATOM      6  C   UNL     1      50.291  30.641  28.145  1.00  0.00    -0.051 A 
ATOM      7  C   UNL     1      49.545  31.798  28.414  1.00  0.00     0.004 A 
ATOM      8  C   UNL     1      51.663  30.754  27.875  1.00  0.00     0.004 A 
ATOM      9  C   UNL     1      50.168  33.049  28.444  1.00  0.00     0.004 A 
ATOM     10  C   UNL     1      52.287  32.004  27.904  1.00  0.00     0.004 A 
ENDBRANCH   2   4
ENDBRANCH   1   2
BRANCH   1  11
ATOM     11  C   UNL     1      53.716  34.351  30.313  1.00  0.00     0.028 C 
BRANCH  11  12
ATOM     12  C   UNL     1      54.100  32.981  30.814  1.00  0.00    -0.028 C 
ATOM     13  C   UNL     1      53.266  32.148  31.475  1.00  0.00    -0.080 C 
ATOM     14  C   UNL     1      53.804  30.824  31.953  1.00  0.00     0.039 C 
ATOM     15  C   UNL     1      51.820  32.501  31.730  1.00  0.00     0.039 C 
ENDBRANCH  11  12
ENDBRANCH   1  11
TORSDOF 4
ENDMDL
MODEL 3
REMARK VINA RESULT:    -1.692      1.774      4.183
REMARK INTER + INTRA:          -3.654
REMARK INTER:                  -2.104
REMARK INTRA:                  -1.550
REMARK UNBOUND:                -1.565
REMARK SMILES CC(C)=CCC[C@H](C)c1ccc(C)cc1
REMARK SMILES IDX 6 1 7 2 8 3 9 4 13 5 12 6 11 7 14 8 10 9 15 10 5 11 4 12
REMARK SMILES IDX 2 13 1 14 3 15
REMARK H PARENT
REMARK Flexibility Score: inf
ROOT
ATOM      1  C   UNL     1      53.379  33.822  28.142  1.00  0.00     0.012 C 
ENDROOT
BRANCH   1   2
ATOM      2  C   UNL     1      52.251  34.557  28.901  1.00  0.00     0.016 C 
ATOM      3  C   UNL     1      52.681  34.986  30.313  1.00  0.00     0.013 C 
BRANCH   2   4
ATOM      4  C   UNL     1      51.006  33.691  28.970  1.00  0.00    -0.045 A 
ATOM      5  C   UNL     1      47.465  31.226  29.202  1.00  0.00     0.044 C 
ATOM      6  C   UNL     1      48.677  32.105  29.110  1.00  0.00    -0.051 A 
ATOM      7  C   UNL     1      49.464  32.106  27.949  1.00  0.00     0.004 A 
ATOM      8  C   UNL     1      49.073  32.881  30.210  1.00  0.00     0.004 A 
ATOM      9  C   UNL     1      50.613  32.897  27.875  1.00  0.00     0.004 A 
ATOM     10  C   UNL     1      50.223  33.672  30.138  1.00  0.00     0.004 A 
ENDBRANCH   2   4
ENDBRANCH   1   2
BRANCH   1  11
ATOM     11  C   UNL     1      54.116  32.801  29.021  1.00  0.00     0.028 C 
BRANCH  11  12
ATOM     12  C   UNL     1      53.752  31.393  28.623  1.00  0.00    -0.028 C 
ATOM     13  C   UNL     1      53.075  30.528  29.411  1.00  0.00    -0.080 C 
ATOM     14  C   UNL     1      52.820  29.135  28.893  1.00  0.00     0.039 C 
ATOM     15  C   UNL     1      52.559  30.922  30.774  1.00  0.00     0.039 C 
ENDBRANCH  11  12
ENDBRANCH   1  11
TORSDOF 4
ENDMDL
MODEL 4
REMARK VINA RESULT:    -1.653      2.469      5.045
REMARK INTER + INTRA:          -3.605
REMARK INTER:                  -2.048
REMARK INTRA:                  -1.556
REMARK UNBOUND:                -1.565
REMARK SMILES CC(C)=CCC[C@H](C)c1ccc(C)cc1
REMARK SMILES IDX 6 1 7 2 8 3 9 4 13 5 12 6 11 7 14 8 10 9 15 10 5 11 4 12
REMARK SMILES IDX 2 13 1 14 3 15
REMARK H PARENT
REMARK Flexibility Score: inf
ROOT
ATOM      1  C   UNL     1      50.771  28.125  29.186  1.00  0.00     0.012 C 
ENDROOT
BRANCH   1   2
ATOM      2  C   UNL     1      52.195  28.348  28.627  1.00  0.00     0.016 C 
ATOM      3  C   UNL     1      53.270  27.650  29.475  1.00  0.00     0.013 C 
BRANCH   2   4
ATOM      4  C   UNL     1      52.494  29.832  28.514  1.00  0.00    -0.045 A 
ATOM      5  C   UNL     1      53.370  34.052  28.217  1.00  0.00     0.044 C 
ATOM      6  C   UNL     1      53.078  32.583  28.292  1.00  0.00    -0.051 A 
ATOM      7  C   UNL     1      51.833  32.088  27.875  1.00  0.00     0.004 A 
ATOM      8  C   UNL     1      54.019  31.701  28.842  1.00  0.00     0.004 A 
ATOM      9  C   UNL     1      51.545  30.724  27.977  1.00  0.00     0.004 A 
ATOM     10  C   UNL     1      53.732  30.337  28.946  1.00  0.00     0.004 A 
ENDBRANCH   2   4
ENDBRANCH   1   2
BRANCH   1  11
ATOM     11  C   UNL     1      50.712  28.239  30.717  1.00  0.00     0.028 C 
BRANCH  11  12
ATOM     12  C   UNL     1      50.144  29.574  31.130  1.00  0.00    -0.028 C 
ATOM     13  C   UNL     1      50.823  30.506  31.837  1.00  0.00    -0.080 C 
ATOM     14  C   UNL     1      50.110  31.779  32.215  1.00  0.00     0.039 C 
ATOM     15  C   UNL     1      52.266  30.312  32.238  1.00  0.00     0.039 C 
ENDBRANCH  11  12
ENDBRANCH   1  11
TORSDOF 4
ENDMDL
MODEL 5
REMARK VINA RESULT:    -1.627     15.101     17.852
REMARK INTER + INTRA:          -3.572
REMARK INTER:                  -2.054
REMARK INTRA:                  -1.518
REMARK UNBOUND:                -1.565
REMARK SMILES CC(C)=CCC[C@H](C)c1ccc(C)cc1
REMARK SMILES IDX 6 1 7 2 8 3 9 4 13 5 12 6 11 7 14 8 10 9 15 10 5 11 4 12
REMARK SMILES IDX 2 13 1 14 3 15
REMARK H PARENT
REMARK Flexibility Score: inf
ROOT
ATOM      1  C   UNL     1      50.687  32.066  47.008  1.00  0.00     0.012 C 
ENDROOT
BRANCH   1   2
ATOM      2  C   UNL     1      52.021  31.880  47.766  1.00  0.00     0.016 C 
ATOM      3  C   UNL     1      53.160  32.710  47.153  1.00  0.00     0.013 C 
BRANCH   2   4
ATOM      4  C   UNL     1      52.405  30.412  47.811  1.00  0.00    -0.045 A 
ATOM      5  C   UNL     1      53.527  26.242  47.925  1.00  0.00     0.044 C 
ATOM      6  C   UNL     1      53.142  27.691  47.917  1.00  0.00    -0.051 A 
ATOM      7  C   UNL     1      51.797  28.065  48.050  1.00  0.00     0.004 A 
ATOM      8  C   UNL     1      54.113  28.681  47.706  1.00  0.00     0.004 A 
ATOM      9  C   UNL     1      51.431  29.413  48.006  1.00  0.00     0.004 A 
ATOM     10  C   UNL     1      53.749  30.029  47.661  1.00  0.00     0.004 A 
ENDBRANCH   2   4
ENDBRANCH   1   2
BRANCH   1  11
ATOM     11  C   UNL     1      50.880  32.190  45.490  1.00  0.00     0.028 C 
BRANCH  11  12
ATOM     12  C   UNL     1      50.215  31.042  44.771  1.00  0.00    -0.028 C 
ATOM     13  C   UNL     1      50.880  30.027  44.175  1.00  0.00    -0.080 C 
ATOM     14  C   UNL     1      50.080  28.969  43.457  1.00  0.00     0.039 C 
ATOM     15  C   UNL     1      52.385  29.918  44.224  1.00  0.00     0.039 C 
ENDBRANCH  11  12
ENDBRANCH   1  11
TORSDOF 4
ENDMDL
MODEL 6
REMARK VINA RESULT:    -1.622      1.806      4.185
REMARK INTER + INTRA:          -3.567
REMARK INTER:                  -2.017
REMARK INTRA:                  -1.550
REMARK UNBOUND:                -1.565
REMARK SMILES CC(C)=CCC[C@H](C)c1ccc(C)cc1
REMARK SMILES IDX 6 1 7 2 8 3 9 4 13 5 12 6 11 7 14 8 10 9 15 10 5 11 4 12
REMARK SMILES IDX 2 13 1 14 3 15
REMARK H PARENT
REMARK Flexibility Score: inf
ROOT
ATOM      1  C   UNL     1      50.608  30.416  28.031  1.00  0.00     0.012 C 
ENDROOT
BRANCH   1   2
ATOM      2  C   UNL     1      52.145  30.530  27.916  1.00  0.00     0.016 C 
ATOM      3  C   UNL     1      52.871  29.391  28.649  1.00  0.00     0.013 C 
BRANCH   2   4
ATOM      4  C   UNL     1      52.616  31.876  28.436  1.00  0.00    -0.045 A 
ATOM      5  C   UNL     1      53.941  35.724  29.887  1.00  0.00     0.044 C 
ATOM      6  C   UNL     1      53.462  34.386  29.407  1.00  0.00    -0.051 A 
ATOM      7  C   UNL     1      54.124  33.215  29.803  1.00  0.00     0.004 A 
ATOM      8  C   UNL     1      52.391  34.300  28.505  1.00  0.00     0.004 A 
ATOM      9  C   UNL     1      53.702  31.970  29.328  1.00  0.00     0.004 A 
ATOM     10  C   UNL     1      51.968  33.056  28.029  1.00  0.00     0.004 A 
ENDBRANCH   2   4
ENDBRANCH   1   2
BRANCH   1  11
ATOM     11  C   UNL     1      50.147  30.029  29.444  1.00  0.00     0.028 C 
BRANCH  11  12
ATOM     12  C   UNL     1      49.701  31.248  30.212  1.00  0.00    -0.028 C 
ATOM     13  C   UNL     1      50.268  31.674  31.364  1.00  0.00    -0.080 C 
ATOM     14  C   UNL     1      49.687  32.888  32.043  1.00  0.00     0.039 C 
ATOM     15  C   UNL     1      51.465  30.982  31.970  1.00  0.00     0.039 C 
ENDBRANCH  11  12
ENDBRANCH   1  11
TORSDOF 4
ENDMDL
MODEL 7
REMARK VINA RESULT:    -1.617      1.411      4.067
REMARK INTER + INTRA:          -3.560
REMARK INTER:                  -2.050
REMARK INTRA:                  -1.511
REMARK UNBOUND:                -1.565
REMARK SMILES CC(C)=CCC[C@H](C)c1ccc(C)cc1
REMARK SMILES IDX 6 1 7 2 8 3 9 4 13 5 12 6 11 7 14 8 10 9 15 10 5 11 4 12
REMARK SMILES IDX 2 13 1 14 3 15
REMARK H PARENT
REMARK Flexibility Score: inf
ROOT
ATOM      1  C   UNL     1      51.098  32.581  28.109  1.00  0.00     0.012 C 
ENDROOT
BRANCH   1   2
ATOM      2  C   UNL     1      52.507  33.175  27.885  1.00  0.00     0.016 C 
ATOM      3  C   UNL     1      53.623  32.175  28.228  1.00  0.00     0.013 C 
BRANCH   2   4
ATOM      4  C   UNL     1      52.678  34.451  28.688  1.00  0.00    -0.045 A 
ATOM      5  C   UNL     1      53.140  38.101  30.953  1.00  0.00     0.044 C 
ATOM      6  C   UNL     1      52.965  36.821  30.191  1.00  0.00    -0.051 A 
ATOM      7  C   UNL     1      53.968  35.841  30.217  1.00  0.00     0.004 A 
ATOM      8  C   UNL     1      51.830  36.622  29.392  1.00  0.00     0.004 A 
ATOM      9  C   UNL     1      53.824  34.663  29.479  1.00  0.00     0.004 A 
ATOM     10  C   UNL     1      51.685  35.445  28.652  1.00  0.00     0.004 A 
ENDBRANCH   2   4
ENDBRANCH   1   2
BRANCH   1  11
ATOM     11  C   UNL     1      51.002  31.756  29.401  1.00  0.00     0.028 C 
BRANCH  11  12
ATOM     12  C   UNL     1      50.588  32.627  30.561  1.00  0.00    -0.028 C 
ATOM     13  C   UNL     1      51.316  32.794  31.688  1.00  0.00    -0.080 C 
ATOM     14  C   UNL     1      50.754  33.665  32.783  1.00  0.00     0.039 C 
ATOM     15  C   UNL     1      52.669  32.150  31.870  1.00  0.00     0.039 C 
ENDBRANCH  11  12
ENDBRANCH   1  11
TORSDOF 4
ENDMDL
MODEL 8
REMARK VINA RESULT:     0.676      9.655     11.411
REMARK INTER + INTRA:          -0.732
REMARK INTER:                  -0.003
REMARK INTRA:                  -0.728
REMARK UNBOUND:                -1.565
REMARK SMILES CC(C)=CCC[C@H](C)c1ccc(C)cc1
REMARK SMILES IDX 6 1 7 2 8 3 9 4 13 5 12 6 11 7 14 8 10 9 15 10 5 11 4 12
REMARK SMILES IDX 2 13 1 14 3 15
REMARK H PARENT
REMARK Flexibility Score: inf
ROOT
ATOM      1  C   UNL     1      53.113  33.999  39.489  1.00  0.00     0.012 C 
ENDROOT
BRANCH   1   2
ATOM      2  C   UNL     1      51.858  34.721  40.029  1.00  0.00     0.016 C 
ATOM      3  C   UNL     1      50.575  34.283  39.304  1.00  0.00     0.013 C 
BRANCH   2   4
ATOM      4  C   UNL     1      52.030  36.226  39.931  1.00  0.00    -0.045 A 
ATOM      5  C   UNL     1      52.553  40.507  39.670  1.00  0.00     0.044 C 
ATOM      6  C   UNL     1      52.374  39.019  39.729  1.00  0.00    -0.051 A 
ATOM      7  C   UNL     1      51.091  38.458  39.665  1.00  0.00     0.004 A 
ATOM      8  C   UNL     1      53.483  38.181  39.920  1.00  0.00     0.004 A 
ATOM      9  C   UNL     1      50.919  37.074  39.757  1.00  0.00     0.004 A 
ATOM     10  C   UNL     1      53.312  36.796  40.013  1.00  0.00     0.004 A 
ENDBRANCH   2   4
ENDBRANCH   1   2
BRANCH   1  11
ATOM     11  C   UNL     1      52.771  32.721  38.709  1.00  0.00     0.028 C 
BRANCH  11  12
ATOM     12  C   UNL     1      53.199  31.496  39.477  1.00  0.00    -0.028 C 
ATOM     13  C   UNL     1      52.352  30.543  39.927  1.00  0.00    -0.080 C 
ATOM     14  C   UNL     1      52.922  29.393  40.719  1.00  0.00     0.039 C 
ATOM     15  C   UNL     1      50.869  30.592  39.646  1.00  0.00     0.039 C 
ENDBRANCH  11  12
ENDBRANCH   1  11
TORSDOF 4
ENDMDL
