MODEL 1
REMARK VINA RESULT:    -1.310      0.000      0.000
REMARK INTER + INTRA:          -1.310
REMARK INTER:                  -1.310
REMARK INTRA:                   0.000
REMARK UNBOUND:                 0.000
REMARK SMILES CC1=CC(=O)[C@H]2C[C@@H]1C2(C)C
REMARK SMILES IDX 1 1 2 2 3 3 4 4 5 5 6 6 7 7 8 8 9 9 10 10 11 11
REMARK H PARENT
REMARK Flexibility Score: inf
ROOT
ATOM      1  C   UNL     1      91.825  25.875  12.623  1.00  0.00     0.040 C 
ATOM      2  C   UNL     1      92.197  26.761  11.475  1.00  0.00    -0.066 C 
ATOM      3  C   UNL     1      92.504  28.078  11.643  1.00  0.00     0.047 C 
ATOM      4  C   UNL     1      92.855  28.840  10.400  1.00  0.00     0.159 C 
ATOM      5  O   UNL     1      93.116  30.071  10.418  1.00  0.00    -0.295 OA
ATOM      6  C   UNL     1      92.875  28.017   9.112  1.00  0.00     0.067 C 
ATOM      7  C   UNL     1      93.645  26.735   9.495  1.00  0.00     0.021 C 
ATOM      8  C   UNL     1      92.303  26.197  10.043  1.00  0.00     0.022 C 
ATOM      9  C   UNL     1      91.580  27.157   9.054  1.00  0.00    -0.019 C 
ATOM     10  C   UNL     1      90.241  27.806   9.506  1.00  0.00     0.012 C 
ATOM     11  C   UNL     1      91.362  26.513   7.662  1.00  0.00     0.012 C 
ENDROOT
TORSDOF 0
ENDMDL
MODEL 2
REMARK VINA RESULT:    -1.306      2.136      3.227
REMARK INTER + INTRA:          -1.306
REMARK INTER:                  -1.306
REMARK INTRA:                   0.000
REMARK UNBOUND:                 0.000
REMARK SMILES CC1=CC(=O)[C@H]2C[C@@H]1C2(C)C
REMARK SMILES IDX 1 1 2 2 3 3 4 4 5 5 6 6 7 7 8 8 9 9 10 10 11 11
REMARK H PARENT
REMARK Flexibility Score: inf
ROOT
ATOM      1  C   UNL     1      93.312  25.875   9.553  1.00  0.00     0.040 C 
ATOM      2  C   UNL     1      92.573  26.580  10.647  1.00  0.00    -0.066 C 
ATOM      3  C   UNL     1      92.211  25.952  11.801  1.00  0.00     0.047 C 
ATOM      4  C   UNL     1      91.473  26.786  12.805  1.00  0.00     0.159 C 
ATOM      5  O   UNL     1      91.049  26.312  13.890  1.00  0.00    -0.295 OA
ATOM      6  C   UNL     1      91.274  28.252  12.419  1.00  0.00     0.067 C 
ATOM      7  C   UNL     1      92.656  28.693  11.889  1.00  0.00     0.021 C 
ATOM      8  C   UNL     1      92.236  28.080  10.534  1.00  0.00     0.022 C 
ATOM      9  C   UNL     1      90.754  28.311  10.954  1.00  0.00    -0.019 C 
ATOM     10  C   UNL     1      89.692  27.268  10.504  1.00  0.00     0.012 C 
ATOM     11  C   UNL     1      90.245  29.722  10.565  1.00  0.00     0.012 C 
ENDROOT
TORSDOF 0
ENDMDL
MODEL 3
REMARK VINA RESULT:    -1.238      1.827      3.069
REMARK INTER + INTRA:          -1.238
REMARK INTER:                  -1.238
REMARK INTRA:                   0.000
REMARK UNBOUND:                 0.000
REMARK SMILES CC1=CC(=O)[C@H]2C[C@@H]1C2(C)C
REMARK SMILES IDX 1 1 2 2 3 3 4 4 5 5 6 6 7 7 8 8 9 9 10 10 11 11
REMARK H PARENT
REMARK Flexibility Score: inf
ROOT
ATOM      1  C   UNL     1      92.871  29.564  12.475  1.00  0.00     0.040 C 
ATOM      2  C   UNL     1      92.448  28.300  11.795  1.00  0.00    -0.066 C 
ATOM      3  C   UNL     1      92.920  27.940  10.569  1.00  0.00     0.047 C 
ATOM      4  C   UNL     1      92.403  26.647  10.013  1.00  0.00     0.159 C 
ATOM      5  O   UNL     1      92.731  26.227   8.874  1.00  0.00    -0.295 OA
ATOM      6  C   UNL     1      91.453  25.875  10.928  1.00  0.00     0.067 C 
ATOM      7  C   UNL     1      92.138  25.922  12.311  1.00  0.00     0.021 C 
ATOM      8  C   UNL     1      91.488  27.313  12.490  1.00  0.00     0.022 C 
ATOM      9  C   UNL     1      90.388  26.865  11.483  1.00  0.00    -0.019 C 
ATOM     10  C   UNL     1      89.796  27.931  10.519  1.00  0.00     0.012 C 
ATOM     11  C   UNL     1      89.212  26.136  12.182  1.00  0.00     0.012 C 
ENDROOT
TORSDOF 0
ENDMDL
MODEL 4
REMARK VINA RESULT:    -1.234      1.934      3.036
REMARK INTER + INTRA:          -1.234
REMARK INTER:                  -1.234
REMARK INTRA:                   0.000
REMARK UNBOUND:                 0.000
REMARK SMILES CC1=CC(=O)[C@H]2C[C@@H]1C2(C)C
REMARK SMILES IDX 1 1 2 2 3 3 4 4 5 5 6 6 7 7 8 8 9 9 10 10 11 11
REMARK H PARENT
REMARK Flexibility Score: inf
ROOT
ATOM      1  C   UNL     1      93.105  29.945  12.787  1.00  0.00     0.040 C 
ATOM      2  C   UNL     1      92.220  29.082  11.943  1.00  0.00    -0.066 C 
ATOM      3  C   UNL     1      90.875  29.001  12.146  1.00  0.00     0.047 C 
ATOM      4  C   UNL     1      90.119  28.094  11.223  1.00  0.00     0.159 C 
ATOM      5  O   UNL     1      88.880  27.902  11.336  1.00  0.00    -0.295 OA
ATOM      6  C   UNL     1      90.957  27.420  10.136  1.00  0.00     0.067 C 
ATOM      7  C   UNL     1      91.836  28.560   9.577  1.00  0.00     0.021 C 
ATOM      8  C   UNL     1      92.795  28.281  10.757  1.00  0.00     0.022 C 
ATOM      9  C   UNL     1      92.236  26.828  10.793  1.00  0.00    -0.019 C 
ATOM     10  C   UNL     1      92.101  26.128  12.175  1.00  0.00     0.012 C 
ATOM     11  C   UNL     1      93.004  25.878   9.840  1.00  0.00     0.012 C 
ENDROOT
TORSDOF 0
ENDMDL
MODEL 5
REMARK VINA RESULT:    -1.194      1.613      2.993
REMARK INTER + INTRA:          -1.194
REMARK INTER:                  -1.194
REMARK INTRA:                   0.000
REMARK UNBOUND:                 0.000
REMARK SMILES CC1=CC(=O)[C@H]2C[C@@H]1C2(C)C
REMARK SMILES IDX 1 1 2 2 3 3 4 4 5 5 6 6 7 7 8 8 9 9 10 10 11 11
REMARK H PARENT
REMARK Flexibility Score: inf
ROOT
ATOM      1  C   UNL     1      93.091  30.226  10.256  1.00  0.00     0.040 C 
ATOM      2  C   UNL     1      92.642  28.801  10.348  1.00  0.00    -0.066 C 
ATOM      3  C   UNL     1      92.757  28.075  11.496  1.00  0.00     0.047 C 
ATOM      4  C   UNL     1      92.267  26.659  11.436  1.00  0.00     0.159 C 
ATOM      5  O   UNL     1      92.357  25.876  12.416  1.00  0.00    -0.295 OA
ATOM      6  C   UNL     1      91.650  26.236  10.103  1.00  0.00     0.067 C 
ATOM      7  C   UNL     1      90.719  27.410   9.728  1.00  0.00     0.021 C 
ATOM      8  C   UNL     1      91.972  28.104   9.146  1.00  0.00     0.022 C 
ATOM      9  C   UNL     1      92.595  26.690   8.954  1.00  0.00    -0.019 C 
ATOM     10  C   UNL     1      94.129  26.531   9.152  1.00  0.00     0.012 C 
ATOM     11  C   UNL     1      92.214  26.058   7.591  1.00  0.00     0.012 C 
ENDROOT
TORSDOF 0
ENDMDL
MODEL 6
REMARK VINA RESULT:    -1.170     22.758     24.474
REMARK INTER + INTRA:          -1.170
REMARK INTER:                  -1.170
REMARK INTRA:                   0.000
REMARK UNBOUND:                 0.000
REMARK SMILES CC1=CC(=O)[C@H]2C[C@@H]1C2(C)C
REMARK SMILES IDX 1 1 2 2 3 3 4 4 5 5 6 6 7 7 8 8 9 9 10 10 11 11
REMARK H PARENT
REMARK Flexibility Score: inf
ROOT
ATOM      1  C   UNL     1      78.971  43.525   3.501  1.00  0.00     0.040 C 
ATOM      2  C   UNL     1      77.558  44.016   3.443  1.00  0.00    -0.066 C 
ATOM      3  C   UNL     1      77.115  44.842   2.454  1.00  0.00     0.047 C 
ATOM      4  C   UNL     1      75.675  45.252   2.530  1.00  0.00     0.159 C 
ATOM      5  O   UNL     1      75.158  46.045   1.700  1.00  0.00    -0.295 OA
ATOM      6  C   UNL     1      74.880  44.640   3.683  1.00  0.00     0.067 C 
ATOM      7  C   UNL     1      75.274  43.148   3.664  1.00  0.00     0.021 C 
ATOM      8  C   UNL     1      76.518  43.556   4.486  1.00  0.00     0.022 C 
ATOM      9  C   UNL     1      75.711  44.787   4.990  1.00  0.00    -0.019 C 
ATOM     10  C   UNL     1      76.477  46.118   5.233  1.00  0.00     0.012 C 
ATOM     11  C   UNL     1      74.879  44.467   6.258  1.00  0.00     0.012 C 
ENDROOT
TORSDOF 0
ENDMDL
MODEL 7
REMARK VINA RESULT:    -1.117     22.399     24.127
REMARK INTER + INTRA:          -1.117
REMARK INTER:                  -1.117
REMARK INTRA:                   0.000
REMARK UNBOUND:                 0.000
REMARK SMILES CC1=CC(=O)[C@H]2C[C@@H]1C2(C)C
REMARK SMILES IDX 1 1 2 2 3 3 4 4 5 5 6 6 7 7 8 8 9 9 10 10 11 11
REMARK H PARENT
REMARK Flexibility Score: inf
ROOT
ATOM      1  C   UNL     1      78.231  42.175   4.834  1.00  0.00     0.040 C 
ATOM      2  C   UNL     1      77.095  43.123   4.613  1.00  0.00    -0.066 C 
ATOM      3  C   UNL     1      76.604  43.393   3.370  1.00  0.00     0.047 C 
ATOM      4  C   UNL     1      75.466  44.366   3.305  1.00  0.00     0.159 C 
ATOM      5  O   UNL     1      74.954  44.728   2.214  1.00  0.00    -0.295 OA
ATOM      6  C   UNL     1      74.970  44.885   4.654  1.00  0.00     0.067 C 
ATOM      7  C   UNL     1      74.877  43.620   5.534  1.00  0.00     0.021 C 
ATOM      8  C   UNL     1      76.388  43.801   5.804  1.00  0.00     0.022 C 
ATOM      9  C   UNL     1      76.201  45.317   5.501  1.00  0.00    -0.019 C 
ATOM     10  C   UNL     1      77.359  46.072   4.789  1.00  0.00     0.012 C 
ATOM     11  C   UNL     1      75.797  46.124   6.761  1.00  0.00     0.012 C 
ENDROOT
TORSDOF 0
ENDMDL
MODEL 8
REMARK VINA RESULT:    -1.096     22.126     23.784
REMARK INTER + INTRA:          -1.096
REMARK INTER:                  -1.096
REMARK INTRA:                   0.000
REMARK UNBOUND:                 0.000
REMARK SMILES CC1=CC(=O)[C@H]2C[C@@H]1C2(C)C
REMARK SMILES IDX 1 1 2 2 3 3 4 4 5 5 6 6 7 7 8 8 9 9 10 10 11 11
REMARK H PARENT
REMARK Flexibility Score: inf
ROOT
ATOM      1  C   UNL     1      78.844  43.136   5.650  1.00  0.00     0.040 C 
ATOM      2  C   UNL     1      77.581  43.749   6.166  1.00  0.00    -0.066 C 
ATOM      3  C   UNL     1      76.884  43.211   7.207  1.00  0.00     0.047 C 
ATOM      4  C   UNL     1      75.635  43.935   7.612  1.00  0.00     0.159 C 
ATOM      5  O   UNL     1      74.884  43.515   8.530  1.00  0.00    -0.295 OA
ATOM      6  C   UNL     1      75.340  45.217   6.834  1.00  0.00     0.067 C 
ATOM      7  C   UNL     1      76.698  45.951   6.787  1.00  0.00     0.021 C 
ATOM      8  C   UNL     1      77.038  45.063   5.569  1.00  0.00     0.022 C 
ATOM      9  C   UNL     1      75.508  44.924   5.315  1.00  0.00    -0.019 C 
ATOM     10  C   UNL     1      74.976  43.573   4.760  1.00  0.00     0.012 C 
ATOM     11  C   UNL     1      74.952  46.067   4.429  1.00  0.00     0.012 C 
ENDROOT
TORSDOF 0
ENDMDL
MODEL 9
REMARK VINA RESULT:     0.000     11.355     12.549
REMARK INTER + INTRA:           0.000
REMARK INTER:                   0.000
REMARK INTRA:                   0.000
REMARK UNBOUND:                 0.000
REMARK SMILES CC1=CC(=O)[C@H]2C[C@@H]1C2(C)C
REMARK SMILES IDX 1 1 2 2 3 3 4 4 5 5 6 6 7 7 8 8 9 9 10 10 11 11
REMARK H PARENT
REMARK Flexibility Score: inf
ROOT
ATOM      1  C   UNL     1      84.304  32.033   4.259  1.00  0.00     0.040 C 
ATOM      2  C   UNL     1      84.050  33.476   4.567  1.00  0.00    -0.066 C 
ATOM      3  C   UNL     1      83.042  34.178   3.977  1.00  0.00     0.047 C 
ATOM      4  C   UNL     1      82.911  35.615   4.382  1.00  0.00     0.159 C 
ATOM      5  O   UNL     1      82.047  36.379   3.878  1.00  0.00    -0.295 OA
ATOM      6  C   UNL     1      83.898  36.087   5.450  1.00  0.00     0.067 C 
ATOM      7  C   UNL     1      83.873  34.963   6.509  1.00  0.00     0.021 C 
ATOM      8  C   UNL     1      84.896  34.221   5.619  1.00  0.00     0.022 C 
ATOM      9  C   UNL     1      85.323  35.607   5.053  1.00  0.00    -0.019 C 
ATOM     10  C   UNL     1      85.742  35.692   3.558  1.00  0.00     0.012 C 
ATOM     11  C   UNL     1      86.430  36.276   5.907  1.00  0.00     0.012 C 
ENDROOT
TORSDOF 0
ENDMDL
