MODEL 1
REMARK VINA RESULT:    -5.481      0.000      0.000
REMARK INTER + INTRA:          -7.146
REMARK INTER:                  -6.603
REMARK INTRA:                  -0.544
REMARK UNBOUND:                -0.544
REMARK SMILES O=c1ccn([C@@H]2O[C@H](CO)[C@@H](O)[C@H]2O)c(=O)[nH]1
REMARK SMILES IDX 6 1 13 2 11 3 8 4 7 5 5 6 3 7 4 8 2 9 17 10 1 11 15 12 16 14
REMARK SMILES IDX 14 15 12 17 9 19 10 20
REMARK H PARENT 17 13 14 16 12 18 10 21
REMARK Flexibility Score: inf
ROOT
ATOM      1  C   UNL     1      32.062   9.730   7.482  1.00  0.00     0.255 C 
ATOM      2  C   UNL     1      32.255   9.901   8.999  1.00  0.00     0.196 C 
ATOM      3  C   UNL     1      32.257   8.475   9.524  1.00  0.00     0.179 C 
ATOM      4  C   UNL     1      32.524   7.656   8.268  1.00  0.00     0.178 C 
ATOM      5  O   UNL     1      31.974   8.353   7.176  1.00  0.00    -0.347 OA
ENDROOT
BRANCH   1   6
ATOM      6  N   UNL     1      30.852  10.439   7.016  1.00  0.00    -0.271 N 
ATOM      7  C   UNL     1      28.506  10.872   7.265  1.00  0.00     0.090 A 
ATOM      8  C   UNL     1      29.673  10.240   7.682  1.00  0.00     0.099 A 
ATOM      9  C   UNL     1      28.557  11.702   6.152  1.00  0.00     0.253 A 
ATOM     10  N   UNL     1      29.732  11.876   5.493  1.00  0.00    -0.274 N 
ATOM     11  O   UNL     1      27.516  12.288   5.753  1.00  0.00    -0.269 OA
ATOM     12  C   UNL     1      30.871  11.252   5.907  1.00  0.00     0.330 A 
ATOM     13  H   UNL     1      29.763  12.495   4.651  1.00  0.00     0.175 HD
ATOM     14  O   UNL     1      31.936  11.426   5.255  1.00  0.00    -0.248 OA
ENDBRANCH   1   6
BRANCH   2  15
ATOM     15  O   UNL     1      33.450  10.588   9.292  1.00  0.00    -0.386 OA
ATOM     16  H   UNL     1      33.236  11.322   9.927  1.00  0.00     0.211 HD
ENDBRANCH   2  15
BRANCH   3  17
ATOM     17  O   UNL     1      33.253   8.255  10.490  1.00  0.00    -0.387 OA
ATOM     18  H   UNL     1      33.175   7.303  10.760  1.00  0.00     0.211 HD
ENDBRANCH   3  17
BRANCH   4  19
ATOM     19  C   UNL     1      31.908   6.252   8.344  1.00  0.00     0.191 C 
BRANCH  19  20
ATOM     20  O   UNL     1      31.439   5.982   9.638  1.00  0.00    -0.394 OA
ATOM     21  H   UNL     1      30.967   6.800   9.945  1.00  0.00     0.210 HD
ENDBRANCH  19  20
ENDBRANCH   4  19
TORSDOF 5
ENDMDL
MODEL 2
REMARK VINA RESULT:    -5.070      1.762      2.706
REMARK INTER + INTRA:          -6.652
REMARK INTER:                  -6.207
REMARK INTRA:                  -0.444
REMARK UNBOUND:                -0.544
REMARK SMILES O=c1ccn([C@@H]2O[C@H](CO)[C@@H](O)[C@H]2O)c(=O)[nH]1
REMARK SMILES IDX 6 1 13 2 11 3 8 4 7 5 5 6 3 7 4 8 2 9 17 10 1 11 15 12 16 14
REMARK SMILES IDX 14 15 12 17 9 19 10 20
REMARK H PARENT 17 13 14 16 12 18 10 21
REMARK Flexibility Score: inf
ROOT
ATOM      1  C   UNL     1      31.315  10.651   8.337  1.00  0.00     0.255 C 
ATOM      2  C   UNL     1      30.687   9.285   8.665  1.00  0.00     0.196 C 
ATOM      3  C   UNL     1      31.884   8.409   8.994  1.00  0.00     0.179 C 
ATOM      4  C   UNL     1      32.982   9.430   9.266  1.00  0.00     0.178 C 
ATOM      5  O   UNL     1      32.719  10.564   8.475  1.00  0.00    -0.347 OA
ENDROOT
BRANCH   1   6
ATOM      6  N   UNL     1      30.958  11.086   6.970  1.00  0.00    -0.271 N 
ATOM      7  C   UNL     1      31.670  11.718   4.768  1.00  0.00     0.090 A 
ATOM      8  C   UNL     1      31.959  11.290   6.060  1.00  0.00     0.099 A 
ATOM      9  C   UNL     1      30.343  11.946   4.423  1.00  0.00     0.253 A 
ATOM     10  N   UNL     1      29.363  11.755   5.344  1.00  0.00    -0.274 N 
ATOM     11  O   UNL     1      30.051  12.334   3.260  1.00  0.00    -0.269 OA
ATOM     12  C   UNL     1      29.656  11.336   6.607  1.00  0.00     0.330 A 
ATOM     13  H   UNL     1      28.367  11.936   5.080  1.00  0.00     0.175 HD
ATOM     14  O   UNL     1      28.717  11.189   7.435  1.00  0.00    -0.248 OA
ENDBRANCH   1   6
BRANCH   2  15
ATOM     15  O   UNL     1      29.775   9.381   9.735  1.00  0.00    -0.386 OA
ATOM     16  H   UNL     1      30.290   9.339  10.584  1.00  0.00     0.211 HD
ENDBRANCH   2  15
BRANCH   3  17
ATOM     17  O   UNL     1      31.666   7.594  10.117  1.00  0.00    -0.387 OA
ATOM     18  H   UNL     1      31.447   6.690   9.769  1.00  0.00     0.211 HD
ENDBRANCH   3  17
BRANCH   4  19
ATOM     19  C   UNL     1      34.380   8.887   8.938  1.00  0.00     0.191 C 
BRANCH  19  20
ATOM     20  O   UNL     1      34.644   7.719   9.668  1.00  0.00    -0.394 OA
ATOM     21  H   UNL     1      33.940   7.654  10.365  1.00  0.00     0.210 HD
ENDBRANCH  19  20
ENDBRANCH   4  19
TORSDOF 5
ENDMDL
MODEL 3
REMARK VINA RESULT:    -4.988      3.214      4.662
REMARK INTER + INTRA:          -6.553
REMARK INTER:                  -5.969
REMARK INTRA:                  -0.583
REMARK UNBOUND:                -0.544
REMARK SMILES O=c1ccn([C@@H]2O[C@H](CO)[C@@H](O)[C@H]2O)c(=O)[nH]1
REMARK SMILES IDX 6 1 13 2 11 3 8 4 7 5 5 6 3 7 4 8 2 9 17 10 1 11 15 12 16 14
REMARK SMILES IDX 14 15 12 17 9 19 10 20
REMARK H PARENT 17 13 14 16 12 18 10 21
REMARK Flexibility Score: inf
ROOT
ATOM      1  C   UNL     1      32.441   9.554   5.133  1.00  0.00     0.255 C 
ATOM      2  C   UNL     1      32.095   8.183   4.524  1.00  0.00     0.196 C 
ATOM      3  C   UNL     1      33.189   7.963   3.492  1.00  0.00     0.179 C 
ATOM      4  C   UNL     1      34.260   8.958   3.921  1.00  0.00     0.178 C 
ATOM      5  O   UNL     1      33.612  10.054   4.521  1.00  0.00    -0.347 OA
ENDROOT
BRANCH   1   6
ATOM      6  N   UNL     1      31.325  10.507   4.966  1.00  0.00    -0.271 N 
ATOM      7  C   UNL     1      30.069  11.962   3.530  1.00  0.00     0.090 A 
ATOM      8  C   UNL     1      31.097  11.045   3.729  1.00  0.00     0.099 A 
ATOM      9  C   UNL     1      29.284  12.330   4.617  1.00  0.00     0.253 A 
ATOM     10  N   UNL     1      29.535  11.799   5.842  1.00  0.00    -0.274 N 
ATOM     11  O   UNL     1      28.346  13.157   4.467  1.00  0.00    -0.269 OA
ATOM     12  C   UNL     1      30.545  10.902   6.027  1.00  0.00     0.330 A 
ATOM     13  H   UNL     1      28.946  12.086   6.657  1.00  0.00     0.175 HD
ATOM     14  O   UNL     1      30.754  10.448   7.184  1.00  0.00    -0.248 OA
ENDBRANCH   1   6
BRANCH   2  15
ATOM     15  O   UNL     1      32.067   7.174   5.507  1.00  0.00    -0.386 OA
ATOM     16  H   UNL     1      32.886   7.262   6.064  1.00  0.00     0.211 HD
ENDBRANCH   2  15
BRANCH   3  17
ATOM     17  O   UNL     1      33.687   6.650   3.504  1.00  0.00    -0.387 OA
ATOM     18  H   UNL     1      34.277   6.582   4.300  1.00  0.00     0.211 HD
ENDBRANCH   3  17
BRANCH   4  19
ATOM     19  C   UNL     1      35.111   9.446   2.740  1.00  0.00     0.191 C 
BRANCH  19  20
ATOM     20  O   UNL     1      35.183   8.466   1.740  1.00  0.00    -0.394 OA
ATOM     21  H   UNL     1      36.086   8.542   1.333  1.00  0.00     0.210 HD
ENDBRANCH  19  20
ENDBRANCH   4  19
TORSDOF 5
ENDMDL
MODEL 4
REMARK VINA RESULT:    -4.913      2.475      3.984
REMARK INTER + INTRA:          -6.462
REMARK INTER:                  -5.997
REMARK INTRA:                  -0.466
REMARK UNBOUND:                -0.544
REMARK SMILES O=c1ccn([C@@H]2O[C@H](CO)[C@@H](O)[C@H]2O)c(=O)[nH]1
REMARK SMILES IDX 6 1 13 2 11 3 8 4 7 5 5 6 3 7 4 8 2 9 17 10 1 11 15 12 16 14
REMARK SMILES IDX 14 15 12 17 9 19 10 20
REMARK H PARENT 17 13 14 16 12 18 10 21
REMARK Flexibility Score: inf
ROOT
ATOM      1  C   UNL     1      30.506  10.520   6.257  1.00  0.00     0.255 C 
ATOM      2  C   UNL     1      31.357   9.659   7.207  1.00  0.00     0.196 C 
ATOM      3  C   UNL     1      30.669   9.822   8.552  1.00  0.00     0.179 C 
ATOM      4  C   UNL     1      29.295  10.351   8.164  1.00  0.00     0.178 C 
ATOM      5  O   UNL     1      29.442  11.102   6.982  1.00  0.00    -0.347 OA
ENDROOT
BRANCH   1   6
ATOM      6  N   UNL     1      31.324  11.570   5.613  1.00  0.00    -0.271 N 
ATOM      7  C   UNL     1      33.329  12.886   5.600  1.00  0.00     0.090 A 
ATOM      8  C   UNL     1      32.536  11.891   6.161  1.00  0.00     0.099 A 
ATOM      9  C   UNL     1      32.861  13.557   4.476  1.00  0.00     0.253 A 
ATOM     10  N   UNL     1      31.649  13.237   3.954  1.00  0.00    -0.274 N 
ATOM     11  O   UNL     1      33.559  14.462   3.945  1.00  0.00    -0.269 OA
ATOM     12  C   UNL     1      30.877  12.261   4.512  1.00  0.00     0.330 A 
ATOM     13  H   UNL     1      31.299  13.751   3.113  1.00  0.00     0.175 HD
ATOM     14  O   UNL     1      29.750  12.010   4.007  1.00  0.00    -0.248 OA
ENDBRANCH   1   6
BRANCH   2  15
ATOM     15  O   UNL     1      31.406   8.317   6.782  1.00  0.00    -0.386 OA
ATOM     16  H   UNL     1      31.656   7.755   7.563  1.00  0.00     0.211 HD
ENDBRANCH   2  15
BRANCH   3  17
ATOM     17  O   UNL     1      30.562   8.611   9.255  1.00  0.00    -0.387 OA
ATOM     18  H   UNL     1      30.501   8.850  10.217  1.00  0.00     0.211 HD
ENDBRANCH   3  17
BRANCH   4  19
ATOM     19  C   UNL     1      28.676  11.232   9.259  1.00  0.00     0.191 C 
BRANCH  19  20
ATOM     20  O   UNL     1      28.403  10.478  10.409  1.00  0.00    -0.394 OA
ATOM     21  H   UNL     1      27.425  10.545  10.567  1.00  0.00     0.210 HD
ENDBRANCH  19  20
ENDBRANCH   4  19
TORSDOF 5
ENDMDL
MODEL 5
REMARK VINA RESULT:    -4.840      2.196      5.479
REMARK INTER + INTRA:          -6.374
REMARK INTER:                  -6.022
REMARK INTRA:                  -0.352
REMARK UNBOUND:                -0.544
REMARK SMILES O=c1ccn([C@@H]2O[C@H](CO)[C@@H](O)[C@H]2O)c(=O)[nH]1
REMARK SMILES IDX 6 1 13 2 11 3 8 4 7 5 5 6 3 7 4 8 2 9 17 10 1 11 15 12 16 14
REMARK SMILES IDX 14 15 12 17 9 19 10 20
REMARK H PARENT 17 13 14 16 12 18 10 21
REMARK Flexibility Score: inf
ROOT
ATOM      1  C   UNL     1      31.029  10.891   7.006  1.00  0.00     0.255 C 
ATOM      2  C   UNL     1      32.316  11.708   6.796  1.00  0.00     0.196 C 
ATOM      3  C   UNL     1      32.244  12.124   5.337  1.00  0.00     0.179 C 
ATOM      4  C   UNL     1      30.773  11.914   5.001  1.00  0.00     0.178 C 
ATOM      5  O   UNL     1      30.298  10.855   5.798  1.00  0.00    -0.347 OA
ENDROOT
BRANCH   1   6
ATOM      6  N   UNL     1      31.338   9.519   7.462  1.00  0.00    -0.271 N 
ATOM      7  C   UNL     1      32.334   7.384   7.010  1.00  0.00     0.090 A 
ATOM      8  C   UNL     1      32.038   8.690   6.629  1.00  0.00     0.099 A 
ATOM      9  C   UNL     1      31.894   6.935   8.250  1.00  0.00     0.253 A 
ATOM     10  N   UNL     1      31.186   7.767   9.057  1.00  0.00    -0.274 N 
ATOM     11  O   UNL     1      32.147   5.758   8.621  1.00  0.00    -0.269 OA
ATOM     12  C   UNL     1      30.900   9.044   8.675  1.00  0.00     0.330 A 
ATOM     13  H   UNL     1      30.851   7.420   9.985  1.00  0.00     0.175 HD
ATOM     14  O   UNL     1      30.224   9.776   9.448  1.00  0.00    -0.248 OA
ENDBRANCH   1   6
BRANCH   2  15
ATOM     15  O   UNL     1      32.376  12.811   7.672  1.00  0.00    -0.386 OA
ATOM     16  H   UNL     1      32.731  13.588   7.165  1.00  0.00     0.211 HD
ENDBRANCH   2  15
BRANCH   3  17
ATOM     17  O   UNL     1      32.619  13.462   5.136  1.00  0.00    -0.387 OA
ATOM     18  H   UNL     1      33.010  13.510   4.224  1.00  0.00     0.211 HD
ENDBRANCH   3  17
BRANCH   4  19
ATOM     19  C   UNL     1      30.553  11.581   3.519  1.00  0.00     0.191 C 
BRANCH  19  20
ATOM     20  O   UNL     1      29.852  12.610   2.875  1.00  0.00    -0.394 OA
ATOM     21  H   UNL     1      30.534  13.235   2.512  1.00  0.00     0.210 HD
ENDBRANCH  19  20
ENDBRANCH   4  19
TORSDOF 5
ENDMDL
MODEL 6
REMARK VINA RESULT:    -4.684      1.917      1.988
REMARK INTER + INTRA:          -6.186
REMARK INTER:                  -5.637
REMARK INTRA:                  -0.550
REMARK UNBOUND:                -0.544
REMARK SMILES O=c1ccn([C@@H]2O[C@H](CO)[C@@H](O)[C@H]2O)c(=O)[nH]1
REMARK SMILES IDX 6 1 13 2 11 3 8 4 7 5 5 6 3 7 4 8 2 9 17 10 1 11 15 12 16 14
REMARK SMILES IDX 14 15 12 17 9 19 10 20
REMARK H PARENT 17 13 14 16 12 18 10 21
REMARK Flexibility Score: inf
ROOT
ATOM      1  C   UNL     1      33.448   9.869   7.505  1.00  0.00     0.255 C 
ATOM      2  C   UNL     1      33.071  10.197   8.961  1.00  0.00     0.196 C 
ATOM      3  C   UNL     1      32.686   8.848   9.544  1.00  0.00     0.179 C 
ATOM      4  C   UNL     1      33.300   7.866   8.554  1.00  0.00     0.178 C 
ATOM      5  O   UNL     1      33.303   8.481   7.288  1.00  0.00    -0.347 OA
ENDROOT
BRANCH   1   6
ATOM      6  N   UNL     1      32.610  10.630   6.555  1.00  0.00    -0.271 N 
ATOM      7  C   UNL     1      30.897  10.628   4.877  1.00  0.00     0.090 A 
ATOM      8  C   UNL     1      31.692   9.954   5.798  1.00  0.00     0.099 A 
ATOM      9  C   UNL     1      31.060  12.001   4.731  1.00  0.00     0.253 A 
ATOM     10  N   UNL     1      31.988  12.653   5.479  1.00  0.00    -0.274 N 
ATOM     11  O   UNL     1      30.353  12.637   3.906  1.00  0.00    -0.269 OA
ATOM     12  C   UNL     1      32.764  11.985   6.379  1.00  0.00     0.330 A 
ATOM     13  H   UNL     1      32.111  13.685   5.359  1.00  0.00     0.175 HD
ATOM     14  O   UNL     1      33.625  12.627   7.038  1.00  0.00    -0.248 OA
ENDBRANCH   1   6
BRANCH   2  15
ATOM     15  O   UNL     1      34.144  10.798   9.649  1.00  0.00    -0.386 OA
ATOM     16  H   UNL     1      34.810  11.102   8.976  1.00  0.00     0.211 HD
ENDBRANCH   2  15
BRANCH   3  17
ATOM     17  O   UNL     1      33.202   8.649  10.835  1.00  0.00    -0.387 OA
ATOM     18  H   UNL     1      32.534   9.026  11.466  1.00  0.00     0.211 HD
ENDBRANCH   3  17
BRANCH   4  19
ATOM     19  C   UNL     1      32.523   6.545   8.483  1.00  0.00     0.191 C 
BRANCH  19  20
ATOM     20  O   UNL     1      31.626   6.435   9.555  1.00  0.00    -0.394 OA
ATOM     21  H   UNL     1      31.905   7.109  10.229  1.00  0.00     0.210 HD
ENDBRANCH  19  20
ENDBRANCH   4  19
TORSDOF 5
ENDMDL
MODEL 7
REMARK VINA RESULT:    -4.645      7.905     10.253
REMARK INTER + INTRA:          -6.139
REMARK INTER:                  -5.557
REMARK INTRA:                  -0.582
REMARK UNBOUND:                -0.544
REMARK SMILES O=c1ccn([C@@H]2O[C@H](CO)[C@@H](O)[C@H]2O)c(=O)[nH]1
REMARK SMILES IDX 6 1 13 2 11 3 8 4 7 5 5 6 3 7 4 8 2 9 17 10 1 11 15 12 16 14
REMARK SMILES IDX 14 15 12 17 9 19 10 20
REMARK H PARENT 17 13 14 16 12 18 10 21
REMARK Flexibility Score: inf
ROOT
ATOM      1  C   UNL     1      28.266   1.679   7.149  1.00  0.00     0.255 C 
ATOM      2  C   UNL     1      29.017   1.658   5.805  1.00  0.00     0.196 C 
ATOM      3  C   UNL     1      28.320   0.559   5.021  1.00  0.00     0.179 C 
ATOM      4  C   UNL     1      27.007   0.392   5.774  1.00  0.00     0.178 C 
ATOM      5  O   UNL     1      27.245   0.703   7.126  1.00  0.00    -0.347 OA
ENDROOT
BRANCH   1   6
ATOM      6  N   UNL     1      29.188   1.433   8.277  1.00  0.00    -0.271 N 
ATOM      7  C   UNL     1      30.453  -0.127   9.589  1.00  0.00     0.090 A 
ATOM      8  C   UNL     1      29.601   0.152   8.525  1.00  0.00     0.099 A 
ATOM      9  C   UNL     1      30.868   0.919  10.404  1.00  0.00     0.253 A 
ATOM     10  N   UNL     1      30.436   2.182  10.154  1.00  0.00    -0.274 N 
ATOM     11  O   UNL     1      31.640   0.696  11.374  1.00  0.00    -0.269 OA
ATOM     12  C   UNL     1      29.600   2.447   9.110  1.00  0.00     0.330 A 
ATOM     13  H   UNL     1      30.745   2.964  10.775  1.00  0.00     0.175 HD
ATOM     14  O   UNL     1      29.208   3.631   8.925  1.00  0.00    -0.248 OA
ENDBRANCH   1   6
BRANCH   2  15
ATOM     15  O   UNL     1      28.954   2.909   5.160  1.00  0.00    -0.386 OA
ATOM     16  H   UNL     1      29.108   3.616   5.842  1.00  0.00     0.211 HD
ENDBRANCH   2  15
BRANCH   3  17
ATOM     17  O   UNL     1      28.090   0.913   3.681  1.00  0.00    -0.387 OA
ATOM     18  H   UNL     1      28.113   1.905   3.646  1.00  0.00     0.211 HD
ENDBRANCH   3  17
BRANCH   4  19
ATOM     19  C   UNL     1      26.449  -1.034   5.666  1.00  0.00     0.191 C 
BRANCH  19  20
ATOM     20  O   UNL     1      26.350  -1.430   4.324  1.00  0.00    -0.394 OA
ATOM     21  H   UNL     1      26.355  -0.599   3.781  1.00  0.00     0.210 HD
ENDBRANCH  19  20
ENDBRANCH   4  19
TORSDOF 5
ENDMDL
MODEL 8
REMARK VINA RESULT:    -4.643     11.500     12.684
REMARK INTER + INTRA:          -6.137
REMARK INTER:                  -5.756
REMARK INTRA:                  -0.381
REMARK UNBOUND:                -0.544
REMARK SMILES O=c1ccn([C@@H]2O[C@H](CO)[C@@H](O)[C@H]2O)c(=O)[nH]1
REMARK SMILES IDX 6 1 13 2 11 3 8 4 7 5 5 6 3 7 4 8 2 9 17 10 1 11 15 12 16 14
REMARK SMILES IDX 14 15 12 17 9 19 10 20
REMARK H PARENT 17 13 14 16 12 18 10 21
REMARK Flexibility Score: inf
ROOT
ATOM      1  C   UNL     1      21.494   3.250   6.632  1.00  0.00     0.255 C 
ATOM      2  C   UNL     1      22.674   2.361   7.064  1.00  0.00     0.196 C 
ATOM      3  C   UNL     1      22.489   1.095   6.244  1.00  0.00     0.179 C 
ATOM      4  C   UNL     1      21.544   1.548   5.138  1.00  0.00     0.178 C 
ATOM      5  O   UNL     1      20.727   2.567   5.662  1.00  0.00    -0.347 OA
ENDROOT
BRANCH   1   6
ATOM      6  N   UNL     1      20.652   3.616   7.790  1.00  0.00    -0.271 N 
ATOM      7  C   UNL     1      18.757   3.138   9.180  1.00  0.00     0.090 A 
ATOM      8  C   UNL     1      19.587   2.819   8.110  1.00  0.00     0.099 A 
ATOM      9  C   UNL     1      19.023   4.290   9.911  1.00  0.00     0.253 A 
ATOM     10  N   UNL     1      20.075   5.078   9.570  1.00  0.00    -0.274 N 
ATOM     11  O   UNL     1      18.289   4.603  10.886  1.00  0.00    -0.269 OA
ATOM     12  C   UNL     1      20.883   4.759   8.519  1.00  0.00     0.330 A 
ATOM     13  H   UNL     1      20.265   5.948  10.119  1.00  0.00     0.175 HD
ATOM     14  O   UNL     1      21.836   5.530   8.225  1.00  0.00    -0.248 OA
ENDBRANCH   1   6
BRANCH   2  15
ATOM     15  O   UNL     1      23.911   2.990   6.819  1.00  0.00    -0.386 OA
ATOM     16  H   UNL     1      24.617   2.291   6.816  1.00  0.00     0.211 HD
ENDBRANCH   2  15
BRANCH   3  17
ATOM     17  O   UNL     1      23.696   0.615   5.710  1.00  0.00    -0.387 OA
ATOM     18  H   UNL     1      24.421   0.983   6.281  1.00  0.00     0.211 HD
ENDBRANCH   3  17
BRANCH   4  19
ATOM     19  C   UNL     1      20.666   0.403   4.615  1.00  0.00     0.191 C 
BRANCH  19  20
ATOM     20  O   UNL     1      20.720   0.332   3.215  1.00  0.00    -0.394 OA
ATOM     21  H   UNL     1      20.982  -0.598   2.987  1.00  0.00     0.210 HD
ENDBRANCH  19  20
ENDBRANCH   4  19
TORSDOF 5
ENDMDL
MODEL 9
REMARK VINA RESULT:    -4.591      7.497     10.054
REMARK INTER + INTRA:          -6.074
REMARK INTER:                  -5.526
REMARK INTRA:                  -0.548
REMARK UNBOUND:                -0.544
REMARK SMILES O=c1ccn([C@@H]2O[C@H](CO)[C@@H](O)[C@H]2O)c(=O)[nH]1
REMARK SMILES IDX 6 1 13 2 11 3 8 4 7 5 5 6 3 7 4 8 2 9 17 10 1 11 15 12 16 14
REMARK SMILES IDX 14 15 12 17 9 19 10 20
REMARK H PARENT 17 13 14 16 12 18 10 21
REMARK Flexibility Score: inf
ROOT
ATOM      1  C   UNL     1      29.082   1.816   5.650  1.00  0.00     0.255 C 
ATOM      2  C   UNL     1      28.909   0.457   4.948  1.00  0.00     0.196 C 
ATOM      3  C   UNL     1      27.426   0.408   4.621  1.00  0.00     0.179 C 
ATOM      4  C   UNL     1      27.009   1.868   4.738  1.00  0.00     0.178 C 
ATOM      5  O   UNL     1      27.833   2.474   5.705  1.00  0.00    -0.347 OA
ENDROOT
BRANCH   1   6
ATOM      6  N   UNL     1      29.635   1.647   7.009  1.00  0.00    -0.271 N 
ATOM      7  C   UNL     1      29.781   0.340   9.016  1.00  0.00     0.090 A 
ATOM      8  C   UNL     1      29.298   0.530   7.724  1.00  0.00     0.099 A 
ATOM      9  C   UNL     1      30.604   1.313   9.571  1.00  0.00     0.253 A 
ATOM     10  N   UNL     1      30.915   2.423   8.853  1.00  0.00    -0.274 N 
ATOM     11  O   UNL     1      31.056   1.167  10.737  1.00  0.00    -0.269 OA
ATOM     12  C   UNL     1      30.437   2.602   7.589  1.00  0.00     0.330 A 
ATOM     13  H   UNL     1      31.528   3.155   9.279  1.00  0.00     0.175 HD
ATOM     14  O   UNL     1      30.736   3.656   6.966  1.00  0.00    -0.248 OA
ENDBRANCH   1   6
BRANCH   2  15
ATOM     15  O   UNL     1      29.722   0.363   3.801  1.00  0.00    -0.386 OA
ATOM     16  H   UNL     1      30.558   0.872   3.972  1.00  0.00     0.211 HD
ENDBRANCH   2  15
BRANCH   3  17
ATOM     17  O   UNL     1      27.173  -0.086   3.330  1.00  0.00    -0.387 OA
ATOM     18  H   UNL     1      27.838  -0.806   3.171  1.00  0.00     0.211 HD
ENDBRANCH   3  17
BRANCH   4  19
ATOM     19  C   UNL     1      25.537   2.024   5.146  1.00  0.00     0.191 C 
BRANCH  19  20
ATOM     20  O   UNL     1      24.873   0.790   5.098  1.00  0.00    -0.394 OA
ATOM     21  H   UNL     1      24.734   0.579   4.138  1.00  0.00     0.210 HD
ENDBRANCH  19  20
ENDBRANCH   4  19
TORSDOF 5
ENDMDL
