MODEL 1
REMARK VINA RESULT:     3.790      0.000      0.000
REMARK INTER + INTRA:           5.025
REMARK INTER:                   6.006
REMARK INTRA:                  -0.981
REMARK UNBOUND:                -0.981
REMARK SMILES C[C@H]1O[C@@H](O[C@H]2[C@@H](Oc3cc(O)c4c(c3)O[C@H](c3ccc(O)cc3)CC4=O)O[C@H](CO)[C@@H](O)[C@H]2O)[C@@H](O)[C@H](O)[C@@H]1O
REMARK SMILES IDX 6 1 34 2 32 3 29 4 28 5 7 6 5 7 4 8 1 9 2 10 40 11 3 12
REMARK SMILES IDX 38 13 36 14 41 15 39 17 37 19 35 21 8 23 9 24 10 25 15 26
REMARK SMILES IDX 11 27 14 28 13 29 16 30 26 31 17 32 27 33 25 34 12 35 18 37
REMARK SMILES IDX 19 38 24 39 20 40 23 41 21 42 22 43 33 45 30 47 31 48
REMARK H PARENT 41 16 39 18 37 20 35 22 12 36 22 44 33 46 31 49
REMARK Flexibility Score: inf
ROOT
ATOM      1  C   UNL     1       7.217  -5.994  10.914  1.00  0.00     0.221 C 
ATOM      2  C   UNL     1       6.625  -6.860   9.739  1.00  0.00     0.181 C 
ATOM      3  C   UNL     1       7.783  -6.991   8.518  1.00  0.00     0.177 C 
ATOM      4  C   UNL     1       9.258  -6.705   9.098  1.00  0.00     0.179 C 
ATOM      5  O   UNL     1       9.400  -5.452   9.897  1.00  0.00    -0.332 OA
ATOM      6  C   UNL     1       8.110  -4.917  10.255  1.00  0.00     0.339 C 
ENDROOT
BRANCH   1   7
ATOM      7  O   UNL     1       7.409  -6.157  12.378  1.00  0.00    -0.337 OA
BRANCH   7   8
ATOM      8  C   UNL     1       7.186  -7.491  12.913  1.00  0.00     0.282 C 
ATOM      9  C   UNL     1       7.040  -6.929  15.874  1.00  0.00     0.041 C 
ATOM     10  C   UNL     1       6.196  -8.003  15.137  1.00  0.00     0.150 C 
ATOM     11  C   UNL     1       6.856  -9.439  15.271  1.00  0.00     0.174 C 
ATOM     12  O   UNL     1       6.004  -7.601  13.768  1.00  0.00    -0.344 OA
ATOM     13  C   UNL     1       7.496  -9.895  13.918  1.00  0.00     0.179 C 
ATOM     14  C   UNL     1       8.185  -8.689  13.155  1.00  0.00     0.202 C 
BRANCH  11  15
ATOM     15  O   UNL     1       5.876 -10.415  15.627  1.00  0.00    -0.388 OA
ATOM     16  H   UNL     1       5.017 -10.129  15.311  1.00  0.00     0.211 HD
ENDBRANCH  11  15
BRANCH  13  17
ATOM     17  O   UNL     1       6.579 -10.558  13.110  1.00  0.00    -0.387 OA
ATOM     18  H   UNL     1       6.880 -11.489  12.984  1.00  0.00     0.211 HD
ENDBRANCH  13  17
BRANCH  14  19
ATOM     19  O   UNL     1       9.411  -8.302  13.703  1.00  0.00    -0.385 OA
ATOM     20  H   UNL     1       9.922  -7.782  13.033  1.00  0.00     0.211 HD
ENDBRANCH  14  19
ENDBRANCH   7   8
ENDBRANCH   1   7
BRANCH   2  21
ATOM     21  O   UNL     1       6.020  -8.088  10.198  1.00  0.00    -0.387 OA
ATOM     22  H   UNL     1       6.624  -8.831   9.933  1.00  0.00     0.211 HD
ENDBRANCH   2  21
BRANCH   6  23
ATOM     23  O   UNL     1       8.167  -3.698  10.982  1.00  0.00    -0.462 OA
BRANCH  23  24
ATOM     24  C   UNL     1       8.186  -2.401  10.482  1.00  0.00     0.130 A 
ATOM     25  C   UNL     1       7.198  -1.931   9.653  1.00  0.00     0.093 A 
ATOM     26  C   UNL     1       9.149  -1.461  10.901  1.00  0.00     0.094 A 
ATOM     27  C   UNL     1       7.167  -0.627   9.181  1.00  0.00     0.133 A 
ATOM     28  C   UNL     1       9.211  -0.210  10.344  1.00  0.00     0.138 A 
ATOM     29  C   UNL     1       8.194   0.275   9.482  1.00  0.00     0.102 A 
ATOM     30  O   UNL     1      10.360   0.594  10.616  1.00  0.00    -0.484 OA
ATOM     31  C   UNL     1       8.358   1.594   8.821  1.00  0.00     0.174 C 
ATOM     32  C   UNL     1      10.678   1.656   9.785  1.00  0.00     0.211 C 
ATOM     33  O   UNL     1       7.604   1.905   7.875  1.00  0.00    -0.294 OA
ATOM     34  C   UNL     1       9.471   2.527   9.323  1.00  0.00     0.131 C 
BRANCH  27  35
ATOM     35  O   UNL     1       6.062  -0.181   8.445  1.00  0.00    -0.507 OA
ATOM     36  H   UNL     1       5.731  -0.714   7.654  1.00  0.00     0.293 HD
ENDBRANCH  27  35
BRANCH  32  37
ATOM     37  C   UNL     1      11.797   2.463  10.309  1.00  0.00    -0.007 A 
ATOM     38  C   UNL     1      12.297   2.162  11.593  1.00  0.00     0.011 A 
ATOM     39  C   UNL     1      12.333   3.522   9.621  1.00  0.00     0.011 A 
ATOM     40  C   UNL     1      13.320   2.902  12.185  1.00  0.00     0.046 A 
ATOM     41  C   UNL     1      13.415   4.264  10.201  1.00  0.00     0.046 A 
ATOM     42  C   UNL     1      13.887   3.995  11.497  1.00  0.00     0.115 A 
BRANCH  42  43
ATOM     43  O   UNL     1      14.809   4.817  12.135  1.00  0.00    -0.508 OA
ATOM     44  H   UNL     1      15.786   4.818  11.848  1.00  0.00     0.293 HD
ENDBRANCH  42  43
ENDBRANCH  32  37
ENDBRANCH  23  24
ENDBRANCH   6  23
BRANCH   3  45
ATOM     45  O   UNL     1       7.660  -8.253   7.876  1.00  0.00    -0.387 OA
ATOM     46  H   UNL     1       7.148  -8.889   8.444  1.00  0.00     0.211 HD
ENDBRANCH   3  45
BRANCH   4  47
ATOM     47  C   UNL     1      10.411  -6.757   8.051  1.00  0.00     0.191 C 
BRANCH  47  48
ATOM     48  O   UNL     1      11.556  -7.286   8.638  1.00  0.00    -0.394 OA
ATOM     49  H   UNL     1      12.281  -7.216   7.966  1.00  0.00     0.210 HD
ENDBRANCH  47  48
ENDBRANCH   4  47
TORSDOF 14
ENDMDL
