MODEL 1
REMARK VINA RESULT:    -4.563      0.000      0.000
REMARK INTER + INTRA:          -8.266
REMARK INTER:                  -6.164
REMARK INTRA:                  -2.103
REMARK UNBOUND:                -2.103
REMARK SMILES C=CC(C)=CCC=C(C)CCC=C(C)C
REMARK SMILES IDX 8 1 7 2 9 3 10 4 11 5 12 6 14 7 13 8 15 9 6 10 5 11 3 12
REMARK SMILES IDX 4 13 2 14 1 15
REMARK H PARENT
REMARK Flexibility Score: inf
ROOT
ATOM      1  C   UNL     1      32.159   9.598  31.954  1.00  0.00    -0.077 C 
ATOM      2  C   UNL     1      31.671   8.350  32.147  1.00  0.00    -0.024 C 
ATOM      3  C   UNL     1      31.778  10.329  30.694  1.00  0.00     0.039 C 
ENDROOT
BRANCH   1   4
ATOM      4  C   UNL     1      33.116  10.264  32.923  1.00  0.00     0.034 C 
BRANCH   4   5
ATOM      5  C   UNL     1      32.407  11.373  33.708  1.00  0.00     0.032 C 
BRANCH   5   6
ATOM      6  C   UNL     1      32.000  10.897  35.081  1.00  0.00    -0.028 C 
ATOM      7  C   UNL     1      30.430  10.121  36.808  1.00  0.00     0.039 C 
ATOM      8  C   UNL     1      30.727  10.585  35.405  1.00  0.00    -0.080 C 
ATOM      9  C   UNL     1      29.606  10.692  34.399  1.00  0.00     0.039 C 
ENDBRANCH   5   6
ENDBRANCH   4   5
ENDBRANCH   1   4
BRANCH   2  10
ATOM     10  C   UNL     1      31.961   7.496  33.355  1.00  0.00     0.055 C 
BRANCH  10  11
ATOM     11  C   UNL     1      30.688   7.049  34.027  1.00  0.00    -0.020 C 
ATOM     12  C   UNL     1      30.596   6.754  35.338  1.00  0.00    -0.055 C 
ATOM     13  C   UNL     1      31.795   6.835  36.256  1.00  0.00     0.044 C 
BRANCH  12  14
ATOM     14  C   UNL     1      29.288   6.274  35.854  1.00  0.00    -0.005 C 
ATOM     15  C   UNL     1      28.334   7.084  36.316  1.00  0.00     0.009 C 
ENDBRANCH  12  14
ENDBRANCH  10  11
ENDBRANCH   2  10
TORSDOF 6
ENDMDL
MODEL 2
REMARK VINA RESULT:    -4.376      2.307      5.191
REMARK INTER + INTRA:          -8.014
REMARK INTER:                  -5.965
REMARK INTRA:                  -2.048
REMARK UNBOUND:                -2.103
REMARK SMILES C=CC(C)=CCC=C(C)CCC=C(C)C
REMARK SMILES IDX 8 1 7 2 9 3 10 4 11 5 12 6 14 7 13 8 15 9 6 10 5 11 3 12
REMARK SMILES IDX 4 13 2 14 1 15
REMARK H PARENT
REMARK Flexibility Score: inf
ROOT
ATOM      1  C   UNL     1      31.870  11.468  29.076  1.00  0.00    -0.077 C 
ATOM      2  C   UNL     1      32.764  11.512  30.091  1.00  0.00    -0.024 C 
ATOM      3  C   UNL     1      32.384  11.591  27.664  1.00  0.00     0.039 C 
ENDROOT
BRANCH   1   4
ATOM      4  C   UNL     1      30.375  11.358  29.301  1.00  0.00     0.034 C 
BRANCH   4   5
ATOM      5  C   UNL     1      29.798  10.168  28.528  1.00  0.00     0.032 C 
BRANCH   5   6
ATOM      6  C   UNL     1      29.886   8.896  29.336  1.00  0.00    -0.028 C 
ATOM      7  C   UNL     1      30.723   6.653  29.897  1.00  0.00     0.039 C 
ATOM      8  C   UNL     1      30.717   7.880  29.022  1.00  0.00    -0.080 C 
ATOM      9  C   UNL     1      31.632   7.949  27.822  1.00  0.00     0.039 C 
ENDBRANCH   5   6
ENDBRANCH   4   5
ENDBRANCH   1   4
BRANCH   2  10
ATOM     10  C   UNL     1      32.404  11.402  31.552  1.00  0.00     0.055 C 
BRANCH  10  11
ATOM     11  C   UNL     1      32.609   9.997  32.059  1.00  0.00    -0.020 C 
ATOM     12  C   UNL     1      31.632   9.251  32.612  1.00  0.00    -0.055 C 
ATOM     13  C   UNL     1      30.227   9.783  32.785  1.00  0.00     0.044 C 
BRANCH  12  14
ATOM     14  C   UNL     1      31.991   7.901  33.119  1.00  0.00    -0.005 C 
ATOM     15  C   UNL     1      31.463   7.362  34.218  1.00  0.00     0.009 C 
ENDBRANCH  12  14
ENDBRANCH  10  11
ENDBRANCH   2  10
TORSDOF 6
ENDMDL
MODEL 3
REMARK VINA RESULT:    -4.373      2.733      5.714
REMARK INTER + INTRA:          -8.009
REMARK INTER:                  -6.299
REMARK INTRA:                  -1.711
REMARK UNBOUND:                -2.103
REMARK SMILES C=CC(C)=CCC=C(C)CCC=C(C)C
REMARK SMILES IDX 8 1 7 2 9 3 10 4 11 5 12 6 14 7 13 8 15 9 6 10 5 11 3 12
REMARK SMILES IDX 4 13 2 14 1 15
REMARK H PARENT
REMARK Flexibility Score: inf
ROOT
ATOM      1  C   UNL     1      31.538  12.043  28.248  1.00  0.00    -0.077 C 
ATOM      2  C   UNL     1      31.655  12.167  29.591  1.00  0.00    -0.024 C 
ATOM      3  C   UNL     1      30.480  12.853  27.544  1.00  0.00     0.039 C 
ENDROOT
BRANCH   1   4
ATOM      4  C   UNL     1      32.386  11.086  27.434  1.00  0.00     0.034 C 
BRANCH   4   5
ATOM      5  C   UNL     1      31.528   9.949  26.870  1.00  0.00     0.032 C 
BRANCH   5   6
ATOM      6  C   UNL     1      31.643   8.704  27.716  1.00  0.00    -0.028 C 
ATOM      7  C   UNL     1      30.891   7.036  29.359  1.00  0.00     0.039 C 
ATOM      8  C   UNL     1      30.671   8.293  28.558  1.00  0.00    -0.080 C 
ATOM      9  C   UNL     1      29.381   9.064  28.712  1.00  0.00     0.039 C 
ENDBRANCH   5   6
ENDBRANCH   4   5
ENDBRANCH   1   4
BRANCH   2  10
ATOM     10  C   UNL     1      32.663  11.426  30.433  1.00  0.00     0.055 C 
BRANCH  10  11
ATOM     11  C   UNL     1      32.035  10.241  31.119  1.00  0.00    -0.020 C 
ATOM     12  C   UNL     1      32.229   9.938  32.418  1.00  0.00    -0.055 C 
ATOM     13  C   UNL     1      33.125  10.774  33.304  1.00  0.00     0.044 C 
BRANCH  12  14
ATOM     14  C   UNL     1      31.589   8.706  32.948  1.00  0.00    -0.005 C 
ATOM     15  C   UNL     1      32.198   7.521  32.998  1.00  0.00     0.009 C 
ENDBRANCH  12  14
ENDBRANCH  10  11
ENDBRANCH   2  10
TORSDOF 6
ENDMDL
MODEL 4
REMARK VINA RESULT:    -4.341      2.417      6.320
REMARK INTER + INTRA:          -7.967
REMARK INTER:                  -7.246
REMARK INTRA:                  -0.721
REMARK UNBOUND:                -2.103
REMARK SMILES C=CC(C)=CCC=C(C)CCC=C(C)C
REMARK SMILES IDX 8 1 7 2 9 3 10 4 11 5 12 6 14 7 13 8 15 9 6 10 5 11 3 12
REMARK SMILES IDX 4 13 2 14 1 15
REMARK H PARENT
REMARK Flexibility Score: inf
ROOT
ATOM      1  C   UNL     1      32.611  10.404  32.552  1.00  0.00    -0.077 C 
ATOM      2  C   UNL     1      32.420  11.075  31.392  1.00  0.00    -0.024 C 
ATOM      3  C   UNL     1      32.954  11.194  33.789  1.00  0.00     0.039 C 
ENDROOT
BRANCH   1   4
ATOM      4  C   UNL     1      32.550   8.891  32.646  1.00  0.00     0.034 C 
BRANCH   4   5
ATOM      5  C   UNL     1      31.172   8.435  33.139  1.00  0.00     0.032 C 
BRANCH   5   6
ATOM      6  C   UNL     1      31.297   7.387  34.218  1.00  0.00    -0.028 C 
ATOM      7  C   UNL     1      31.329   6.547  36.529  1.00  0.00     0.039 C 
ATOM      8  C   UNL     1      31.186   7.669  35.534  1.00  0.00    -0.080 C 
ATOM      9  C   UNL     1      30.926   9.074  36.022  1.00  0.00     0.039 C 
ENDBRANCH   5   6
ENDBRANCH   4   5
ENDBRANCH   1   4
BRANCH   2  10
ATOM     10  C   UNL     1      32.071  10.426  30.076  1.00  0.00     0.055 C 
BRANCH  10  11
ATOM     11  C   UNL     1      32.220  11.396  28.933  1.00  0.00    -0.020 C 
ATOM     12  C   UNL     1      32.205  11.033  27.635  1.00  0.00    -0.055 C 
ATOM     13  C   UNL     1      32.050   9.588  27.217  1.00  0.00     0.044 C 
BRANCH  12  14
ATOM     14  C   UNL     1      32.417  12.091  26.614  1.00  0.00    -0.005 C 
ATOM     15  C   UNL     1      31.902  12.045  25.385  1.00  0.00     0.009 C 
ENDBRANCH  12  14
ENDBRANCH  10  11
ENDBRANCH   2  10
TORSDOF 6
ENDMDL
MODEL 5
REMARK VINA RESULT:    -4.300      3.097      7.256
REMARK INTER + INTRA:          -7.911
REMARK INTER:                  -5.874
REMARK INTRA:                  -2.036
REMARK UNBOUND:                -2.103
REMARK SMILES C=CC(C)=CCC=C(C)CCC=C(C)C
REMARK SMILES IDX 8 1 7 2 9 3 10 4 11 5 12 6 14 7 13 8 15 9 6 10 5 11 3 12
REMARK SMILES IDX 4 13 2 14 1 15
REMARK H PARENT
REMARK Flexibility Score: inf
ROOT
ATOM      1  C   UNL     1      31.844   9.456  32.145  1.00  0.00    -0.077 C 
ATOM      2  C   UNL     1      32.690  10.497  31.965  1.00  0.00    -0.024 C 
ATOM      3  C   UNL     1      32.297   8.306  33.006  1.00  0.00     0.039 C 
ENDROOT
BRANCH   1   4
ATOM      4  C   UNL     1      30.488   9.374  31.472  1.00  0.00     0.034 C 
BRANCH   4   5
ATOM      5  C   UNL     1      30.471   8.258  30.421  1.00  0.00     0.032 C 
BRANCH   5   6
ATOM      6  C   UNL     1      29.787   8.710  29.154  1.00  0.00    -0.028 C 
ATOM      7  C   UNL     1      29.559   9.041  26.728  1.00  0.00     0.039 C 
ATOM      8  C   UNL     1      30.328   8.551  27.928  1.00  0.00    -0.080 C 
ATOM      9  C   UNL     1      31.677   7.898  27.737  1.00  0.00     0.039 C 
ENDBRANCH   5   6
ENDBRANCH   4   5
ENDBRANCH   1   4
BRANCH   2  10
ATOM     10  C   UNL     1      32.380  11.717  31.134  1.00  0.00     0.055 C 
BRANCH  10  11
ATOM     11  C   UNL     1      32.795  11.521  29.699  1.00  0.00    -0.020 C 
ATOM     12  C   UNL     1      31.989  11.758  28.646  1.00  0.00    -0.055 C 
ATOM     13  C   UNL     1      30.565  12.236  28.828  1.00  0.00     0.044 C 
BRANCH  12  14
ATOM     14  C   UNL     1      32.515  11.469  27.287  1.00  0.00    -0.005 C 
ATOM     15  C   UNL     1      32.019  12.007  26.173  1.00  0.00     0.009 C 
ENDBRANCH  12  14
ENDBRANCH  10  11
ENDBRANCH   2  10
TORSDOF 6
ENDMDL
MODEL 6
REMARK VINA RESULT:    -4.255      2.708      6.282
REMARK INTER + INTRA:          -7.850
REMARK INTER:                  -5.678
REMARK INTRA:                  -2.172
REMARK UNBOUND:                -2.103
REMARK SMILES C=CC(C)=CCC=C(C)CCC=C(C)C
REMARK SMILES IDX 8 1 7 2 9 3 10 4 11 5 12 6 14 7 13 8 15 9 6 10 5 11 3 12
REMARK SMILES IDX 4 13 2 14 1 15
REMARK H PARENT
REMARK Flexibility Score: inf
ROOT
ATOM      1  C   UNL     1      32.625  10.773  32.991  1.00  0.00    -0.077 C 
ATOM      2  C   UNL     1      32.807  11.802  32.131  1.00  0.00    -0.024 C 
ATOM      3  C   UNL     1      32.354  11.089  34.439  1.00  0.00     0.039 C 
ENDROOT
BRANCH   1   4
ATOM      4  C   UNL     1      32.737   9.321  32.570  1.00  0.00     0.034 C 
BRANCH   4   5
ATOM      5  C   UNL     1      31.363   8.643  32.592  1.00  0.00     0.032 C 
BRANCH   5   6
ATOM      6  C   UNL     1      30.809   8.482  31.197  1.00  0.00    -0.028 C 
ATOM      7  C   UNL     1      29.372   9.036  29.280  1.00  0.00     0.039 C 
ATOM      8  C   UNL     1      29.855   9.288  30.685  1.00  0.00    -0.080 C 
ATOM      9  C   UNL     1      29.268  10.426  31.487  1.00  0.00     0.039 C 
ENDBRANCH   5   6
ENDBRANCH   4   5
ENDBRANCH   1   4
BRANCH   2  10
ATOM     10  C   UNL     1      33.084  11.646  30.657  1.00  0.00     0.055 C 
BRANCH  10  11
ATOM     11  C   UNL     1      32.007  12.295  29.827  1.00  0.00    -0.020 C 
ATOM     12  C   UNL     1      31.671  11.891  28.586  1.00  0.00    -0.055 C 
ATOM     13  C   UNL     1      32.378  10.739  27.908  1.00  0.00     0.044 C 
BRANCH  12  14
ATOM     14  C   UNL     1      30.625  12.660  27.863  1.00  0.00    -0.005 C 
ATOM     15  C   UNL     1      29.325  12.589  28.151  1.00  0.00     0.009 C 
ENDBRANCH  12  14
ENDBRANCH  10  11
ENDBRANCH   2  10
TORSDOF 6
ENDMDL
MODEL 7
REMARK VINA RESULT:    -4.188      1.189      2.153
REMARK INTER + INTRA:          -7.760
REMARK INTER:                  -5.650
REMARK INTRA:                  -2.110
REMARK UNBOUND:                -2.103
REMARK SMILES C=CC(C)=CCC=C(C)CCC=C(C)C
REMARK SMILES IDX 8 1 7 2 9 3 10 4 11 5 12 6 14 7 13 8 15 9 6 10 5 11 3 12
REMARK SMILES IDX 4 13 2 14 1 15
REMARK H PARENT
REMARK Flexibility Score: inf
ROOT
ATOM      1  C   UNL     1      31.007  10.039  31.195  1.00  0.00    -0.077 C 
ATOM      2  C   UNL     1      31.552   8.803  31.095  1.00  0.00    -0.024 C 
ATOM      3  C   UNL     1      31.693  11.182  30.492  1.00  0.00     0.039 C 
ENDROOT
BRANCH   1   4
ATOM      4  C   UNL     1      29.773  10.328  32.026  1.00  0.00     0.034 C 
BRANCH   4   5
ATOM      5  C   UNL     1      30.026  11.502  32.979  1.00  0.00     0.032 C 
BRANCH   5   6
ATOM      6  C   UNL     1      30.284  11.019  34.386  1.00  0.00    -0.028 C 
ATOM      7  C   UNL     1      31.667  10.383  36.317  1.00  0.00     0.039 C 
ATOM      8  C   UNL     1      31.523  10.874  34.900  1.00  0.00    -0.080 C 
ATOM      9  C   UNL     1      32.757  11.191  34.088  1.00  0.00     0.039 C 
ENDBRANCH   5   6
ENDBRANCH   4   5
ENDBRANCH   1   4
BRANCH   2  10
ATOM     10  C   UNL     1      30.983   7.564  31.739  1.00  0.00     0.055 C 
BRANCH  10  11
ATOM     11  C   UNL     1      31.591   7.326  33.097  1.00  0.00    -0.020 C 
ATOM     12  C   UNL     1      30.868   7.171  34.224  1.00  0.00    -0.055 C 
ATOM     13  C   UNL     1      29.357   7.242  34.215  1.00  0.00     0.044 C 
BRANCH  12  14
ATOM     14  C   UNL     1      31.603   6.998  35.504  1.00  0.00    -0.005 C 
ATOM     15  C   UNL     1      31.017   6.657  36.652  1.00  0.00     0.009 C 
ENDBRANCH  12  14
ENDBRANCH  10  11
ENDBRANCH   2  10
TORSDOF 6
ENDMDL
MODEL 8
REMARK VINA RESULT:    -4.186      1.039      4.414
REMARK INTER + INTRA:          -7.757
REMARK INTER:                  -5.864
REMARK INTRA:                  -1.893
REMARK UNBOUND:                -2.103
REMARK SMILES C=CC(C)=CCC=C(C)CCC=C(C)C
REMARK SMILES IDX 8 1 7 2 9 3 10 4 11 5 12 6 14 7 13 8 15 9 6 10 5 11 3 12
REMARK SMILES IDX 4 13 2 14 1 15
REMARK H PARENT
REMARK Flexibility Score: inf
ROOT
ATOM      1  C   UNL     1      30.579   6.642  34.926  1.00  0.00    -0.077 C 
ATOM      2  C   UNL     1      30.697   6.959  33.616  1.00  0.00    -0.024 C 
ATOM      3  C   UNL     1      29.329   5.935  35.382  1.00  0.00     0.039 C 
ENDROOT
BRANCH   1   4
ATOM      4  C   UNL     1      31.624   7.016  35.960  1.00  0.00     0.034 C 
BRANCH   4   5
ATOM      5  C   UNL     1      31.112   8.144  36.862  1.00  0.00     0.032 C 
BRANCH   5   6
ATOM      6  C   UNL     1      31.214   9.484  36.175  1.00  0.00    -0.028 C 
ATOM      7  C   UNL     1      30.353  11.496  35.054  1.00  0.00     0.039 C 
ATOM      8  C   UNL     1      30.138  10.166  35.730  1.00  0.00    -0.080 C 
ATOM      9  C   UNL     1      28.736   9.627  35.892  1.00  0.00     0.039 C 
ENDBRANCH   5   6
ENDBRANCH   4   5
ENDBRANCH   1   4
BRANCH   2  10
ATOM     10  C   UNL     1      31.885   7.663  33.010  1.00  0.00     0.055 C 
BRANCH  10  11
ATOM     11  C   UNL     1      31.450   8.747  32.057  1.00  0.00    -0.020 C 
ATOM     12  C   UNL     1      32.007   9.974  32.014  1.00  0.00    -0.055 C 
ATOM     13  C   UNL     1      33.125  10.373  32.951  1.00  0.00     0.044 C 
BRANCH  12  14
ATOM     14  C   UNL     1      31.440  10.961  31.059  1.00  0.00    -0.005 C 
ATOM     15  C   UNL     1      30.964  12.152  31.425  1.00  0.00     0.009 C 
ENDBRANCH  12  14
ENDBRANCH  10  11
ENDBRANCH   2  10
TORSDOF 6
ENDMDL
MODEL 9
REMARK VINA RESULT:    -4.127      1.810      3.180
REMARK INTER + INTRA:          -7.677
REMARK INTER:                  -5.573
REMARK INTRA:                  -2.103
REMARK UNBOUND:                -2.103
REMARK SMILES C=CC(C)=CCC=C(C)CCC=C(C)C
REMARK SMILES IDX 8 1 7 2 9 3 10 4 11 5 12 6 14 7 13 8 15 9 6 10 5 11 3 12
REMARK SMILES IDX 4 13 2 14 1 15
REMARK H PARENT
REMARK Flexibility Score: inf
ROOT
ATOM      1  C   UNL     1      30.170   9.746  29.403  1.00  0.00    -0.077 C 
ATOM      2  C   UNL     1      29.596   8.722  30.077  1.00  0.00    -0.024 C 
ATOM      3  C   UNL     1      29.279  10.676  28.619  1.00  0.00     0.039 C 
ENDROOT
BRANCH   1   4
ATOM      4  C   UNL     1      31.670   9.962  29.357  1.00  0.00     0.034 C 
BRANCH   4   5
ATOM      5  C   UNL     1      32.041  11.314  29.976  1.00  0.00     0.032 C 
BRANCH   5   6
ATOM      6  C   UNL     1      32.718  11.137  31.313  1.00  0.00    -0.028 C 
ATOM      7  C   UNL     1      32.849  11.087  33.768  1.00  0.00     0.039 C 
ATOM      8  C   UNL     1      32.075  11.286  32.490  1.00  0.00    -0.080 C 
ATOM      9  C   UNL     1      30.609  11.646  32.550  1.00  0.00     0.039 C 
ENDBRANCH   5   6
ENDBRANCH   4   5
ENDBRANCH   1   4
BRANCH   2  10
ATOM     10  C   UNL     1      30.353   7.713  30.903  1.00  0.00     0.055 C 
BRANCH  10  11
ATOM     11  C   UNL     1      30.176   7.972  32.378  1.00  0.00    -0.020 C 
ATOM     12  C   UNL     1      31.155   7.811  33.289  1.00  0.00    -0.055 C 
ATOM     13  C   UNL     1      32.535   7.331  32.897  1.00  0.00     0.044 C 
BRANCH  12  14
ATOM     14  C   UNL     1      30.823   8.051  34.717  1.00  0.00    -0.005 C 
ATOM     15  C   UNL     1      31.254   7.280  35.715  1.00  0.00     0.009 C 
ENDBRANCH  12  14
ENDBRANCH  10  11
ENDBRANCH   2  10
TORSDOF 6
ENDMDL
