MODEL 1
REMARK VINA RESULT:    -3.625      0.000      0.000
REMARK INTER + INTRA:          -8.729
REMARK INTER:                  -6.592
REMARK INTRA:                  -2.138
REMARK UNBOUND:                -2.138
REMARK SMILES CCCCCC=CCC=CCCCCCCCC(=O)[O-]
REMARK SMILES IDX 11 1 12 2 13 3 14 4 15 5 16 6 17 7 18 8 19 9 20 10 10 11
REMARK SMILES IDX 9 12 8 13 7 14 6 15 5 16 4 17 3 18 2 19 1 20
REMARK H PARENT
REMARK Flexibility Score: inf
ROOT
ATOM      1  C   UNL     1     -44.610 -27.301  -0.229  1.00  0.00     0.027 C 
ENDROOT
BRANCH   1   2
ATOM      2  C   UNL     1     -43.622 -28.465  -0.064  1.00  0.00     0.004 C 
BRANCH   2   3
ATOM      3  C   UNL     1     -44.300 -29.832  -0.233  1.00  0.00     0.000 C 
BRANCH   3   4
ATOM      4  C   UNL     1     -45.745 -29.670  -0.729  1.00  0.00     0.000 C 
BRANCH   4   5
ATOM      5  C   UNL     1     -45.901 -30.002  -2.222  1.00  0.00     0.000 C 
BRANCH   5   6
ATOM      6  C   UNL     1     -46.529 -28.853  -3.024  1.00  0.00     0.006 C 
BRANCH   6   7
ATOM      7  C   UNL     1     -45.975 -28.812  -4.451  1.00  0.00     0.053 C 
BRANCH   7   8
ATOM      8  C   UNL     1     -45.287 -27.510  -4.710  1.00  0.00     0.041 C 
ATOM      9  O   UNL     1     -44.999 -26.745  -3.752  1.00  0.00    -0.550 OA
ATOM     10  O   UNL     1     -45.010 -27.116  -6.014  1.00  0.00    -0.550 OA
ENDBRANCH   7   8
ENDBRANCH   6   7
ENDBRANCH   5   6
ENDBRANCH   4   5
ENDBRANCH   3   4
ENDBRANCH   2   3
ENDBRANCH   1   2
BRANCH   1  11
ATOM     11  C   UNL     1     -44.663 -26.425   0.999  1.00  0.00    -0.031 C 
ATOM     12  C   UNL     1     -45.700 -26.372   1.857  1.00  0.00    -0.027 C 
BRANCH  12  13
ATOM     13  C   UNL     1     -46.993 -27.129   1.683  1.00  0.00     0.054 C 
BRANCH  13  14
ATOM     14  C   UNL     1     -47.124 -28.223   2.705  1.00  0.00    -0.027 C 
ATOM     15  C   UNL     1     -46.064 -28.942   3.103  1.00  0.00    -0.031 C 
BRANCH  15  16
ATOM     16  C   UNL     1     -46.194 -30.060   4.101  1.00  0.00     0.027 C 
BRANCH  16  17
ATOM     17  C   UNL     1     -46.456 -29.495   5.504  1.00  0.00     0.004 C 
BRANCH  17  18
ATOM     18  C   UNL     1     -45.208 -28.854   6.136  1.00  0.00     0.000 C 
BRANCH  18  19
ATOM     19  C   UNL     1     -45.452 -27.490   6.808  1.00  0.00    -0.003 C 
ATOM     20  C   UNL     1     -46.145 -26.486   5.888  1.00  0.00     0.004 C 
ENDBRANCH  18  19
ENDBRANCH  17  18
ENDBRANCH  16  17
ENDBRANCH  15  16
ENDBRANCH  13  14
ENDBRANCH  12  13
ENDBRANCH   1  11
TORSDOF 14
ENDMDL
MODEL 2
REMARK VINA RESULT:    -3.576      1.958      3.654
REMARK INTER + INTRA:          -8.640
REMARK INTER:                  -7.650
REMARK INTRA:                  -0.990
REMARK UNBOUND:                -2.138
REMARK SMILES CCCCCC=CCC=CCCCCCCCC(=O)[O-]
REMARK SMILES IDX 11 1 12 2 13 3 14 4 15 5 16 6 17 7 18 8 19 9 20 10 10 11
REMARK SMILES IDX 9 12 8 13 7 14 6 15 5 16 4 17 3 18 2 19 1 20
REMARK H PARENT
REMARK Flexibility Score: inf
ROOT
ATOM      1  C   UNL     1     -45.296 -28.144  -2.275  1.00  0.00     0.027 C 
ENDROOT
BRANCH   1   2
ATOM      2  C   UNL     1     -46.700 -28.418  -2.831  1.00  0.00     0.004 C 
BRANCH   2   3
ATOM      3  C   UNL     1     -46.679 -28.727  -4.335  1.00  0.00     0.000 C 
BRANCH   3   4
ATOM      4  C   UNL     1     -46.364 -27.463  -5.151  1.00  0.00     0.000 C 
BRANCH   4   5
ATOM      5  C   UNL     1     -46.791 -27.583  -6.622  1.00  0.00     0.000 C 
BRANCH   5   6
ATOM      6  C   UNL     1     -45.619 -27.403  -7.598  1.00  0.00     0.006 C 
BRANCH   6   7
ATOM      7  C   UNL     1     -44.283 -27.702  -6.911  1.00  0.00     0.053 C 
BRANCH   7   8
ATOM      8  C   UNL     1     -43.251 -28.095  -7.921  1.00  0.00     0.041 C 
ATOM      9  O   UNL     1     -43.556 -28.176  -9.139  1.00  0.00    -0.550 OA
ATOM     10  O   UNL     1     -41.965 -28.425  -7.509  1.00  0.00    -0.550 OA
ENDBRANCH   7   8
ENDBRANCH   6   7
ENDBRANCH   5   6
ENDBRANCH   4   5
ENDBRANCH   3   4
ENDBRANCH   2   3
ENDBRANCH   1   2
BRANCH   1  11
ATOM     11  C   UNL     1     -44.977 -29.020  -1.088  1.00  0.00    -0.031 C 
ATOM     12  C   UNL     1     -44.490 -28.572   0.085  1.00  0.00    -0.027 C 
BRANCH  12  13
ATOM     13  C   UNL     1     -44.127 -27.136   0.367  1.00  0.00     0.054 C 
BRANCH  13  14
ATOM     14  C   UNL     1     -45.168 -26.470   1.223  1.00  0.00    -0.027 C 
ATOM     15  C   UNL     1     -45.885 -27.161   2.121  1.00  0.00    -0.031 C 
BRANCH  15  16
ATOM     16  C   UNL     1     -46.950 -26.507   2.957  1.00  0.00     0.027 C 
BRANCH  16  17
ATOM     17  C   UNL     1     -46.810 -26.931   4.425  1.00  0.00     0.004 C 
BRANCH  17  18
ATOM     18  C   UNL     1     -46.335 -28.386   4.588  1.00  0.00     0.000 C 
BRANCH  18  19
ATOM     19  C   UNL     1     -45.423 -28.635   5.804  1.00  0.00    -0.003 C 
ATOM     20  C   UNL     1     -45.449 -27.491   6.816  1.00  0.00     0.004 C 
ENDBRANCH  18  19
ENDBRANCH  17  18
ENDBRANCH  16  17
ENDBRANCH  15  16
ENDBRANCH  13  14
ENDBRANCH  12  13
ENDBRANCH   1  11
TORSDOF 14
ENDMDL
MODEL 3
REMARK VINA RESULT:    -3.527      3.947      8.942
REMARK INTER + INTRA:          -8.551
REMARK INTER:                  -7.271
REMARK INTRA:                  -1.280
REMARK UNBOUND:                -2.138
REMARK SMILES CCCCCC=CCC=CCCCCCCCC(=O)[O-]
REMARK SMILES IDX 11 1 12 2 13 3 14 4 15 5 16 6 17 7 18 8 19 9 20 10 10 11
REMARK SMILES IDX 9 12 8 13 7 14 6 15 5 16 4 17 3 18 2 19 1 20
REMARK H PARENT
REMARK Flexibility Score: inf
ROOT
ATOM      1  C   UNL     1     -44.087 -27.134  -0.161  1.00  0.00     0.027 C 
ENDROOT
BRANCH   1   2
ATOM      2  C   UNL     1     -44.697 -26.473   1.083  1.00  0.00     0.004 C 
BRANCH   2   3
ATOM      3  C   UNL     1     -46.230 -26.572   1.101  1.00  0.00     0.000 C 
BRANCH   3   4
ATOM      4  C   UNL     1     -46.753 -26.716   2.539  1.00  0.00     0.000 C 
BRANCH   4   5
ATOM      5  C   UNL     1     -46.338 -28.044   3.191  1.00  0.00     0.000 C 
BRANCH   5   6
ATOM      6  C   UNL     1     -46.436 -28.009   4.724  1.00  0.00     0.006 C 
BRANCH   6   7
ATOM      7  C   UNL     1     -46.053 -26.628   5.266  1.00  0.00     0.053 C 
BRANCH   7   8
ATOM      8  C   UNL     1     -45.666 -26.720   6.708  1.00  0.00     0.041 C 
ATOM      9  O   UNL     1     -44.979 -27.692   7.119  1.00  0.00    -0.550 OA
ATOM     10  O   UNL     1     -46.109 -25.760   7.610  1.00  0.00    -0.550 OA
ENDBRANCH   7   8
ENDBRANCH   6   7
ENDBRANCH   5   6
ENDBRANCH   4   5
ENDBRANCH   3   4
ENDBRANCH   2   3
ENDBRANCH   1   2
BRANCH   1  11
ATOM     11  C   UNL     1     -43.816 -28.603   0.054  1.00  0.00    -0.031 C 
ATOM     12  C   UNL     1     -44.589 -29.600  -0.418  1.00  0.00    -0.027 C 
BRANCH  12  13
ATOM     13  C   UNL     1     -45.877 -29.399  -1.175  1.00  0.00     0.054 C 
BRANCH  13  14
ATOM     14  C   UNL     1     -45.668 -29.550  -2.656  1.00  0.00    -0.027 C 
ATOM     15  C   UNL     1     -45.871 -28.530  -3.501  1.00  0.00    -0.031 C 
BRANCH  15  16
ATOM     16  C   UNL     1     -45.694 -28.684  -4.987  1.00  0.00     0.027 C 
BRANCH  16  17
ATOM     17  C   UNL     1     -45.208 -27.367  -5.606  1.00  0.00     0.004 C 
BRANCH  17  18
ATOM     18  C   UNL     1     -45.632 -27.203  -7.077  1.00  0.00     0.000 C 
BRANCH  18  19
ATOM     19  C   UNL     1     -44.719 -27.910  -8.095  1.00  0.00    -0.003 C 
ATOM     20  C   UNL     1     -43.243 -27.874  -7.701  1.00  0.00     0.004 C 
ENDBRANCH  18  19
ENDBRANCH  17  18
ENDBRANCH  16  17
ENDBRANCH  15  16
ENDBRANCH  13  14
ENDBRANCH  12  13
ENDBRANCH   1  11
TORSDOF 14
ENDMDL
MODEL 4
REMARK VINA RESULT:    -3.445      1.981      3.321
REMARK INTER + INTRA:          -8.402
REMARK INTER:                  -7.614
REMARK INTRA:                  -0.788
REMARK UNBOUND:                -2.138
REMARK SMILES CCCCCC=CCC=CCCCCCCCC(=O)[O-]
REMARK SMILES IDX 11 1 12 2 13 3 14 4 15 5 16 6 17 7 18 8 19 9 20 10 10 11
REMARK SMILES IDX 9 12 8 13 7 14 6 15 5 16 4 17 3 18 2 19 1 20
REMARK H PARENT
REMARK Flexibility Score: inf
ROOT
ATOM      1  C   UNL     1     -44.945 -28.773  -1.365  1.00  0.00     0.027 C 
ENDROOT
BRANCH   1   2
ATOM      2  C   UNL     1     -45.332 -27.939  -2.594  1.00  0.00     0.004 C 
BRANCH   2   3
ATOM      3  C   UNL     1     -46.354 -28.659  -3.486  1.00  0.00     0.000 C 
BRANCH   3   4
ATOM      4  C   UNL     1     -45.844 -28.762  -4.932  1.00  0.00     0.000 C 
BRANCH   4   5
ATOM      5  C   UNL     1     -45.922 -27.425  -5.686  1.00  0.00     0.000 C 
BRANCH   5   6
ATOM      6  C   UNL     1     -44.990 -27.377  -6.907  1.00  0.00     0.006 C 
BRANCH   6   7
ATOM      7  C   UNL     1     -44.153 -28.656  -7.008  1.00  0.00     0.053 C 
BRANCH   7   8
ATOM      8  C   UNL     1     -43.106 -28.514  -8.067  1.00  0.00     0.041 C 
ATOM      9  O   UNL     1     -43.440 -28.380  -9.274  1.00  0.00    -0.550 OA
ATOM     10  O   UNL     1     -41.760 -28.581  -7.729  1.00  0.00    -0.550 OA
ENDBRANCH   7   8
ENDBRANCH   6   7
ENDBRANCH   5   6
ENDBRANCH   4   5
ENDBRANCH   3   4
ENDBRANCH   2   3
ENDBRANCH   1   2
BRANCH   1  11
ATOM     11  C   UNL     1     -43.842 -28.124  -0.565  1.00  0.00    -0.031 C 
ATOM     12  C   UNL     1     -44.035 -27.190   0.387  1.00  0.00    -0.027 C 
BRANCH  12  13
ATOM     13  C   UNL     1     -45.376 -26.605   0.750  1.00  0.00     0.054 C 
BRANCH  13  14
ATOM     14  C   UNL     1     -45.961 -27.291   1.953  1.00  0.00    -0.027 C 
ATOM     15  C   UNL     1     -46.290 -26.610   3.059  1.00  0.00    -0.031 C 
BRANCH  15  16
ATOM     16  C   UNL     1     -46.846 -27.295   4.277  1.00  0.00     0.027 C 
BRANCH  16  17
ATOM     17  C   UNL     1     -46.769 -26.365   5.495  1.00  0.00     0.004 C 
BRANCH  17  18
ATOM     18  C   UNL     1     -45.580 -26.682   6.419  1.00  0.00     0.000 C 
BRANCH  18  19
ATOM     19  C   UNL     1     -45.750 -27.947   7.280  1.00  0.00    -0.003 C 
ATOM     20  C   UNL     1     -44.946 -29.138   6.759  1.00  0.00     0.004 C 
ENDBRANCH  18  19
ENDBRANCH  17  18
ENDBRANCH  16  17
ENDBRANCH  15  16
ENDBRANCH  13  14
ENDBRANCH  12  13
ENDBRANCH   1  11
TORSDOF 14
ENDMDL
MODEL 5
REMARK VINA RESULT:    -3.386      4.032      9.133
REMARK INTER + INTRA:          -8.295
REMARK INTER:                  -7.134
REMARK INTRA:                  -1.161
REMARK UNBOUND:                -2.138
REMARK SMILES CCCCCC=CCC=CCCCCCCCC(=O)[O-]
REMARK SMILES IDX 11 1 12 2 13 3 14 4 15 5 16 6 17 7 18 8 19 9 20 10 10 11
REMARK SMILES IDX 9 12 8 13 7 14 6 15 5 16 4 17 3 18 2 19 1 20
REMARK H PARENT
REMARK Flexibility Score: inf
ROOT
ATOM      1  C   UNL     1     -44.142 -27.537   0.400  1.00  0.00     0.027 C 
ENDROOT
BRANCH   1   2
ATOM      2  C   UNL     1     -44.885 -26.388   1.097  1.00  0.00     0.004 C 
BRANCH   2   3
ATOM      3  C   UNL     1     -46.404 -26.615   1.131  1.00  0.00     0.000 C 
BRANCH   3   4
ATOM      4  C   UNL     1     -46.903 -26.768   2.576  1.00  0.00     0.000 C 
BRANCH   4   5
ATOM      5  C   UNL     1     -46.521 -28.122   3.196  1.00  0.00     0.000 C 
BRANCH   5   6
ATOM      6  C   UNL     1     -46.411 -28.063   4.727  1.00  0.00     0.006 C 
BRANCH   6   7
ATOM      7  C   UNL     1     -46.006 -26.662   5.195  1.00  0.00     0.053 C 
BRANCH   7   8
ATOM      8  C   UNL     1     -45.670 -26.673   6.653  1.00  0.00     0.041 C 
ATOM      9  O   UNL     1     -44.954 -27.591   7.131  1.00  0.00    -0.550 OA
ATOM     10  O   UNL     1     -46.192 -25.698   7.495  1.00  0.00    -0.550 OA
ENDBRANCH   7   8
ENDBRANCH   6   7
ENDBRANCH   5   6
ENDBRANCH   4   5
ENDBRANCH   3   4
ENDBRANCH   2   3
ENDBRANCH   1   2
BRANCH   1  11
ATOM     11  C   UNL     1     -43.688 -27.157  -0.988  1.00  0.00    -0.031 C 
ATOM     12  C   UNL     1     -44.355 -27.457  -2.120  1.00  0.00    -0.027 C 
BRANCH  12  13
ATOM     13  C   UNL     1     -45.620 -28.275  -2.174  1.00  0.00     0.054 C 
BRANCH  13  14
ATOM     14  C   UNL     1     -46.267 -28.187  -3.529  1.00  0.00    -0.027 C 
ATOM     15  C   UNL     1     -45.578 -27.799  -4.611  1.00  0.00    -0.031 C 
BRANCH  15  16
ATOM     16  C   UNL     1     -46.226 -27.678  -5.963  1.00  0.00     0.027 C 
BRANCH  16  17
ATOM     17  C   UNL     1     -45.235 -28.068  -7.067  1.00  0.00     0.004 C 
BRANCH  17  18
ATOM     18  C   UNL     1     -44.608 -29.456  -6.849  1.00  0.00     0.000 C 
BRANCH  18  19
ATOM     19  C   UNL     1     -43.206 -29.635  -7.459  1.00  0.00    -0.003 C 
ATOM     20  C   UNL     1     -42.505 -28.308  -7.748  1.00  0.00     0.004 C 
ENDBRANCH  18  19
ENDBRANCH  17  18
ENDBRANCH  16  17
ENDBRANCH  15  16
ENDBRANCH  13  14
ENDBRANCH  12  13
ENDBRANCH   1  11
TORSDOF 14
ENDMDL
MODEL 6
REMARK VINA RESULT:    -3.371      1.246      1.671
REMARK INTER + INTRA:          -8.267
REMARK INTER:                  -6.865
REMARK INTRA:                  -1.402
REMARK UNBOUND:                -2.138
REMARK SMILES CCCCCC=CCC=CCCCCCCCC(=O)[O-]
REMARK SMILES IDX 11 1 12 2 13 3 14 4 15 5 16 6 17 7 18 8 19 9 20 10 10 11
REMARK SMILES IDX 9 12 8 13 7 14 6 15 5 16 4 17 3 18 2 19 1 20
REMARK H PARENT
REMARK Flexibility Score: inf
ROOT
ATOM      1  C   UNL     1     -44.634 -28.045  -0.151  1.00  0.00     0.027 C 
ENDROOT
BRANCH   1   2
ATOM      2  C   UNL     1     -45.303 -27.887  -1.524  1.00  0.00     0.004 C 
BRANCH   2   3
ATOM      3  C   UNL     1     -46.734 -28.445  -1.542  1.00  0.00     0.000 C 
BRANCH   3   4
ATOM      4  C   UNL     1     -46.962 -29.330  -2.776  1.00  0.00     0.000 C 
BRANCH   4   5
ATOM      5  C   UNL     1     -45.682 -29.544  -3.599  1.00  0.00     0.000 C 
BRANCH   5   6
ATOM      6  C   UNL     1     -45.848 -29.140  -5.071  1.00  0.00     0.006 C 
BRANCH   6   7
ATOM      7  C   UNL     1     -45.456 -27.675  -5.286  1.00  0.00     0.053 C 
BRANCH   7   8
ATOM      8  C   UNL     1     -45.132 -27.425  -6.725  1.00  0.00     0.041 C 
ATOM      9  O   UNL     1     -46.048 -27.141  -7.540  1.00  0.00    -0.550 OA
ATOM     10  O   UNL     1     -43.824 -27.556  -7.177  1.00  0.00    -0.550 OA
ENDBRANCH   7   8
ENDBRANCH   6   7
ENDBRANCH   5   6
ENDBRANCH   4   5
ENDBRANCH   3   4
ENDBRANCH   2   3
ENDBRANCH   1   2
BRANCH   1  11
ATOM     11  C   UNL     1     -44.430 -26.717   0.535  1.00  0.00    -0.031 C 
ATOM     12  C   UNL     1     -45.253 -26.205   1.471  1.00  0.00    -0.027 C 
BRANCH  12  13
ATOM     13  C   UNL     1     -46.539 -26.850   1.923  1.00  0.00     0.054 C 
BRANCH  13  14
ATOM     14  C   UNL     1     -46.309 -27.750   3.105  1.00  0.00    -0.027 C 
ATOM     15  C   UNL     1     -46.245 -29.082   2.970  1.00  0.00    -0.031 C 
BRANCH  15  16
ATOM     16  C   UNL     1     -46.048 -29.990   4.153  1.00  0.00     0.027 C 
BRANCH  16  17
ATOM     17  C   UNL     1     -46.387 -29.253   5.454  1.00  0.00     0.004 C 
BRANCH  17  18
ATOM     18  C   UNL     1     -45.145 -28.933   6.305  1.00  0.00     0.000 C 
BRANCH  18  19
ATOM     19  C   UNL     1     -45.248 -27.642   7.139  1.00  0.00    -0.003 C 
ATOM     20  C   UNL     1     -45.732 -26.442   6.326  1.00  0.00     0.004 C 
ENDBRANCH  18  19
ENDBRANCH  17  18
ENDBRANCH  16  17
ENDBRANCH  15  16
ENDBRANCH  13  14
ENDBRANCH  12  13
ENDBRANCH   1  11
TORSDOF 14
ENDMDL
MODEL 7
REMARK VINA RESULT:    -3.361      3.860      9.339
REMARK INTER + INTRA:          -8.250
REMARK INTER:                  -7.206
REMARK INTRA:                  -1.043
REMARK UNBOUND:                -2.138
REMARK SMILES CCCCCC=CCC=CCCCCCCCC(=O)[O-]
REMARK SMILES IDX 11 1 12 2 13 3 14 4 15 5 16 6 17 7 18 8 19 9 20 10 10 11
REMARK SMILES IDX 9 12 8 13 7 14 6 15 5 16 4 17 3 18 2 19 1 20
REMARK H PARENT
REMARK Flexibility Score: inf
ROOT
ATOM      1  C   UNL     1     -44.512 -28.028  -1.437  1.00  0.00     0.027 C 
ENDROOT
BRANCH   1   2
ATOM      2  C   UNL     1     -44.126 -27.459  -0.064  1.00  0.00     0.004 C 
BRANCH   2   3
ATOM      3  C   UNL     1     -45.236 -27.657   0.980  1.00  0.00     0.000 C 
BRANCH   3   4
ATOM      4  C   UNL     1     -45.667 -26.312   1.584  1.00  0.00     0.000 C 
BRANCH   4   5
ATOM      5  C   UNL     1     -46.805 -26.457   2.606  1.00  0.00     0.000 C 
BRANCH   5   6
ATOM      6  C   UNL     1     -46.405 -27.306   3.823  1.00  0.00     0.006 C 
BRANCH   6   7
ATOM      7  C   UNL     1     -46.592 -26.522   5.125  1.00  0.00     0.053 C 
BRANCH   7   8
ATOM      8  C   UNL     1     -45.703 -27.067   6.197  1.00  0.00     0.041 C 
ATOM      9  O   UNL     1     -45.292 -26.317   7.121  1.00  0.00    -0.550 OA
ATOM     10  O   UNL     1     -45.285 -28.391   6.148  1.00  0.00    -0.550 OA
ENDBRANCH   7   8
ENDBRANCH   6   7
ENDBRANCH   5   6
ENDBRANCH   4   5
ENDBRANCH   3   4
ENDBRANCH   2   3
ENDBRANCH   1   2
BRANCH   1  11
ATOM     11  C   UNL     1     -45.988 -27.881  -1.716  1.00  0.00    -0.031 C 
ATOM     12  C   UNL     1     -46.665 -28.585  -2.644  1.00  0.00    -0.027 C 
BRANCH  12  13
ATOM     13  C   UNL     1     -46.038 -29.578  -3.589  1.00  0.00     0.054 C 
BRANCH  13  14
ATOM     14  C   UNL     1     -45.728 -28.945  -4.917  1.00  0.00    -0.027 C 
ATOM     15  C   UNL     1     -46.196 -27.732  -5.241  1.00  0.00    -0.031 C 
BRANCH  15  16
ATOM     16  C   UNL     1     -45.917 -27.106  -6.581  1.00  0.00     0.027 C 
BRANCH  16  17
ATOM     17  C   UNL     1     -46.124 -28.132  -7.702  1.00  0.00     0.004 C 
BRANCH  17  18
ATOM     18  C   UNL     1     -44.810 -28.544  -8.390  1.00  0.00     0.000 C 
BRANCH  18  19
ATOM     19  C   UNL     1     -43.551 -27.838  -7.853  1.00  0.00    -0.003 C 
ATOM     20  C   UNL     1     -42.278 -28.663  -8.038  1.00  0.00     0.004 C 
ENDBRANCH  18  19
ENDBRANCH  17  18
ENDBRANCH  16  17
ENDBRANCH  15  16
ENDBRANCH  13  14
ENDBRANCH  12  13
ENDBRANCH   1  11
TORSDOF 14
ENDMDL
MODEL 8
REMARK VINA RESULT:    -2.885      2.923      8.842
REMARK INTER + INTRA:          -7.383
REMARK INTER:                  -6.196
REMARK INTRA:                  -1.187
REMARK UNBOUND:                -2.138
REMARK SMILES CCCCCC=CCC=CCCCCCCCC(=O)[O-]
REMARK SMILES IDX 11 1 12 2 13 3 14 4 15 5 16 6 17 7 18 8 19 9 20 10 10 11
REMARK SMILES IDX 9 12 8 13 7 14 6 15 5 16 4 17 3 18 2 19 1 20
REMARK H PARENT
REMARK Flexibility Score: inf
ROOT
ATOM      1  C   UNL     1     -45.259 -27.927  -2.260  1.00  0.00     0.027 C 
ENDROOT
BRANCH   1   2
ATOM      2  C   UNL     1     -44.544 -28.274  -0.946  1.00  0.00     0.004 C 
BRANCH   2   3
ATOM      3  C   UNL     1     -45.139 -29.520  -0.273  1.00  0.00     0.000 C 
BRANCH   3   4
ATOM      4  C   UNL     1     -45.195 -29.345   1.252  1.00  0.00     0.000 C 
BRANCH   4   5
ATOM      5  C   UNL     1     -46.530 -28.754   1.733  1.00  0.00     0.000 C 
BRANCH   5   6
ATOM      6  C   UNL     1     -46.387 -27.938   3.027  1.00  0.00     0.006 C 
BRANCH   6   7
ATOM      7  C   UNL     1     -46.819 -26.485   2.810  1.00  0.00     0.053 C 
BRANCH   7   8
ATOM      8  C   UNL     1     -46.336 -25.987   1.485  1.00  0.00     0.041 C 
ATOM      9  O   UNL     1     -47.123 -25.930   0.504  1.00  0.00    -0.550 OA
ATOM     10  O   UNL     1     -45.001 -25.634   1.318  1.00  0.00    -0.550 OA
ENDBRANCH   7   8
ENDBRANCH   6   7
ENDBRANCH   5   6
ENDBRANCH   4   5
ENDBRANCH   3   4
ENDBRANCH   2   3
ENDBRANCH   1   2
BRANCH   1  11
ATOM     11  C   UNL     1     -46.637 -28.538  -2.333  1.00  0.00    -0.031 C 
ATOM     12  C   UNL     1     -47.038 -29.410  -3.278  1.00  0.00    -0.027 C 
BRANCH  12  13
ATOM     13  C   UNL     1     -46.192 -29.856  -4.444  1.00  0.00     0.054 C 
BRANCH  13  14
ATOM     14  C   UNL     1     -46.327 -28.911  -5.606  1.00  0.00    -0.027 C 
ATOM     15  C   UNL     1     -45.308 -28.135  -6.001  1.00  0.00    -0.031 C 
BRANCH  15  16
ATOM     16  C   UNL     1     -45.447 -27.164  -7.142  1.00  0.00     0.027 C 
BRANCH  16  17
ATOM     17  C   UNL     1     -44.898 -27.780  -8.436  1.00  0.00     0.004 C 
BRANCH  17  18
ATOM     18  C   UNL     1     -43.394 -28.099  -8.358  1.00  0.00     0.000 C 
BRANCH  18  19
ATOM     19  C   UNL     1     -43.023 -29.551  -8.713  1.00  0.00    -0.003 C 
ATOM     20  C   UNL     1     -41.601 -29.689  -9.255  1.00  0.00     0.004 C 
ENDBRANCH  18  19
ENDBRANCH  17  18
ENDBRANCH  16  17
ENDBRANCH  15  16
ENDBRANCH  13  14
ENDBRANCH  12  13
ENDBRANCH   1  11
TORSDOF 14
ENDMDL
MODEL 9
REMARK VINA RESULT:    -2.861      1.447      2.928
REMARK INTER + INTRA:          -7.341
REMARK INTER:                  -6.417
REMARK INTRA:                  -0.924
REMARK UNBOUND:                -2.138
REMARK SMILES CCCCCC=CCC=CCCCCCCCC(=O)[O-]
REMARK SMILES IDX 11 1 12 2 13 3 14 4 15 5 16 6 17 7 18 8 19 9 20 10 10 11
REMARK SMILES IDX 9 12 8 13 7 14 6 15 5 16 4 17 3 18 2 19 1 20
REMARK H PARENT
REMARK Flexibility Score: inf
ROOT
ATOM      1  C   UNL     1     -43.112 -30.124  -1.155  1.00  0.00     0.027 C 
ENDROOT
BRANCH   1   2
ATOM      2  C   UNL     1     -44.607 -29.979  -0.837  1.00  0.00     0.004 C 
BRANCH   2   3
ATOM      3  C   UNL     1     -45.468 -29.923  -2.107  1.00  0.00     0.000 C 
BRANCH   3   4
ATOM      4  C   UNL     1     -46.164 -28.560  -2.239  1.00  0.00     0.000 C 
BRANCH   4   5
ATOM      5  C   UNL     1     -46.858 -28.376  -3.599  1.00  0.00     0.000 C 
BRANCH   5   6
ATOM      6  C   UNL     1     -45.967 -28.788  -4.780  1.00  0.00     0.006 C 
BRANCH   6   7
ATOM      7  C   UNL     1     -46.611 -28.399  -6.115  1.00  0.00     0.053 C 
BRANCH   7   8
ATOM      8  C   UNL     1     -45.573 -27.914  -7.076  1.00  0.00     0.041 C 
ATOM      9  O   UNL     1     -44.350 -28.046  -6.807  1.00  0.00    -0.550 OA
ATOM     10  O   UNL     1     -45.955 -27.266  -8.245  1.00  0.00    -0.550 OA
ENDBRANCH   7   8
ENDBRANCH   6   7
ENDBRANCH   5   6
ENDBRANCH   4   5
ENDBRANCH   3   4
ENDBRANCH   2   3
ENDBRANCH   1   2
BRANCH   1  11
ATOM     11  C   UNL     1     -42.248 -29.383  -0.164  1.00  0.00    -0.031 C 
ATOM     12  C   UNL     1     -42.353 -28.068   0.108  1.00  0.00    -0.027 C 
BRANCH  12  13
ATOM     13  C   UNL     1     -43.303 -27.125  -0.585  1.00  0.00     0.054 C 
BRANCH  13  14
ATOM     14  C   UNL     1     -44.261 -26.501   0.393  1.00  0.00    -0.027 C 
ATOM     15  C   UNL     1     -45.163 -27.237   1.057  1.00  0.00    -0.031 C 
BRANCH  15  16
ATOM     16  C   UNL     1     -46.145 -26.616   2.012  1.00  0.00     0.027 C 
BRANCH  16  17
ATOM     17  C   UNL     1     -46.352 -27.525   3.231  1.00  0.00     0.004 C 
BRANCH  17  18
ATOM     18  C   UNL     1     -46.246 -26.770   4.568  1.00  0.00     0.000 C 
BRANCH  18  19
ATOM     19  C   UNL     1     -45.773 -27.626   5.757  1.00  0.00    -0.003 C 
ATOM     20  C   UNL     1     -45.316 -26.790   6.952  1.00  0.00     0.004 C 
ENDBRANCH  18  19
ENDBRANCH  17  18
ENDBRANCH  16  17
ENDBRANCH  15  16
ENDBRANCH  13  14
ENDBRANCH  12  13
ENDBRANCH   1  11
TORSDOF 14
ENDMDL
