MODEL 1
REMARK VINA RESULT:     4.595      0.000      0.000
REMARK INTER + INTRA:           5.083
REMARK INTER:                   4.998
REMARK INTRA:                   0.085
REMARK UNBOUND:                 0.085
REMARK SMILES C[C@H]1[C@H]2C3=CC[C@@H]4[C@@]5(C)CC[C@H](O)C(C)(C)[C@H]5CC[C@]4(C)[C@@]3(C)CC[C@@]2(C(=O)[O-])CC[C@@H]1C
REMARK SMILES IDX 26 1 30 2 25 3 3 4 31 5 24 6 4 7 2 8 32 9 22 10 5 11 1 12
REMARK SMILES IDX 33 13 23 14 20 15 6 16 7 17 19 18 21 19 8 20 18 21 17 22
REMARK SMILES IDX 10 23 9 24 14 25 11 26 12 27 15 28 16 29 27 30 28 31 29 32
REMARK SMILES IDX 13 33
REMARK H PARENT 13 34
REMARK Flexibility Score: inf
ROOT
ATOM      1  C   UNL     1      75.101  40.665  19.270  1.00  0.00     0.017 C 
ATOM      2  C   UNL     1      75.149  42.056  19.957  1.00  0.00     0.014 C 
ATOM      3  C   UNL     1      73.889  40.677  18.263  1.00  0.00     0.014 C 
ATOM      4  C   UNL     1      74.909  39.528  20.346  1.00  0.00     0.030 C 
ATOM      5  C   UNL     1      76.186  42.125  21.077  1.00  0.00     0.004 C 
ATOM      6  C   UNL     1      73.302  39.276  17.955  1.00  0.00     0.013 C 
ATOM      7  C   UNL     1      73.417  39.177  20.443  1.00  0.00    -0.063 C 
ATOM      8  C   UNL     1      75.727  39.698  21.680  1.00  0.00    -0.003 C 
ATOM      9  C   UNL     1      75.829  41.158  22.214  1.00  0.00    -0.011 C 
ATOM     10  C   UNL     1      72.847  38.429  19.229  1.00  0.00    -0.006 C 
ATOM     11  C   UNL     1      72.634  39.957  21.197  1.00  0.00    -0.027 C 
ATOM     12  C   UNL     1      75.261  38.704  22.762  1.00  0.00     0.008 C 
ATOM     13  C   UNL     1      76.882  41.283  23.329  1.00  0.00     0.008 C 
ATOM     14  C   UNL     1      73.555  37.026  19.172  1.00  0.00     0.017 C 
ATOM     15  C   UNL     1      71.243  38.196  19.300  1.00  0.00    -0.020 C 
ATOM     16  C   UNL     1      71.156  40.053  21.081  1.00  0.00     0.032 C 
ATOM     17  C   UNL     1      70.497  39.507  19.768  1.00  0.00     0.006 C 
ATOM     18  C   UNL     1      70.870  37.099  20.344  1.00  0.00     0.008 C 
ATOM     19  C   UNL     1      70.780  37.723  17.875  1.00  0.00     0.012 C 
ATOM     20  C   UNL     1      68.901  39.395  19.995  1.00  0.00    -0.025 C 
ATOM     21  C   UNL     1      69.357  36.907  20.561  1.00  0.00     0.005 C 
ATOM     22  C   UNL     1      68.559  38.186  20.964  1.00  0.00     0.003 C 
ATOM     23  C   UNL     1      68.107  39.222  18.660  1.00  0.00     0.010 C 
ATOM     24  C   UNL     1      68.443  40.767  20.602  1.00  0.00     0.012 C 
ATOM     25  C   UNL     1      66.998  37.881  21.129  1.00  0.00    -0.006 C 
ATOM     26  C   UNL     1      66.594  39.012  18.839  1.00  0.00     0.033 C 
ATOM     27  C   UNL     1      66.292  37.802  19.739  1.00  0.00     0.120 C 
ATOM     28  C   UNL     1      66.307  38.942  22.039  1.00  0.00     0.014 C 
ATOM     29  C   UNL     1      66.774  36.520  21.852  1.00  0.00     0.014 C 
ENDROOT
BRANCH   1  30
ATOM     30  C   UNL     1      76.393  40.477  18.475  1.00  0.00     0.048 C 
ATOM     31  O   UNL     1      77.194  41.431  18.287  1.00  0.00    -0.550 OA
ATOM     32  O   UNL     1      76.669  39.252  17.875  1.00  0.00    -0.550 OA
ENDBRANCH   1  30
BRANCH  27  33
ATOM     33  O   UNL     1      64.901  37.682  19.908  1.00  0.00    -0.393 OA
ATOM     34  H   UNL     1      64.729  37.655  20.886  1.00  0.00     0.210 HD
ENDBRANCH  27  33
TORSDOF 2
ENDMDL
MODEL 2
REMARK VINA RESULT:     6.565      1.782      7.978
REMARK INTER + INTRA:           7.225
REMARK INTER:                   6.740
REMARK INTRA:                   0.485
REMARK UNBOUND:                 0.085
REMARK SMILES C[C@H]1[C@H]2C3=CC[C@@H]4[C@@]5(C)CC[C@H](O)C(C)(C)[C@H]5CC[C@]4(C)[C@@]3(C)CC[C@@]2(C(=O)[O-])CC[C@@H]1C
REMARK SMILES IDX 26 1 30 2 25 3 3 4 31 5 24 6 4 7 2 8 32 9 22 10 5 11 1 12
REMARK SMILES IDX 33 13 23 14 20 15 6 16 7 17 19 18 21 19 8 20 18 21 17 22
REMARK SMILES IDX 10 23 9 24 14 25 11 26 12 27 15 28 16 29 27 30 28 31 29 32
REMARK SMILES IDX 13 33
REMARK H PARENT 13 34
REMARK Flexibility Score: inf
ROOT
ATOM      1  C   UNL     1      67.661  38.344  18.530  1.00  0.00     0.017 C 
ATOM      2  C   UNL     1      67.979  36.972  17.880  1.00  0.00     0.014 C 
ATOM      3  C   UNL     1      68.725  39.378  17.997  1.00  0.00     0.014 C 
ATOM      4  C   UNL     1      67.739  38.239  20.102  1.00  0.00     0.030 C 
ATOM      5  C   UNL     1      67.115  35.841  18.437  1.00  0.00     0.004 C 
ATOM      6  C   UNL     1      68.973  40.583  18.940  1.00  0.00     0.013 C 
ATOM      7  C   UNL     1      69.129  38.700  20.566  1.00  0.00    -0.063 C 
ATOM      8  C   UNL     1      67.134  36.931  20.735  1.00  0.00    -0.003 C 
ATOM      9  C   UNL     1      67.396  35.623  19.930  1.00  0.00    -0.011 C 
ATOM     10  C   UNL     1      69.389  40.207  20.435  1.00  0.00    -0.006 C 
ATOM     11  C   UNL     1      70.137  37.823  20.505  1.00  0.00    -0.027 C 
ATOM     12  C   UNL     1      67.508  36.795  22.224  1.00  0.00     0.008 C 
ATOM     13  C   UNL     1      66.527  34.459  20.440  1.00  0.00     0.008 C 
ATOM     14  C   UNL     1      68.406  40.938  21.422  1.00  0.00     0.017 C 
ATOM     15  C   UNL     1      70.908  40.643  20.802  1.00  0.00    -0.020 C 
ATOM     16  C   UNL     1      71.579  38.177  20.489  1.00  0.00     0.032 C 
ATOM     17  C   UNL     1      71.956  39.660  20.147  1.00  0.00     0.006 C 
ATOM     18  C   UNL     1      71.167  40.577  22.339  1.00  0.00     0.008 C 
ATOM     19  C   UNL     1      71.096  42.125  20.315  1.00  0.00     0.012 C 
ATOM     20  C   UNL     1      73.510  39.900  20.518  1.00  0.00    -0.025 C 
ATOM     21  C   UNL     1      72.623  40.855  22.757  1.00  0.00     0.005 C 
ATOM     22  C   UNL     1      73.707  39.952  22.091  1.00  0.00     0.003 C 
ATOM     23  C   UNL     1      74.092  41.206  19.884  1.00  0.00     0.010 C 
ATOM     24  C   UNL     1      74.307  38.710  19.877  1.00  0.00     0.012 C 
ATOM     25  C   UNL     1      75.181  40.349  22.569  1.00  0.00    -0.006 C 
ATOM     26  C   UNL     1      75.540  41.523  20.294  1.00  0.00     0.033 C 
ATOM     27  C   UNL     1      75.689  41.621  21.821  1.00  0.00     0.120 C 
ATOM     28  C   UNL     1      76.176  39.163  22.379  1.00  0.00     0.014 C 
ATOM     29  C   UNL     1      75.203  40.657  24.095  1.00  0.00     0.014 C 
ENDROOT
BRANCH   1  30
ATOM     30  C   UNL     1      66.275  38.788  18.063  1.00  0.00     0.048 C 
ATOM     31  O   UNL     1      65.993  40.006  17.906  1.00  0.00    -0.550 OA
ATOM     32  O   UNL     1      65.270  37.845  17.875  1.00  0.00    -0.550 OA
ENDBRANCH   1  30
BRANCH  27  33
ATOM     33  O   UNL     1      77.037  41.866  22.143  1.00  0.00    -0.393 OA
ATOM     34  H   UNL     1      77.237  42.799  21.865  1.00  0.00     0.210 HD
ENDBRANCH  27  33
TORSDOF 2
ENDMDL
MODEL 3
REMARK VINA RESULT:     7.028      1.567      7.979
REMARK INTER + INTRA:           7.729
REMARK INTER:                   7.425
REMARK INTRA:                   0.304
REMARK UNBOUND:                 0.085
REMARK SMILES C[C@H]1[C@H]2C3=CC[C@@H]4[C@@]5(C)CC[C@H](O)C(C)(C)[C@H]5CC[C@]4(C)[C@@]3(C)CC[C@@]2(C(=O)[O-])CC[C@@H]1C
REMARK SMILES IDX 26 1 30 2 25 3 3 4 31 5 24 6 4 7 2 8 32 9 22 10 5 11 1 12
REMARK SMILES IDX 33 13 23 14 20 15 6 16 7 17 19 18 21 19 8 20 18 21 17 22
REMARK SMILES IDX 10 23 9 24 14 25 11 26 12 27 15 28 16 29 27 30 28 31 29 32
REMARK SMILES IDX 13 33
REMARK H PARENT 13 34
REMARK Flexibility Score: inf
ROOT
ATOM      1  C   UNL     1      67.888  38.240  18.801  1.00  0.00     0.017 C 
ATOM      2  C   UNL     1      68.076  36.700  18.775  1.00  0.00     0.014 C 
ATOM      3  C   UNL     1      69.009  38.868  17.888  1.00  0.00     0.014 C 
ATOM      4  C   UNL     1      68.013  38.784  20.276  1.00  0.00     0.030 C 
ATOM      5  C   UNL     1      67.147  35.977  19.749  1.00  0.00     0.004 C 
ATOM      6  C   UNL     1      69.383  40.328  18.250  1.00  0.00     0.013 C 
ATOM      7  C   UNL     1      69.450  39.275  20.508  1.00  0.00    -0.063 C 
ATOM      8  C   UNL     1      67.332  37.908  21.392  1.00  0.00    -0.003 C 
ATOM      9  C   UNL     1      67.463  36.368  21.199  1.00  0.00    -0.011 C 
ATOM     10  C   UNL     1      69.821  40.567  19.766  1.00  0.00    -0.006 C 
ATOM     11  C   UNL     1      70.385  38.368  20.813  1.00  0.00    -0.027 C 
ATOM     12  C   UNL     1      67.748  38.365  22.805  1.00  0.00     0.008 C 
ATOM     13  C   UNL     1      66.525  35.595  22.144  1.00  0.00     0.008 C 
ATOM     14  C   UNL     1      68.934  41.719  20.364  1.00  0.00     0.017 C 
ATOM     15  C   UNL     1      71.382  40.983  19.919  1.00  0.00    -0.020 C 
ATOM     16  C   UNL     1      71.849  38.560  20.652  1.00  0.00     0.032 C 
ATOM     17  C   UNL     1      72.327  39.732  19.728  1.00  0.00     0.006 C 
ATOM     18  C   UNL     1      71.689  41.534  21.346  1.00  0.00     0.008 C 
ATOM     19  C   UNL     1      71.666  42.112  18.865  1.00  0.00     0.012 C 
ATOM     20  C   UNL     1      73.907  39.971  19.966  1.00  0.00    -0.025 C 
ATOM     21  C   UNL     1      73.177  41.834  21.612  1.00  0.00     0.005 C 
ATOM     22  C   UNL     1      74.164  40.649  21.377  1.00  0.00     0.003 C 
ATOM     23  C   UNL     1      74.565  40.846  18.850  1.00  0.00     0.010 C 
ATOM     24  C   UNL     1      74.586  38.560  19.873  1.00  0.00     0.012 C 
ATOM     25  C   UNL     1      75.679  41.079  21.648  1.00  0.00    -0.006 C 
ATOM     26  C   UNL     1      76.047  41.179  19.091  1.00  0.00     0.033 C 
ATOM     27  C   UNL     1      76.258  41.883  20.442  1.00  0.00     0.120 C 
ATOM     28  C   UNL     1      76.572  39.841  21.964  1.00  0.00     0.014 C 
ATOM     29  C   UNL     1      75.779  41.984  22.911  1.00  0.00     0.014 C 
ENDROOT
BRANCH   1  30
ATOM     30  C   UNL     1      66.525  38.568  18.193  1.00  0.00     0.048 C 
ATOM     31  O   UNL     1      65.711  37.660  17.875  1.00  0.00    -0.550 OA
ATOM     32  O   UNL     1      66.190  39.888  17.907  1.00  0.00    -0.550 OA
ENDBRANCH   1  30
BRANCH  27  33
ATOM     33  O   UNL     1      77.630  42.123  20.633  1.00  0.00    -0.393 OA
ATOM     34  H   UNL     1      77.724  42.598  21.501  1.00  0.00     0.210 HD
ENDBRANCH  27  33
TORSDOF 2
ENDMDL
