MODEL 1
REMARK VINA RESULT:    -3.693      0.000      0.000
REMARK INTER + INTRA:          -5.882
REMARK INTER:                  -5.204
REMARK INTRA:                  -0.678
REMARK UNBOUND:                -0.678
REMARK SMILES CCCCCCCCC(=O)[O-]
REMARK SMILES IDX 6 1 7 2 8 3 9 4 10 5 11 6 5 7 4 8 3 9 2 10 1 11
REMARK H PARENT
REMARK Flexibility Score: inf
ROOT
ATOM      1  C   UNL     1      51.193   7.904  19.564  1.00  0.00     0.000 C 
ENDROOT
BRANCH   1   2
ATOM      2  C   UNL     1      50.596   8.994  18.659  1.00  0.00     0.006 C 
BRANCH   2   3
ATOM      3  C   UNL     1      49.421   8.482  17.817  1.00  0.00     0.053 C 
BRANCH   3   4
ATOM      4  C   UNL     1      49.877   8.157  16.429  1.00  0.00     0.041 C 
ATOM      5  O   UNL     1      50.556   7.119  16.212  1.00  0.00    -0.550 OA
ATOM      6  O   UNL     1      49.594   9.026  15.383  1.00  0.00    -0.550 OA
ENDBRANCH   3   4
ENDBRANCH   2   3
ENDBRANCH   1   2
BRANCH   1   7
ATOM      7  C   UNL     1      50.118   7.134  20.350  1.00  0.00     0.000 C 
BRANCH   7   8
ATOM      8  C   UNL     1      49.779   7.802  21.693  1.00  0.00    -0.000 C 
BRANCH   8   9
ATOM      9  C   UNL     1      48.297   7.640  22.074  1.00  0.00    -0.000 C 
BRANCH   9  10
ATOM     10  C   UNL     1      47.397   7.405  20.851  1.00  0.00    -0.003 C 
ATOM     11  C   UNL     1      46.686   8.677  20.389  1.00  0.00     0.004 C 
ENDBRANCH   9  10
ENDBRANCH   8   9
ENDBRANCH   7   8
ENDBRANCH   1   7
TORSDOF 7
ENDMDL
MODEL 2
REMARK VINA RESULT:    -3.488      3.930      5.109
REMARK INTER + INTRA:          -5.593
REMARK INTER:                  -5.335
REMARK INTRA:                  -0.259
REMARK UNBOUND:                -0.678
REMARK SMILES CCCCCCCCC(=O)[O-]
REMARK SMILES IDX 6 1 7 2 8 3 9 4 10 5 11 6 5 7 4 8 3 9 2 10 1 11
REMARK H PARENT
REMARK Flexibility Score: inf
ROOT
ATOM      1  C   UNL     1      49.102  12.753  18.555  1.00  0.00     0.000 C 
ENDROOT
BRANCH   1   2
ATOM      2  C   UNL     1      49.406  13.935  17.620  1.00  0.00     0.006 C 
BRANCH   2   3
ATOM      3  C   UNL     1      48.879  13.711  16.198  1.00  0.00     0.053 C 
BRANCH   3   4
ATOM      4  C   UNL     1      49.990  13.842  15.203  1.00  0.00     0.041 C 
ATOM      5  O   UNL     1      50.421  14.981  14.882  1.00  0.00    -0.550 OA
ATOM      6  O   UNL     1      50.516  12.709  14.595  1.00  0.00    -0.550 OA
ENDBRANCH   3   4
ENDBRANCH   2   3
ENDBRANCH   1   2
BRANCH   1   7
ATOM      7  C   UNL     1      50.053  11.563  18.331  1.00  0.00     0.000 C 
BRANCH   7   8
ATOM      8  C   UNL     1      49.468  10.238  18.845  1.00  0.00    -0.000 C 
BRANCH   8   9
ATOM      9  C   UNL     1      50.164   9.010  18.232  1.00  0.00    -0.000 C 
BRANCH   9  10
ATOM     10  C   UNL     1      51.062   8.278  19.242  1.00  0.00    -0.003 C 
ATOM     11  C   UNL     1      50.318   7.887  20.518  1.00  0.00     0.004 C 
ENDBRANCH   9  10
ENDBRANCH   8   9
ENDBRANCH   7   8
ENDBRANCH   1   7
TORSDOF 7
ENDMDL
MODEL 3
REMARK VINA RESULT:    -3.462      6.802      8.987
REMARK INTER + INTRA:          -5.556
REMARK INTER:                  -5.203
REMARK INTRA:                  -0.353
REMARK UNBOUND:                -0.678
REMARK SMILES CCCCCCCCC(=O)[O-]
REMARK SMILES IDX 6 1 7 2 8 3 9 4 10 5 11 6 5 7 4 8 3 9 2 10 1 11
REMARK H PARENT
REMARK Flexibility Score: inf
ROOT
ATOM      1  C   UNL     1      49.867  12.898  15.097  1.00  0.00     0.000 C 
ENDROOT
BRANCH   1   2
ATOM      2  C   UNL     1      49.154  13.568  16.282  1.00  0.00     0.006 C 
BRANCH   2   3
ATOM      3  C   UNL     1      49.767  13.183  17.633  1.00  0.00     0.053 C 
BRANCH   3   4
ATOM      4  C   UNL     1      49.439  14.214  18.668  1.00  0.00     0.041 C 
ATOM      5  O   UNL     1      48.430  14.069  19.408  1.00  0.00    -0.550 OA
ATOM      6  O   UNL     1      50.218  15.357  18.782  1.00  0.00    -0.550 OA
ENDBRANCH   3   4
ENDBRANCH   2   3
ENDBRANCH   1   2
BRANCH   1   7
ATOM      7  C   UNL     1      51.014  13.757  14.535  1.00  0.00     0.000 C 
BRANCH   7   8
ATOM      8  C   UNL     1      50.765  15.263  14.716  1.00  0.00    -0.000 C 
BRANCH   8   9
ATOM      9  C   UNL     1      51.793  16.125  13.962  1.00  0.00    -0.000 C 
BRANCH   9  10
ATOM     10  C   UNL     1      52.723  15.286  13.071  1.00  0.00    -0.003 C 
ATOM     11  C   UNL     1      54.191  15.395  13.483  1.00  0.00     0.004 C 
ENDBRANCH   9  10
ENDBRANCH   8   9
ENDBRANCH   7   8
ENDBRANCH   1   7
TORSDOF 7
ENDMDL
MODEL 4
REMARK VINA RESULT:    -3.451      3.567      4.522
REMARK INTER + INTRA:          -5.541
REMARK INTER:                  -5.233
REMARK INTRA:                  -0.308
REMARK UNBOUND:                -0.678
REMARK SMILES CCCCCCCCC(=O)[O-]
REMARK SMILES IDX 6 1 7 2 8 3 9 4 10 5 11 6 5 7 4 8 3 9 2 10 1 11
REMARK H PARENT
REMARK Flexibility Score: inf
ROOT
ATOM      1  C   UNL     1      49.461  10.341  18.775  1.00  0.00     0.000 C 
ENDROOT
BRANCH   1   2
ATOM      2  C   UNL     1      49.965  11.685  18.226  1.00  0.00     0.006 C 
BRANCH   2   3
ATOM      3  C   UNL     1      49.103  12.868  18.684  1.00  0.00     0.053 C 
BRANCH   3   4
ATOM      4  C   UNL     1      49.702  14.159  18.221  1.00  0.00     0.041 C 
ATOM      5  O   UNL     1      50.038  15.038  19.059  1.00  0.00    -0.550 OA
ATOM      6  O   UNL     1      49.844  14.413  16.863  1.00  0.00    -0.550 OA
ENDBRANCH   3   4
ENDBRANCH   2   3
ENDBRANCH   1   2
BRANCH   1   7
ATOM      7  C   UNL     1      49.892   9.148  17.903  1.00  0.00     0.000 C 
BRANCH   7   8
ATOM      8  C   UNL     1      50.855   8.200  18.636  1.00  0.00    -0.000 C 
BRANCH   8   9
ATOM      9  C   UNL     1      50.649   8.215  20.161  1.00  0.00    -0.000 C 
BRANCH   9  10
ATOM     10  C   UNL     1      49.768   7.054  20.647  1.00  0.00    -0.003 C 
ATOM     11  C   UNL     1      49.048   7.369  21.958  1.00  0.00     0.004 C 
ENDBRANCH   9  10
ENDBRANCH   8   9
ENDBRANCH   7   8
ENDBRANCH   1   7
TORSDOF 7
ENDMDL
MODEL 5
REMARK VINA RESULT:    -3.440     11.184     12.617
REMARK INTER + INTRA:          -5.526
REMARK INTER:                  -5.206
REMARK INTRA:                  -0.320
REMARK UNBOUND:                -0.678
REMARK SMILES CCCCCCCCC(=O)[O-]
REMARK SMILES IDX 6 1 7 2 8 3 9 4 10 5 11 6 5 7 4 8 3 9 2 10 1 11
REMARK H PARENT
REMARK Flexibility Score: inf
ROOT
ATOM      1  C   UNL     1      57.912  -0.284  17.963  1.00  0.00     0.000 C 
ENDROOT
BRANCH   1   2
ATOM      2  C   UNL     1      57.706  -1.765  18.315  1.00  0.00     0.006 C 
BRANCH   2   3
ATOM      3  C   UNL     1      56.726  -1.965  19.478  1.00  0.00     0.053 C 
BRANCH   3   4
ATOM      4  C   UNL     1      55.315  -1.953  18.979  1.00  0.00     0.041 C 
ATOM      5  O   UNL     1      54.807  -2.998  18.494  1.00  0.00    -0.550 OA
ATOM      6  O   UNL     1      54.577  -0.777  19.006  1.00  0.00    -0.550 OA
ENDBRANCH   3   4
ENDBRANCH   2   3
ENDBRANCH   1   2
BRANCH   1   7
ATOM      7  C   UNL     1      58.762  -0.090  16.695  1.00  0.00     0.000 C 
BRANCH   7   8
ATOM      8  C   UNL     1      59.063   1.389  16.408  1.00  0.00    -0.000 C 
BRANCH   8   9
ATOM      9  C   UNL     1      60.521   1.766  16.724  1.00  0.00    -0.000 C 
BRANCH   9  10
ATOM     10  C   UNL     1      60.643   3.153  17.374  1.00  0.00    -0.003 C 
ATOM     11  C   UNL     1      59.397   3.544  18.168  1.00  0.00     0.004 C 
ENDBRANCH   9  10
ENDBRANCH   8   9
ENDBRANCH   7   8
ENDBRANCH   1   7
TORSDOF 7
ENDMDL
MODEL 6
REMARK VINA RESULT:    -3.403      5.576      6.619
REMARK INTER + INTRA:          -5.474
REMARK INTER:                  -5.228
REMARK INTRA:                  -0.245
REMARK UNBOUND:                -0.678
REMARK SMILES CCCCCCCCC(=O)[O-]
REMARK SMILES IDX 6 1 7 2 8 3 9 4 10 5 11 6 5 7 4 8 3 9 2 10 1 11
REMARK H PARENT
REMARK Flexibility Score: inf
ROOT
ATOM      1  C   UNL     1      48.493   1.498  20.571  1.00  0.00     0.000 C 
ENDROOT
BRANCH   1   2
ATOM      2  C   UNL     1      49.439   2.708  20.527  1.00  0.00     0.006 C 
BRANCH   2   3
ATOM      3  C   UNL     1      50.910   2.312  20.705  1.00  0.00     0.053 C 
BRANCH   3   4
ATOM      4  C   UNL     1      51.700   2.676  19.487  1.00  0.00     0.041 C 
ATOM      5  O   UNL     1      51.412   3.714  18.833  1.00  0.00    -0.550 OA
ATOM      6  O   UNL     1      52.721   1.845  19.045  1.00  0.00    -0.550 OA
ENDBRANCH   3   4
ENDBRANCH   2   3
ENDBRANCH   1   2
BRANCH   1   7
ATOM      7  C   UNL     1      47.139   1.782  19.895  1.00  0.00     0.000 C 
BRANCH   7   8
ATOM      8  C   UNL     1      46.128   2.433  20.852  1.00  0.00    -0.000 C 
BRANCH   8   9
ATOM      9  C   UNL     1      45.196   3.427  20.137  1.00  0.00    -0.000 C 
BRANCH   9  10
ATOM     10  C   UNL     1      43.711   3.064  20.303  1.00  0.00    -0.003 C 
ATOM     11  C   UNL     1      43.506   1.745  21.047  1.00  0.00     0.004 C 
ENDBRANCH   9  10
ENDBRANCH   8   9
ENDBRANCH   7   8
ENDBRANCH   1   7
TORSDOF 7
ENDMDL
MODEL 7
REMARK VINA RESULT:    -3.400      3.278      4.777
REMARK INTER + INTRA:          -5.470
REMARK INTER:                  -5.116
REMARK INTRA:                  -0.354
REMARK UNBOUND:                -0.678
REMARK SMILES CCCCCCCCC(=O)[O-]
REMARK SMILES IDX 6 1 7 2 8 3 9 4 10 5 11 6 5 7 4 8 3 9 2 10 1 11
REMARK H PARENT
REMARK Flexibility Score: inf
ROOT
ATOM      1  C   UNL     1      49.655   5.787  21.779  1.00  0.00     0.000 C 
ENDROOT
BRANCH   1   2
ATOM      2  C   UNL     1      49.190   6.864  20.786  1.00  0.00     0.006 C 
BRANCH   2   3
ATOM      3  C   UNL     1      50.031   8.144  20.868  1.00  0.00     0.053 C 
BRANCH   3   4
ATOM      4  C   UNL     1      50.884   8.286  19.646  1.00  0.00     0.041 C 
ATOM      5  O   UNL     1      50.781   9.308  18.918  1.00  0.00    -0.550 OA
ATOM      6  O   UNL     1      51.758   7.269  19.285  1.00  0.00    -0.550 OA
ENDBRANCH   3   4
ENDBRANCH   2   3
ENDBRANCH   1   2
BRANCH   1   7
ATOM      7  C   UNL     1      49.190   4.375  21.380  1.00  0.00     0.000 C 
BRANCH   7   8
ATOM      8  C   UNL     1      50.298   3.322  21.543  1.00  0.00    -0.000 C 
BRANCH   8   9
ATOM      9  C   UNL     1      50.635   2.611  20.221  1.00  0.00    -0.000 C 
BRANCH   9  10
ATOM     10  C   UNL     1      51.542   3.457  19.313  1.00  0.00    -0.003 C 
ATOM     11  C   UNL     1      53.012   3.050  19.405  1.00  0.00     0.004 C 
ENDBRANCH   9  10
ENDBRANCH   8   9
ENDBRANCH   7   8
ENDBRANCH   1   7
TORSDOF 7
ENDMDL
MODEL 8
REMARK VINA RESULT:    -3.358      2.205      3.800
REMARK INTER + INTRA:          -5.410
REMARK INTER:                  -4.681
REMARK INTRA:                  -0.729
REMARK UNBOUND:                -0.678
REMARK SMILES CCCCCCCCC(=O)[O-]
REMARK SMILES IDX 6 1 7 2 8 3 9 4 10 5 11 6 5 7 4 8 3 9 2 10 1 11
REMARK H PARENT
REMARK Flexibility Score: inf
ROOT
ATOM      1  C   UNL     1      48.334   6.685  21.618  1.00  0.00     0.000 C 
ENDROOT
BRANCH   1   2
ATOM      2  C   UNL     1      49.743   6.799  21.015  1.00  0.00     0.006 C 
BRANCH   2   3
ATOM      3  C   UNL     1      50.109   8.241  20.643  1.00  0.00     0.053 C 
BRANCH   3   4
ATOM      4  C   UNL     1      50.899   8.267  19.372  1.00  0.00     0.041 C 
ATOM      5  O   UNL     1      50.599   9.079  18.457  1.00  0.00    -0.550 OA
ATOM      6  O   UNL     1      51.935   7.363  19.178  1.00  0.00    -0.550 OA
ENDBRANCH   3   4
ENDBRANCH   2   3
ENDBRANCH   1   2
BRANCH   1   7
ATOM      7  C   UNL     1      47.843   8.010  22.229  1.00  0.00     0.000 C 
BRANCH   7   8
ATOM      8  C   UNL     1      48.069   8.078  23.748  1.00  0.00    -0.000 C 
BRANCH   8   9
ATOM      9  C   UNL     1      49.030   9.210  24.151  1.00  0.00    -0.000 C 
BRANCH   9  10
ATOM     10  C   UNL     1      50.411   8.686  24.575  1.00  0.00    -0.003 C 
ATOM     11  C   UNL     1      50.434   7.169  24.764  1.00  0.00     0.004 C 
ENDBRANCH   9  10
ENDBRANCH   8   9
ENDBRANCH   7   8
ENDBRANCH   1   7
TORSDOF 7
ENDMDL
MODEL 9
REMARK VINA RESULT:    -3.357      4.051      5.391
REMARK INTER + INTRA:          -5.409
REMARK INTER:                  -5.049
REMARK INTRA:                  -0.360
REMARK UNBOUND:                -0.678
REMARK SMILES CCCCCCCCC(=O)[O-]
REMARK SMILES IDX 6 1 7 2 8 3 9 4 10 5 11 6 5 7 4 8 3 9 2 10 1 11
REMARK H PARENT
REMARK Flexibility Score: inf
ROOT
ATOM      1  C   UNL     1      49.765   3.637  21.230  1.00  0.00     0.000 C 
ENDROOT
BRANCH   1   2
ATOM      2  C   UNL     1      50.412   2.592  20.307  1.00  0.00     0.006 C 
BRANCH   2   3
ATOM      3  C   UNL     1      51.470   3.201  19.378  1.00  0.00     0.053 C 
BRANCH   3   4
ATOM      4  C   UNL     1      52.772   2.478  19.524  1.00  0.00     0.041 C 
ATOM      5  O   UNL     1      53.735   3.024  20.124  1.00  0.00    -0.550 OA
ATOM      6  O   UNL     1      52.937   1.221  18.957  1.00  0.00    -0.550 OA
ENDBRANCH   3   4
ENDBRANCH   2   3
ENDBRANCH   1   2
BRANCH   1   7
ATOM      7  C   UNL     1      50.199   5.074  20.891  1.00  0.00     0.000 C 
BRANCH   7   8
ATOM      8  C   UNL     1      49.202   6.126  21.404  1.00  0.00    -0.000 C 
BRANCH   8   9
ATOM      9  C   UNL     1      49.567   7.552  20.954  1.00  0.00    -0.000 C 
BRANCH   9  10
ATOM     10  C   UNL     1      50.754   7.575  19.977  1.00  0.00    -0.003 C 
ATOM     11  C   UNL     1      50.794   8.845  19.128  1.00  0.00     0.004 C 
ENDBRANCH   9  10
ENDBRANCH   8   9
ENDBRANCH   7   8
ENDBRANCH   1   7
TORSDOF 7
ENDMDL
