MODEL 1
REMARK VINA RESULT:    -5.583      0.000      0.000
REMARK INTER + INTRA:          -5.583
REMARK INTER:                  -5.583
REMARK INTRA:                   0.000
REMARK UNBOUND:                 0.000
REMARK SMILES CC(C)=C1CC[C@H](C)CC1=O
REMARK SMILES IDX 8 1 7 2 6 3 5 4 4 5 2 6 1 7 3 8 10 9 11 10 9 11
REMARK H PARENT
REMARK Flexibility Score: inf
ROOT
ATOM      1  C   UNL     1      47.112  19.060  22.267  1.00  0.00     0.008 C 
ATOM      2  C   UNL     1      47.812  19.533  20.988  1.00  0.00    -0.006 C 
ATOM      3  C   UNL     1      47.549  21.028  20.750  1.00  0.00     0.008 C 
ATOM      4  C   UNL     1      48.157  21.496  19.420  1.00  0.00     0.039 C 
ATOM      5  C   UNL     1      49.630  21.133  19.292  1.00  0.00    -0.006 C 
ATOM      6  C   UNL     1      50.498  21.925  18.596  1.00  0.00    -0.070 C 
ATOM      7  C   UNL     1      51.973  21.605  18.508  1.00  0.00     0.039 C 
ATOM      8  C   UNL     1      50.028  23.186  17.907  1.00  0.00     0.039 C 
ATOM      9  C   UNL     1      50.034  19.816  19.869  1.00  0.00     0.159 C 
ATOM     10  O   UNL     1      50.964  19.135  19.358  1.00  0.00    -0.295 OA
ATOM     11  C   UNL     1      49.323  19.273  21.074  1.00  0.00     0.084 C 
ENDROOT
TORSDOF 0
ENDMDL
MODEL 2
REMARK VINA RESULT:    -5.242      1.839      4.801
REMARK INTER + INTRA:          -5.242
REMARK INTER:                  -5.242
REMARK INTRA:                   0.000
REMARK UNBOUND:                 0.000
REMARK SMILES CC(C)=C1CC[C@H](C)CC1=O
REMARK SMILES IDX 8 1 7 2 6 3 5 4 4 5 2 6 1 7 3 8 10 9 11 10 9 11
REMARK H PARENT
REMARK Flexibility Score: inf
ROOT
ATOM      1  C   UNL     1      51.089  21.488  18.713  1.00  0.00     0.008 C 
ATOM      2  C   UNL     1      49.846  20.751  19.226  1.00  0.00    -0.006 C 
ATOM      3  C   UNL     1      50.098  20.176  20.628  1.00  0.00     0.008 C 
ATOM      4  C   UNL     1      48.900  19.348  21.115  1.00  0.00     0.039 C 
ATOM      5  C   UNL     1      47.586  20.113  21.024  1.00  0.00    -0.006 C 
ATOM      6  C   UNL     1      46.576  19.897  21.917  1.00  0.00    -0.070 C 
ATOM      7  C   UNL     1      45.290  20.689  21.871  1.00  0.00     0.039 C 
ATOM      8  C   UNL     1      46.713  18.875  23.023  1.00  0.00     0.039 C 
ATOM      9  C   UNL     1      47.433  21.015  19.843  1.00  0.00     0.159 C 
ATOM     10  O   UNL     1      46.306  21.217  19.316  1.00  0.00    -0.295 OA
ATOM     11  C   UNL     1      48.635  21.696  19.256  1.00  0.00     0.084 C 
ENDROOT
TORSDOF 0
ENDMDL
MODEL 3
REMARK VINA RESULT:    -5.230      1.546      2.373
REMARK INTER + INTRA:          -5.230
REMARK INTER:                  -5.230
REMARK INTRA:                   0.000
REMARK UNBOUND:                 0.000
REMARK SMILES CC(C)=C1CC[C@H](C)CC1=O
REMARK SMILES IDX 8 1 7 2 6 3 5 4 4 5 2 6 1 7 3 8 10 9 11 10 9 11
REMARK H PARENT
REMARK Flexibility Score: inf
ROOT
ATOM      1  C   UNL     1      46.751  19.251  21.956  1.00  0.00     0.008 C 
ATOM      2  C   UNL     1      48.043  19.949  21.516  1.00  0.00    -0.006 C 
ATOM      3  C   UNL     1      48.833  19.060  20.543  1.00  0.00     0.008 C 
ATOM      4  C   UNL     1      50.178  19.698  20.171  1.00  0.00     0.039 C 
ATOM      5  C   UNL     1      50.027  21.127  19.667  1.00  0.00    -0.006 C 
ATOM      6  C   UNL     1      50.879  21.644  18.733  1.00  0.00    -0.070 C 
ATOM      7  C   UNL     1      50.706  23.041  18.184  1.00  0.00     0.039 C 
ATOM      8  C   UNL     1      52.021  20.824  18.175  1.00  0.00     0.039 C 
ATOM      9  C   UNL     1      48.975  21.951  20.335  1.00  0.00     0.159 C 
ATOM     10  O   UNL     1      49.113  23.195  20.482  1.00  0.00    -0.295 OA
ATOM     11  C   UNL     1      47.727  21.299  20.854  1.00  0.00     0.084 C 
ENDROOT
TORSDOF 0
ENDMDL
MODEL 4
REMARK VINA RESULT:    -5.092      2.352      4.382
REMARK INTER + INTRA:          -5.092
REMARK INTER:                  -5.092
REMARK INTRA:                   0.000
REMARK UNBOUND:                 0.000
REMARK SMILES CC(C)=C1CC[C@H](C)CC1=O
REMARK SMILES IDX 8 1 7 2 6 3 5 4 4 5 2 6 1 7 3 8 10 9 11 10 9 11
REMARK H PARENT
REMARK Flexibility Score: inf
ROOT
ATOM      1  C   UNL     1      50.513  18.952  19.857  1.00  0.00     0.008 C 
ATOM      2  C   UNL     1      49.450  19.779  20.588  1.00  0.00    -0.006 C 
ATOM      3  C   UNL     1      48.886  20.871  19.666  1.00  0.00     0.008 C 
ATOM      4  C   UNL     1      47.894  21.774  20.412  1.00  0.00     0.039 C 
ATOM      5  C   UNL     1      46.802  20.983  21.118  1.00  0.00    -0.006 C 
ATOM      6  C   UNL     1      45.545  21.493  21.274  1.00  0.00    -0.070 C 
ATOM      7  C   UNL     1      44.437  20.695  21.924  1.00  0.00     0.039 C 
ATOM      8  C   UNL     1      45.190  22.873  20.768  1.00  0.00     0.039 C 
ATOM      9  C   UNL     1      47.220  19.683  21.723  1.00  0.00     0.159 C 
ATOM     10  O   UNL     1      46.675  19.243  22.772  1.00  0.00    -0.295 OA
ATOM     11  C   UNL     1      48.313  18.875  21.087  1.00  0.00     0.084 C 
ENDROOT
TORSDOF 0
ENDMDL
MODEL 5
REMARK VINA RESULT:    -4.884      2.153      4.432
REMARK INTER + INTRA:          -4.884
REMARK INTER:                  -4.884
REMARK INTRA:                   0.000
REMARK UNBOUND:                 0.000
REMARK SMILES CC(C)=C1CC[C@H](C)CC1=O
REMARK SMILES IDX 8 1 7 2 6 3 5 4 4 5 2 6 1 7 3 8 10 9 11 10 9 11
REMARK H PARENT
REMARK Flexibility Score: inf
ROOT
ATOM      1  C   UNL     1      50.040  25.545  19.887  1.00  0.00     0.008 C 
ATOM      2  C   UNL     1      49.620  24.095  19.619  1.00  0.00    -0.006 C 
ATOM      3  C   UNL     1      50.850  23.176  19.572  1.00  0.00     0.008 C 
ATOM      4  C   UNL     1      50.459  21.738  19.204  1.00  0.00     0.039 C 
ATOM      5  C   UNL     1      49.352  21.189  20.094  1.00  0.00    -0.006 C 
ATOM      6  C   UNL     1      49.283  19.860  20.403  1.00  0.00    -0.070 C 
ATOM      7  C   UNL     1      48.222  19.312  21.330  1.00  0.00     0.039 C 
ATOM      8  C   UNL     1      50.294  18.876  19.858  1.00  0.00     0.039 C 
ATOM      9  C   UNL     1      48.297  22.163  20.505  1.00  0.00     0.159 C 
ATOM     10  O   UNL     1      47.104  21.797  20.687  1.00  0.00    -0.295 OA
ATOM     11  C   UNL     1      48.644  23.609  20.701  1.00  0.00     0.084 C 
ENDROOT
TORSDOF 0
ENDMDL
MODEL 6
REMARK VINA RESULT:    -4.883      3.850      5.425
REMARK INTER + INTRA:          -4.883
REMARK INTER:                  -4.883
REMARK INTRA:                   0.000
REMARK UNBOUND:                 0.000
REMARK SMILES CC(C)=C1CC[C@H](C)CC1=O
REMARK SMILES IDX 8 1 7 2 6 3 5 4 4 5 2 6 1 7 3 8 10 9 11 10 9 11
REMARK H PARENT
REMARK Flexibility Score: inf
ROOT
ATOM      1  C   UNL     1      52.013  27.012  22.443  1.00  0.00     0.008 C 
ATOM      2  C   UNL     1      51.344  26.096  21.411  1.00  0.00    -0.006 C 
ATOM      3  C   UNL     1      52.372  25.135  20.795  1.00  0.00     0.008 C 
ATOM      4  C   UNL     1      51.742  24.280  19.687  1.00  0.00     0.039 C 
ATOM      5  C   UNL     1      50.477  23.568  20.146  1.00  0.00    -0.006 C 
ATOM      6  C   UNL     1      50.126  22.348  19.641  1.00  0.00    -0.070 C 
ATOM      7  C   UNL     1      48.903  21.607  20.130  1.00  0.00     0.039 C 
ATOM      8  C   UNL     1      50.969  21.663  18.590  1.00  0.00     0.039 C 
ATOM      9  C   UNL     1      49.600  24.330  21.084  1.00  0.00     0.159 C 
ATOM     10  O   UNL     1      48.347  24.183  21.073  1.00  0.00    -0.295 OA
ATOM     11  C   UNL     1      50.203  25.298  22.059  1.00  0.00     0.084 C 
ENDROOT
TORSDOF 0
ENDMDL
MODEL 7
REMARK VINA RESULT:    -4.607      2.366      2.747
REMARK INTER + INTRA:          -4.607
REMARK INTER:                  -4.607
REMARK INTRA:                   0.000
REMARK UNBOUND:                 0.000
REMARK SMILES CC(C)=C1CC[C@H](C)CC1=O
REMARK SMILES IDX 8 1 7 2 6 3 5 4 4 5 2 6 1 7 3 8 10 9 11 10 9 11
REMARK H PARENT
REMARK Flexibility Score: inf
ROOT
ATOM      1  C   UNL     1      48.648  18.875  19.868  1.00  0.00     0.008 C 
ATOM      2  C   UNL     1      48.899  20.376  19.681  1.00  0.00    -0.006 C 
ATOM      3  C   UNL     1      48.516  21.151  20.951  1.00  0.00     0.008 C 
ATOM      4  C   UNL     1      48.664  22.665  20.747  1.00  0.00     0.039 C 
ATOM      5  C   UNL     1      50.038  23.052  20.217  1.00  0.00    -0.006 C 
ATOM      6  C   UNL     1      50.616  24.244  20.547  1.00  0.00    -0.070 C 
ATOM      7  C   UNL     1      52.003  24.615  20.073  1.00  0.00     0.039 C 
ATOM      8  C   UNL     1      49.906  25.239  21.437  1.00  0.00     0.039 C 
ATOM      9  C   UNL     1      50.652  22.108  19.236  1.00  0.00     0.159 C 
ATOM     10  O   UNL     1      51.405  22.521  18.313  1.00  0.00    -0.295 OA
ATOM     11  C   UNL     1      50.371  20.637  19.331  1.00  0.00     0.084 C 
ENDROOT
TORSDOF 0
ENDMDL
MODEL 8
REMARK VINA RESULT:    -4.592      2.896      3.915
REMARK INTER + INTRA:          -4.592
REMARK INTER:                  -4.592
REMARK INTRA:                   0.000
REMARK UNBOUND:                 0.000
REMARK SMILES CC(C)=C1CC[C@H](C)CC1=O
REMARK SMILES IDX 8 1 7 2 6 3 5 4 4 5 2 6 1 7 3 8 10 9 11 10 9 11
REMARK H PARENT
REMARK Flexibility Score: inf
ROOT
ATOM      1  C   UNL     1      48.800  20.969  20.721  1.00  0.00     0.008 C 
ATOM      2  C   UNL     1      49.169  22.349  20.164  1.00  0.00    -0.006 C 
ATOM      3  C   UNL     1      50.179  23.051  21.083  1.00  0.00     0.008 C 
ATOM      4  C   UNL     1      50.482  24.475  20.595  1.00  0.00     0.039 C 
ATOM      5  C   UNL     1      50.899  24.513  19.131  1.00  0.00    -0.006 C 
ATOM      6  C   UNL     1      51.780  25.448  18.668  1.00  0.00    -0.070 C 
ATOM      7  C   UNL     1      52.244  25.462  17.230  1.00  0.00     0.039 C 
ATOM      8  C   UNL     1      52.366  26.496  19.588  1.00  0.00     0.039 C 
ATOM      9  C   UNL     1      50.202  23.552  18.226  1.00  0.00     0.159 C 
ATOM     10  O   UNL     1      49.974  23.837  17.019  1.00  0.00    -0.295 OA
ATOM     11  C   UNL     1      49.750  22.219  18.748  1.00  0.00     0.084 C 
ENDROOT
TORSDOF 0
ENDMDL
MODEL 9
REMARK VINA RESULT:    -4.547      2.810      3.937
REMARK INTER + INTRA:          -4.547
REMARK INTER:                  -4.547
REMARK INTRA:                   0.000
REMARK UNBOUND:                 0.000
REMARK SMILES CC(C)=C1CC[C@H](C)CC1=O
REMARK SMILES IDX 8 1 7 2 6 3 5 4 4 5 2 6 1 7 3 8 10 9 11 10 9 11
REMARK H PARENT
REMARK Flexibility Score: inf
ROOT
ATOM      1  C   UNL     1      48.937  20.922  20.778  1.00  0.00     0.008 C 
ATOM      2  C   UNL     1      49.851  21.900  20.032  1.00  0.00    -0.006 C 
ATOM      3  C   UNL     1      49.236  22.290  18.679  1.00  0.00     0.008 C 
ATOM      4  C   UNL     1      50.184  23.190  17.873  1.00  0.00     0.039 C 
ATOM      5  C   UNL     1      50.660  24.397  18.669  1.00  0.00    -0.006 C 
ATOM      6  C   UNL     1      50.936  25.586  18.058  1.00  0.00    -0.070 C 
ATOM      7  C   UNL     1      51.355  26.808  18.843  1.00  0.00     0.039 C 
ATOM      8  C   UNL     1      50.797  25.748  16.560  1.00  0.00     0.039 C 
ATOM      9  C   UNL     1      50.914  24.166  20.123  1.00  0.00     0.159 C 
ATOM     10  O   UNL     1      51.814  24.799  20.739  1.00  0.00    -0.295 OA
ATOM     11  C   UNL     1      50.097  23.158  20.878  1.00  0.00     0.084 C 
ENDROOT
TORSDOF 0
ENDMDL
