MODEL 1
REMARK VINA RESULT:    -3.630      0.000      0.000
REMARK INTER + INTRA:          -5.275
REMARK INTER:                  -4.903
REMARK INTRA:                  -0.372
REMARK UNBOUND:                -0.372
REMARK SMILES CCCCCCCC(=O)[O-]
REMARK SMILES IDX 5 1 6 2 7 3 8 4 9 5 10 6 4 7 3 8 2 9 1 10
REMARK H PARENT
REMARK Flexibility Score: inf
ROOT
ATOM      1  C   UNL     1     -43.808 -49.674  35.505  1.00  0.00     0.000 C 
ENDROOT
BRANCH   1   2
ATOM      2  C   UNL     1     -44.146 -48.491  36.433  1.00  0.00     0.006 C 
BRANCH   2   3
ATOM      3  C   UNL     1     -45.041 -48.857  37.628  1.00  0.00     0.053 C 
BRANCH   3   4
ATOM      4  C   UNL     1     -46.475 -49.017  37.226  1.00  0.00     0.041 C 
ATOM      5  O   UNL     1     -46.961 -50.166  37.055  1.00  0.00    -0.550 OA
ATOM      6  O   UNL     1     -47.266 -47.895  37.009  1.00  0.00    -0.550 OA
ENDBRANCH   3   4
ENDBRANCH   2   3
ENDBRANCH   1   2
BRANCH   1   7
ATOM      7  C   UNL     1     -43.155 -49.226  34.187  1.00  0.00     0.000 C 
BRANCH   7   8
ATOM      8  C   UNL     1     -42.431 -47.876  34.316  1.00  0.00    -0.000 C 
BRANCH   8   9
ATOM      9  C   UNL     1     -40.908 -48.030  34.440  1.00  0.00    -0.003 C 
ATOM     10  C   UNL     1     -40.448 -47.799  35.876  1.00  0.00     0.004 C 
ENDBRANCH   8   9
ENDBRANCH   7   8
ENDBRANCH   1   7
TORSDOF 6
ENDMDL
MODEL 2
REMARK VINA RESULT:    -3.522      1.305      1.944
REMARK INTER + INTRA:          -5.128
REMARK INTER:                  -4.820
REMARK INTRA:                  -0.308
REMARK UNBOUND:                -0.372
REMARK SMILES CCCCCCCC(=O)[O-]
REMARK SMILES IDX 5 1 6 2 7 3 8 4 9 5 10 6 4 7 3 8 2 9 1 10
REMARK H PARENT
REMARK Flexibility Score: inf
ROOT
ATOM      1  C   UNL     1     -43.916 -48.456  36.452  1.00  0.00     0.000 C 
ENDROOT
BRANCH   1   2
ATOM      2  C   UNL     1     -45.208 -48.463  37.291  1.00  0.00     0.006 C 
BRANCH   2   3
ATOM      3  C   UNL     1     -46.264 -49.478  36.823  1.00  0.00     0.053 C 
BRANCH   3   4
ATOM      4  C   UNL     1     -46.547 -50.513  37.868  1.00  0.00     0.041 C 
ATOM      5  O   UNL     1     -46.217 -50.313  39.066  1.00  0.00    -0.550 OA
ATOM      6  O   UNL     1     -47.149 -51.714  37.511  1.00  0.00    -0.550 OA
ENDBRANCH   3   4
ENDBRANCH   2   3
ENDBRANCH   1   2
BRANCH   1   7
ATOM      7  C   UNL     1     -43.881 -49.583  35.406  1.00  0.00     0.000 C 
BRANCH   7   8
ATOM      8  C   UNL     1     -43.060 -49.206  34.161  1.00  0.00    -0.000 C 
BRANCH   8   9
ATOM      9  C   UNL     1     -42.352 -47.850  34.306  1.00  0.00    -0.003 C 
ATOM     10  C   UNL     1     -40.839 -48.028  34.393  1.00  0.00     0.004 C 
ENDBRANCH   8   9
ENDBRANCH   7   8
ENDBRANCH   1   7
TORSDOF 6
ENDMDL
MODEL 3
REMARK VINA RESULT:    -3.273      3.613      6.447
REMARK INTER + INTRA:          -4.793
REMARK INTER:                  -4.473
REMARK INTRA:                  -0.320
REMARK UNBOUND:                -0.372
REMARK SMILES CCCCCCCC(=O)[O-]
REMARK SMILES IDX 5 1 6 2 7 3 8 4 9 5 10 6 4 7 3 8 2 9 1 10
REMARK H PARENT
REMARK Flexibility Score: inf
ROOT
ATOM      1  C   UNL     1     -47.296 -52.297  37.234  1.00  0.00     0.000 C 
ENDROOT
BRANCH   1   2
ATOM      2  C   UNL     1     -46.632 -51.052  37.853  1.00  0.00     0.006 C 
BRANCH   2   3
ATOM      3  C   UNL     1     -46.850 -49.754  37.060  1.00  0.00     0.053 C 
BRANCH   3   4
ATOM      4  C   UNL     1     -45.569 -49.012  36.838  1.00  0.00     0.041 C 
ATOM      5  O   UNL     1     -44.666 -49.507  36.113  1.00  0.00    -0.550 OA
ATOM      6  O   UNL     1     -45.360 -47.785  37.456  1.00  0.00    -0.550 OA
ENDBRANCH   3   4
ENDBRANCH   2   3
ENDBRANCH   1   2
BRANCH   1   7
ATOM      7  C   UNL     1     -47.699 -53.342  38.288  1.00  0.00     0.000 C 
BRANCH   7   8
ATOM      8  C   UNL     1     -47.334 -52.908  39.718  1.00  0.00    -0.000 C 
BRANCH   8   9
ATOM      9  C   UNL     1     -48.561 -52.799  40.635  1.00  0.00    -0.003 C 
ATOM     10  C   UNL     1     -48.483 -51.551  41.510  1.00  0.00     0.004 C 
ENDBRANCH   8   9
ENDBRANCH   7   8
ENDBRANCH   1   7
TORSDOF 6
ENDMDL
MODEL 4
REMARK VINA RESULT:    -3.258      3.085      3.688
REMARK INTER + INTRA:          -4.772
REMARK INTER:                  -4.558
REMARK INTRA:                  -0.214
REMARK UNBOUND:                -0.372
REMARK SMILES CCCCCCCC(=O)[O-]
REMARK SMILES IDX 5 1 6 2 7 3 8 4 9 5 10 6 4 7 3 8 2 9 1 10
REMARK H PARENT
REMARK Flexibility Score: inf
ROOT
ATOM      1  C   UNL     1     -43.286 -48.260  37.301  1.00  0.00     0.000 C 
ENDROOT
BRANCH   1   2
ATOM      2  C   UNL     1     -44.239 -48.048  38.492  1.00  0.00     0.006 C 
BRANCH   2   3
ATOM      3  C   UNL     1     -43.533 -47.774  39.830  1.00  0.00     0.053 C 
BRANCH   3   4
ATOM      4  C   UNL     1     -43.222 -46.321  40.013  1.00  0.00     0.041 C 
ATOM      5  O   UNL     1     -44.151 -45.493  40.203  1.00  0.00    -0.550 OA
ATOM      6  O   UNL     1     -41.908 -45.876  39.942  1.00  0.00    -0.550 OA
ENDBRANCH   3   4
ENDBRANCH   2   3
ENDBRANCH   1   2
BRANCH   1   7
ATOM      7  C   UNL     1     -44.010 -48.776  36.046  1.00  0.00     0.000 C 
BRANCH   7   8
ATOM      8  C   UNL     1     -43.037 -49.132  34.909  1.00  0.00    -0.000 C 
BRANCH   8   9
ATOM      9  C   UNL     1     -42.388 -47.893  34.275  1.00  0.00    -0.003 C 
ATOM     10  C   UNL     1     -40.873 -47.912  34.459  1.00  0.00     0.004 C 
ENDBRANCH   8   9
ENDBRANCH   7   8
ENDBRANCH   1   7
TORSDOF 6
ENDMDL
MODEL 5
REMARK VINA RESULT:    -3.222      1.948      2.319
REMARK INTER + INTRA:          -4.723
REMARK INTER:                  -4.398
REMARK INTRA:                  -0.325
REMARK UNBOUND:                -0.372
REMARK SMILES CCCCCCCC(=O)[O-]
REMARK SMILES IDX 5 1 6 2 7 3 8 4 9 5 10 6 4 7 3 8 2 9 1 10
REMARK H PARENT
REMARK Flexibility Score: inf
ROOT
ATOM      1  C   UNL     1     -43.859 -49.555  35.514  1.00  0.00     0.000 C 
ENDROOT
BRANCH   1   2
ATOM      2  C   UNL     1     -43.947 -48.334  36.449  1.00  0.00     0.006 C 
BRANCH   2   3
ATOM      3  C   UNL     1     -44.900 -48.515  37.642  1.00  0.00     0.053 C 
BRANCH   3   4
ATOM      4  C   UNL     1     -44.201 -48.316  38.952  1.00  0.00     0.041 C 
ATOM      5  O   UNL     1     -43.804 -47.171  39.291  1.00  0.00    -0.550 OA
ATOM      6  O   UNL     1     -43.962 -49.403  39.784  1.00  0.00    -0.550 OA
ENDBRANCH   3   4
ENDBRANCH   2   3
ENDBRANCH   1   2
BRANCH   1   7
ATOM      7  C   UNL     1     -42.983 -49.294  34.277  1.00  0.00     0.000 C 
BRANCH   7   8
ATOM      8  C   UNL     1     -42.331 -47.901  34.300  1.00  0.00    -0.000 C 
BRANCH   8   9
ATOM      9  C   UNL     1     -40.800 -47.965  34.394  1.00  0.00    -0.003 C 
ATOM     10  C   UNL     1     -40.331 -47.785  35.835  1.00  0.00     0.004 C 
ENDBRANCH   8   9
ENDBRANCH   7   8
ENDBRANCH   1   7
TORSDOF 6
ENDMDL
MODEL 6
REMARK VINA RESULT:    -3.197      3.236      5.092
REMARK INTER + INTRA:          -4.689
REMARK INTER:                  -4.263
REMARK INTRA:                  -0.426
REMARK UNBOUND:                -0.372
REMARK SMILES CCCCCCCC(=O)[O-]
REMARK SMILES IDX 5 1 6 2 7 3 8 4 9 5 10 6 4 7 3 8 2 9 1 10
REMARK H PARENT
REMARK Flexibility Score: inf
ROOT
ATOM      1  C   UNL     1     -43.049 -49.308  34.235  1.00  0.00     0.000 C 
ENDROOT
BRANCH   1   2
ATOM      2  C   UNL     1     -42.397 -47.913  34.288  1.00  0.00     0.006 C 
BRANCH   2   3
ATOM      3  C   UNL     1     -40.861 -47.928  34.241  1.00  0.00     0.053 C 
BRANCH   3   4
ATOM      4  C   UNL     1     -40.265 -48.408  35.528  1.00  0.00     0.041 C 
ATOM      5  O   UNL     1     -39.570 -49.457  35.552  1.00  0.00    -0.550 OA
ATOM      6  O   UNL     1     -40.504 -47.713  36.707  1.00  0.00    -0.550 OA
ENDBRANCH   3   4
ENDBRANCH   2   3
ENDBRANCH   1   2
BRANCH   1   7
ATOM      7  C   UNL     1     -43.906 -49.611  35.476  1.00  0.00     0.000 C 
BRANCH   7   8
ATOM      8  C   UNL     1     -43.987 -48.417  36.442  1.00  0.00    -0.000 C 
BRANCH   8   9
ATOM      9  C   UNL     1     -45.259 -48.436  37.302  1.00  0.00    -0.003 C 
ATOM     10  C   UNL     1     -46.217 -49.532  36.842  1.00  0.00     0.004 C 
ENDBRANCH   8   9
ENDBRANCH   7   8
ENDBRANCH   1   7
TORSDOF 6
ENDMDL
MODEL 7
REMARK VINA RESULT:    -3.184      2.427      3.537
REMARK INTER + INTRA:          -4.672
REMARK INTER:                  -4.507
REMARK INTRA:                  -0.165
REMARK UNBOUND:                -0.372
REMARK SMILES CCCCCCCC(=O)[O-]
REMARK SMILES IDX 5 1 6 2 7 3 8 4 9 5 10 6 4 7 3 8 2 9 1 10
REMARK H PARENT
REMARK Flexibility Score: inf
ROOT
ATOM      1  C   UNL     1     -45.345 -50.208  36.744  1.00  0.00     0.000 C 
ENDROOT
BRANCH   1   2
ATOM      2  C   UNL     1     -46.769 -50.563  37.212  1.00  0.00     0.006 C 
BRANCH   2   3
ATOM      3  C   UNL     1     -47.082 -52.068  37.209  1.00  0.00     0.053 C 
BRANCH   3   4
ATOM      4  C   UNL     1     -47.292 -52.599  38.593  1.00  0.00     0.041 C 
ATOM      5  O   UNL     1     -47.197 -51.833  39.588  1.00  0.00    -0.550 OA
ATOM      6  O   UNL     1     -47.563 -53.948  38.787  1.00  0.00    -0.550 OA
ENDBRANCH   3   4
ENDBRANCH   2   3
ENDBRANCH   1   2
BRANCH   1   7
ATOM      7  C   UNL     1     -45.027 -48.710  36.894  1.00  0.00     0.000 C 
BRANCH   7   8
ATOM      8  C   UNL     1     -43.593 -48.366  36.459  1.00  0.00    -0.000 C 
BRANCH   8   9
ATOM      9  C   UNL     1     -43.264 -48.872  35.047  1.00  0.00    -0.003 C 
ATOM     10  C   UNL     1     -42.344 -47.899  34.316  1.00  0.00     0.004 C 
ENDBRANCH   8   9
ENDBRANCH   7   8
ENDBRANCH   1   7
TORSDOF 6
ENDMDL
MODEL 8
REMARK VINA RESULT:    -3.154      3.523      5.207
REMARK INTER + INTRA:          -4.632
REMARK INTER:                  -4.346
REMARK INTRA:                  -0.286
REMARK UNBOUND:                -0.372
REMARK SMILES CCCCCCCC(=O)[O-]
REMARK SMILES IDX 5 1 6 2 7 3 8 4 9 5 10 6 4 7 3 8 2 9 1 10
REMARK H PARENT
REMARK Flexibility Score: inf
ROOT
ATOM      1  C   UNL     1     -43.336 -48.247  37.741  1.00  0.00     0.000 C 
ENDROOT
BRANCH   1   2
ATOM      2  C   UNL     1     -43.784 -47.682  39.102  1.00  0.00     0.006 C 
BRANCH   2   3
ATOM      3  C   UNL     1     -42.673 -46.976  39.895  1.00  0.00     0.053 C 
BRANCH   3   4
ATOM      4  C   UNL     1     -43.029 -45.559  40.221  1.00  0.00     0.041 C 
ATOM      5  O   UNL     1     -44.234 -45.194  40.229  1.00  0.00    -0.550 OA
ATOM      6  O   UNL     1     -42.028 -44.633  40.486  1.00  0.00    -0.550 OA
ENDBRANCH   3   4
ENDBRANCH   2   3
ENDBRANCH   1   2
BRANCH   1   7
ATOM      7  C   UNL     1     -44.504 -48.420  36.755  1.00  0.00     0.000 C 
BRANCH   7   8
ATOM      8  C   UNL     1     -45.071 -49.850  36.759  1.00  0.00    -0.000 C 
BRANCH   8   9
ATOM      9  C   UNL     1     -46.540 -49.903  37.203  1.00  0.00    -0.003 C 
ATOM     10  C   UNL     1     -47.220 -48.551  37.012  1.00  0.00     0.004 C 
ENDBRANCH   8   9
ENDBRANCH   7   8
ENDBRANCH   1   7
TORSDOF 6
ENDMDL
MODEL 9
REMARK VINA RESULT:    -3.140      2.678      5.174
REMARK INTER + INTRA:          -4.613
REMARK INTER:                  -4.226
REMARK INTRA:                  -0.387
REMARK UNBOUND:                -0.372
REMARK SMILES CCCCCCCC(=O)[O-]
REMARK SMILES IDX 5 1 6 2 7 3 8 4 9 5 10 6 4 7 3 8 2 9 1 10
REMARK H PARENT
REMARK Flexibility Score: inf
ROOT
ATOM      1  C   UNL     1     -45.901 -48.336  37.210  1.00  0.00     0.000 C 
ENDROOT
BRANCH   1   2
ATOM      2  C   UNL     1     -44.428 -48.784  37.262  1.00  0.00     0.006 C 
BRANCH   2   3
ATOM      3  C   UNL     1     -43.599 -48.384  36.031  1.00  0.00     0.053 C 
BRANCH   3   4
ATOM      4  C   UNL     1     -43.507 -49.495  35.032  1.00  0.00     0.041 C 
ATOM      5  O   UNL     1     -43.724 -50.685  35.384  1.00  0.00    -0.550 OA
ATOM      6  O   UNL     1     -43.152 -49.220  33.717  1.00  0.00    -0.550 OA
ENDBRANCH   3   4
ENDBRANCH   2   3
ENDBRANCH   1   2
BRANCH   1   7
ATOM      7  C   UNL     1     -46.881 -49.521  37.181  1.00  0.00     0.000 C 
BRANCH   7   8
ATOM      8  C   UNL     1     -46.396 -50.709  38.029  1.00  0.00    -0.000 C 
BRANCH   8   9
ATOM      9  C   UNL     1     -46.441 -52.040  37.265  1.00  0.00    -0.003 C 
ATOM     10  C   UNL     1     -47.651 -52.871  37.681  1.00  0.00     0.004 C 
ENDBRANCH   8   9
ENDBRANCH   7   8
ENDBRANCH   1   7
TORSDOF 6
ENDMDL
