MODEL 1
REMARK VINA RESULT:    -5.359      0.000      0.000
REMARK INTER + INTRA:          -6.888
REMARK INTER:                  -6.768
REMARK INTRA:                  -0.119
REMARK UNBOUND:                -0.119
REMARK SMILES CSCC[C@@H]([NH3+])C(=O)[O-]
REMARK SMILES IDX 4 1 5 2 6 3 7 7 8 8 9 9 3 10 2 11 1 12
REMARK H PARENT 6 4 6 5 6 6
REMARK Flexibility Score: inf
ROOT
ATOM      1  C   UNL     1      14.079 -10.204 -16.913  1.00  0.00     0.082 C 
ENDROOT
BRANCH   1   2
ATOM      2  C   UNL     1      15.310  -9.865 -17.788  1.00  0.00     0.228 C 
BRANCH   2   3
ATOM      3  N   UNL     1      16.494 -10.639 -17.392  1.00  0.00    -0.350 N 
ATOM      4  H   UNL     1      17.022 -10.943 -18.242  1.00  0.00     0.345 HD
ATOM      5  H   UNL     1      16.219 -11.484 -16.840  1.00  0.00     0.345 HD
ATOM      6  H   UNL     1      17.137 -10.045 -16.821  1.00  0.00     0.345 HD
ENDBRANCH   2   3
BRANCH   2   7
ATOM      7  C   UNL     1      14.982 -10.120 -19.236  1.00  0.00     0.099 C 
ATOM      8  O   UNL     1      13.855 -10.580 -19.563  1.00  0.00    -0.544 OA
ATOM      9  O   UNL     1      15.914  -9.825 -20.222  1.00  0.00    -0.544 OA
ENDBRANCH   2   7
ENDBRANCH   1   2
BRANCH   1  10
ATOM     10  C   UNL     1      14.141 -11.587 -16.251  1.00  0.00     0.076 C 
BRANCH  10  11
ATOM     11  S   UNL     1      13.804 -11.481 -14.457  1.00  0.00    -0.165 SA
ATOM     12  C   UNL     1      15.528 -11.116 -14.003  1.00  0.00     0.085 C 
ENDBRANCH  10  11
ENDBRANCH   1  10
TORSDOF 5
ENDMDL
MODEL 2
REMARK VINA RESULT:    -5.294      3.730      4.767
REMARK INTER + INTRA:          -6.806
REMARK INTER:                  -6.695
REMARK INTRA:                  -0.111
REMARK UNBOUND:                -0.119
REMARK SMILES CSCC[C@@H]([NH3+])C(=O)[O-]
REMARK SMILES IDX 4 1 5 2 6 3 7 7 8 8 9 9 3 10 2 11 1 12
REMARK H PARENT 6 4 6 5 6 6
REMARK Flexibility Score: inf
ROOT
ATOM      1  C   UNL     1      15.586 -10.977 -16.814  1.00  0.00     0.082 C 
ENDROOT
BRANCH   1   2
ATOM      2  C   UNL     1      14.481 -10.476 -15.853  1.00  0.00     0.228 C 
BRANCH   2   3
ATOM      3  N   UNL     1      13.137 -10.665 -16.416  1.00  0.00    -0.350 N 
ATOM      4  H   UNL     1      13.013 -11.659 -16.717  1.00  0.00     0.345 HD
ATOM      5  H   UNL     1      12.987 -10.038 -17.239  1.00  0.00     0.345 HD
ATOM      6  H   UNL     1      12.412 -10.467 -15.690  1.00  0.00     0.345 HD
ENDBRANCH   2   3
BRANCH   2   7
ATOM      7  C   UNL     1      14.598 -11.198 -14.535  1.00  0.00     0.099 C 
ATOM      8  O   UNL     1      15.716 -11.309 -13.966  1.00  0.00    -0.544 OA
ATOM      9  O   UNL     1      13.465 -11.723 -13.928  1.00  0.00    -0.544 OA
ENDBRANCH   2   7
ENDBRANCH   1   2
BRANCH   1  10
ATOM     10  C   UNL     1      15.066 -11.445 -18.179  1.00  0.00     0.076 C 
BRANCH  10  11
ATOM     11  S   UNL     1      15.506 -10.261 -19.500  1.00  0.00    -0.165 SA
ATOM     12  C   UNL     1      13.830 -10.198 -20.209  1.00  0.00     0.085 C 
ENDBRANCH  10  11
ENDBRANCH   1  10
TORSDOF 5
ENDMDL
MODEL 3
REMARK VINA RESULT:    -5.276      3.448      4.420
REMARK INTER + INTRA:          -6.783
REMARK INTER:                  -6.661
REMARK INTRA:                  -0.122
REMARK UNBOUND:                -0.119
REMARK SMILES CSCC[C@@H]([NH3+])C(=O)[O-]
REMARK SMILES IDX 4 1 5 2 6 3 7 7 8 8 9 9 3 10 2 11 1 12
REMARK H PARENT 6 4 6 5 6 6
REMARK Flexibility Score: inf
ROOT
ATOM      1  C   UNL     1      13.639 -10.629 -16.813  1.00  0.00     0.082 C 
ENDROOT
BRANCH   1   2
ATOM      2  C   UNL     1      14.743 -11.451 -16.105  1.00  0.00     0.228 C 
BRANCH   2   3
ATOM      3  N   UNL     1      16.089 -11.021 -16.508  1.00  0.00    -0.350 N 
ATOM      4  H   UNL     1      16.451 -11.647 -17.265  1.00  0.00     0.345 HD
ATOM      5  H   UNL     1      16.748 -11.051 -15.697  1.00  0.00     0.345 HD
ATOM      6  H   UNL     1      16.056 -10.051 -16.895  1.00  0.00     0.345 HD
ENDBRANCH   2   3
BRANCH   2   7
ATOM      7  C   UNL     1      14.582 -11.324 -14.612  1.00  0.00     0.099 C 
ATOM      8  O   UNL     1      13.443 -11.416 -14.083  1.00  0.00    -0.544 OA
ATOM      9  O   UNL     1      15.698 -11.131 -13.808  1.00  0.00    -0.544 OA
ENDBRANCH   2   7
ENDBRANCH   1   2
BRANCH   1  10
ATOM     10  C   UNL     1      14.166  -9.638 -17.858  1.00  0.00     0.076 C 
BRANCH  10  11
ATOM     11  S   UNL     1      13.893 -10.254 -19.557  1.00  0.00    -0.165 SA
ATOM     12  C   UNL     1      15.625 -10.037 -20.074  1.00  0.00     0.085 C 
ENDBRANCH  10  11
ENDBRANCH   1  10
TORSDOF 5
ENDMDL
MODEL 4
REMARK VINA RESULT:    -5.273      1.801      2.090
REMARK INTER + INTRA:          -6.779
REMARK INTER:                  -6.651
REMARK INTRA:                  -0.128
REMARK UNBOUND:                -0.119
REMARK SMILES CSCC[C@@H]([NH3+])C(=O)[O-]
REMARK SMILES IDX 4 1 5 2 6 3 7 7 8 8 9 9 3 10 2 11 1 12
REMARK H PARENT 6 4 6 5 6 6
REMARK Flexibility Score: inf
ROOT
ATOM      1  C   UNL     1      15.129 -11.318 -17.102  1.00  0.00     0.082 C 
ENDROOT
BRANCH   1   2
ATOM      2  C   UNL     1      13.979 -11.300 -18.137  1.00  0.00     0.228 C 
BRANCH   2   3
ATOM      3  N   UNL     1      12.727 -10.794 -17.555  1.00  0.00    -0.350 N 
ATOM      4  H   UNL     1      11.963 -10.825 -18.270  1.00  0.00     0.345 HD
ATOM      5  H   UNL     1      12.842  -9.809 -17.222  1.00  0.00     0.345 HD
ATOM      6  H   UNL     1      12.432 -11.399 -16.757  1.00  0.00     0.345 HD
ENDBRANCH   2   3
BRANCH   2   7
ATOM      7  C   UNL     1      14.381 -10.456 -19.318  1.00  0.00     0.099 C 
ATOM      8  O   UNL     1      15.527  -9.936 -19.370  1.00  0.00    -0.544 OA
ATOM      9  O   UNL     1      13.495 -10.269 -20.372  1.00  0.00    -0.544 OA
ENDBRANCH   2   7
ENDBRANCH   1   2
BRANCH   1  10
ATOM     10  C   UNL     1      14.970 -10.299 -15.967  1.00  0.00     0.076 C 
BRANCH  10  11
ATOM     11  S   UNL     1      15.269 -11.069 -14.335  1.00  0.00    -0.165 SA
ATOM     12  C   UNL     1      13.564 -11.678 -14.144  1.00  0.00     0.085 C 
ENDBRANCH  10  11
ENDBRANCH   1  10
TORSDOF 5
ENDMDL
MODEL 5
REMARK VINA RESULT:    -5.048      1.778      1.867
REMARK INTER + INTRA:          -6.496
REMARK INTER:                  -6.375
REMARK INTRA:                  -0.121
REMARK UNBOUND:                -0.119
REMARK SMILES CSCC[C@@H]([NH3+])C(=O)[O-]
REMARK SMILES IDX 4 1 5 2 6 3 7 7 8 8 9 9 3 10 2 11 1 12
REMARK H PARENT 6 4 6 5 6 6
REMARK Flexibility Score: inf
ROOT
ATOM      1  C   UNL     1      15.411 -11.527 -18.091  1.00  0.00     0.082 C 
ENDROOT
BRANCH   1   2
ATOM      2  C   UNL     1      15.470 -10.438 -19.189  1.00  0.00     0.228 C 
BRANCH   2   3
ATOM      3  N   UNL     1      16.100 -10.935 -20.420  1.00  0.00    -0.350 N 
ATOM      4  H   UNL     1      17.069 -10.551 -20.505  1.00  0.00     0.345 HD
ATOM      5  H   UNL     1      15.546 -10.653 -21.262  1.00  0.00     0.345 HD
ATOM      6  H   UNL     1      16.179 -11.976 -20.388  1.00  0.00     0.345 HD
ENDBRANCH   2   3
BRANCH   2   7
ATOM      7  C   UNL     1      14.077  -9.944 -19.480  1.00  0.00     0.099 C 
ATOM      8  O   UNL     1      13.436  -9.295 -18.612  1.00  0.00    -0.544 OA
ATOM      9  O   UNL     1      13.501 -10.181 -20.722  1.00  0.00    -0.544 OA
ENDBRANCH   2   7
ENDBRANCH   1   2
BRANCH   1  10
ATOM     10  C   UNL     1      15.795 -11.030 -16.691  1.00  0.00     0.076 C 
BRANCH  10  11
ATOM     11  S   UNL     1      14.380 -11.133 -15.538  1.00  0.00    -0.165 SA
ATOM     12  C   UNL     1      15.411 -11.146 -14.038  1.00  0.00     0.085 C 
ENDBRANCH  10  11
ENDBRANCH   1  10
TORSDOF 5
ENDMDL
MODEL 6
REMARK VINA RESULT:    -4.973      2.031      2.103
REMARK INTER + INTRA:          -6.401
REMARK INTER:                  -6.306
REMARK INTRA:                  -0.094
REMARK UNBOUND:                -0.119
REMARK SMILES CSCC[C@@H]([NH3+])C(=O)[O-]
REMARK SMILES IDX 4 1 5 2 6 3 7 7 8 8 9 9 3 10 2 11 1 12
REMARK H PARENT 6 4 6 5 6 6
REMARK Flexibility Score: inf
ROOT
ATOM      1  C   UNL     1      13.756  -9.686 -17.879  1.00  0.00     0.082 C 
ENDROOT
BRANCH   1   2
ATOM      2  C   UNL     1      13.871 -10.220 -19.326  1.00  0.00     0.228 C 
BRANCH   2   3
ATOM      3  N   UNL     1      13.340  -9.264 -20.308  1.00  0.00    -0.350 N 
ATOM      4  H   UNL     1      12.718  -9.759 -20.988  1.00  0.00     0.345 HD
ATOM      5  H   UNL     1      14.115  -8.797 -20.831  1.00  0.00     0.345 HD
ATOM      6  H   UNL     1      12.760  -8.541 -19.826  1.00  0.00     0.345 HD
ENDBRANCH   2   3
BRANCH   2   7
ATOM      7  C   UNL     1      15.313 -10.531 -19.633  1.00  0.00     0.099 C 
ATOM      8  O   UNL     1      15.894 -11.492 -19.061  1.00  0.00    -0.544 OA
ATOM      9  O   UNL     1      16.003  -9.774 -20.570  1.00  0.00    -0.544 OA
ENDBRANCH   2   7
ENDBRANCH   1   2
BRANCH   1  10
ATOM     10  C   UNL     1      13.407 -10.758 -16.839  1.00  0.00     0.076 C 
BRANCH  10  11
ATOM     11  S   UNL     1      14.776 -11.005 -15.652  1.00  0.00    -0.165 SA
ATOM     12  C   UNL     1      13.692 -11.503 -14.277  1.00  0.00     0.085 C 
ENDBRANCH  10  11
ENDBRANCH   1  10
TORSDOF 5
ENDMDL
MODEL 7
REMARK VINA RESULT:    -4.863      3.181      4.446
REMARK INTER + INTRA:          -6.262
REMARK INTER:                  -6.153
REMARK INTRA:                  -0.109
REMARK UNBOUND:                -0.119
REMARK SMILES CSCC[C@@H]([NH3+])C(=O)[O-]
REMARK SMILES IDX 4 1 5 2 6 3 7 7 8 8 9 9 3 10 2 11 1 12
REMARK H PARENT 6 4 6 5 6 6
REMARK Flexibility Score: inf
ROOT
ATOM      1  C   UNL     1      15.151  -9.599 -16.207  1.00  0.00     0.082 C 
ENDROOT
BRANCH   1   2
ATOM      2  C   UNL     1      15.335 -10.710 -15.147  1.00  0.00     0.228 C 
BRANCH   2   3
ATOM      3  N   UNL     1      15.686 -10.158 -13.830  1.00  0.00    -0.350 N 
ATOM      4  H   UNL     1      16.313  -9.328 -13.947  1.00  0.00     0.345 HD
ATOM      5  H   UNL     1      16.173 -10.874 -13.244  1.00  0.00     0.345 HD
ATOM      6  H   UNL     1      14.825  -9.831 -13.337  1.00  0.00     0.345 HD
ENDBRANCH   2   3
BRANCH   2   7
ATOM      7  C   UNL     1      14.071 -11.524 -15.048  1.00  0.00     0.099 C 
ATOM      8  O   UNL     1      13.671 -12.202 -16.032  1.00  0.00    -0.544 OA
ATOM      9  O   UNL     1      13.353 -11.551 -13.860  1.00  0.00    -0.544 OA
ENDBRANCH   2   7
ENDBRANCH   1   2
BRANCH   1  10
ATOM     10  C   UNL     1      15.779  -9.920 -17.570  1.00  0.00     0.076 C 
BRANCH  10  11
ATOM     11  S   UNL     1      14.501 -10.089 -18.867  1.00  0.00    -0.165 SA
ATOM     12  C   UNL     1      15.690 -10.087 -20.247  1.00  0.00     0.085 C 
ENDBRANCH  10  11
ENDBRANCH   1  10
TORSDOF 5
ENDMDL
MODEL 8
REMARK VINA RESULT:    -4.714      2.163      2.349
REMARK INTER + INTRA:          -6.073
REMARK INTER:                  -6.202
REMARK INTRA:                   0.128
REMARK UNBOUND:                -0.119
REMARK SMILES CSCC[C@@H]([NH3+])C(=O)[O-]
REMARK SMILES IDX 4 1 5 2 6 3 7 7 8 8 9 9 3 10 2 11 1 12
REMARK H PARENT 6 4 6 5 6 6
REMARK Flexibility Score: inf
ROOT
ATOM      1  C   UNL     1      12.952 -10.820 -16.823  1.00  0.00     0.082 C 
ENDROOT
BRANCH   1   2
ATOM      2  C   UNL     1      13.496  -9.664 -17.696  1.00  0.00     0.228 C 
BRANCH   2   3
ATOM      3  N   UNL     1      12.792  -8.401 -17.432  1.00  0.00    -0.350 N 
ATOM      4  H   UNL     1      11.962  -8.317 -18.063  1.00  0.00     0.345 HD
ATOM      5  H   UNL     1      13.424  -7.583 -17.589  1.00  0.00     0.345 HD
ATOM      6  H   UNL     1      12.439  -8.385 -16.449  1.00  0.00     0.345 HD
ENDBRANCH   2   3
BRANCH   2   7
ATOM      7  C   UNL     1      14.972  -9.498 -17.446  1.00  0.00     0.099 C 
ATOM      8  O   UNL     1      15.814 -10.002 -18.236  1.00  0.00    -0.544 OA
ATOM      9  O   UNL     1      15.413  -8.763 -16.353  1.00  0.00    -0.544 OA
ENDBRANCH   2   7
ENDBRANCH   1   2
BRANCH   1  10
ATOM     10  C   UNL     1      14.042 -11.662 -16.146  1.00  0.00     0.076 C 
BRANCH  10  11
ATOM     11  S   UNL     1      13.827 -11.692 -14.331  1.00  0.00    -0.165 SA
ATOM     12  C   UNL     1      15.509 -11.096 -13.972  1.00  0.00     0.085 C 
ENDBRANCH  10  11
ENDBRANCH   1  10
TORSDOF 5
ENDMDL
MODEL 9
REMARK VINA RESULT:    -4.664      1.830      2.146
REMARK INTER + INTRA:          -6.011
REMARK INTER:                  -6.137
REMARK INTRA:                   0.126
REMARK UNBOUND:                -0.119
REMARK SMILES CSCC[C@@H]([NH3+])C(=O)[O-]
REMARK SMILES IDX 4 1 5 2 6 3 7 7 8 8 9 9 3 10 2 11 1 12
REMARK H PARENT 6 4 6 5 6 6
REMARK Flexibility Score: inf
ROOT
ATOM      1  C   UNL     1      16.098 -10.317 -16.953  1.00  0.00     0.082 C 
ENDROOT
BRANCH   1   2
ATOM      2  C   UNL     1      15.725 -11.253 -18.127  1.00  0.00     0.228 C 
BRANCH   2   3
ATOM      3  N   UNL     1      16.495 -12.505 -18.095  1.00  0.00    -0.350 N 
ATOM      4  H   UNL     1      16.662 -12.796 -17.104  1.00  0.00     0.345 HD
ATOM      5  H   UNL     1      17.416 -12.389 -18.577  1.00  0.00     0.345 HD
ATOM      6  H   UNL     1      15.954 -13.270 -18.557  1.00  0.00     0.345 HD
ENDBRANCH   2   3
BRANCH   2   7
ATOM      7  C   UNL     1      14.249 -11.550 -18.083  1.00  0.00     0.099 C 
ATOM      8  O   UNL     1      13.814 -12.527 -17.417  1.00  0.00    -0.544 OA
ATOM      9  O   UNL     1      13.355 -10.729 -18.759  1.00  0.00    -0.544 OA
ENDBRANCH   2   7
ENDBRANCH   1   2
BRANCH   1  10
ATOM     10  C   UNL     1      14.978 -10.125 -15.922  1.00  0.00     0.076 C 
BRANCH  10  11
ATOM     11  S   UNL     1      15.346 -11.013 -14.366  1.00  0.00    -0.165 SA
ATOM     12  C   UNL     1      13.638 -11.591 -14.117  1.00  0.00     0.085 C 
ENDBRANCH  10  11
ENDBRANCH   1  10
TORSDOF 5
ENDMDL
