MODEL 1
REMARK VINA RESULT:     8.156      0.000      0.000
REMARK INTER + INTRA:          12.166
REMARK INTER:                  11.017
REMARK INTRA:                   1.150
REMARK UNBOUND:                 1.150
REMARK SMILES O=c1c(-c2ccc(O)cc2)coc2c([C@H]3O[C@H](CO)[C@H](O)[C@@H](O)[C@@H]3O)c(O)ccc12
REMARK SMILES IDX 3 1 11 2 12 3 13 4 30 5 2 6 1 7 29 8 28 9 26 10 14 11 4 12
REMARK SMILES IDX 5 13 6 14 7 15 10 16 9 17 8 18 15 20 24 21 16 22 22 23 17 24
REMARK SMILES IDX 20 25 25 26 23 28 18 30 19 31 21 33 27 35
REMARK H PARENT 8 19 25 27 23 29 19 32 21 34 27 36
REMARK Flexibility Score: inf
ROOT
ATOM      1  C   UNL     1      31.232  16.524  15.103  1.00  0.00     0.065 A 
ATOM      2  C   UNL     1      30.122  16.838  15.893  1.00  0.00     0.208 A 
ATOM      3  O   UNL     1      30.273  17.334  17.114  1.00  0.00    -0.463 OA
ATOM      4  C   UNL     1      31.453  17.571  17.676  1.00  0.00     0.147 A 
ATOM      5  C   UNL     1      32.631  17.259  16.948  1.00  0.00     0.066 A 
ATOM      6  C   UNL     1      32.509  16.748  15.643  1.00  0.00     0.200 A 
ATOM      7  O   UNL     1      33.540  16.505  14.955  1.00  0.00    -0.288 OA
ATOM      8  C   UNL     1      33.886  17.447  17.540  1.00  0.00     0.020 A 
ATOM      9  C   UNL     1      33.980  17.894  18.849  1.00  0.00     0.047 A 
ATOM     10  C   UNL     1      32.831  18.203  19.584  1.00  0.00     0.125 A 
ATOM     11  C   UNL     1      31.542  18.121  18.989  1.00  0.00     0.069 A 
ENDROOT
BRANCH   1  12
ATOM     12  C   UNL     1      31.038  15.971  13.738  1.00  0.00    -0.011 A 
ATOM     13  C   UNL     1      30.343  16.711  12.764  1.00  0.00     0.013 A 
ATOM     14  C   UNL     1      30.151  16.190  11.482  1.00  0.00     0.047 A 
ATOM     15  C   UNL     1      30.641  14.922  11.157  1.00  0.00     0.115 A 
ATOM     16  C   UNL     1      31.522  14.692  13.406  1.00  0.00     0.013 A 
ATOM     17  C   UNL     1      31.327  14.173  12.123  1.00  0.00     0.047 A 
BRANCH  15  18
ATOM     18  O   UNL     1      30.443  14.414   9.875  1.00  0.00    -0.508 OA
ATOM     19  H   UNL     1      29.796  13.654   9.701  1.00  0.00     0.293 HD
ENDBRANCH  15  18
ENDBRANCH   1  12
BRANCH  11  20
ATOM     20  C   UNL     1      30.323  18.525  19.860  1.00  0.00     0.188 C 
ATOM     21  C   UNL     1      30.388  18.416  21.417  1.00  0.00     0.179 C 
ATOM     22  O   UNL     1      29.128  17.895  19.409  1.00  0.00    -0.362 OA
ATOM     23  C   UNL     1      30.285  16.948  21.881  1.00  0.00     0.177 C 
ATOM     24  C   UNL     1      29.132  16.501  19.685  1.00  0.00     0.176 C 
ATOM     25  C   UNL     1      29.086  16.249  21.206  1.00  0.00     0.177 C 
BRANCH  21  26
ATOM     26  O   UNL     1      29.303  19.125  21.966  1.00  0.00    -0.387 OA
ATOM     27  H   UNL     1      29.667  19.959  22.367  1.00  0.00     0.211 HD
ENDBRANCH  21  26
BRANCH  23  28
ATOM     28  O   UNL     1      31.471  16.262  21.577  1.00  0.00    -0.387 OA
ATOM     29  H   UNL     1      31.272  15.663  20.811  1.00  0.00     0.211 HD
ENDBRANCH  23  28
BRANCH  24  30
ATOM     30  C   UNL     1      27.937  15.858  18.964  1.00  0.00     0.191 C 
BRANCH  30  31
ATOM     31  O   UNL     1      27.878  14.480  19.215  1.00  0.00    -0.394 OA
ATOM     32  H   UNL     1      27.730  14.375  20.192  1.00  0.00     0.210 HD
ENDBRANCH  30  31
ENDBRANCH  24  30
BRANCH  25  33
ATOM     33  O   UNL     1      27.878  16.734  21.738  1.00  0.00    -0.388 OA
ATOM     34  H   UNL     1      27.276  16.910  20.969  1.00  0.00     0.211 HD
ENDBRANCH  25  33
ENDBRANCH  11  20
BRANCH  10  35
ATOM     35  O   UNL     1      32.974  18.584  20.919  1.00  0.00    -0.507 OA
ATOM     36  H   UNL     1      33.248  17.925  21.638  1.00  0.00     0.293 HD
ENDBRANCH  10  35
TORSDOF 9
ENDMDL
MODEL 2
REMARK VINA RESULT:     9.325     11.697     14.696
REMARK INTER + INTRA:          13.746
REMARK INTER:                  11.077
REMARK INTRA:                   2.669
REMARK UNBOUND:                 1.150
REMARK SMILES O=c1c(-c2ccc(O)cc2)coc2c([C@H]3O[C@H](CO)[C@H](O)[C@@H](O)[C@@H]3O)c(O)ccc12
REMARK SMILES IDX 3 1 11 2 12 3 13 4 30 5 2 6 1 7 29 8 28 9 26 10 14 11 4 12
REMARK SMILES IDX 5 13 6 14 7 15 10 16 9 17 8 18 15 20 24 21 16 22 22 23 17 24
REMARK SMILES IDX 20 25 25 26 23 28 18 30 19 31 21 33 27 35
REMARK H PARENT 8 19 25 27 23 29 19 32 21 34 27 36
REMARK Flexibility Score: inf
ROOT
ATOM      1  C   UNL     1      43.496  13.347  12.248  1.00  0.00     0.065 A 
ATOM      2  C   UNL     1      43.621  12.004  12.619  1.00  0.00     0.208 A 
ATOM      3  O   UNL     1      42.558  11.295  12.975  1.00  0.00    -0.463 OA
ATOM      4  C   UNL     1      41.322  11.780  13.010  1.00  0.00     0.147 A 
ATOM      5  C   UNL     1      41.112  13.141  12.668  1.00  0.00     0.066 A 
ATOM      6  C   UNL     1      42.214  13.920  12.267  1.00  0.00     0.200 A 
ATOM      7  O   UNL     1      42.050  15.121  11.914  1.00  0.00    -0.288 OA
ATOM      8  C   UNL     1      39.827  13.690  12.750  1.00  0.00     0.020 A 
ATOM      9  C   UNL     1      38.767  12.920  13.206  1.00  0.00     0.047 A 
ATOM     10  C   UNL     1      38.955  11.578  13.551  1.00  0.00     0.125 A 
ATOM     11  C   UNL     1      40.222  10.954  13.389  1.00  0.00     0.069 A 
ENDROOT
BRANCH   1  12
ATOM     12  C   UNL     1      44.700  14.122  11.850  1.00  0.00    -0.011 A 
ATOM     13  C   UNL     1      45.076  14.204  10.497  1.00  0.00     0.013 A 
ATOM     14  C   UNL     1      46.213  14.924  10.121  1.00  0.00     0.047 A 
ATOM     15  C   UNL     1      46.993  15.563  11.089  1.00  0.00     0.115 A 
ATOM     16  C   UNL     1      45.494  14.761  12.820  1.00  0.00     0.013 A 
ATOM     17  C   UNL     1      46.632  15.479  12.440  1.00  0.00     0.047 A 
BRANCH  15  18
ATOM     18  O   UNL     1      48.125  16.277  10.700  1.00  0.00    -0.508 OA
ATOM     19  H   UNL     1      48.314  16.479   9.725  1.00  0.00     0.293 HD
ENDBRANCH  15  18
ENDBRANCH   1  12
BRANCH  11  20
ATOM     20  C   UNL     1      40.332   9.450  13.752  1.00  0.00     0.188 C 
ATOM     21  C   UNL     1      40.972   9.003  15.105  1.00  0.00     0.179 C 
ATOM     22  O   UNL     1      40.929   8.701  12.697  1.00  0.00    -0.362 OA
ATOM     23  C   UNL     1      42.508   9.151  15.074  1.00  0.00     0.177 C 
ATOM     24  C   UNL     1      42.314   8.990  12.567  1.00  0.00     0.176 C 
ATOM     25  C   UNL     1      43.091   8.495  13.805  1.00  0.00     0.177 C 
BRANCH  21  26
ATOM     26  O   UNL     1      40.668   7.647  15.325  1.00  0.00    -0.387 OA
ATOM     27  H   UNL     1      39.980   7.387  14.657  1.00  0.00     0.211 HD
ENDBRANCH  21  26
BRANCH  23  28
ATOM     28  O   UNL     1      42.863  10.509  15.116  1.00  0.00    -0.387 OA
ATOM     29  H   UNL     1      43.511  10.616  15.859  1.00  0.00     0.211 HD
ENDBRANCH  23  28
BRANCH  24  30
ATOM     30  C   UNL     1      42.828   8.338  11.273  1.00  0.00     0.191 C 
BRANCH  30  31
ATOM     31  O   UNL     1      44.034   7.659  11.495  1.00  0.00    -0.394 OA
ATOM     32  H   UNL     1      44.719   8.103  10.929  1.00  0.00     0.210 HD
ENDBRANCH  30  31
ENDBRANCH  24  30
BRANCH  25  33
ATOM     33  O   UNL     1      43.005   7.095  13.898  1.00  0.00    -0.388 OA
ATOM     34  H   UNL     1      43.916   6.765  14.109  1.00  0.00     0.211 HD
ENDBRANCH  25  33
ENDBRANCH  11  20
BRANCH  10  35
ATOM     35  O   UNL     1      37.873  10.864  14.069  1.00  0.00    -0.507 OA
ATOM     36  H   UNL     1      37.696  10.807  15.065  1.00  0.00     0.293 HD
ENDBRANCH  10  35
TORSDOF 9
ENDMDL
