MODEL 1
REMARK VINA RESULT:    -2.511      0.000      0.000
REMARK INTER + INTRA:          -9.387
REMARK INTER:                  -6.327
REMARK INTRA:                  -3.060
REMARK UNBOUND:                -3.060
REMARK SMILES CCCCCCCCCCCCCCCCCCCCCCCCCCCC(=O)[O-]
REMARK SMILES IDX 15 1 16 2 17 3 18 4 19 5 20 6 21 7 22 8 23 9 24 10 25 11
REMARK SMILES IDX 26 12 27 13 28 14 29 15 30 16 14 17 13 18 12 19 11 20 10 21
REMARK SMILES IDX 9 22 8 23 7 24 6 25 5 26 4 27 3 28 2 29 1 30
REMARK H PARENT
REMARK Flexibility Score: inf
ROOT
ATOM      1  C   UNL     1       7.690   8.108   0.545  1.00  0.00     0.000 C 
ENDROOT
BRANCH   1   2
ATOM      2  C   UNL     1       6.889   8.033  -0.766  1.00  0.00     0.000 C 
BRANCH   2   3
ATOM      3  C   UNL     1       5.435   7.593  -0.542  1.00  0.00     0.000 C 
BRANCH   3   4
ATOM      4  C   UNL     1       4.644   8.664   0.222  1.00  0.00     0.000 C 
BRANCH   4   5
ATOM      5  C   UNL     1       3.517   9.290  -0.618  1.00  0.00     0.000 C 
BRANCH   5   6
ATOM      6  C   UNL     1       4.023  10.259  -1.709  1.00  0.00     0.000 C 
BRANCH   6   7
ATOM      7  C   UNL     1       2.902  10.673  -2.680  1.00  0.00     0.000 C 
BRANCH   7   8
ATOM      8  C   UNL     1       3.430  11.512  -3.865  1.00  0.00     0.000 C 
BRANCH   8   9
ATOM      9  C   UNL     1       3.015  10.965  -5.241  1.00  0.00     0.000 C 
BRANCH   9  10
ATOM     10  C   UNL     1       3.920  11.463  -6.381  1.00  0.00     0.000 C 
BRANCH  10  11
ATOM     11  C   UNL     1       4.989  12.454  -5.894  1.00  0.00     0.000 C 
BRANCH  11  12
ATOM     12  C   UNL     1       6.417  12.003  -6.246  1.00  0.00     0.006 C 
BRANCH  12  13
ATOM     13  C   UNL     1       7.483  12.899  -5.603  1.00  0.00     0.053 C 
BRANCH  13  14
ATOM     14  C   UNL     1       7.797  12.468  -4.204  1.00  0.00     0.041 C 
ATOM     15  O   UNL     1       8.627  13.114  -3.512  1.00  0.00    -0.550 OA
ATOM     16  O   UNL     1       7.199  11.331  -3.676  1.00  0.00    -0.550 OA
ENDBRANCH  13  14
ENDBRANCH  12  13
ENDBRANCH  11  12
ENDBRANCH  10  11
ENDBRANCH   9  10
ENDBRANCH   8   9
ENDBRANCH   7   8
ENDBRANCH   6   7
ENDBRANCH   5   6
ENDBRANCH   4   5
ENDBRANCH   3   4
ENDBRANCH   2   3
ENDBRANCH   1   2
BRANCH   1  17
ATOM     17  C   UNL     1       7.727   9.530   1.132  1.00  0.00     0.000 C 
BRANCH  17  18
ATOM     18  C   UNL     1       7.434  10.614   0.072  1.00  0.00     0.000 C 
BRANCH  18  19
ATOM     19  C   UNL     1       7.751  12.047   0.541  1.00  0.00     0.000 C 
BRANCH  19  20
ATOM     20  C   UNL     1       6.526  12.873   0.977  1.00  0.00     0.000 C 
BRANCH  20  21
ATOM     21  C   UNL     1       6.054  12.626   2.425  1.00  0.00     0.000 C 
BRANCH  21  22
ATOM     22  C   UNL     1       4.538  12.785   2.654  1.00  0.00    -0.000 C 
BRANCH  22  23
ATOM     23  C   UNL     1       3.666  11.687   2.015  1.00  0.00    -0.000 C 
BRANCH  23  24
ATOM     24  C   UNL     1       2.932  10.770   3.015  1.00  0.00    -0.000 C 
BRANCH  24  25
ATOM     25  C   UNL     1       3.259   9.271   2.890  1.00  0.00    -0.000 C 
BRANCH  25  26
ATOM     26  C   UNL     1       4.131   8.753   4.046  1.00  0.00    -0.000 C 
BRANCH  26  27
ATOM     27  C   UNL     1       5.621   8.665   3.673  1.00  0.00    -0.000 C 
BRANCH  27  28
ATOM     28  C   UNL     1       6.286   7.304   3.955  1.00  0.00    -0.000 C 
BRANCH  28  29
ATOM     29  C   UNL     1       5.877   6.195   2.963  1.00  0.00    -0.003 C 
ATOM     30  C   UNL     1       6.548   4.858   3.276  1.00  0.00     0.004 C 
ENDBRANCH  28  29
ENDBRANCH  27  28
ENDBRANCH  26  27
ENDBRANCH  25  26
ENDBRANCH  24  25
ENDBRANCH  23  24
ENDBRANCH  22  23
ENDBRANCH  21  22
ENDBRANCH  20  21
ENDBRANCH  19  20
ENDBRANCH  18  19
ENDBRANCH  17  18
ENDBRANCH   1  17
TORSDOF 26
ENDMDL
MODEL 2
REMARK VINA RESULT:    -2.208      1.606      2.138
REMARK INTER + INTRA:          -8.623
REMARK INTER:                  -5.257
REMARK INTRA:                  -3.366
REMARK UNBOUND:                -3.060
REMARK SMILES CCCCCCCCCCCCCCCCCCCCCCCCCCCC(=O)[O-]
REMARK SMILES IDX 15 1 16 2 17 3 18 4 19 5 20 6 21 7 22 8 23 9 24 10 25 11
REMARK SMILES IDX 26 12 27 13 28 14 29 15 30 16 14 17 13 18 12 19 11 20 10 21
REMARK SMILES IDX 9 22 8 23 7 24 6 25 5 26 4 27 3 28 2 29 1 30
REMARK H PARENT
REMARK Flexibility Score: inf
ROOT
ATOM      1  C   UNL     1       8.746   6.545  -0.699  1.00  0.00     0.000 C 
ENDROOT
BRANCH   1   2
ATOM      2  C   UNL     1       7.472   6.852  -1.506  1.00  0.00     0.000 C 
BRANCH   2   3
ATOM      3  C   UNL     1       6.236   6.130  -0.950  1.00  0.00     0.000 C 
BRANCH   3   4
ATOM      4  C   UNL     1       5.651   6.883   0.254  1.00  0.00     0.000 C 
BRANCH   4   5
ATOM      5  C   UNL     1       4.450   7.769  -0.121  1.00  0.00     0.000 C 
BRANCH   5   6
ATOM      6  C   UNL     1       4.812   9.259  -0.301  1.00  0.00     0.000 C 
BRANCH   6   7
ATOM      7  C   UNL     1       4.431   9.783  -1.698  1.00  0.00     0.000 C 
BRANCH   7   8
ATOM      8  C   UNL     1       4.474  11.325  -1.780  1.00  0.00     0.000 C 
BRANCH   8   9
ATOM      9  C   UNL     1       3.997  11.884  -3.131  1.00  0.00     0.000 C 
BRANCH   9  10
ATOM     10  C   UNL     1       4.790  13.124  -3.580  1.00  0.00     0.000 C 
BRANCH  10  11
ATOM     11  C   UNL     1       6.269  13.056  -3.169  1.00  0.00     0.000 C 
BRANCH  11  12
ATOM     12  C   UNL     1       7.214  12.962  -4.380  1.00  0.00     0.006 C 
BRANCH  12  13
ATOM     13  C   UNL     1       6.961  11.699  -5.214  1.00  0.00     0.053 C 
BRANCH  13  14
ATOM     14  C   UNL     1       6.619  12.033  -6.633  1.00  0.00     0.041 C 
ATOM     15  O   UNL     1       7.391  11.696  -7.568  1.00  0.00    -0.550 OA
ATOM     16  O   UNL     1       5.463  12.748  -6.920  1.00  0.00    -0.550 OA
ENDBRANCH  13  14
ENDBRANCH  12  13
ENDBRANCH  11  12
ENDBRANCH  10  11
ENDBRANCH   9  10
ENDBRANCH   8   9
ENDBRANCH   7   8
ENDBRANCH   6   7
ENDBRANCH   5   6
ENDBRANCH   4   5
ENDBRANCH   3   4
ENDBRANCH   2   3
ENDBRANCH   1   2
BRANCH   1  17
ATOM     17  C   UNL     1       9.252   7.767   0.088  1.00  0.00     0.000 C 
BRANCH  17  18
ATOM     18  C   UNL     1       8.111   8.524   0.801  1.00  0.00     0.000 C 
BRANCH  18  19
ATOM     19  C   UNL     1       8.490   9.951   1.243  1.00  0.00     0.000 C 
BRANCH  19  20
ATOM     20  C   UNL     1       7.446  11.033   0.907  1.00  0.00     0.000 C 
BRANCH  20  21
ATOM     21  C   UNL     1       6.595  11.512   2.102  1.00  0.00     0.000 C 
BRANCH  21  22
ATOM     22  C   UNL     1       5.305  12.267   1.723  1.00  0.00    -0.000 C 
BRANCH  22  23
ATOM     23  C   UNL     1       4.019  11.419   1.770  1.00  0.00    -0.000 C 
BRANCH  23  24
ATOM     24  C   UNL     1       3.773  10.677   3.100  1.00  0.00    -0.000 C 
BRANCH  24  25
ATOM     25  C   UNL     1       3.177   9.264   2.960  1.00  0.00    -0.000 C 
BRANCH  25  26
ATOM     26  C   UNL     1       4.105   8.169   3.512  1.00  0.00    -0.000 C 
BRANCH  26  27
ATOM     27  C   UNL     1       5.514   8.693   3.840  1.00  0.00    -0.000 C 
BRANCH  27  28
ATOM     28  C   UNL     1       6.658   7.692   3.590  1.00  0.00    -0.000 C 
BRANCH  28  29
ATOM     29  C   UNL     1       6.424   6.307   4.229  1.00  0.00    -0.003 C 
ATOM     30  C   UNL     1       6.382   5.187   3.190  1.00  0.00     0.004 C 
ENDBRANCH  28  29
ENDBRANCH  27  28
ENDBRANCH  26  27
ENDBRANCH  25  26
ENDBRANCH  24  25
ENDBRANCH  23  24
ENDBRANCH  22  23
ENDBRANCH  21  22
ENDBRANCH  20  21
ENDBRANCH  19  20
ENDBRANCH  18  19
ENDBRANCH  17  18
ENDBRANCH   1  17
TORSDOF 26
ENDMDL
MODEL 3
REMARK VINA RESULT:    -1.964      1.470      7.025
REMARK INTER + INTRA:          -8.010
REMARK INTER:                  -4.701
REMARK INTRA:                  -3.309
REMARK UNBOUND:                -3.060
REMARK SMILES CCCCCCCCCCCCCCCCCCCCCCCCCCCC(=O)[O-]
REMARK SMILES IDX 15 1 16 2 17 3 18 4 19 5 20 6 21 7 22 8 23 9 24 10 25 11
REMARK SMILES IDX 26 12 27 13 28 14 29 15 30 16 14 17 13 18 12 19 11 20 10 21
REMARK SMILES IDX 9 22 8 23 7 24 6 25 5 26 4 27 3 28 2 29 1 30
REMARK H PARENT
REMARK Flexibility Score: inf
ROOT
ATOM      1  C   UNL     1       6.570   7.740   1.179  1.00  0.00     0.000 C 
ENDROOT
BRANCH   1   2
ATOM      2  C   UNL     1       5.342   7.065   1.813  1.00  0.00     0.000 C 
BRANCH   2   3
ATOM      3  C   UNL     1       4.022   7.532   1.180  1.00  0.00     0.000 C 
BRANCH   3   4
ATOM      4  C   UNL     1       2.876   7.492   2.201  1.00  0.00     0.000 C 
BRANCH   4   5
ATOM      5  C   UNL     1       2.908   8.675   3.184  1.00  0.00     0.000 C 
BRANCH   5   6
ATOM      6  C   UNL     1       2.962  10.055   2.492  1.00  0.00     0.000 C 
BRANCH   6   7
ATOM      7  C   UNL     1       4.170  10.889   2.956  1.00  0.00     0.000 C 
BRANCH   7   8
ATOM      8  C   UNL     1       4.432  12.105   2.042  1.00  0.00     0.000 C 
BRANCH   8   9
ATOM      9  C   UNL     1       5.635  12.957   2.478  1.00  0.00     0.000 C 
BRANCH   9  10
ATOM     10  C   UNL     1       6.983  12.254   2.244  1.00  0.00     0.000 C 
BRANCH  10  11
ATOM     11  C   UNL     1       7.973  13.125   1.454  1.00  0.00     0.000 C 
BRANCH  11  12
ATOM     12  C   UNL     1       8.184  12.623   0.015  1.00  0.00     0.006 C 
BRANCH  12  13
ATOM     13  C   UNL     1       7.074  13.096  -0.932  1.00  0.00     0.053 C 
BRANCH  13  14
ATOM     14  C   UNL     1       7.337  12.678  -2.345  1.00  0.00     0.041 C 
ATOM     15  O   UNL     1       8.519  12.562  -2.764  1.00  0.00    -0.550 OA
ATOM     16  O   UNL     1       6.275  12.450  -3.212  1.00  0.00    -0.550 OA
ENDBRANCH  13  14
ENDBRANCH  12  13
ENDBRANCH  11  12
ENDBRANCH  10  11
ENDBRANCH   9  10
ENDBRANCH   8   9
ENDBRANCH   7   8
ENDBRANCH   6   7
ENDBRANCH   5   6
ENDBRANCH   4   5
ENDBRANCH   3   4
ENDBRANCH   2   3
ENDBRANCH   1   2
BRANCH   1  17
ATOM     17  C   UNL     1       6.220   9.067   0.485  1.00  0.00     0.000 C 
BRANCH  17  18
ATOM     18  C   UNL     1       6.272   8.961  -1.055  1.00  0.00     0.000 C 
BRANCH  18  19
ATOM     19  C   UNL     1       5.126   9.702  -1.770  1.00  0.00     0.000 C 
BRANCH  19  20
ATOM     20  C   UNL     1       4.109  10.382  -0.834  1.00  0.00     0.000 C 
BRANCH  20  21
ATOM     21  C   UNL     1       2.914  11.051  -1.544  1.00  0.00     0.000 C 
BRANCH  21  22
ATOM     22  C   UNL     1       3.242  12.368  -2.275  1.00  0.00    -0.000 C 
BRANCH  22  23
ATOM     23  C   UNL     1       2.875  12.389  -3.772  1.00  0.00    -0.000 C 
BRANCH  23  24
ATOM     24  C   UNL     1       3.395  11.190  -4.590  1.00  0.00    -0.000 C 
BRANCH  24  25
ATOM     25  C   UNL     1       4.376  11.547  -5.722  1.00  0.00    -0.000 C 
BRANCH  25  26
ATOM     26  C   UNL     1       3.755  12.476  -6.779  1.00  0.00    -0.000 C 
BRANCH  26  27
ATOM     27  C   UNL     1       4.658  12.663  -8.010  1.00  0.00    -0.000 C 
BRANCH  27  28
ATOM     28  C   UNL     1       6.015  11.935  -7.942  1.00  0.00    -0.000 C 
BRANCH  28  29
ATOM     29  C   UNL     1       7.105  12.722  -7.184  1.00  0.00    -0.003 C 
ATOM     30  C   UNL     1       8.325  13.013  -8.057  1.00  0.00     0.004 C 
ENDBRANCH  28  29
ENDBRANCH  27  28
ENDBRANCH  26  27
ENDBRANCH  25  26
ENDBRANCH  24  25
ENDBRANCH  23  24
ENDBRANCH  22  23
ENDBRANCH  21  22
ENDBRANCH  20  21
ENDBRANCH  19  20
ENDBRANCH  18  19
ENDBRANCH  17  18
ENDBRANCH   1  17
TORSDOF 26
ENDMDL
MODEL 4
REMARK VINA RESULT:    -1.833      2.990      6.757
REMARK INTER + INTRA:          -7.680
REMARK INTER:                  -4.457
REMARK INTRA:                  -3.223
REMARK UNBOUND:                -3.060
REMARK SMILES CCCCCCCCCCCCCCCCCCCCCCCCCCCC(=O)[O-]
REMARK SMILES IDX 15 1 16 2 17 3 18 4 19 5 20 6 21 7 22 8 23 9 24 10 25 11
REMARK SMILES IDX 26 12 27 13 28 14 29 15 30 16 14 17 13 18 12 19 11 20 10 21
REMARK SMILES IDX 9 22 8 23 7 24 6 25 5 26 4 27 3 28 2 29 1 30
REMARK H PARENT
REMARK Flexibility Score: inf
ROOT
ATOM      1  C   UNL     1       5.838  10.967  -2.502  1.00  0.00     0.000 C 
ENDROOT
BRANCH   1   2
ATOM      2  C   UNL     1       4.365  11.132  -2.914  1.00  0.00     0.000 C 
BRANCH   2   3
ATOM      3  C   UNL     1       3.742  12.426  -2.369  1.00  0.00     0.000 C 
BRANCH   3   4
ATOM      4  C   UNL     1       2.945  12.156  -1.085  1.00  0.00     0.000 C 
BRANCH   4   5
ATOM      5  C   UNL     1       3.806  12.252   0.187  1.00  0.00     0.000 C 
BRANCH   5   6
ATOM      6  C   UNL     1       3.482  11.168   1.238  1.00  0.00     0.000 C 
BRANCH   6   7
ATOM      7  C   UNL     1       2.913   9.889   0.596  1.00  0.00     0.000 C 
BRANCH   7   8
ATOM      8  C   UNL     1       2.943   8.683   1.561  1.00  0.00     0.000 C 
BRANCH   8   9
ATOM      9  C   UNL     1       2.875   9.080   3.045  1.00  0.00     0.000 C 
BRANCH   9  10
ATOM     10  C   UNL     1       4.055   8.530   3.866  1.00  0.00     0.000 C 
BRANCH  10  11
ATOM     11  C   UNL     1       5.184   7.981   2.979  1.00  0.00     0.000 C 
BRANCH  11  12
ATOM     12  C   UNL     1       6.433   7.592   3.788  1.00  0.00     0.006 C 
BRANCH  12  13
ATOM     13  C   UNL     1       6.286   6.218   4.455  1.00  0.00     0.053 C 
BRANCH  13  14
ATOM     14  C   UNL     1       6.575   5.104   3.498  1.00  0.00     0.041 C 
ATOM     15  O   UNL     1       7.151   4.058   3.897  1.00  0.00    -0.550 OA
ATOM     16  O   UNL     1       6.239   5.234   2.157  1.00  0.00    -0.550 OA
ENDBRANCH  13  14
ENDBRANCH  12  13
ENDBRANCH  11  12
ENDBRANCH  10  11
ENDBRANCH   9  10
ENDBRANCH   8   9
ENDBRANCH   7   8
ENDBRANCH   6   7
ENDBRANCH   5   6
ENDBRANCH   4   5
ENDBRANCH   3   4
ENDBRANCH   2   3
ENDBRANCH   1   2
BRANCH   1  17
ATOM     17  C   UNL     1       6.774  11.913  -3.274  1.00  0.00     0.000 C 
BRANCH  17  18
ATOM     18  C   UNL     1       7.248  13.105  -2.414  1.00  0.00     0.000 C 
BRANCH  18  19
ATOM     19  C   UNL     1       6.807  13.026  -0.941  1.00  0.00     0.000 C 
BRANCH  19  20
ATOM     20  C   UNL     1       7.881  12.501   0.031  1.00  0.00     0.000 C 
BRANCH  20  21
ATOM     21  C   UNL     1       7.427  11.340   0.940  1.00  0.00     0.000 C 
BRANCH  21  22
ATOM     22  C   UNL     1       8.333  10.093   0.908  1.00  0.00    -0.000 C 
BRANCH  22  23
ATOM     23  C   UNL     1       7.585   8.750   0.789  1.00  0.00    -0.000 C 
BRANCH  23  24
ATOM     24  C   UNL     1       6.460   8.718  -0.265  1.00  0.00    -0.000 C 
BRANCH  24  25
ATOM     25  C   UNL     1       5.716   7.376  -0.387  1.00  0.00    -0.000 C 
BRANCH  25  26
ATOM     26  C   UNL     1       6.618   6.239  -0.895  1.00  0.00    -0.000 C 
BRANCH  26  27
ATOM     27  C   UNL     1       7.611   6.704  -1.974  1.00  0.00    -0.000 C 
BRANCH  27  28
ATOM     28  C   UNL     1       8.966   5.971  -1.975  1.00  0.00    -0.000 C 
BRANCH  28  29
ATOM     29  C   UNL     1       9.946   6.474  -0.894  1.00  0.00    -0.003 C 
ATOM     30  C   UNL     1      10.964   5.409  -0.490  1.00  0.00     0.004 C 
ENDBRANCH  28  29
ENDBRANCH  27  28
ENDBRANCH  26  27
ENDBRANCH  25  26
ENDBRANCH  24  25
ENDBRANCH  23  24
ENDBRANCH  22  23
ENDBRANCH  21  22
ENDBRANCH  20  21
ENDBRANCH  19  20
ENDBRANCH  18  19
ENDBRANCH  17  18
ENDBRANCH   1  17
TORSDOF 26
ENDMDL
MODEL 5
REMARK VINA RESULT:    -1.772      2.931      6.472
REMARK INTER + INTRA:          -7.524
REMARK INTER:                  -4.184
REMARK INTRA:                  -3.340
REMARK UNBOUND:                -3.060
REMARK SMILES CCCCCCCCCCCCCCCCCCCCCCCCCCCC(=O)[O-]
REMARK SMILES IDX 15 1 16 2 17 3 18 4 19 5 20 6 21 7 22 8 23 9 24 10 25 11
REMARK SMILES IDX 26 12 27 13 28 14 29 15 30 16 14 17 13 18 12 19 11 20 10 21
REMARK SMILES IDX 9 22 8 23 7 24 6 25 5 26 4 27 3 28 2 29 1 30
REMARK H PARENT
REMARK Flexibility Score: inf
ROOT
ATOM      1  C   UNL     1       6.389  10.760  -1.748  1.00  0.00     0.000 C 
ENDROOT
BRANCH   1   2
ATOM      2  C   UNL     1       5.613  10.652  -3.072  1.00  0.00     0.000 C 
BRANCH   2   3
ATOM      3  C   UNL     1       4.758  11.895  -3.357  1.00  0.00     0.000 C 
BRANCH   3   4
ATOM      4  C   UNL     1       3.354  11.751  -2.752  1.00  0.00     0.000 C 
BRANCH   4   5
ATOM      5  C   UNL     1       3.216  12.447  -1.387  1.00  0.00     0.000 C 
BRANCH   5   6
ATOM      6  C   UNL     1       2.876  11.482  -0.230  1.00  0.00     0.000 C 
BRANCH   6   7
ATOM      7  C   UNL     1       3.278  10.031  -0.549  1.00  0.00     0.000 C 
BRANCH   7   8
ATOM      8  C   UNL     1       3.050   9.081   0.648  1.00  0.00     0.000 C 
BRANCH   8   9
ATOM      9  C   UNL     1       3.102   9.787   2.013  1.00  0.00     0.000 C 
BRANCH   9  10
ATOM     10  C   UNL     1       3.031   8.806   3.196  1.00  0.00     0.000 C 
BRANCH  10  11
ATOM     11  C   UNL     1       4.397   8.592   3.866  1.00  0.00     0.000 C 
BRANCH  11  12
ATOM     12  C   UNL     1       5.330   7.697   3.032  1.00  0.00     0.006 C 
BRANCH  12  13
ATOM     13  C   UNL     1       6.292   6.887   3.910  1.00  0.00     0.053 C 
BRANCH  13  14
ATOM     14  C   UNL     1       6.440   5.480   3.417  1.00  0.00     0.041 C 
ATOM     15  O   UNL     1       6.560   4.531   4.235  1.00  0.00    -0.550 OA
ATOM     16  O   UNL     1       6.480   5.222   2.053  1.00  0.00    -0.550 OA
ENDBRANCH  13  14
ENDBRANCH  12  13
ENDBRANCH  11  12
ENDBRANCH  10  11
ENDBRANCH   9  10
ENDBRANCH   8   9
ENDBRANCH   7   8
ENDBRANCH   6   7
ENDBRANCH   5   6
ENDBRANCH   4   5
ENDBRANCH   3   4
ENDBRANCH   2   3
ENDBRANCH   1   2
BRANCH   1  17
ATOM     17  C   UNL     1       7.590  11.716  -1.847  1.00  0.00     0.000 C 
BRANCH  17  18
ATOM     18  C   UNL     1       7.276  13.119  -1.282  1.00  0.00     0.000 C 
BRANCH  18  19
ATOM     19  C   UNL     1       6.348  13.103  -0.053  1.00  0.00     0.000 C 
BRANCH  19  20
ATOM     20  C   UNL     1       6.996  12.584   1.244  1.00  0.00     0.000 C 
BRANCH  20  21
ATOM     21  C   UNL     1       6.317  11.345   1.864  1.00  0.00     0.000 C 
BRANCH  21  22
ATOM     22  C   UNL     1       7.057  10.013   1.636  1.00  0.00    -0.000 C 
BRANCH  22  23
ATOM     23  C   UNL     1       8.491  10.151   1.089  1.00  0.00    -0.000 C 
BRANCH  23  24
ATOM     24  C   UNL     1       9.488   9.085   1.588  1.00  0.00    -0.000 C 
BRANCH  24  25
ATOM     25  C   UNL     1       9.746   7.923   0.613  1.00  0.00    -0.000 C 
BRANCH  25  26
ATOM     26  C   UNL     1       8.449   7.300   0.070  1.00  0.00    -0.000 C 
BRANCH  26  27
ATOM     27  C   UNL     1       8.685   6.426  -1.174  1.00  0.00    -0.000 C 
BRANCH  27  28
ATOM     28  C   UNL     1       7.475   6.297  -2.120  1.00  0.00    -0.000 C 
BRANCH  28  29
ATOM     29  C   UNL     1       6.154   5.961  -1.397  1.00  0.00    -0.003 C 
ATOM     30  C   UNL     1       5.662   7.112  -0.519  1.00  0.00     0.004 C 
ENDBRANCH  28  29
ENDBRANCH  27  28
ENDBRANCH  26  27
ENDBRANCH  25  26
ENDBRANCH  24  25
ENDBRANCH  23  24
ENDBRANCH  22  23
ENDBRANCH  21  22
ENDBRANCH  20  21
ENDBRANCH  19  20
ENDBRANCH  18  19
ENDBRANCH  17  18
ENDBRANCH   1  17
TORSDOF 26
ENDMDL
MODEL 6
REMARK VINA RESULT:    -1.750      1.566      4.058
REMARK INTER + INTRA:          -7.469
REMARK INTER:                  -4.749
REMARK INTRA:                  -2.720
REMARK UNBOUND:                -3.060
REMARK SMILES CCCCCCCCCCCCCCCCCCCCCCCCCCCC(=O)[O-]
REMARK SMILES IDX 15 1 16 2 17 3 18 4 19 5 20 6 21 7 22 8 23 9 24 10 25 11
REMARK SMILES IDX 26 12 27 13 28 14 29 15 30 16 14 17 13 18 12 19 11 20 10 21
REMARK SMILES IDX 9 22 8 23 7 24 6 25 5 26 4 27 3 28 2 29 1 30
REMARK H PARENT
REMARK Flexibility Score: inf
ROOT
ATOM      1  C   UNL     1       5.678  10.706   2.584  1.00  0.00     0.000 C 
ENDROOT
BRANCH   1   2
ATOM      2  C   UNL     1       6.128  11.906   1.734  1.00  0.00     0.000 C 
BRANCH   2   3
ATOM      3  C   UNL     1       7.558  11.744   1.197  1.00  0.00     0.000 C 
BRANCH   3   4
ATOM      4  C   UNL     1       7.790  12.631  -0.035  1.00  0.00     0.000 C 
BRANCH   4   5
ATOM      5  C   UNL     1       7.075  12.106  -1.292  1.00  0.00     0.000 C 
BRANCH   5   6
ATOM      6  C   UNL     1       6.099  13.125  -1.922  1.00  0.00     0.000 C 
BRANCH   6   7
ATOM      7  C   UNL     1       4.712  13.088  -1.254  1.00  0.00     0.000 C 
BRANCH   7   8
ATOM      8  C   UNL     1       3.761  12.078  -1.931  1.00  0.00     0.000 C 
BRANCH   8   9
ATOM      9  C   UNL     1       3.476  12.393  -3.409  1.00  0.00     0.000 C 
BRANCH   9  10
ATOM     10  C   UNL     1       3.694  11.182  -4.332  1.00  0.00     0.000 C 
BRANCH  10  11
ATOM     11  C   UNL     1       3.012  11.353  -5.698  1.00  0.00     0.000 C 
BRANCH  11  12
ATOM     12  C   UNL     1       3.845  12.204  -6.672  1.00  0.00     0.006 C 
BRANCH  12  13
ATOM     13  C   UNL     1       4.943  11.386  -7.364  1.00  0.00     0.053 C 
BRANCH  13  14
ATOM     14  C   UNL     1       6.307  11.764  -6.873  1.00  0.00     0.041 C 
ATOM     15  O   UNL     1       6.553  11.790  -5.639  1.00  0.00    -0.550 OA
ATOM     16  O   UNL     1       7.296  12.124  -7.779  1.00  0.00    -0.550 OA
ENDBRANCH  13  14
ENDBRANCH  12  13
ENDBRANCH  11  12
ENDBRANCH  10  11
ENDBRANCH   9  10
ENDBRANCH   8   9
ENDBRANCH   7   8
ENDBRANCH   6   7
ENDBRANCH   5   6
ENDBRANCH   4   5
ENDBRANCH   3   4
ENDBRANCH   2   3
ENDBRANCH   1   2
BRANCH   1  17
ATOM     17  C   UNL     1       4.146  10.596   2.682  1.00  0.00     0.000 C 
BRANCH  17  18
ATOM     18  C   UNL     1       3.684   9.206   3.170  1.00  0.00     0.000 C 
BRANCH  18  19
ATOM     19  C   UNL     1       2.876   8.415   2.123  1.00  0.00     0.000 C 
BRANCH  19  20
ATOM     20  C   UNL     1       3.721   7.737   1.028  1.00  0.00     0.000 C 
BRANCH  20  21
ATOM     21  C   UNL     1       3.883   8.553  -0.271  1.00  0.00     0.000 C 
BRANCH  21  22
ATOM     22  C   UNL     1       5.318   9.034  -0.564  1.00  0.00    -0.000 C 
BRANCH  22  23
ATOM     23  C   UNL     1       6.259   7.957  -1.139  1.00  0.00    -0.000 C 
BRANCH  23  24
ATOM     24  C   UNL     1       6.573   6.786  -0.186  1.00  0.00    -0.000 C 
BRANCH  24  25
ATOM     25  C   UNL     1       7.556   7.115   0.953  1.00  0.00    -0.000 C 
BRANCH  25  26
ATOM     26  C   UNL     1       6.991   8.140   1.950  1.00  0.00    -0.000 C 
BRANCH  26  27
ATOM     27  C   UNL     1       7.007   7.629   3.401  1.00  0.00    -0.000 C 
BRANCH  27  28
ATOM     28  C   UNL     1       5.955   6.551   3.726  1.00  0.00    -0.000 C 
BRANCH  28  29
ATOM     29  C   UNL     1       6.545   5.134   3.886  1.00  0.00    -0.003 C 
ATOM     30  C   UNL     1       6.574   4.363   2.566  1.00  0.00     0.004 C 
ENDBRANCH  28  29
ENDBRANCH  27  28
ENDBRANCH  26  27
ENDBRANCH  25  26
ENDBRANCH  24  25
ENDBRANCH  23  24
ENDBRANCH  22  23
ENDBRANCH  21  22
ENDBRANCH  20  21
ENDBRANCH  19  20
ENDBRANCH  18  19
ENDBRANCH  17  18
ENDBRANCH   1  17
TORSDOF 26
ENDMDL
MODEL 7
REMARK VINA RESULT:    -1.732      1.749      4.779
REMARK INTER + INTRA:          -7.424
REMARK INTER:                  -4.550
REMARK INTRA:                  -2.874
REMARK UNBOUND:                -3.060
REMARK SMILES CCCCCCCCCCCCCCCCCCCCCCCCCCCC(=O)[O-]
REMARK SMILES IDX 15 1 16 2 17 3 18 4 19 5 20 6 21 7 22 8 23 9 24 10 25 11
REMARK SMILES IDX 26 12 27 13 28 14 29 15 30 16 14 17 13 18 12 19 11 20 10 21
REMARK SMILES IDX 9 22 8 23 7 24 6 25 5 26 4 27 3 28 2 29 1 30
REMARK H PARENT
REMARK Flexibility Score: inf
ROOT
ATOM      1  C   UNL     1       7.191  11.130   0.919  1.00  0.00     0.000 C 
ENDROOT
BRANCH   1   2
ATOM      2  C   UNL     1       8.118  12.281   0.493  1.00  0.00     0.000 C 
BRANCH   2   3
ATOM      3  C   UNL     1       7.539  13.104  -0.668  1.00  0.00     0.000 C 
BRANCH   3   4
ATOM      4  C   UNL     1       7.091  12.194  -1.820  1.00  0.00     0.000 C 
BRANCH   4   5
ATOM      5  C   UNL     1       6.774  12.972  -3.109  1.00  0.00     0.000 C 
BRANCH   5   6
ATOM      6  C   UNL     1       7.975  13.091  -4.072  1.00  0.00     0.000 C 
BRANCH   6   7
ATOM      7  C   UNL     1       7.866  12.115  -5.258  1.00  0.00     0.000 C 
BRANCH   7   8
ATOM      8  C   UNL     1       6.890  12.616  -6.345  1.00  0.00     0.000 C 
BRANCH   8   9
ATOM      9  C   UNL     1       5.643  11.732  -6.509  1.00  0.00     0.000 C 
BRANCH   9  10
ATOM     10  C   UNL     1       4.355  12.547  -6.717  1.00  0.00     0.000 C 
BRANCH  10  11
ATOM     11  C   UNL     1       3.103  11.659  -6.800  1.00  0.00     0.000 C 
BRANCH  11  12
ATOM     12  C   UNL     1       2.875  10.838  -5.519  1.00  0.00     0.006 C 
BRANCH  12  13
ATOM     13  C   UNL     1       4.025  10.998  -4.516  1.00  0.00     0.053 C 
BRANCH  13  14
ATOM     14  C   UNL     1       3.520  11.298  -3.138  1.00  0.00     0.041 C 
ATOM     15  O   UNL     1       3.426  10.380  -2.283  1.00  0.00    -0.550 OA
ATOM     16  O   UNL     1       3.120  12.587  -2.810  1.00  0.00    -0.550 OA
ENDBRANCH  13  14
ENDBRANCH  12  13
ENDBRANCH  11  12
ENDBRANCH  10  11
ENDBRANCH   9  10
ENDBRANCH   8   9
ENDBRANCH   7   8
ENDBRANCH   6   7
ENDBRANCH   5   6
ENDBRANCH   4   5
ENDBRANCH   3   4
ENDBRANCH   2   3
ENDBRANCH   1   2
BRANCH   1  17
ATOM     17  C   UNL     1       7.968   9.846   1.261  1.00  0.00     0.000 C 
BRANCH  17  18
ATOM     18  C   UNL     1       7.877   8.785   0.143  1.00  0.00     0.000 C 
BRANCH  18  19
ATOM     19  C   UNL     1       6.547   8.809  -0.634  1.00  0.00     0.000 C 
BRANCH  19  20
ATOM     20  C   UNL     1       5.869   7.436  -0.803  1.00  0.00     0.000 C 
BRANCH  20  21
ATOM     21  C   UNL     1       6.566   6.269  -0.073  1.00  0.00     0.000 C 
BRANCH  21  22
ATOM     22  C   UNL     1       6.008   5.950   1.328  1.00  0.00    -0.000 C 
BRANCH  22  23
ATOM     23  C   UNL     1       4.920   6.919   1.830  1.00  0.00    -0.000 C 
BRANCH  23  24
ATOM     24  C   UNL     1       5.299   7.736   3.082  1.00  0.00    -0.000 C 
BRANCH  24  25
ATOM     25  C   UNL     1       4.709   9.157   3.141  1.00  0.00    -0.000 C 
BRANCH  25  26
ATOM     26  C   UNL     1       3.380   9.282   2.376  1.00  0.00    -0.000 C 
BRANCH  26  27
ATOM     27  C   UNL     1       3.534  10.020   1.035  1.00  0.00    -0.000 C 
BRANCH  27  28
ATOM     28  C   UNL     1       3.141  11.510   1.061  1.00  0.00    -0.000 C 
BRANCH  28  29
ATOM     29  C   UNL     1       4.129  12.400   1.842  1.00  0.00    -0.003 C 
ATOM     30  C   UNL     1       3.469  13.101   3.029  1.00  0.00     0.004 C 
ENDBRANCH  28  29
ENDBRANCH  27  28
ENDBRANCH  26  27
ENDBRANCH  25  26
ENDBRANCH  24  25
ENDBRANCH  23  24
ENDBRANCH  22  23
ENDBRANCH  21  22
ENDBRANCH  20  21
ENDBRANCH  19  20
ENDBRANCH  18  19
ENDBRANCH  17  18
ENDBRANCH   1  17
TORSDOF 26
ENDMDL
MODEL 8
REMARK VINA RESULT:    -1.663      1.738      3.861
REMARK INTER + INTRA:          -7.250
REMARK INTER:                  -4.410
REMARK INTRA:                  -2.840
REMARK UNBOUND:                -3.060
REMARK SMILES CCCCCCCCCCCCCCCCCCCCCCCCCCCC(=O)[O-]
REMARK SMILES IDX 15 1 16 2 17 3 18 4 19 5 20 6 21 7 22 8 23 9 24 10 25 11
REMARK SMILES IDX 26 12 27 13 28 14 29 15 30 16 14 17 13 18 12 19 11 20 10 21
REMARK SMILES IDX 9 22 8 23 7 24 6 25 5 26 4 27 3 28 2 29 1 30
REMARK H PARENT
REMARK Flexibility Score: inf
ROOT
ATOM      1  C   UNL     1       9.043   9.055   1.308  1.00  0.00     0.000 C 
ENDROOT
BRANCH   1   2
ATOM      2  C   UNL     1       7.996   9.860   0.520  1.00  0.00     0.000 C 
BRANCH   2   3
ATOM      3  C   UNL     1       7.558  11.135   1.255  1.00  0.00     0.000 C 
BRANCH   3   4
ATOM      4  C   UNL     1       8.326  12.361   0.740  1.00  0.00     0.000 C 
BRANCH   4   5
ATOM      5  C   UNL     1       7.577  13.112  -0.375  1.00  0.00     0.000 C 
BRANCH   5   6
ATOM      6  C   UNL     1       6.682  12.200  -1.243  1.00  0.00     0.000 C 
BRANCH   6   7
ATOM      7  C   UNL     1       5.433  12.937  -1.760  1.00  0.00     0.000 C 
BRANCH   7   8
ATOM      8  C   UNL     1       5.449  13.118  -3.294  1.00  0.00     0.000 C 
BRANCH   8   9
ATOM      9  C   UNL     1       4.201  12.554  -3.994  1.00  0.00     0.000 C 
BRANCH   9  10
ATOM     10  C   UNL     1       4.507  11.323  -4.863  1.00  0.00     0.000 C 
BRANCH  10  11
ATOM     11  C   UNL     1       3.756  11.346  -6.203  1.00  0.00     0.000 C 
BRANCH  11  12
ATOM     12  C   UNL     1       4.681  11.651  -7.394  1.00  0.00     0.006 C 
BRANCH  12  13
ATOM     13  C   UNL     1       5.686  12.764  -7.075  1.00  0.00     0.053 C 
BRANCH  13  14
ATOM     14  C   UNL     1       7.078  12.229  -6.931  1.00  0.00     0.041 C 
ATOM     15  O   UNL     1       7.710  12.386  -5.854  1.00  0.00    -0.550 OA
ATOM     16  O   UNL     1       7.689  11.587  -8.000  1.00  0.00    -0.550 OA
ENDBRANCH  13  14
ENDBRANCH  12  13
ENDBRANCH  11  12
ENDBRANCH  10  11
ENDBRANCH   9  10
ENDBRANCH   8   9
ENDBRANCH   7   8
ENDBRANCH   6   7
ENDBRANCH   5   6
ENDBRANCH   4   5
ENDBRANCH   3   4
ENDBRANCH   2   3
ENDBRANCH   1   2
BRANCH   1  17
ATOM     17  C   UNL     1       8.405   7.982   2.207  1.00  0.00     0.000 C 
BRANCH  17  18
ATOM     18  C   UNL     1       6.862   7.997   2.141  1.00  0.00     0.000 C 
BRANCH  18  19
ATOM     19  C   UNL     1       6.179   7.327   3.349  1.00  0.00     0.000 C 
BRANCH  19  20
ATOM     20  C   UNL     1       5.248   8.247   4.160  1.00  0.00     0.000 C 
BRANCH  20  21
ATOM     21  C   UNL     1       3.888   8.548   3.498  1.00  0.00     0.000 C 
BRANCH  21  22
ATOM     22  C   UNL     1       3.855   9.814   2.619  1.00  0.00    -0.000 C 
BRANCH  22  23
ATOM     23  C   UNL     1       3.206   9.627   1.234  1.00  0.00    -0.000 C 
BRANCH  23  24
ATOM     24  C   UNL     1       4.061  10.100   0.041  1.00  0.00    -0.000 C 
BRANCH  24  25
ATOM     25  C   UNL     1       4.672   8.974  -0.813  1.00  0.00    -0.000 C 
BRANCH  25  26
ATOM     26  C   UNL     1       4.815   7.651  -0.041  1.00  0.00    -0.000 C 
BRANCH  26  27
ATOM     27  C   UNL     1       5.689   6.623  -0.781  1.00  0.00    -0.000 C 
BRANCH  27  28
ATOM     28  C   UNL     1       6.905   7.212  -1.522  1.00  0.00    -0.000 C 
BRANCH  28  29
ATOM     29  C   UNL     1       7.988   6.169  -1.867  1.00  0.00    -0.003 C 
ATOM     30  C   UNL     1       9.275   6.381  -1.069  1.00  0.00     0.004 C 
ENDBRANCH  28  29
ENDBRANCH  27  28
ENDBRANCH  26  27
ENDBRANCH  25  26
ENDBRANCH  24  25
ENDBRANCH  23  24
ENDBRANCH  22  23
ENDBRANCH  21  22
ENDBRANCH  20  21
ENDBRANCH  19  20
ENDBRANCH  18  19
ENDBRANCH  17  18
ENDBRANCH   1  17
TORSDOF 26
ENDMDL
