MODEL 1
REMARK VINA RESULT:    -4.938      0.000      0.000
REMARK INTER + INTRA:         -10.504
REMARK INTER:                  -8.980
REMARK INTRA:                  -1.525
REMARK UNBOUND:                -1.525
REMARK SMILES CCCCCC=CCC=CCCCCCCCC(=O)[O-]
REMARK SMILES IDX 11 1 12 2 13 3 14 4 15 5 16 6 17 7 18 8 19 9 20 10 10 11
REMARK SMILES IDX 9 12 8 13 7 14 6 15 5 16 4 17 3 18 2 19 1 20
REMARK H PARENT
REMARK Flexibility Score: inf
ROOT
ATOM      1  C   UNL     1      25.787 -32.649  23.134  1.00  0.00     0.027 C 
ENDROOT
BRANCH   1   2
ATOM      2  C   UNL     1      26.361 -33.257  21.839  1.00  0.00     0.004 C 
BRANCH   2   3
ATOM      3  C   UNL     1      25.529 -32.958  20.575  1.00  0.00     0.000 C 
BRANCH   3   4
ATOM      4  C   UNL     1      24.158 -33.652  20.509  1.00  0.00     0.000 C 
BRANCH   4   5
ATOM      5  C   UNL     1      24.262 -35.184  20.443  1.00  0.00     0.000 C 
BRANCH   5   6
ATOM      6  C   UNL     1      23.045 -35.847  21.106  1.00  0.00     0.006 C 
BRANCH   6   7
ATOM      7  C   UNL     1      23.455 -36.885  22.159  1.00  0.00     0.053 C 
BRANCH   7   8
ATOM      8  C   UNL     1      24.448 -36.323  23.134  1.00  0.00     0.041 C 
ATOM      9  O   UNL     1      24.071 -35.525  24.030  1.00  0.00    -0.550 OA
ATOM     10  O   UNL     1      25.793 -36.651  23.028  1.00  0.00    -0.550 OA
ENDBRANCH   7   8
ENDBRANCH   6   7
ENDBRANCH   5   6
ENDBRANCH   4   5
ENDBRANCH   3   4
ENDBRANCH   2   3
ENDBRANCH   1   2
BRANCH   1  11
ATOM     11  C   UNL     1      25.682 -31.143  23.089  1.00  0.00    -0.031 C 
ATOM     12  C   UNL     1      24.792 -30.407  23.783  1.00  0.00    -0.027 C 
BRANCH  12  13
ATOM     13  C   UNL     1      23.720 -30.970  24.682  1.00  0.00     0.054 C 
BRANCH  13  14
ATOM     14  C   UNL     1      23.509 -30.070  25.866  1.00  0.00    -0.027 C 
ATOM     15  C   UNL     1      23.807 -28.762  25.808  1.00  0.00    -0.031 C 
BRANCH  15  16
ATOM     16  C   UNL     1      23.628 -27.861  26.998  1.00  0.00     0.027 C 
BRANCH  16  17
ATOM     17  C   UNL     1      22.645 -28.464  28.009  1.00  0.00     0.004 C 
BRANCH  17  18
ATOM     18  C   UNL     1      23.315 -28.659  29.377  1.00  0.00     0.000 C 
BRANCH  18  19
ATOM     19  C   UNL     1      24.814 -28.975  29.260  1.00  0.00    -0.003 C 
ATOM     20  C   UNL     1      25.103 -30.477  29.237  1.00  0.00     0.004 C 
ENDBRANCH  18  19
ENDBRANCH  17  18
ENDBRANCH  16  17
ENDBRANCH  15  16
ENDBRANCH  13  14
ENDBRANCH  12  13
ENDBRANCH   1  11
TORSDOF 14
ENDMDL
MODEL 2
REMARK VINA RESULT:    -4.936      3.038      7.006
REMARK INTER + INTRA:         -10.501
REMARK INTER:                  -8.357
REMARK INTRA:                  -2.144
REMARK UNBOUND:                -1.525
REMARK SMILES CCCCCC=CCC=CCCCCCCCC(=O)[O-]
REMARK SMILES IDX 11 1 12 2 13 3 14 4 15 5 16 6 17 7 18 8 19 9 20 10 10 11
REMARK SMILES IDX 9 12 8 13 7 14 6 15 5 16 4 17 3 18 2 19 1 20
REMARK H PARENT
REMARK Flexibility Score: inf
ROOT
ATOM      1  C   UNL     1      24.000 -33.645  20.758  1.00  0.00     0.027 C 
ENDROOT
BRANCH   1   2
ATOM      2  C   UNL     1      25.415 -33.058  20.586  1.00  0.00     0.004 C 
BRANCH   2   3
ATOM      3  C   UNL     1      26.326 -33.231  21.818  1.00  0.00     0.000 C 
BRANCH   3   4
ATOM      4  C   UNL     1      25.770 -32.662  23.135  1.00  0.00     0.000 C 
BRANCH   4   5
ATOM      5  C   UNL     1      25.545 -31.143  23.087  1.00  0.00     0.000 C 
BRANCH   5   6
ATOM      6  C   UNL     1      24.597 -30.691  24.207  1.00  0.00     0.006 C 
BRANCH   6   7
ATOM      7  C   UNL     1      23.422 -31.660  24.396  1.00  0.00     0.053 C 
BRANCH   7   8
ATOM      8  C   UNL     1      22.649 -31.358  25.646  1.00  0.00     0.041 C 
ATOM      9  O   UNL     1      21.392 -31.311  25.615  1.00  0.00    -0.550 OA
ATOM     10  O   UNL     1      23.318 -31.090  26.833  1.00  0.00    -0.550 OA
ENDBRANCH   7   8
ENDBRANCH   6   7
ENDBRANCH   5   6
ENDBRANCH   4   5
ENDBRANCH   3   4
ENDBRANCH   2   3
ENDBRANCH   1   2
BRANCH   1  11
ATOM     11  C   UNL     1      23.868 -35.049  20.216  1.00  0.00    -0.031 C 
ATOM     12  C   UNL     1      23.626 -36.147  20.958  1.00  0.00    -0.027 C 
BRANCH  12  13
ATOM     13  C   UNL     1      23.496 -36.162  22.461  1.00  0.00     0.054 C 
BRANCH  13  14
ATOM     14  C   UNL     1      24.846 -36.342  23.097  1.00  0.00    -0.027 C 
ATOM     15  C   UNL     1      25.716 -37.256  22.637  1.00  0.00    -0.031 C 
BRANCH  15  16
ATOM     16  C   UNL     1      27.056 -37.463  23.287  1.00  0.00     0.027 C 
BRANCH  16  17
ATOM     17  C   UNL     1      27.120 -36.780  24.658  1.00  0.00     0.004 C 
BRANCH  17  18
ATOM     18  C   UNL     1      27.083 -37.818  25.790  1.00  0.00     0.000 C 
BRANCH  18  19
ATOM     19  C   UNL     1      25.661 -38.070  26.314  1.00  0.00    -0.003 C 
ATOM     20  C   UNL     1      25.014 -39.311  25.700  1.00  0.00     0.004 C 
ENDBRANCH  18  19
ENDBRANCH  17  18
ENDBRANCH  16  17
ENDBRANCH  15  16
ENDBRANCH  13  14
ENDBRANCH  12  13
ENDBRANCH   1  11
TORSDOF 14
ENDMDL
MODEL 3
REMARK VINA RESULT:    -4.844      3.021      7.544
REMARK INTER + INTRA:         -10.334
REMARK INTER:                  -8.428
REMARK INTRA:                  -1.906
REMARK UNBOUND:                -1.525
REMARK SMILES CCCCCC=CCC=CCCCCCCCC(=O)[O-]
REMARK SMILES IDX 11 1 12 2 13 3 14 4 15 5 16 6 17 7 18 8 19 9 20 10 10 11
REMARK SMILES IDX 9 12 8 13 7 14 6 15 5 16 4 17 3 18 2 19 1 20
REMARK H PARENT
REMARK Flexibility Score: inf
ROOT
ATOM      1  C   UNL     1      25.586 -32.363  23.360  1.00  0.00     0.027 C 
ENDROOT
BRANCH   1   2
ATOM      2  C   UNL     1      25.607 -30.826  23.483  1.00  0.00     0.004 C 
BRANCH   2   3
ATOM      3  C   UNL     1      24.390 -30.234  24.222  1.00  0.00     0.000 C 
BRANCH   3   4
ATOM      4  C   UNL     1      23.683 -31.188  25.199  1.00  0.00     0.000 C 
BRANCH   4   5
ATOM      5  C   UNL     1      24.160 -31.025  26.650  1.00  0.00     0.000 C 
BRANCH   5   6
ATOM      6  C   UNL     1      22.969 -30.955  27.616  1.00  0.00     0.006 C 
BRANCH   6   7
ATOM      7  C   UNL     1      22.870 -29.591  28.313  1.00  0.00     0.053 C 
BRANCH   7   8
ATOM      8  C   UNL     1      22.831 -28.464  27.324  1.00  0.00     0.041 C 
ATOM      9  O   UNL     1      23.723 -27.577  27.342  1.00  0.00    -0.550 OA
ATOM     10  O   UNL     1      21.790 -28.374  26.408  1.00  0.00    -0.550 OA
ENDBRANCH   7   8
ENDBRANCH   6   7
ENDBRANCH   5   6
ENDBRANCH   4   5
ENDBRANCH   3   4
ENDBRANCH   2   3
ENDBRANCH   1   2
BRANCH   1  11
ATOM     11  C   UNL     1      26.430 -32.881  22.219  1.00  0.00    -0.031 C 
ATOM     12  C   UNL     1      25.987 -33.105  20.967  1.00  0.00    -0.027 C 
BRANCH  12  13
ATOM     13  C   UNL     1      24.561 -32.923  20.511  1.00  0.00     0.054 C 
BRANCH  13  14
ATOM     14  C   UNL     1      23.724 -34.094  20.943  1.00  0.00    -0.027 C 
ATOM     15  C   UNL     1      24.052 -35.350  20.598  1.00  0.00    -0.031 C 
BRANCH  15  16
ATOM     16  C   UNL     1      23.203 -36.524  21.001  1.00  0.00     0.027 C 
BRANCH  16  17
ATOM     17  C   UNL     1      23.486 -36.943  22.449  1.00  0.00     0.004 C 
BRANCH  17  18
ATOM     18  C   UNL     1      24.998 -37.007  22.715  1.00  0.00     0.000 C 
BRANCH  18  19
ATOM     19  C   UNL     1      25.428 -36.119  23.893  1.00  0.00    -0.003 C 
ATOM     20  C   UNL     1      24.242 -35.489  24.623  1.00  0.00     0.004 C 
ENDBRANCH  18  19
ENDBRANCH  17  18
ENDBRANCH  16  17
ENDBRANCH  15  16
ENDBRANCH  13  14
ENDBRANCH  12  13
ENDBRANCH   1  11
TORSDOF 14
ENDMDL
MODEL 4
REMARK VINA RESULT:    -4.843      1.663      2.428
REMARK INTER + INTRA:         -10.331
REMARK INTER:                  -8.524
REMARK INTRA:                  -1.807
REMARK UNBOUND:                -1.525
REMARK SMILES CCCCCC=CCC=CCCCCCCCC(=O)[O-]
REMARK SMILES IDX 11 1 12 2 13 3 14 4 15 5 16 6 17 7 18 8 19 9 20 10 10 11
REMARK SMILES IDX 9 12 8 13 7 14 6 15 5 16 4 17 3 18 2 19 1 20
REMARK H PARENT
REMARK Flexibility Score: inf
ROOT
ATOM      1  C   UNL     1      26.378 -32.768  21.708  1.00  0.00     0.027 C 
ENDROOT
BRANCH   1   2
ATOM      2  C   UNL     1      25.386 -32.939  20.540  1.00  0.00     0.004 C 
BRANCH   2   3
ATOM      3  C   UNL     1      24.088 -33.682  20.916  1.00  0.00     0.000 C 
BRANCH   3   4
ATOM      4  C   UNL     1      23.951 -35.102  20.342  1.00  0.00     0.000 C 
BRANCH   4   5
ATOM      5  C   UNL     1      23.383 -36.108  21.355  1.00  0.00     0.000 C 
BRANCH   5   6
ATOM      6  C   UNL     1      24.483 -37.047  21.872  1.00  0.00     0.006 C 
BRANCH   6   7
ATOM      7  C   UNL     1      25.200 -36.475  23.102  1.00  0.00     0.053 C 
BRANCH   7   8
ATOM      8  C   UNL     1      24.273 -36.348  24.275  1.00  0.00     0.041 C 
ATOM      9  O   UNL     1      24.190 -35.258  24.897  1.00  0.00    -0.550 OA
ATOM     10  O   UNL     1      23.531 -37.441  24.702  1.00  0.00    -0.550 OA
ENDBRANCH   7   8
ENDBRANCH   6   7
ENDBRANCH   5   6
ENDBRANCH   4   5
ENDBRANCH   3   4
ENDBRANCH   2   3
ENDBRANCH   1   2
BRANCH   1  11
ATOM     11  C   UNL     1      25.709 -32.765  23.063  1.00  0.00    -0.031 C 
ATOM     12  C   UNL     1      25.318 -31.663  23.731  1.00  0.00    -0.027 C 
BRANCH  12  13
ATOM     13  C   UNL     1      25.529 -30.246  23.258  1.00  0.00     0.054 C 
BRANCH  13  14
ATOM     14  C   UNL     1      24.732 -29.292  24.102  1.00  0.00    -0.027 C 
ATOM     15  C   UNL     1      24.042 -29.719  25.172  1.00  0.00    -0.031 C 
BRANCH  15  16
ATOM     16  C   UNL     1      23.217 -28.777  26.004  1.00  0.00     0.027 C 
BRANCH  16  17
ATOM     17  C   UNL     1      22.259 -29.542  26.925  1.00  0.00     0.004 C 
BRANCH  17  18
ATOM     18  C   UNL     1      21.321 -30.446  26.111  1.00  0.00     0.000 C 
BRANCH  18  19
ATOM     19  C   UNL     1      21.148 -31.837  26.740  1.00  0.00    -0.003 C 
ATOM     20  C   UNL     1      22.395 -32.712  26.596  1.00  0.00     0.004 C 
ENDBRANCH  18  19
ENDBRANCH  17  18
ENDBRANCH  16  17
ENDBRANCH  15  16
ENDBRANCH  13  14
ENDBRANCH  12  13
ENDBRANCH   1  11
TORSDOF 14
ENDMDL
MODEL 5
REMARK VINA RESULT:    -4.811      2.981      7.049
REMARK INTER + INTRA:         -10.273
REMARK INTER:                  -8.071
REMARK INTRA:                  -2.202
REMARK UNBOUND:                -1.525
REMARK SMILES CCCCCC=CCC=CCCCCCCCC(=O)[O-]
REMARK SMILES IDX 11 1 12 2 13 3 14 4 15 5 16 6 17 7 18 8 19 9 20 10 10 11
REMARK SMILES IDX 9 12 8 13 7 14 6 15 5 16 4 17 3 18 2 19 1 20
REMARK H PARENT
REMARK Flexibility Score: inf
ROOT
ATOM      1  C   UNL     1      25.263 -33.275  20.526  1.00  0.00     0.027 C 
ENDROOT
BRANCH   1   2
ATOM      2  C   UNL     1      26.322 -32.837  21.558  1.00  0.00     0.004 C 
BRANCH   2   3
ATOM      3  C   UNL     1      25.797 -32.744  23.004  1.00  0.00     0.000 C 
BRANCH   3   4
ATOM      4  C   UNL     1      25.614 -31.317  23.550  1.00  0.00     0.000 C 
BRANCH   4   5
ATOM      5  C   UNL     1      24.212 -31.070  24.127  1.00  0.00     0.000 C 
BRANCH   5   6
ATOM      6  C   UNL     1      24.181 -31.351  25.636  1.00  0.00     0.006 C 
BRANCH   6   7
ATOM      7  C   UNL     1      23.136 -30.493  26.363  1.00  0.00     0.053 C 
BRANCH   7   8
ATOM      8  C   UNL     1      23.730 -29.216  26.879  1.00  0.00     0.041 C 
ATOM      9  O   UNL     1      24.222 -29.172  28.036  1.00  0.00    -0.550 OA
ATOM     10  O   UNL     1      23.705 -28.068  26.098  1.00  0.00    -0.550 OA
ENDBRANCH   7   8
ENDBRANCH   6   7
ENDBRANCH   5   6
ENDBRANCH   4   5
ENDBRANCH   3   4
ENDBRANCH   2   3
ENDBRANCH   1   2
BRANCH   1  11
ATOM     11  C   UNL     1      23.936 -33.637  21.152  1.00  0.00    -0.031 C 
ATOM     12  C   UNL     1      23.494 -34.893  21.358  1.00  0.00    -0.027 C 
BRANCH  12  13
ATOM     13  C   UNL     1      24.231 -36.145  20.950  1.00  0.00     0.054 C 
BRANCH  13  14
ATOM     14  C   UNL     1      24.853 -36.796  22.153  1.00  0.00    -0.027 C 
ATOM     15  C   UNL     1      26.029 -36.371  22.643  1.00  0.00    -0.031 C 
BRANCH  15  16
ATOM     16  C   UNL     1      26.674 -37.037  23.828  1.00  0.00     0.027 C 
BRANCH  16  17
ATOM     17  C   UNL     1      25.655 -37.861  24.624  1.00  0.00     0.004 C 
BRANCH  17  18
ATOM     18  C   UNL     1      25.183 -37.095  25.869  1.00  0.00     0.000 C 
BRANCH  18  19
ATOM     19  C   UNL     1      23.793 -36.467  25.684  1.00  0.00    -0.003 C 
ATOM     20  C   UNL     1      23.858 -35.018  25.197  1.00  0.00     0.004 C 
ENDBRANCH  18  19
ENDBRANCH  17  18
ENDBRANCH  16  17
ENDBRANCH  15  16
ENDBRANCH  13  14
ENDBRANCH  12  13
ENDBRANCH   1  11
TORSDOF 14
ENDMDL
MODEL 6
REMARK VINA RESULT:    -4.777      3.000      8.081
REMARK INTER + INTRA:         -10.211
REMARK INTER:                  -8.541
REMARK INTRA:                  -1.670
REMARK UNBOUND:                -1.525
REMARK SMILES CCCCCC=CCC=CCCCCCCCC(=O)[O-]
REMARK SMILES IDX 11 1 12 2 13 3 14 4 15 5 16 6 17 7 18 8 19 9 20 10 10 11
REMARK SMILES IDX 9 12 8 13 7 14 6 15 5 16 4 17 3 18 2 19 1 20
REMARK H PARENT
REMARK Flexibility Score: inf
ROOT
ATOM      1  C   UNL     1      25.638 -32.264  22.956  1.00  0.00     0.027 C 
ENDROOT
BRANCH   1   2
ATOM      2  C   UNL     1      25.632 -30.791  23.411  1.00  0.00     0.004 C 
BRANCH   2   3
ATOM      3  C   UNL     1      24.377 -30.379  24.207  1.00  0.00     0.000 C 
BRANCH   3   4
ATOM      4  C   UNL     1      23.358 -31.503  24.458  1.00  0.00     0.000 C 
BRANCH   4   5
ATOM      5  C   UNL     1      23.343 -31.986  25.917  1.00  0.00     0.000 C 
BRANCH   5   6
ATOM      6  C   UNL     1      24.095 -31.005  26.828  1.00  0.00     0.006 C 
BRANCH   6   7
ATOM      7  C   UNL     1      23.151 -30.266  27.786  1.00  0.00     0.053 C 
BRANCH   7   8
ATOM      8  C   UNL     1      23.082 -28.800  27.475  1.00  0.00     0.041 C 
ATOM      9  O   UNL     1      23.543 -27.960  28.290  1.00  0.00    -0.550 OA
ATOM     10  O   UNL     1      22.476 -28.361  26.305  1.00  0.00    -0.550 OA
ENDBRANCH   7   8
ENDBRANCH   6   7
ENDBRANCH   5   6
ENDBRANCH   4   5
ENDBRANCH   3   4
ENDBRANCH   2   3
ENDBRANCH   1   2
BRANCH   1  11
ATOM     11  C   UNL     1      26.030 -32.439  21.508  1.00  0.00    -0.031 C 
ATOM     12  C   UNL     1      25.278 -33.044  20.568  1.00  0.00    -0.027 C 
BRANCH  12  13
ATOM     13  C   UNL     1      23.938 -33.690  20.820  1.00  0.00     0.054 C 
BRANCH  13  14
ATOM     14  C   UNL     1      24.095 -35.180  20.940  1.00  0.00    -0.027 C 
ATOM     15  C   UNL     1      24.480 -35.749  22.093  1.00  0.00    -0.031 C 
BRANCH  15  16
ATOM     16  C   UNL     1      24.669 -37.236  22.213  1.00  0.00     0.027 C 
BRANCH  16  17
ATOM     17  C   UNL     1      23.729 -37.993  21.267  1.00  0.00     0.004 C 
BRANCH  17  18
ATOM     18  C   UNL     1      22.498 -38.517  22.022  1.00  0.00     0.000 C 
BRANCH  18  19
ATOM     19  C   UNL     1      21.294 -37.568  21.920  1.00  0.00    -0.003 C 
ATOM     20  C   UNL     1      20.988 -37.150  20.482  1.00  0.00     0.004 C 
ENDBRANCH  18  19
ENDBRANCH  17  18
ENDBRANCH  16  17
ENDBRANCH  15  16
ENDBRANCH  13  14
ENDBRANCH  12  13
ENDBRANCH   1  11
TORSDOF 14
ENDMDL
MODEL 7
REMARK VINA RESULT:    -4.762      1.611      3.395
REMARK INTER + INTRA:         -10.184
REMARK INTER:                  -8.471
REMARK INTRA:                  -1.714
REMARK UNBOUND:                -1.525
REMARK SMILES CCCCCC=CCC=CCCCCCCCC(=O)[O-]
REMARK SMILES IDX 11 1 12 2 13 3 14 4 15 5 16 6 17 7 18 8 19 9 20 10 10 11
REMARK SMILES IDX 9 12 8 13 7 14 6 15 5 16 4 17 3 18 2 19 1 20
REMARK H PARENT
REMARK Flexibility Score: inf
ROOT
ATOM      1  C   UNL     1      23.770 -33.778  20.979  1.00  0.00     0.027 C 
ENDROOT
BRANCH   1   2
ATOM      2  C   UNL     1      23.359 -35.103  20.308  1.00  0.00     0.004 C 
BRANCH   2   3
ATOM      3  C   UNL     1      24.132 -36.337  20.816  1.00  0.00     0.000 C 
BRANCH   3   4
ATOM      4  C   UNL     1      24.171 -36.507  22.345  1.00  0.00     0.000 C 
BRANCH   4   5
ATOM      5  C   UNL     1      25.600 -36.562  22.907  1.00  0.00     0.000 C 
BRANCH   5   6
ATOM      6  C   UNL     1      25.618 -36.203  24.400  1.00  0.00     0.006 C 
BRANCH   6   7
ATOM      7  C   UNL     1      24.244 -35.737  24.899  1.00  0.00     0.053 C 
BRANCH   7   8
ATOM      8  C   UNL     1      23.626 -36.735  25.833  1.00  0.00     0.041 C 
ATOM      9  O   UNL     1      24.041 -36.832  27.017  1.00  0.00    -0.550 OA
ATOM     10  O   UNL     1      22.621 -37.583  25.386  1.00  0.00    -0.550 OA
ENDBRANCH   7   8
ENDBRANCH   6   7
ENDBRANCH   5   6
ENDBRANCH   4   5
ENDBRANCH   3   4
ENDBRANCH   2   3
ENDBRANCH   1   2
BRANCH   1  11
ATOM     11  C   UNL     1      25.131 -33.287  20.545  1.00  0.00    -0.031 C 
ATOM     12  C   UNL     1      26.131 -32.940  21.378  1.00  0.00    -0.027 C 
BRANCH  12  13
ATOM     13  C   UNL     1      26.040 -32.939  22.884  1.00  0.00     0.054 C 
BRANCH  13  14
ATOM     14  C   UNL     1      25.668 -31.571  23.381  1.00  0.00    -0.027 C 
ATOM     15  C   UNL     1      24.581 -31.379  24.145  1.00  0.00    -0.031 C 
BRANCH  15  16
ATOM     16  C   UNL     1      24.185 -30.009  24.621  1.00  0.00     0.027 C 
BRANCH  16  17
ATOM     17  C   UNL     1      23.194 -30.091  25.788  1.00  0.00     0.004 C 
BRANCH  17  18
ATOM     18  C   UNL     1      23.801 -29.494  27.066  1.00  0.00     0.000 C 
BRANCH  18  19
ATOM     19  C   UNL     1      23.664 -27.964  27.125  1.00  0.00    -0.003 C 
ATOM     20  C   UNL     1      22.653 -27.500  28.174  1.00  0.00     0.004 C 
ENDBRANCH  18  19
ENDBRANCH  17  18
ENDBRANCH  16  17
ENDBRANCH  15  16
ENDBRANCH  13  14
ENDBRANCH  12  13
ENDBRANCH   1  11
TORSDOF 14
ENDMDL
MODEL 8
REMARK VINA RESULT:    -4.722      1.549      2.033
REMARK INTER + INTRA:         -10.112
REMARK INTER:                  -8.589
REMARK INTRA:                  -1.523
REMARK UNBOUND:                -1.525
REMARK SMILES CCCCCC=CCC=CCCCCCCCC(=O)[O-]
REMARK SMILES IDX 11 1 12 2 13 3 14 4 15 5 16 6 17 7 18 8 19 9 20 10 10 11
REMARK SMILES IDX 9 12 8 13 7 14 6 15 5 16 4 17 3 18 2 19 1 20
REMARK H PARENT
REMARK Flexibility Score: inf
ROOT
ATOM      1  C   UNL     1      25.753 -32.521  23.006  1.00  0.00     0.027 C 
ENDROOT
BRANCH   1   2
ATOM      2  C   UNL     1      26.416 -32.591  21.616  1.00  0.00     0.004 C 
BRANCH   2   3
ATOM      3  C   UNL     1      25.471 -33.044  20.485  1.00  0.00     0.000 C 
BRANCH   3   4
ATOM      4  C   UNL     1      24.122 -33.623  20.945  1.00  0.00     0.000 C 
BRANCH   4   5
ATOM      5  C   UNL     1      24.054 -35.153  20.831  1.00  0.00     0.000 C 
BRANCH   5   6
ATOM      6  C   UNL     1      24.000 -35.806  22.220  1.00  0.00     0.006 C 
BRANCH   6   7
ATOM      7  C   UNL     1      25.399 -36.130  22.762  1.00  0.00     0.053 C 
BRANCH   7   8
ATOM      8  C   UNL     1      25.658 -37.607  22.780  1.00  0.00     0.041 C 
ATOM      9  O   UNL     1      26.194 -38.141  23.786  1.00  0.00    -0.550 OA
ATOM     10  O   UNL     1      25.344 -38.386  21.674  1.00  0.00    -0.550 OA
ENDBRANCH   7   8
ENDBRANCH   6   7
ENDBRANCH   5   6
ENDBRANCH   4   5
ENDBRANCH   3   4
ENDBRANCH   2   3
ENDBRANCH   1   2
BRANCH   1  11
ATOM     11  C   UNL     1      25.443 -31.110  23.447  1.00  0.00    -0.031 C 
ATOM     12  C   UNL     1      24.390 -30.749  24.206  1.00  0.00    -0.027 C 
BRANCH  12  13
ATOM     13  C   UNL     1      23.319 -31.690  24.700  1.00  0.00     0.054 C 
BRANCH  13  14
ATOM     14  C   UNL     1      22.632 -31.110  25.904  1.00  0.00    -0.027 C 
ATOM     15  C   UNL     1      21.316 -30.847  25.895  1.00  0.00    -0.031 C 
BRANCH  15  16
ATOM     16  C   UNL     1      20.627 -30.238  27.085  1.00  0.00     0.027 C 
BRANCH  16  17
ATOM     17  C   UNL     1      21.642 -29.650  28.074  1.00  0.00     0.004 C 
BRANCH  17  18
ATOM     18  C   UNL     1      21.577 -28.116  28.078  1.00  0.00     0.000 C 
BRANCH  18  19
ATOM     19  C   UNL     1      22.969 -27.466  28.080  1.00  0.00    -0.003 C 
ATOM     20  C   UNL     1      23.899 -28.052  27.017  1.00  0.00     0.004 C 
ENDBRANCH  18  19
ENDBRANCH  17  18
ENDBRANCH  16  17
ENDBRANCH  15  16
ENDBRANCH  13  14
ENDBRANCH  12  13
ENDBRANCH   1  11
TORSDOF 14
ENDMDL
MODEL 9
REMARK VINA RESULT:    -4.651      3.883      8.925
REMARK INTER + INTRA:          -9.982
REMARK INTER:                  -8.609
REMARK INTRA:                  -1.374
REMARK UNBOUND:                -1.525
REMARK SMILES CCCCCC=CCC=CCCCCCCCC(=O)[O-]
REMARK SMILES IDX 11 1 12 2 13 3 14 4 15 5 16 6 17 7 18 8 19 9 20 10 10 11
REMARK SMILES IDX 9 12 8 13 7 14 6 15 5 16 4 17 3 18 2 19 1 20
REMARK H PARENT
REMARK Flexibility Score: inf
ROOT
ATOM      1  C   UNL     1      22.218 -30.249  26.114  1.00  0.00     0.027 C 
ENDROOT
BRANCH   1   2
ATOM      2  C   UNL     1      22.373 -29.372  27.373  1.00  0.00     0.004 C 
BRANCH   2   3
ATOM      3  C   UNL     1      23.558 -28.387  27.316  1.00  0.00     0.000 C 
BRANCH   3   4
ATOM      4  C   UNL     1      24.566 -28.500  28.473  1.00  0.00     0.000 C 
BRANCH   4   5
ATOM      5  C   UNL     1      24.574 -29.888  29.129  1.00  0.00     0.000 C 
BRANCH   5   6
ATOM      6  C   UNL     1      25.713 -30.007  30.153  1.00  0.00     0.006 C 
BRANCH   6   7
ATOM      7  C   UNL     1      26.266 -28.635  30.562  1.00  0.00     0.053 C 
BRANCH   7   8
ATOM      8  C   UNL     1      26.016 -28.347  32.013  1.00  0.00     0.041 C 
ATOM      9  O   UNL     1      26.942 -27.897  32.736  1.00  0.00    -0.550 OA
ATOM     10  O   UNL     1      24.773 -28.611  32.573  1.00  0.00    -0.550 OA
ENDBRANCH   7   8
ENDBRANCH   6   7
ENDBRANCH   5   6
ENDBRANCH   4   5
ENDBRANCH   3   4
ENDBRANCH   2   3
ENDBRANCH   1   2
BRANCH   1  11
ATOM     11  C   UNL     1      23.195 -31.400  26.066  1.00  0.00    -0.031 C 
ATOM     12  C   UNL     1      24.273 -31.468  25.260  1.00  0.00    -0.027 C 
BRANCH  12  13
ATOM     13  C   UNL     1      24.653 -30.426  24.237  1.00  0.00     0.054 C 
BRANCH  13  14
ATOM     14  C   UNL     1      25.483 -31.045  23.149  1.00  0.00    -0.027 C 
ATOM     15  C   UNL     1      25.466 -32.370  22.928  1.00  0.00    -0.031 C 
BRANCH  15  16
ATOM     16  C   UNL     1      26.317 -33.002  21.861  1.00  0.00     0.027 C 
BRANCH  16  17
ATOM     17  C   UNL     1      25.556 -33.106  20.534  1.00  0.00     0.004 C 
BRANCH  17  18
ATOM     18  C   UNL     1      24.164 -33.720  20.748  1.00  0.00     0.000 C 
BRANCH  18  19
ATOM     19  C   UNL     1      24.158 -35.246  20.567  1.00  0.00    -0.003 C 
ATOM     20  C   UNL     1      22.754 -35.847  20.648  1.00  0.00     0.004 C 
ENDBRANCH  18  19
ENDBRANCH  17  18
ENDBRANCH  16  17
ENDBRANCH  15  16
ENDBRANCH  13  14
ENDBRANCH  12  13
ENDBRANCH   1  11
TORSDOF 14
ENDMDL
