MODEL 1
REMARK VINA RESULT:    -6.614      0.000      0.000
REMARK INTER + INTRA:          -7.927
REMARK INTER:                  -7.774
REMARK INTRA:                  -0.152
REMARK UNBOUND:                -0.152
REMARK SMILES O=C([O-])C=Cc1ccc(O)c(O)c1
REMARK SMILES IDX 6 1 13 2 7 3 11 4 8 5 9 6 5 7 4 8 2 9 1 10 3 11 12 12 10 14
REMARK H PARENT 12 13 10 15
REMARK Flexibility Score: inf
ROOT
ATOM      1  C   UNL     1     -29.524  57.238   0.674  1.00  0.00    -0.022 A 
ATOM      2  C   UNL     1     -29.851  57.620  -0.642  1.00  0.00     0.058 A 
ATOM      3  C   UNL     1     -28.204  56.861   0.959  1.00  0.00     0.012 A 
ATOM      4  C   UNL     1     -28.886  57.602  -1.658  1.00  0.00     0.157 A 
ATOM      5  C   UNL     1     -27.238  56.838  -0.047  1.00  0.00     0.051 A 
ATOM      6  C   UNL     1     -27.564  57.200  -1.359  1.00  0.00     0.157 A 
ENDROOT
BRANCH   1   7
ATOM      7  C   UNL     1     -30.513  57.255   1.779  1.00  0.00     0.010 C 
ATOM      8  C   UNL     1     -30.186  57.146   3.073  1.00  0.00     0.025 C 
BRANCH   8   9
ATOM      9  C   UNL     1     -31.201  57.181   4.138  1.00  0.00     0.064 C 
ATOM     10  O   UNL     1     -30.847  57.050   5.339  1.00  0.00    -0.545 OA
ATOM     11  O   UNL     1     -32.549  57.352   3.840  1.00  0.00    -0.545 OA
ENDBRANCH   8   9
ENDBRANCH   1   7
BRANCH   4  12
ATOM     12  O   UNL     1     -29.283  57.994  -2.940  1.00  0.00    -0.504 OA
ATOM     13  H   UNL     1     -29.601  58.924  -3.172  1.00  0.00     0.293 HD
ENDBRANCH   4  12
BRANCH   6  14
ATOM     14  O   UNL     1     -26.553  57.150  -2.320  1.00  0.00    -0.504 OA
ATOM     15  H   UNL     1     -26.584  56.565  -3.143  1.00  0.00     0.293 HD
ENDBRANCH   6  14
TORSDOF 4
ENDMDL
MODEL 2
REMARK VINA RESULT:    -6.517      1.186      5.929
REMARK INTER + INTRA:          -7.812
REMARK INTER:                  -7.685
REMARK INTRA:                  -0.126
REMARK UNBOUND:                -0.152
REMARK SMILES O=C([O-])C=Cc1ccc(O)c(O)c1
REMARK SMILES IDX 6 1 13 2 7 3 11 4 8 5 9 6 5 7 4 8 2 9 1 10 3 11 12 12 10 14
REMARK H PARENT 12 13 10 15
REMARK Flexibility Score: inf
ROOT
ATOM      1  C   UNL     1     -29.409  57.263   2.069  1.00  0.00    -0.022 A 
ATOM      2  C   UNL     1     -30.512  56.617   2.661  1.00  0.00     0.058 A 
ATOM      3  C   UNL     1     -28.636  58.133   2.850  1.00  0.00     0.012 A 
ATOM      4  C   UNL     1     -30.852  56.855   4.000  1.00  0.00     0.157 A 
ATOM      5  C   UNL     1     -28.969  58.377   4.183  1.00  0.00     0.051 A 
ATOM      6  C   UNL     1     -30.074  57.751   4.769  1.00  0.00     0.157 A 
ENDROOT
BRANCH   1   7
ATOM      7  C   UNL     1     -29.011  57.029   0.659  1.00  0.00     0.010 C 
ATOM      8  C   UNL     1     -29.335  57.845  -0.352  1.00  0.00     0.025 C 
BRANCH   8   9
ATOM      9  C   UNL     1     -28.907  57.580  -1.735  1.00  0.00     0.064 C 
ATOM     10  O   UNL     1     -29.773  57.438  -2.638  1.00  0.00    -0.545 OA
ATOM     11  O   UNL     1     -27.559  57.480  -2.062  1.00  0.00    -0.545 OA
ENDBRANCH   8   9
ENDBRANCH   1   7
BRANCH   4  12
ATOM     12  O   UNL     1     -31.958  56.179   4.520  1.00  0.00    -0.504 OA
ATOM     13  H   UNL     1     -31.893  55.373   5.126  1.00  0.00     0.293 HD
ENDBRANCH   4  12
BRANCH   6  14
ATOM     14  O   UNL     1     -30.357  58.042   6.105  1.00  0.00    -0.504 OA
ATOM     15  H   UNL     1     -29.653  58.168   6.817  1.00  0.00     0.293 HD
ENDBRANCH   6  14
TORSDOF 4
ENDMDL
MODEL 3
REMARK VINA RESULT:    -6.477      1.363      6.034
REMARK INTER + INTRA:          -7.765
REMARK INTER:                  -7.619
REMARK INTRA:                  -0.147
REMARK UNBOUND:                -0.152
REMARK SMILES O=C([O-])C=Cc1ccc(O)c(O)c1
REMARK SMILES IDX 6 1 13 2 7 3 11 4 8 5 9 6 5 7 4 8 2 9 1 10 3 11 12 12 10 14
REMARK H PARENT 12 13 10 15
REMARK Flexibility Score: inf
ROOT
ATOM      1  C   UNL     1     -29.593  57.994   1.701  1.00  0.00    -0.022 A 
ATOM      2  C   UNL     1     -28.924  58.398   2.874  1.00  0.00     0.058 A 
ATOM      3  C   UNL     1     -30.772  57.246   1.818  1.00  0.00     0.012 A 
ATOM      4  C   UNL     1     -29.410  58.038   4.139  1.00  0.00     0.157 A 
ATOM      5  C   UNL     1     -31.261  56.882   3.074  1.00  0.00     0.051 A 
ATOM      6  C   UNL     1     -30.590  57.265   4.240  1.00  0.00     0.157 A 
ENDROOT
BRANCH   1   7
ATOM      7  C   UNL     1     -29.117  58.365   0.345  1.00  0.00     0.010 C 
ATOM      8  C   UNL     1     -29.350  57.632  -0.751  1.00  0.00     0.025 C 
BRANCH   8   9
ATOM      9  C   UNL     1     -28.870  58.044  -2.080  1.00  0.00     0.064 C 
ATOM     10  O   UNL     1     -29.350  59.073  -2.623  1.00  0.00    -0.545 OA
ATOM     11  O   UNL     1     -27.894  57.314  -2.749  1.00  0.00    -0.545 OA
ENDBRANCH   8   9
ENDBRANCH   1   7
BRANCH   4  12
ATOM     12  O   UNL     1     -28.696  58.473   5.258  1.00  0.00    -0.504 OA
ATOM     13  H   UNL     1     -27.688  58.541   5.293  1.00  0.00     0.293 HD
ENDBRANCH   4  12
BRANCH   6  14
ATOM     14  O   UNL     1     -31.128  56.864   5.465  1.00  0.00    -0.504 OA
ATOM     15  H   UNL     1     -30.575  56.658   6.284  1.00  0.00     0.293 HD
ENDBRANCH   6  14
TORSDOF 4
ENDMDL
MODEL 4
REMARK VINA RESULT:    -6.468      0.902      1.998
REMARK INTER + INTRA:          -7.755
REMARK INTER:                  -7.630
REMARK INTRA:                  -0.124
REMARK UNBOUND:                -0.152
REMARK SMILES O=C([O-])C=Cc1ccc(O)c(O)c1
REMARK SMILES IDX 6 1 13 2 7 3 11 4 8 5 9 6 5 7 4 8 2 9 1 10 3 11 12 12 10 14
REMARK H PARENT 12 13 10 15
REMARK Flexibility Score: inf
ROOT
ATOM      1  C   UNL     1     -29.253  57.259   0.854  1.00  0.00    -0.022 A 
ATOM      2  C   UNL     1     -27.936  56.855   1.153  1.00  0.00     0.058 A 
ATOM      3  C   UNL     1     -29.577  57.579  -0.471  1.00  0.00     0.012 A 
ATOM      4  C   UNL     1     -26.957  56.797   0.152  1.00  0.00     0.157 A 
ATOM      5  C   UNL     1     -28.607  57.527  -1.473  1.00  0.00     0.051 A 
ATOM      6  C   UNL     1     -27.294  57.143  -1.177  1.00  0.00     0.157 A 
ENDROOT
BRANCH   1   7
ATOM      7  C   UNL     1     -30.321  57.321   1.882  1.00  0.00     0.010 C 
ATOM      8  C   UNL     1     -30.109  57.115   3.189  1.00  0.00     0.025 C 
BRANCH   8   9
ATOM      9  C   UNL     1     -31.197  57.200   4.176  1.00  0.00     0.064 C 
ATOM     10  O   UNL     1     -30.929  57.133   5.404  1.00  0.00    -0.545 OA
ATOM     11  O   UNL     1     -32.520  57.350   3.775  1.00  0.00    -0.545 OA
ENDBRANCH   8   9
ENDBRANCH   1   7
BRANCH   4  12
ATOM     12  O   UNL     1     -25.673  56.388   0.521  1.00  0.00    -0.504 OA
ATOM     13  H   UNL     1     -25.081  55.802  -0.051  1.00  0.00     0.293 HD
ENDBRANCH   4  12
BRANCH   6  14
ATOM     14  O   UNL     1     -26.370  57.117  -2.223  1.00  0.00    -0.504 OA
ATOM     15  H   UNL     1     -25.423  56.778  -2.131  1.00  0.00     0.293 HD
ENDBRANCH   6  14
TORSDOF 4
ENDMDL
MODEL 5
REMARK VINA RESULT:    -6.412      1.880      2.487
REMARK INTER + INTRA:          -7.688
REMARK INTER:                  -7.540
REMARK INTRA:                  -0.148
REMARK UNBOUND:                -0.152
REMARK SMILES O=C([O-])C=Cc1ccc(O)c(O)c1
REMARK SMILES IDX 6 1 13 2 7 3 11 4 8 5 9 6 5 7 4 8 2 9 1 10 3 11 12 12 10 14
REMARK H PARENT 12 13 10 15
REMARK Flexibility Score: inf
ROOT
ATOM      1  C   UNL     1     -29.930  57.356   2.742  1.00  0.00    -0.022 A 
ATOM      2  C   UNL     1     -30.795  56.989   1.692  1.00  0.00     0.058 A 
ATOM      3  C   UNL     1     -28.593  57.651   2.445  1.00  0.00     0.012 A 
ATOM      4  C   UNL     1     -30.327  56.894   0.375  1.00  0.00     0.157 A 
ATOM      5  C   UNL     1     -28.118  57.556   1.136  1.00  0.00     0.051 A 
ATOM      6  C   UNL     1     -28.970  57.176   0.093  1.00  0.00     0.157 A 
ENDROOT
BRANCH   1   7
ATOM      7  C   UNL     1     -30.389  57.479   4.148  1.00  0.00     0.010 C 
ATOM      8  C   UNL     1     -29.812  58.280   5.053  1.00  0.00     0.025 C 
BRANCH   8   9
ATOM      9  C   UNL     1     -30.310  58.380   6.434  1.00  0.00     0.064 C 
ATOM     10  O   UNL     1     -29.492  58.371   7.391  1.00  0.00    -0.545 OA
ATOM     11  O   UNL     1     -31.670  58.482   6.701  1.00  0.00    -0.545 OA
ENDBRANCH   8   9
ENDBRANCH   1   7
BRANCH   4  12
ATOM     12  O   UNL     1     -31.241  56.525  -0.615  1.00  0.00    -0.504 OA
ATOM     13  H   UNL     1     -30.978  56.237  -1.547  1.00  0.00     0.293 HD
ENDBRANCH   4  12
BRANCH   6  14
ATOM     14  O   UNL     1     -28.432  57.095  -1.193  1.00  0.00    -0.504 OA
ATOM     15  H   UNL     1     -27.742  57.735  -1.558  1.00  0.00     0.293 HD
ENDBRANCH   6  14
TORSDOF 4
ENDMDL
MODEL 6
REMARK VINA RESULT:    -6.260      9.393     12.294
REMARK INTER + INTRA:          -7.510
REMARK INTER:                  -7.379
REMARK INTRA:                  -0.131
REMARK UNBOUND:                -0.152
REMARK SMILES O=C([O-])C=Cc1ccc(O)c(O)c1
REMARK SMILES IDX 6 1 13 2 7 3 11 4 8 5 9 6 5 7 4 8 2 9 1 10 3 11 12 12 10 14
REMARK H PARENT 12 13 10 15
REMARK Flexibility Score: inf
ROOT
ATOM      1  C   UNL     1     -19.026  58.156  -4.984  1.00  0.00    -0.022 A 
ATOM      2  C   UNL     1     -18.134  58.142  -6.075  1.00  0.00     0.058 A 
ATOM      3  C   UNL     1     -18.671  58.868  -3.831  1.00  0.00     0.012 A 
ATOM      4  C   UNL     1     -16.901  58.804  -6.005  1.00  0.00     0.157 A 
ATOM      5  C   UNL     1     -17.443  59.527  -3.752  1.00  0.00     0.051 A 
ATOM      6  C   UNL     1     -16.548  59.501  -4.826  1.00  0.00     0.157 A 
ENDROOT
BRANCH   1   7
ATOM      7  C   UNL     1     -20.345  57.478  -5.024  1.00  0.00     0.010 C 
ATOM      8  C   UNL     1     -21.514  58.127  -5.102  1.00  0.00     0.025 C 
BRANCH   8   9
ATOM      9  C   UNL     1     -22.799  57.413  -5.151  1.00  0.00     0.064 C 
ATOM     10  O   UNL     1     -23.618  57.540  -4.203  1.00  0.00    -0.545 OA
ATOM     11  O   UNL     1     -23.125  56.595  -6.227  1.00  0.00    -0.545 OA
ENDBRANCH   8   9
ENDBRANCH   1   7
BRANCH   4  12
ATOM     12  O   UNL     1     -16.067  58.747  -7.125  1.00  0.00    -0.504 OA
ATOM     13  H   UNL     1     -16.009  57.952  -7.746  1.00  0.00     0.293 HD
ENDBRANCH   4  12
BRANCH   6  14
ATOM     14  O   UNL     1     -15.334  60.176  -4.682  1.00  0.00    -0.504 OA
ATOM     15  H   UNL     1     -15.161  61.107  -5.031  1.00  0.00     0.293 HD
ENDBRANCH   6  14
TORSDOF 4
ENDMDL
MODEL 7
REMARK VINA RESULT:    -6.202      7.305      8.463
REMARK INTER + INTRA:          -7.442
REMARK INTER:                  -7.319
REMARK INTRA:                  -0.123
REMARK UNBOUND:                -0.152
REMARK SMILES O=C([O-])C=Cc1ccc(O)c(O)c1
REMARK SMILES IDX 6 1 13 2 7 3 11 4 8 5 9 6 5 7 4 8 2 9 1 10 3 11 12 12 10 14
REMARK H PARENT 12 13 10 15
REMARK Flexibility Score: inf
ROOT
ATOM      1  C   UNL     1     -22.683  57.956   4.101  1.00  0.00    -0.022 A 
ATOM      2  C   UNL     1     -21.336  58.356   4.215  1.00  0.00     0.058 A 
ATOM      3  C   UNL     1     -23.491  58.572   3.135  1.00  0.00     0.012 A 
ATOM      4  C   UNL     1     -20.815  59.369   3.398  1.00  0.00     0.157 A 
ATOM      5  C   UNL     1     -22.980  59.583   2.320  1.00  0.00     0.051 A 
ATOM      6  C   UNL     1     -21.648  59.994   2.442  1.00  0.00     0.157 A 
ENDROOT
BRANCH   1   7
ATOM      7  C   UNL     1     -23.269  56.881   4.938  1.00  0.00     0.010 C 
ATOM      8  C   UNL     1     -22.753  56.484   6.109  1.00  0.00     0.025 C 
BRANCH   8   9
ATOM      9  C   UNL     1     -23.376  55.420   6.913  1.00  0.00     0.064 C 
ATOM     10  O   UNL     1     -24.470  55.641   7.495  1.00  0.00    -0.545 OA
ATOM     11  O   UNL     1     -22.774  54.174   7.043  1.00  0.00    -0.545 OA
ENDBRANCH   8   9
ENDBRANCH   1   7
BRANCH   4  12
ATOM     12  O   UNL     1     -19.471  59.713   3.567  1.00  0.00    -0.504 OA
ATOM     13  H   UNL     1     -19.145  60.658   3.712  1.00  0.00     0.293 HD
ENDBRANCH   4  12
BRANCH   6  14
ATOM     14  O   UNL     1     -21.200  61.014   1.601  1.00  0.00    -0.504 OA
ATOM     15  H   UNL     1     -20.286  61.438   1.664  1.00  0.00     0.293 HD
ENDBRANCH   6  14
TORSDOF 4
ENDMDL
MODEL 8
REMARK VINA RESULT:    -6.186     10.139     13.085
REMARK INTER + INTRA:          -7.423
REMARK INTER:                  -7.294
REMARK INTRA:                  -0.129
REMARK UNBOUND:                -0.152
REMARK SMILES O=C([O-])C=Cc1ccc(O)c(O)c1
REMARK SMILES IDX 6 1 13 2 7 3 11 4 8 5 9 6 5 7 4 8 2 9 1 10 3 11 12 12 10 14
REMARK H PARENT 12 13 10 15
REMARK Flexibility Score: inf
ROOT
ATOM      1  C   UNL     1     -18.681  58.481  -4.900  1.00  0.00    -0.022 A 
ATOM      2  C   UNL     1     -19.957  59.027  -5.143  1.00  0.00     0.058 A 
ATOM      3  C   UNL     1     -18.586  57.143  -4.492  1.00  0.00     0.012 A 
ATOM      4  C   UNL     1     -21.115  58.260  -4.958  1.00  0.00     0.157 A 
ATOM      5  C   UNL     1     -19.734  56.374  -4.303  1.00  0.00     0.051 A 
ATOM      6  C   UNL     1     -21.004  56.918  -4.527  1.00  0.00     0.157 A 
ENDROOT
BRANCH   1   7
ATOM      7  C   UNL     1     -17.431  59.256  -5.095  1.00  0.00     0.010 C 
ATOM      8  C   UNL     1     -16.734  59.809  -4.094  1.00  0.00     0.025 C 
BRANCH   8   9
ATOM      9  C   UNL     1     -15.491  60.560  -4.334  1.00  0.00     0.064 C 
ATOM     10  O   UNL     1     -15.506  61.560  -5.097  1.00  0.00    -0.545 OA
ATOM     11  O   UNL     1     -14.296  60.180  -3.733  1.00  0.00    -0.545 OA
ENDBRANCH   8   9
ENDBRANCH   1   7
BRANCH   4  12
ATOM     12  O   UNL     1     -22.346  58.868  -5.219  1.00  0.00    -0.504 OA
ATOM     13  H   UNL     1     -22.542  59.844  -5.047  1.00  0.00     0.293 HD
ENDBRANCH   4  12
BRANCH   6  14
ATOM     14  O   UNL     1     -22.113  56.097  -4.314  1.00  0.00    -0.504 OA
ATOM     15  H   UNL     1     -22.712  55.754  -5.051  1.00  0.00     0.293 HD
ENDBRANCH   6  14
TORSDOF 4
ENDMDL
MODEL 9
REMARK VINA RESULT:    -6.096      9.056     12.030
REMARK INTER + INTRA:          -7.318
REMARK INTER:                  -7.194
REMARK INTRA:                  -0.123
REMARK UNBOUND:                -0.152
REMARK SMILES O=C([O-])C=Cc1ccc(O)c(O)c1
REMARK SMILES IDX 6 1 13 2 7 3 11 4 8 5 9 6 5 7 4 8 2 9 1 10 3 11 12 12 10 14
REMARK H PARENT 12 13 10 15
REMARK Flexibility Score: inf
ROOT
ATOM      1  C   UNL     1     -19.434  58.178  -5.480  1.00  0.00    -0.022 A 
ATOM      2  C   UNL     1     -18.972  58.759  -4.282  1.00  0.00     0.058 A 
ATOM      3  C   UNL     1     -18.581  58.157  -6.593  1.00  0.00     0.012 A 
ATOM      4  C   UNL     1     -17.695  59.330  -4.205  1.00  0.00     0.157 A 
ATOM      5  C   UNL     1     -17.309  58.726  -6.525  1.00  0.00     0.051 A 
ATOM      6  C   UNL     1     -16.854  59.319  -5.342  1.00  0.00     0.157 A 
ENDROOT
BRANCH   1   7
ATOM      7  C   UNL     1     -20.774  57.553  -5.600  1.00  0.00     0.010 C 
ATOM      8  C   UNL     1     -21.874  58.032  -5.004  1.00  0.00     0.025 C 
BRANCH   8   9
ATOM      9  C   UNL     1     -23.187  57.386  -5.161  1.00  0.00     0.064 C 
ATOM     10  O   UNL     1     -23.483  56.835  -6.253  1.00  0.00    -0.545 OA
ATOM     11  O   UNL     1     -24.110  57.375  -4.121  1.00  0.00    -0.545 OA
ENDBRANCH   8   9
ENDBRANCH   1   7
BRANCH   4  12
ATOM     12  O   UNL     1     -17.305  59.888  -2.985  1.00  0.00    -0.504 OA
ATOM     13  H   UNL     1     -16.877  60.799  -2.891  1.00  0.00     0.293 HD
ENDBRANCH   4  12
BRANCH   6  14
ATOM     14  O   UNL     1     -15.574  59.875  -5.341  1.00  0.00    -0.504 OA
ATOM     15  H   UNL     1     -15.357  60.793  -4.980  1.00  0.00     0.293 HD
ENDBRANCH   6  14
TORSDOF 4
ENDMDL
