MODEL 1
REMARK VINA RESULT:    -3.283      0.000      0.000
REMARK INTER + INTRA:          -3.378
REMARK INTER:                  -3.378
REMARK INTRA:                   0.000
REMARK UNBOUND:                 0.000
REMARK SMILES Oc1ccc2[nH]ccc2c1
REMARK SMILES IDX 3 1 4 2 5 3 9 4 8 5 7 6 6 7 10 8 2 9 1 11
REMARK H PARENT 6 10 1 12
REMARK Flexibility Score: inf
ROOT
ATOM      1  C   UNL     1     128.501 124.298 121.605  1.00  0.00     0.048 A 
ATOM      2  C   UNL     1     127.864 125.453 121.117  1.00  0.00     0.030 A 
ATOM      3  C   UNL     1     126.520 125.353 120.757  1.00  0.00     0.046 A 
ATOM      4  C   UNL     1     125.831 124.176 120.870  1.00  0.00     0.003 A 
ATOM      5  C   UNL     1     124.543 124.409 120.439  1.00  0.00     0.028 A 
ATOM      6  C   UNL     1     124.520 125.753 120.077  1.00  0.00     0.083 A 
ATOM      7  N   UNL     1     125.730 126.325 120.273  1.00  0.00    -0.361 N 
ATOM      8  C   UNL     1     126.432 123.014 121.350  1.00  0.00     0.056 A 
ATOM      9  C   UNL     1     127.791 123.080 121.723  1.00  0.00     0.116 A 
ATOM     10  H   UNL     1     125.992 127.318 120.086  1.00  0.00     0.166 HD
ENDROOT
BRANCH   9  11
ATOM     11  O   UNL     1     128.445 121.951 122.209  1.00  0.00    -0.508 OA
ATOM     12  H   UNL     1     128.154 121.502 123.071  1.00  0.00     0.293 HD
ENDBRANCH   9  11
TORSDOF 1
ENDMDL
MODEL 2
REMARK VINA RESULT:    -3.274     10.445     11.954
REMARK INTER + INTRA:          -3.370
REMARK INTER:                  -3.370
REMARK INTRA:                   0.000
REMARK UNBOUND:                 0.000
REMARK SMILES Oc1ccc2[nH]ccc2c1
REMARK SMILES IDX 3 1 4 2 5 3 9 4 8 5 7 6 6 7 10 8 2 9 1 11
REMARK H PARENT 6 10 1 12
REMARK Flexibility Score: inf
ROOT
ATOM      1  C   UNL     1     114.843 118.987 121.601  1.00  0.00     0.048 A 
ATOM      2  C   UNL     1     115.482 117.829 121.121  1.00  0.00     0.030 A 
ATOM      3  C   UNL     1     116.814 117.937 120.723  1.00  0.00     0.046 A 
ATOM      4  C   UNL     1     117.490 119.125 120.792  1.00  0.00     0.003 A 
ATOM      5  C   UNL     1     118.769 118.897 120.331  1.00  0.00     0.028 A 
ATOM      6  C   UNL     1     118.800 117.546 119.999  1.00  0.00     0.083 A 
ATOM      7  N   UNL     1     117.603 116.964 120.240  1.00  0.00    -0.361 N 
ATOM      8  C   UNL     1     116.888 120.290 121.262  1.00  0.00     0.056 A 
ATOM      9  C   UNL     1     115.541 120.216 121.672  1.00  0.00     0.116 A 
ATOM     10  H   UNL     1     117.349 115.964 120.082  1.00  0.00     0.166 HD
ENDROOT
BRANCH   9  11
ATOM     11  O   UNL     1     114.885 121.348 122.151  1.00  0.00    -0.508 OA
ATOM     12  H   UNL     1     114.733 121.490 123.143  1.00  0.00     0.293 HD
ENDBRANCH   9  11
TORSDOF 1
ENDMDL
MODEL 3
REMARK VINA RESULT:    -3.266      7.213      8.356
REMARK INTER + INTRA:          -3.362
REMARK INTER:                  -3.362
REMARK INTRA:                   0.000
REMARK UNBOUND:                 0.000
REMARK SMILES Oc1ccc2[nH]ccc2c1
REMARK SMILES IDX 3 1 4 2 5 3 9 4 8 5 7 6 6 7 10 8 2 9 1 11
REMARK H PARENT 6 10 1 12
REMARK Flexibility Score: inf
ROOT
ATOM      1  C   UNL     1     119.167 128.527 121.585  1.00  0.00     0.048 A 
ATOM      2  C   UNL     1     117.996 127.910 121.107  1.00  0.00     0.030 A 
ATOM      3  C   UNL     1     118.067 126.562 120.758  1.00  0.00     0.046 A 
ATOM      4  C   UNL     1     119.230 125.850 120.871  1.00  0.00     0.003 A 
ATOM      5  C   UNL     1     118.968 124.563 120.452  1.00  0.00     0.028 A 
ATOM      6  C   UNL     1     117.623 124.565 120.096  1.00  0.00     0.083 A 
ATOM      7  N   UNL     1     117.077 125.788 120.284  1.00  0.00    -0.361 N 
ATOM      8  C   UNL     1     120.407 126.430 121.341  1.00  0.00     0.056 A 
ATOM      9  C   UNL     1     120.371 127.793 121.703  1.00  0.00     0.116 A 
ATOM     10  H   UNL     1     116.089 126.069 120.099  1.00  0.00     0.166 HD
ENDROOT
BRANCH   9  11
ATOM     11  O   UNL     1     121.515 128.428 122.179  1.00  0.00    -0.508 OA
ATOM     12  H   UNL     1     122.440 128.050 122.006  1.00  0.00     0.293 HD
ENDBRANCH   9  11
TORSDOF 1
ENDMDL
MODEL 4
REMARK VINA RESULT:    -3.259      7.344      8.492
REMARK INTER + INTRA:          -3.354
REMARK INTER:                  -3.354
REMARK INTRA:                   0.000
REMARK UNBOUND:                 0.000
REMARK SMILES Oc1ccc2[nH]ccc2c1
REMARK SMILES IDX 3 1 4 2 5 3 9 4 8 5 7 6 6 7 10 8 2 9 1 11
REMARK H PARENT 6 10 1 12
REMARK Flexibility Score: inf
ROOT
ATOM      1  C   UNL     1     124.304 114.790 121.600  1.00  0.00     0.048 A 
ATOM      2  C   UNL     1     125.474 115.384 121.092  1.00  0.00     0.030 A 
ATOM      3  C   UNL     1     125.407 116.718 120.693  1.00  0.00     0.046 A 
ATOM      4  C   UNL     1     124.247 117.439 120.786  1.00  0.00     0.003 A 
ATOM      5  C   UNL     1     124.511 118.708 120.317  1.00  0.00     0.028 A 
ATOM      6  C   UNL     1     125.855 118.687 119.954  1.00  0.00     0.083 A 
ATOM      7  N   UNL     1     126.397 117.470 120.185  1.00  0.00    -0.361 N 
ATOM      8  C   UNL     1     123.071 116.882 121.285  1.00  0.00     0.056 A 
ATOM      9  C   UNL     1     123.104 115.534 121.697  1.00  0.00     0.116 A 
ATOM     10  H   UNL     1     127.383 117.179 120.005  1.00  0.00     0.166 HD
ENDROOT
BRANCH   9  11
ATOM     11  O   UNL     1     121.960 114.922 122.203  1.00  0.00    -0.508 OA
ATOM     12  H   UNL     1     122.007 114.036 122.693  1.00  0.00     0.293 HD
ENDBRANCH   9  11
TORSDOF 1
ENDMDL
MODEL 5
REMARK VINA RESULT:    -3.250     11.808     13.300
REMARK INTER + INTRA:          -3.345
REMARK INTER:                  -3.345
REMARK INTRA:                   0.000
REMARK UNBOUND:                 0.000
REMARK SMILES Oc1ccc2[nH]ccc2c1
REMARK SMILES IDX 3 1 4 2 5 3 9 4 8 5 7 6 6 7 10 8 2 9 1 11
REMARK H PARENT 6 10 1 12
REMARK Flexibility Score: inf
ROOT
ATOM      1  C   UNL     1     113.863 117.111 121.203  1.00  0.00     0.048 A 
ATOM      2  C   UNL     1     115.173 116.603 121.131  1.00  0.00     0.030 A 
ATOM      3  C   UNL     1     116.205 117.499 120.855  1.00  0.00     0.046 A 
ATOM      4  C   UNL     1     115.966 118.832 120.658  1.00  0.00     0.003 A 
ATOM      5  C   UNL     1     117.180 119.436 120.410  1.00  0.00     0.028 A 
ATOM      6  C   UNL     1     118.115 118.408 120.471  1.00  0.00     0.083 A 
ATOM      7  N   UNL     1     117.515 117.227 120.742  1.00  0.00    -0.361 N 
ATOM      8  C   UNL     1     114.681 119.368 120.723  1.00  0.00     0.056 A 
ATOM      9  C   UNL     1     113.614 118.489 121.001  1.00  0.00     0.116 A 
ATOM     10  H   UNL     1     117.978 116.297 120.844  1.00  0.00     0.166 HD
ENDROOT
BRANCH   9  11
ATOM     11  O   UNL     1     112.308 118.966 121.078  1.00  0.00    -0.508 OA
ATOM     12  H   UNL     1     111.628 118.545 121.701  1.00  0.00     0.293 HD
ENDBRANCH   9  11
TORSDOF 1
ENDMDL
MODEL 6
REMARK VINA RESULT:    -3.230      1.575      2.003
REMARK INTER + INTRA:          -3.325
REMARK INTER:                  -3.325
REMARK INTRA:                   0.000
REMARK UNBOUND:                 0.000
REMARK SMILES Oc1ccc2[nH]ccc2c1
REMARK SMILES IDX 3 1 4 2 5 3 9 4 8 5 7 6 6 7 10 8 2 9 1 11
REMARK H PARENT 6 10 1 12
REMARK Flexibility Score: inf
ROOT
ATOM      1  C   UNL     1     129.475 126.168 121.159  1.00  0.00     0.048 A 
ATOM      2  C   UNL     1     128.175 126.707 121.117  1.00  0.00     0.030 A 
ATOM      3  C   UNL     1     127.120 125.841 120.833  1.00  0.00     0.046 A 
ATOM      4  C   UNL     1     127.326 124.508 120.600  1.00  0.00     0.003 A 
ATOM      5  C   UNL     1     126.096 123.938 120.353  1.00  0.00     0.028 A 
ATOM      6  C   UNL     1     125.185 124.985 120.452  1.00  0.00     0.083 A 
ATOM      7  N   UNL     1     125.815 126.146 120.744  1.00  0.00    -0.361 N 
ATOM      8  C   UNL     1     128.599 123.942 120.634  1.00  0.00     0.056 A 
ATOM      9  C   UNL     1     129.690 124.791 120.919  1.00  0.00     0.116 A 
ATOM     10  H   UNL     1     125.374 127.082 120.875  1.00  0.00     0.166 HD
ENDROOT
BRANCH   9  11
ATOM     11  O   UNL     1     130.986 124.283 120.966  1.00  0.00    -0.508 OA
ATOM     12  H   UNL     1     131.219 123.483 121.544  1.00  0.00     0.293 HD
ENDBRANCH   9  11
TORSDOF 1
ENDMDL
MODEL 7
REMARK VINA RESULT:    -3.224      8.193      9.222
REMARK INTER + INTRA:          -3.319
REMARK INTER:                  -3.319
REMARK INTRA:                   0.000
REMARK UNBOUND:                 0.000
REMARK SMILES Oc1ccc2[nH]ccc2c1
REMARK SMILES IDX 3 1 4 2 5 3 9 4 8 5 7 6 6 7 10 8 2 9 1 11
REMARK H PARENT 6 10 1 12
REMARK Flexibility Score: inf
ROOT
ATOM      1  C   UNL     1     126.262 113.851 121.181  1.00  0.00     0.048 A 
ATOM      2  C   UNL     1     126.769 115.163 121.136  1.00  0.00     0.030 A 
ATOM      3  C   UNL     1     125.879 116.196 120.843  1.00  0.00     0.046 A 
ATOM      4  C   UNL     1     124.553 115.956 120.605  1.00  0.00     0.003 A 
ATOM      5  C   UNL     1     123.954 117.171 120.351  1.00  0.00     0.028 A 
ATOM      6  C   UNL     1     124.977 118.107 120.450  1.00  0.00     0.083 A 
ATOM      7  N   UNL     1     126.152 117.507 120.751  1.00  0.00    -0.361 N 
ATOM      8  C   UNL     1     124.018 114.669 120.643  1.00  0.00     0.056 A 
ATOM      9  C   UNL     1     124.891 113.601 120.936  1.00  0.00     0.116 A 
ATOM     10  H   UNL     1     127.077 117.971 120.884  1.00  0.00     0.166 HD
ENDROOT
BRANCH   9  11
ATOM     11  O   UNL     1     124.415 112.293 120.987  1.00  0.00    -0.508 OA
ATOM     12  H   UNL     1     124.937 111.525 120.580  1.00  0.00     0.293 HD
ENDBRANCH   9  11
TORSDOF 1
ENDMDL
MODEL 8
REMARK VINA RESULT:    -3.221      8.386      9.824
REMARK INTER + INTRA:          -3.315
REMARK INTER:                  -3.315
REMARK INTRA:                   0.000
REMARK UNBOUND:                 0.000
REMARK SMILES Oc1ccc2[nH]ccc2c1
REMARK SMILES IDX 3 1 4 2 5 3 9 4 8 5 7 6 6 7 10 8 2 9 1 11
REMARK H PARENT 6 10 1 12
REMARK Flexibility Score: inf
ROOT
ATOM      1  C   UNL     1     117.097 129.463 121.182  1.00  0.00     0.048 A 
ATOM      2  C   UNL     1     116.585 128.153 121.137  1.00  0.00     0.030 A 
ATOM      3  C   UNL     1     117.471 127.118 120.841  1.00  0.00     0.046 A 
ATOM      4  C   UNL     1     118.798 127.354 120.601  1.00  0.00     0.003 A 
ATOM      5  C   UNL     1     119.393 126.137 120.345  1.00  0.00     0.028 A 
ATOM      6  C   UNL     1     118.366 125.204 120.446  1.00  0.00     0.083 A 
ATOM      7  N   UNL     1     117.194 125.808 120.748  1.00  0.00    -0.361 N 
ATOM      8  C   UNL     1     119.337 128.638 120.638  1.00  0.00     0.056 A 
ATOM      9  C   UNL     1     118.468 129.709 120.934  1.00  0.00     0.116 A 
ATOM     10  H   UNL     1     116.268 125.346 120.883  1.00  0.00     0.166 HD
ENDROOT
BRANCH   9  11
ATOM     11  O   UNL     1     118.949 131.015 120.985  1.00  0.00    -0.508 OA
ATOM     12  H   UNL     1     118.553 131.699 121.620  1.00  0.00     0.293 HD
ENDBRANCH   9  11
TORSDOF 1
ENDMDL
MODEL 9
REMARK VINA RESULT:    -3.098      8.693     10.037
REMARK INTER + INTRA:          -3.188
REMARK INTER:                  -3.188
REMARK INTRA:                   0.000
REMARK UNBOUND:                 0.000
REMARK SMILES Oc1ccc2[nH]ccc2c1
REMARK SMILES IDX 3 1 4 2 5 3 9 4 8 5 7 6 6 7 10 8 2 9 1 11
REMARK H PARENT 6 10 1 12
REMARK Flexibility Score: inf
ROOT
ATOM      1  C   UNL     1     118.983 127.302 120.873  1.00  0.00     0.048 A 
ATOM      2  C   UNL     1     119.465 128.624 120.870  1.00  0.00     0.030 A 
ATOM      3  C   UNL     1     118.531 129.659 120.835  1.00  0.00     0.046 A 
ATOM      4  C   UNL     1     117.185 129.411 120.806  1.00  0.00     0.003 A 
ATOM      5  C   UNL     1     116.542 130.630 120.778  1.00  0.00     0.028 A 
ATOM      6  C   UNL     1     117.562 131.577 120.791  1.00  0.00     0.083 A 
ATOM      7  N   UNL     1     118.774 130.979 120.825  1.00  0.00    -0.361 N 
ATOM      8  C   UNL     1     116.674 128.115 120.810  1.00  0.00     0.056 A 
ATOM      9  C   UNL     1     117.592 127.044 120.843  1.00  0.00     0.116 A 
ATOM     10  H   UNL     1     119.706 131.450 120.842  1.00  0.00     0.166 HD
ENDROOT
BRANCH   9  11
ATOM     11  O   UNL     1     117.141 125.727 120.848  1.00  0.00    -0.508 OA
ATOM     12  H   UNL     1     116.185 125.495 120.601  1.00  0.00     0.293 HD
ENDBRANCH   9  11
TORSDOF 1
ENDMDL
