MODEL 1
REMARK VINA RESULT:    -7.079      0.000      0.000
REMARK INTER + INTRA:         -11.464
REMARK INTER:                  -9.769
REMARK INTRA:                  -1.695
REMARK UNBOUND:                -1.695
REMARK SMILES O=C([O-])[C@H]1O[C@@H](Oc2cc3oc(-c4ccccc4)cc(=O)c3c(O)c2O)[C@H](O)[C@@H](O)[C@H]1O
REMARK SMILES IDX 7 1 6 2 4 3 31 4 5 5 29 6 27 7 2 8 1 9 3 10 32 11 30 13
REMARK SMILES IDX 28 15 8 17 25 18 9 19 23 20 10 21 22 22 11 23 20 24 12 25
REMARK SMILES IDX 19 26 21 27 26 28 24 30 13 32 14 33 18 34 15 35 17 36 16 37
REMARK H PARENT 32 12 30 14 28 16 26 29 24 31
REMARK Flexibility Score: inf
ROOT
ATOM      1  O   UNL     1     -24.409  87.059 -25.528  1.00  0.00    -0.458 OA
ENDROOT
BRANCH   1   2
ATOM      2  C   UNL     1     -25.833  87.133 -25.629  1.00  0.00     0.339 C 
ATOM      3  C   UNL     1     -25.873  88.994 -27.117  1.00  0.00     0.199 C 
ATOM      4  C   UNL     1     -26.363  89.950 -25.992  1.00  0.00     0.180 C 
ATOM      5  O   UNL     1     -26.249  87.640 -26.892  1.00  0.00    -0.328 OA
ATOM      6  C   UNL     1     -26.013  89.434 -24.589  1.00  0.00     0.181 C 
ATOM      7  C   UNL     1     -26.407  87.953 -24.461  1.00  0.00     0.214 C 
BRANCH   3   8
ATOM      8  C   UNL     1     -24.418  89.108 -27.511  1.00  0.00     0.073 C 
ATOM      9  O   UNL     1     -23.641  89.922 -26.945  1.00  0.00    -0.547 OA
ATOM     10  O   UNL     1     -23.926  88.298 -28.526  1.00  0.00    -0.547 OA
ENDBRANCH   3   8
BRANCH   4  11
ATOM     11  O   UNL     1     -25.860  91.251 -26.165  1.00  0.00    -0.387 OA
ATOM     12  H   UNL     1     -24.964  91.159 -26.584  1.00  0.00     0.211 HD
ENDBRANCH   4  11
BRANCH   6  13
ATOM     13  O   UNL     1     -24.642  89.603 -24.331  1.00  0.00    -0.387 OA
ATOM     14  H   UNL     1     -24.176  88.818 -24.722  1.00  0.00     0.211 HD
ENDBRANCH   6  13
BRANCH   7  15
ATOM     15  O   UNL     1     -27.806  87.822 -24.453  1.00  0.00    -0.384 OA
ATOM     16  H   UNL     1     -28.179  88.739 -24.375  1.00  0.00     0.211 HD
ENDBRANCH   7  15
ENDBRANCH   1   2
BRANCH   1  17
ATOM     17  C   UNL     1     -23.644  86.214 -24.702  1.00  0.00     0.172 A 
ATOM     18  C   UNL     1     -22.468  86.610 -24.014  1.00  0.00     0.201 A 
ATOM     19  C   UNL     1     -24.113  84.908 -24.563  1.00  0.00     0.098 A 
ATOM     20  C   UNL     1     -21.769  85.665 -23.214  1.00  0.00     0.176 A 
ATOM     21  C   UNL     1     -23.455  83.985 -23.758  1.00  0.00     0.146 A 
ATOM     22  C   UNL     1     -22.278  84.350 -23.072  1.00  0.00     0.111 A 
ATOM     23  O   UNL     1     -23.951  82.755 -23.649  1.00  0.00    -0.456 OA
ATOM     24  C   UNL     1     -21.661  83.364 -22.271  1.00  0.00     0.197 A 
ATOM     25  C   UNL     1     -23.389  81.802 -22.910  1.00  0.00     0.138 A 
ATOM     26  C   UNL     1     -22.220  82.089 -22.190  1.00  0.00     0.100 A 
ATOM     27  O   UNL     1     -20.613  83.609 -21.614  1.00  0.00    -0.289 OA
BRANCH  18  28
ATOM     28  O   UNL     1     -22.024  87.928 -24.123  1.00  0.00    -0.502 OA
ATOM     29  H   UNL     1     -22.626  88.737 -24.187  1.00  0.00     0.293 HD
ENDBRANCH  18  28
BRANCH  20  30
ATOM     30  O   UNL     1     -20.574  86.000 -22.567  1.00  0.00    -0.504 OA
ATOM     31  H   UNL     1     -20.265  85.607 -21.690  1.00  0.00     0.293 HD
ENDBRANCH  20  30
BRANCH  25  32
ATOM     32  C   UNL     1     -24.034  80.465 -22.860  1.00  0.00     0.017 A 
ATOM     33  C   UNL     1     -23.432  79.433 -22.116  1.00  0.00     0.012 A 
ATOM     34  C   UNL     1     -25.253  80.205 -23.518  1.00  0.00     0.012 A 
ATOM     35  C   UNL     1     -24.023  78.168 -22.050  1.00  0.00     0.001 A 
ATOM     36  C   UNL     1     -25.839  78.938 -23.448  1.00  0.00     0.001 A 
ATOM     37  C   UNL     1     -25.224  77.920 -22.717  1.00  0.00     0.000 A 
ENDBRANCH  25  32
ENDBRANCH   1  17
TORSDOF 9
ENDMDL
MODEL 2
REMARK VINA RESULT:    -6.950      2.153      7.853
REMARK INTER + INTRA:         -11.287
REMARK INTER:                 -10.249
REMARK INTRA:                  -1.037
REMARK UNBOUND:                -1.695
REMARK SMILES O=C([O-])[C@H]1O[C@@H](Oc2cc3oc(-c4ccccc4)cc(=O)c3c(O)c2O)[C@H](O)[C@@H](O)[C@H]1O
REMARK SMILES IDX 7 1 6 2 4 3 31 4 5 5 29 6 27 7 2 8 1 9 3 10 32 11 30 13
REMARK SMILES IDX 28 15 8 17 25 18 9 19 23 20 10 21 22 22 11 23 20 24 12 25
REMARK SMILES IDX 19 26 21 27 26 28 24 30 13 32 14 33 18 34 15 35 17 36 16 37
REMARK H PARENT 32 12 30 14 28 16 26 29 24 31
REMARK Flexibility Score: inf
ROOT
ATOM      1  O   UNL     1     -23.024  84.488 -22.502  1.00  0.00    -0.458 OA
ENDROOT
BRANCH   1   2
ATOM      2  C   UNL     1     -21.958  84.235 -21.583  1.00  0.00     0.339 C 
ATOM      3  C   UNL     1     -21.585  81.982 -22.261  1.00  0.00     0.199 C 
ATOM      4  C   UNL     1     -22.226  81.428 -20.957  1.00  0.00     0.180 C 
ATOM      5  O   UNL     1     -21.033  83.283 -22.095  1.00  0.00    -0.328 OA
ATOM      6  C   UNL     1     -23.188  82.430 -20.303  1.00  0.00     0.181 C 
ATOM      7  C   UNL     1     -22.523  83.815 -20.216  1.00  0.00     0.214 C 
BRANCH   3   8
ATOM      8  C   UNL     1     -22.424  81.891 -23.515  1.00  0.00     0.073 C 
ATOM      9  O   UNL     1     -23.592  81.418 -23.497  1.00  0.00    -0.547 OA
ATOM     10  O   UNL     1     -21.895  82.337 -24.718  1.00  0.00    -0.547 OA
ENDBRANCH   3   8
BRANCH   4  11
ATOM     11  O   UNL     1     -22.885  80.207 -21.183  1.00  0.00    -0.387 OA
ATOM     12  H   UNL     1     -23.803  80.430 -21.491  1.00  0.00     0.211 HD
ENDBRANCH   4  11
BRANCH   6  13
ATOM     13  O   UNL     1     -24.388  82.506 -21.031  1.00  0.00    -0.387 OA
ATOM     14  H   UNL     1     -25.108  82.709 -20.379  1.00  0.00     0.211 HD
ENDBRANCH   6  13
BRANCH   7  15
ATOM     15  O   UNL     1     -21.479  83.793 -19.276  1.00  0.00    -0.384 OA
ATOM     16  H   UNL     1     -20.637  83.948 -19.779  1.00  0.00     0.211 HD
ENDBRANCH   7  15
ENDBRANCH   1   2
BRANCH   1  17
ATOM     17  C   UNL     1     -23.176  85.589 -23.367  1.00  0.00     0.172 A 
ATOM     18  C   UNL     1     -22.173  86.560 -23.617  1.00  0.00     0.201 A 
ATOM     19  C   UNL     1     -24.407  85.693 -24.013  1.00  0.00     0.098 A 
ATOM     20  C   UNL     1     -22.442  87.638 -24.503  1.00  0.00     0.176 A 
ATOM     21  C   UNL     1     -24.671  86.726 -24.906  1.00  0.00     0.146 A 
ATOM     22  C   UNL     1     -23.693  87.710 -25.164  1.00  0.00     0.111 A 
ATOM     23  O   UNL     1     -25.857  86.771 -25.506  1.00  0.00    -0.456 OA
ATOM     24  C   UNL     1     -24.027  88.730 -26.082  1.00  0.00     0.197 A 
ATOM     25  C   UNL     1     -26.204  87.724 -26.368  1.00  0.00     0.138 A 
ATOM     26  C   UNL     1     -25.285  88.734 -26.685  1.00  0.00     0.100 A 
ATOM     27  O   UNL     1     -23.209  89.642 -26.380  1.00  0.00    -0.289 OA
BRANCH  18  28
ATOM     28  O   UNL     1     -20.928  86.431 -23.000  1.00  0.00    -0.502 OA
ATOM     29  H   UNL     1     -20.173  87.096 -23.077  1.00  0.00     0.293 HD
ENDBRANCH  18  28
BRANCH  20  30
ATOM     30  O   UNL     1     -21.501  88.648 -24.731  1.00  0.00    -0.504 OA
ATOM     31  H   UNL     1     -20.562  88.656 -24.358  1.00  0.00     0.293 HD
ENDBRANCH  20  30
BRANCH  25  32
ATOM     32  C   UNL     1     -27.556  87.672 -26.981  1.00  0.00     0.017 A 
ATOM     33  C   UNL     1     -28.579  86.946 -26.343  1.00  0.00     0.012 A 
ATOM     34  C   UNL     1     -27.855  88.356 -28.176  1.00  0.00     0.012 A 
ATOM     35  C   UNL     1     -29.861  86.887 -26.898  1.00  0.00     0.001 A 
ATOM     36  C   UNL     1     -29.139  88.295 -28.726  1.00  0.00     0.001 A 
ATOM     37  C   UNL     1     -30.140  87.559 -28.089  1.00  0.00     0.000 A 
ENDBRANCH  25  32
ENDBRANCH   1  17
TORSDOF 9
ENDMDL
MODEL 3
REMARK VINA RESULT:    -6.937      2.332      8.725
REMARK INTER + INTRA:         -11.268
REMARK INTER:                  -9.471
REMARK INTRA:                  -1.798
REMARK UNBOUND:                -1.695
REMARK SMILES O=C([O-])[C@H]1O[C@@H](Oc2cc3oc(-c4ccccc4)cc(=O)c3c(O)c2O)[C@H](O)[C@@H](O)[C@H]1O
REMARK SMILES IDX 7 1 6 2 4 3 31 4 5 5 29 6 27 7 2 8 1 9 3 10 32 11 30 13
REMARK SMILES IDX 28 15 8 17 25 18 9 19 23 20 10 21 22 22 11 23 20 24 12 25
REMARK SMILES IDX 19 26 21 27 26 28 24 30 13 32 14 33 18 34 15 35 17 36 16 37
REMARK H PARENT 32 12 30 14 28 16 26 29 24 31
REMARK Flexibility Score: inf
ROOT
ATOM      1  O   UNL     1     -23.823  84.598 -23.328  1.00  0.00    -0.458 OA
ENDROOT
BRANCH   1   2
ATOM      2  C   UNL     1     -22.448  84.267 -23.542  1.00  0.00     0.339 C 
ATOM      3  C   UNL     1     -22.706  81.927 -23.172  1.00  0.00     0.199 C 
ATOM      4  C   UNL     1     -21.993  82.014 -21.792  1.00  0.00     0.180 C 
ATOM      5  O   UNL     1     -22.297  82.953 -24.069  1.00  0.00    -0.328 OA
ATOM      6  C   UNL     1     -22.052  83.424 -21.188  1.00  0.00     0.181 C 
ATOM      7  C   UNL     1     -21.646  84.465 -22.245  1.00  0.00     0.214 C 
BRANCH   3   8
ATOM      8  C   UNL     1     -24.210  81.780 -23.144  1.00  0.00     0.073 C 
ATOM      9  O   UNL     1     -24.860  81.827 -22.066  1.00  0.00    -0.547 OA
ATOM     10  O   UNL     1     -24.893  81.584 -24.337  1.00  0.00    -0.547 OA
ENDBRANCH   3   8
BRANCH   4  11
ATOM     11  O   UNL     1     -22.515  81.079 -20.881  1.00  0.00    -0.387 OA
ATOM     12  H   UNL     1     -22.717  81.575 -20.045  1.00  0.00     0.211 HD
ENDBRANCH   4  11
BRANCH   6  13
ATOM     13  O   UNL     1     -23.341  83.696 -20.700  1.00  0.00    -0.387 OA
ATOM     14  H   UNL     1     -23.233  84.307 -19.925  1.00  0.00     0.211 HD
ENDBRANCH   6  13
BRANCH   7  15
ATOM     15  O   UNL     1     -20.275  84.354 -22.534  1.00  0.00    -0.384 OA
ATOM     16  H   UNL     1     -20.055  83.385 -22.511  1.00  0.00     0.211 HD
ENDBRANCH   7  15
ENDBRANCH   1   2
BRANCH   1  17
ATOM     17  C   UNL     1     -24.739  85.125 -24.259  1.00  0.00     0.172 A 
ATOM     18  C   UNL     1     -26.130  84.847 -24.263  1.00  0.00     0.201 A 
ATOM     19  C   UNL     1     -24.209  85.985 -25.219  1.00  0.00     0.098 A 
ATOM     20  C   UNL     1     -26.960  85.427 -25.260  1.00  0.00     0.176 A 
ATOM     21  C   UNL     1     -25.016  86.583 -26.180  1.00  0.00     0.146 A 
ATOM     22  C   UNL     1     -26.401  86.315 -26.213  1.00  0.00     0.111 A 
ATOM     23  O   UNL     1     -24.461  87.406 -27.066  1.00  0.00    -0.456 OA
ATOM     24  C   UNL     1     -27.162  86.956 -27.214  1.00  0.00     0.197 A 
ATOM     25  C   UNL     1     -25.150  88.018 -28.026  1.00  0.00     0.138 A 
ATOM     26  C   UNL     1     -26.534  87.810 -28.121  1.00  0.00     0.100 A 
ATOM     27  O   UNL     1     -28.408  86.783 -27.308  1.00  0.00    -0.289 OA
BRANCH  18  28
ATOM     28  O   UNL     1     -26.665  84.018 -23.276  1.00  0.00    -0.502 OA
ATOM     29  H   UNL     1     -26.159  83.677 -22.472  1.00  0.00     0.293 HD
ENDBRANCH  18  28
BRANCH  20  30
ATOM     30  O   UNL     1     -28.326  85.132 -25.335  1.00  0.00    -0.504 OA
ATOM     31  H   UNL     1     -28.956  85.494 -26.037  1.00  0.00     0.293 HD
ENDBRANCH  20  30
BRANCH  25  32
ATOM     32  C   UNL     1     -24.426  88.919 -28.959  1.00  0.00     0.017 A 
ATOM     33  C   UNL     1     -24.998  89.229 -30.207  1.00  0.00     0.012 A 
ATOM     34  C   UNL     1     -23.187  89.499 -28.618  1.00  0.00     0.012 A 
ATOM     35  C   UNL     1     -24.338  90.079 -31.099  1.00  0.00     0.001 A 
ATOM     36  C   UNL     1     -22.533  90.348 -29.514  1.00  0.00     0.001 A 
ATOM     37  C   UNL     1     -23.106  90.636 -30.755  1.00  0.00     0.000 A 
ENDBRANCH  25  32
ENDBRANCH   1  17
TORSDOF 9
ENDMDL
MODEL 4
REMARK VINA RESULT:    -6.798      2.201      8.361
REMARK INTER + INTRA:         -11.076
REMARK INTER:                  -9.531
REMARK INTRA:                  -1.545
REMARK UNBOUND:                -1.695
REMARK SMILES O=C([O-])[C@H]1O[C@@H](Oc2cc3oc(-c4ccccc4)cc(=O)c3c(O)c2O)[C@H](O)[C@@H](O)[C@H]1O
REMARK SMILES IDX 7 1 6 2 4 3 31 4 5 5 29 6 27 7 2 8 1 9 3 10 32 11 30 13
REMARK SMILES IDX 28 15 8 17 25 18 9 19 23 20 10 21 22 22 11 23 20 24 12 25
REMARK SMILES IDX 19 26 21 27 26 28 24 30 13 32 14 33 18 34 15 35 17 36 16 37
REMARK H PARENT 32 12 30 14 28 16 26 29 24 31
REMARK Flexibility Score: inf
ROOT
ATOM      1  O   UNL     1     -23.134  82.480 -23.663  1.00  0.00    -0.458 OA
ENDROOT
BRANCH   1   2
ATOM      2  C   UNL     1     -23.391  81.530 -24.701  1.00  0.00     0.339 C 
ATOM      3  C   UNL     1     -22.583  79.637 -23.501  1.00  0.00     0.199 C 
ATOM      4  C   UNL     1     -21.302  79.561 -24.380  1.00  0.00     0.180 C 
ATOM      5  O   UNL     1     -23.681  80.239 -24.178  1.00  0.00    -0.328 OA
ATOM      6  C   UNL     1     -20.961  80.904 -25.039  1.00  0.00     0.181 C 
ATOM      7  C   UNL     1     -22.218  81.500 -25.696  1.00  0.00     0.214 C 
BRANCH   3   8
ATOM      8  C   UNL     1     -22.412  80.201 -22.109  1.00  0.00     0.073 C 
ATOM      9  O   UNL     1     -23.359  80.213 -21.279  1.00  0.00    -0.547 OA
ATOM     10  O   UNL     1     -21.180  80.722 -21.736  1.00  0.00    -0.547 OA
ENDBRANCH   3   8
BRANCH   4  11
ATOM     11  O   UNL     1     -20.199  79.093 -23.644  1.00  0.00    -0.387 OA
ATOM     12  H   UNL     1     -19.788  78.361 -24.177  1.00  0.00     0.211 HD
ENDBRANCH   4  11
BRANCH   6  13
ATOM     13  O   UNL     1     -20.431  81.797 -24.092  1.00  0.00    -0.387 OA
ATOM     14  H   UNL     1     -20.248  82.648 -24.568  1.00  0.00     0.211 HD
ENDBRANCH   6  13
BRANCH   7  15
ATOM     15  O   UNL     1     -22.588  80.737 -26.817  1.00  0.00    -0.384 OA
ATOM     16  H   UNL     1     -22.151  79.851 -26.716  1.00  0.00     0.211 HD
ENDBRANCH   7  15
ENDBRANCH   1   2
BRANCH   1  17
ATOM     17  C   UNL     1     -22.861  83.854 -23.798  1.00  0.00     0.172 A 
ATOM     18  C   UNL     1     -21.864  84.552 -23.069  1.00  0.00     0.201 A 
ATOM     19  C   UNL     1     -23.635  84.542 -24.731  1.00  0.00     0.098 A 
ATOM     20  C   UNL     1     -21.684  85.946 -23.280  1.00  0.00     0.176 A 
ATOM     21  C   UNL     1     -23.447  85.899 -24.969  1.00  0.00     0.146 A 
ATOM     22  C   UNL     1     -22.469  86.618 -24.249  1.00  0.00     0.111 A 
ATOM     23  O   UNL     1     -24.204  86.505 -25.879  1.00  0.00    -0.456 OA
ATOM     24  C   UNL     1     -22.330  87.993 -24.541  1.00  0.00     0.197 A 
ATOM     25  C   UNL     1     -24.102  87.800 -26.170  1.00  0.00     0.138 A 
ATOM     26  C   UNL     1     -23.148  88.583 -25.505  1.00  0.00     0.100 A 
ATOM     27  O   UNL     1     -21.472  88.707 -23.954  1.00  0.00    -0.289 OA
BRANCH  18  28
ATOM     28  O   UNL     1     -21.063  83.852 -22.165  1.00  0.00    -0.502 OA
ATOM     29  H   UNL     1     -21.178  83.863 -21.163  1.00  0.00     0.293 HD
ENDBRANCH  18  28
BRANCH  20  30
ATOM     30  O   UNL     1     -20.752  86.682 -22.539  1.00  0.00    -0.504 OA
ATOM     31  H   UNL     1     -20.940  87.118 -21.648  1.00  0.00     0.293 HD
ENDBRANCH  20  30
BRANCH  25  32
ATOM     32  C   UNL     1     -24.999  88.369 -27.209  1.00  0.00     0.017 A 
ATOM     33  C   UNL     1     -24.642  88.262 -28.566  1.00  0.00     0.012 A 
ATOM     34  C   UNL     1     -26.217  88.993 -26.875  1.00  0.00     0.012 A 
ATOM     35  C   UNL     1     -25.472  88.786 -29.562  1.00  0.00     0.001 A 
ATOM     36  C   UNL     1     -27.044  89.514 -27.875  1.00  0.00     0.001 A 
ATOM     37  C   UNL     1     -26.670  89.413 -29.217  1.00  0.00     0.000 A 
ENDBRANCH  25  32
ENDBRANCH   1  17
TORSDOF 9
ENDMDL
MODEL 5
REMARK VINA RESULT:    -6.710      2.483      4.208
REMARK INTER + INTRA:         -10.955
REMARK INTER:                  -9.273
REMARK INTRA:                  -1.683
REMARK UNBOUND:                -1.695
REMARK SMILES O=C([O-])[C@H]1O[C@@H](Oc2cc3oc(-c4ccccc4)cc(=O)c3c(O)c2O)[C@H](O)[C@@H](O)[C@H]1O
REMARK SMILES IDX 7 1 6 2 4 3 31 4 5 5 29 6 27 7 2 8 1 9 3 10 32 11 30 13
REMARK SMILES IDX 28 15 8 17 25 18 9 19 23 20 10 21 22 22 11 23 20 24 12 25
REMARK SMILES IDX 19 26 21 27 26 28 24 30 13 32 14 33 18 34 15 35 17 36 16 37
REMARK H PARENT 32 12 30 14 28 16 26 29 24 31
REMARK Flexibility Score: inf
ROOT
ATOM      1  O   UNL     1     -27.731  86.743 -24.790  1.00  0.00    -0.458 OA
ENDROOT
BRANCH   1   2
ATOM      2  C   UNL     1     -28.694  86.070 -23.975  1.00  0.00     0.339 C 
ATOM      3  C   UNL     1     -30.602  87.132 -24.930  1.00  0.00     0.199 C 
ATOM      4  C   UNL     1     -30.817  88.003 -23.660  1.00  0.00     0.180 C 
ATOM      5  O   UNL     1     -29.936  85.905 -24.650  1.00  0.00    -0.328 OA
ATOM      6  C   UNL     1     -29.532  88.170 -22.837  1.00  0.00     0.181 C 
ATOM      7  C   UNL     1     -28.859  86.802 -22.633  1.00  0.00     0.214 C 
BRANCH   3   8
ATOM      8  C   UNL     1     -30.003  87.827 -26.130  1.00  0.00     0.073 C 
ATOM      9  O   UNL     1     -29.669  89.042 -26.094  1.00  0.00    -0.547 OA
ATOM     10  O   UNL     1     -29.818  87.111 -27.305  1.00  0.00    -0.547 OA
ENDBRANCH   3   8
BRANCH   4  11
ATOM     11  O   UNL     1     -31.347  89.265 -23.983  1.00  0.00    -0.387 OA
ATOM     12  H   UNL     1     -31.296  89.818 -23.160  1.00  0.00     0.211 HD
ENDBRANCH   4  11
BRANCH   6  13
ATOM     13  O   UNL     1     -28.652  89.061 -23.473  1.00  0.00    -0.387 OA
ATOM     14  H   UNL     1     -27.859  88.534 -23.752  1.00  0.00     0.211 HD
ENDBRANCH   6  13
BRANCH   7  15
ATOM     15  O   UNL     1     -29.630  86.006 -21.768  1.00  0.00    -0.384 OA
ATOM     16  H   UNL     1     -30.073  86.624 -21.129  1.00  0.00     0.211 HD
ENDBRANCH   7  15
ENDBRANCH   1   2
BRANCH   1  17
ATOM     17  C   UNL     1     -26.338  86.817 -24.599  1.00  0.00     0.172 A 
ATOM     18  C   UNL     1     -25.577  88.011 -24.681  1.00  0.00     0.201 A 
ATOM     19  C   UNL     1     -25.699  85.615 -24.297  1.00  0.00     0.098 A 
ATOM     20  C   UNL     1     -24.171  87.964 -24.480  1.00  0.00     0.176 A 
ATOM     21  C   UNL     1     -24.328  85.563 -24.067  1.00  0.00     0.146 A 
ATOM     22  C   UNL     1     -23.547  86.735 -24.153  1.00  0.00     0.111 A 
ATOM     23  O   UNL     1     -23.769  84.393 -23.770  1.00  0.00    -0.456 OA
ATOM     24  C   UNL     1     -22.162  86.610 -23.907  1.00  0.00     0.197 A 
ATOM     25  C   UNL     1     -22.467  84.242 -23.541  1.00  0.00     0.138 A 
ATOM     26  C   UNL     1     -21.623  85.361 -23.599  1.00  0.00     0.100 A 
ATOM     27  O   UNL     1     -21.393  87.608 -23.950  1.00  0.00    -0.289 OA
BRANCH  18  28
ATOM     28  O   UNL     1     -26.226  89.218 -24.943  1.00  0.00    -0.502 OA
ATOM     29  H   UNL     1     -26.330  89.974 -24.282  1.00  0.00     0.293 HD
ENDBRANCH  18  28
BRANCH  20  30
ATOM     30  O   UNL     1     -23.377  89.109 -24.610  1.00  0.00    -0.504 OA
ATOM     31  H   UNL     1     -23.192  89.587 -25.480  1.00  0.00     0.293 HD
ENDBRANCH  20  30
BRANCH  25  32
ATOM     32  C   UNL     1     -21.953  82.887 -23.214  1.00  0.00     0.017 A 
ATOM     33  C   UNL     1     -22.116  82.381 -21.911  1.00  0.00     0.012 A 
ATOM     34  C   UNL     1     -21.329  82.077 -24.183  1.00  0.00     0.012 A 
ATOM     35  C   UNL     1     -21.645  81.106 -21.581  1.00  0.00     0.001 A 
ATOM     36  C   UNL     1     -20.861  80.804 -23.847  1.00  0.00     0.001 A 
ATOM     37  C   UNL     1     -21.017  80.319 -22.547  1.00  0.00     0.000 A 
ENDBRANCH  25  32
ENDBRANCH   1  17
TORSDOF 9
ENDMDL
MODEL 6
REMARK VINA RESULT:    -6.669      5.197      9.835
REMARK INTER + INTRA:         -10.898
REMARK INTER:                  -9.111
REMARK INTRA:                  -1.787
REMARK UNBOUND:                -1.695
REMARK SMILES O=C([O-])[C@H]1O[C@@H](Oc2cc3oc(-c4ccccc4)cc(=O)c3c(O)c2O)[C@H](O)[C@@H](O)[C@H]1O
REMARK SMILES IDX 7 1 6 2 4 3 31 4 5 5 29 6 27 7 2 8 1 9 3 10 32 11 30 13
REMARK SMILES IDX 28 15 8 17 25 18 9 19 23 20 10 21 22 22 11 23 20 24 12 25
REMARK SMILES IDX 19 26 21 27 26 28 24 30 13 32 14 33 18 34 15 35 17 36 16 37
REMARK H PARENT 32 12 30 14 28 16 26 29 24 31
REMARK Flexibility Score: inf
ROOT
ATOM      1  O   UNL     1     -28.087  88.333 -26.254  1.00  0.00    -0.458 OA
ENDROOT
BRANCH   1   2
ATOM      2  C   UNL     1     -28.881  89.099 -25.343  1.00  0.00     0.339 C 
ATOM      3  C   UNL     1     -28.559  87.657 -23.474  1.00  0.00     0.199 C 
ATOM      4  C   UNL     1     -30.015  87.120 -23.570  1.00  0.00     0.180 C 
ATOM      5  O   UNL     1     -28.420  88.971 -24.003  1.00  0.00    -0.328 OA
ATOM      6  C   UNL     1     -30.611  87.287 -24.975  1.00  0.00     0.181 C 
ATOM      7  C   UNL     1     -30.365  88.719 -25.482  1.00  0.00     0.214 C 
BRANCH   3   8
ATOM      8  C   UNL     1     -27.467  86.739 -23.973  1.00  0.00     0.073 C 
ATOM      9  O   UNL     1     -27.728  85.618 -24.487  1.00  0.00    -0.547 OA
ATOM     10  O   UNL     1     -26.142  87.138 -23.860  1.00  0.00    -0.547 OA
ENDBRANCH   3   8
BRANCH   4  11
ATOM     11  O   UNL     1     -30.096  85.774 -23.172  1.00  0.00    -0.387 OA
ATOM     12  H   UNL     1     -29.187  85.387 -23.280  1.00  0.00     0.211 HD
ENDBRANCH   4  11
BRANCH   6  13
ATOM     13  O   UNL     1     -30.053  86.349 -25.861  1.00  0.00    -0.387 OA
ATOM     14  H   UNL     1     -29.109  86.218 -25.586  1.00  0.00     0.211 HD
ENDBRANCH   6  13
BRANCH   7  15
ATOM     15  O   UNL     1     -31.142  89.632 -24.750  1.00  0.00    -0.384 OA
ATOM     16  H   UNL     1     -30.609  90.467 -24.675  1.00  0.00     0.211 HD
ENDBRANCH   7  15
ENDBRANCH   1   2
BRANCH   1  17
ATOM     17  C   UNL     1     -26.898  88.722 -26.900  1.00  0.00     0.172 A 
ATOM     18  C   UNL     1     -25.852  87.835 -27.261  1.00  0.00     0.201 A 
ATOM     19  C   UNL     1     -26.782  90.078 -27.201  1.00  0.00     0.098 A 
ATOM     20  C   UNL     1     -24.689  88.342 -27.901  1.00  0.00     0.176 A 
ATOM     21  C   UNL     1     -25.662  90.581 -27.856  1.00  0.00     0.146 A 
ATOM     22  C   UNL     1     -24.603  89.721 -28.216  1.00  0.00     0.111 A 
ATOM     23  O   UNL     1     -25.607  91.881 -28.131  1.00  0.00    -0.456 OA
ATOM     24  C   UNL     1     -23.497  90.297 -28.879  1.00  0.00     0.197 A 
ATOM     25  C   UNL     1     -24.576  92.454 -28.747  1.00  0.00     0.138 A 
ATOM     26  C   UNL     1     -23.486  91.666 -29.146  1.00  0.00     0.100 A 
ATOM     27  O   UNL     1     -22.514  89.599 -29.248  1.00  0.00    -0.289 OA
BRANCH  18  28
ATOM     28  O   UNL     1     -25.990  86.472 -26.994  1.00  0.00    -0.502 OA
ATOM     29  H   UNL     1     -25.515  85.977 -26.254  1.00  0.00     0.293 HD
ENDBRANCH  18  28
BRANCH  20  30
ATOM     30  O   UNL     1     -23.610  87.509 -28.221  1.00  0.00    -0.504 OA
ATOM     31  H   UNL     1     -23.461  87.079 -29.122  1.00  0.00     0.293 HD
ENDBRANCH  20  30
BRANCH  25  32
ATOM     32  C   UNL     1     -24.623  93.916 -29.007  1.00  0.00     0.017 A 
ATOM     33  C   UNL     1     -25.074  94.784 -27.995  1.00  0.00     0.012 A 
ATOM     34  C   UNL     1     -24.202  94.465 -30.234  1.00  0.00     0.012 A 
ATOM     35  C   UNL     1     -25.123  96.164 -28.214  1.00  0.00     0.001 A 
ATOM     36  C   UNL     1     -24.252  95.846 -30.446  1.00  0.00     0.001 A 
ATOM     37  C   UNL     1     -24.715  96.694 -29.439  1.00  0.00     0.000 A 
ENDBRANCH  25  32
ENDBRANCH   1  17
TORSDOF 9
ENDMDL
MODEL 7
REMARK VINA RESULT:    -6.608      2.059      8.172
REMARK INTER + INTRA:         -10.814
REMARK INTER:                  -9.098
REMARK INTRA:                  -1.716
REMARK UNBOUND:                -1.695
REMARK SMILES O=C([O-])[C@H]1O[C@@H](Oc2cc3oc(-c4ccccc4)cc(=O)c3c(O)c2O)[C@H](O)[C@@H](O)[C@H]1O
REMARK SMILES IDX 7 1 6 2 4 3 31 4 5 5 29 6 27 7 2 8 1 9 3 10 32 11 30 13
REMARK SMILES IDX 28 15 8 17 25 18 9 19 23 20 10 21 22 22 11 23 20 24 12 25
REMARK SMILES IDX 19 26 21 27 26 28 24 30 13 32 14 33 18 34 15 35 17 36 16 37
REMARK H PARENT 32 12 30 14 28 16 26 29 24 31
REMARK Flexibility Score: inf
ROOT
ATOM      1  O   UNL     1     -23.509  83.811 -22.998  1.00  0.00    -0.458 OA
ENDROOT
BRANCH   1   2
ATOM      2  C   UNL     1     -24.037  82.609 -23.566  1.00  0.00     0.339 C 
ATOM      3  C   UNL     1     -23.169  81.151 -21.894  1.00  0.00     0.199 C 
ATOM      4  C   UNL     1     -22.092  80.592 -22.866  1.00  0.00     0.180 C 
ATOM      5  O   UNL     1     -24.324  81.635 -22.570  1.00  0.00    -0.328 OA
ATOM      6  C   UNL     1     -21.777  81.561 -24.015  1.00  0.00     0.181 C 
ATOM      7  C   UNL     1     -23.085  82.069 -24.646  1.00  0.00     0.214 C 
BRANCH   3   8
ATOM      8  C   UNL     1     -22.687  82.130 -20.847  1.00  0.00     0.073 C 
ATOM      9  O   UNL     1     -21.496  82.539 -20.821  1.00  0.00    -0.547 OA
ATOM     10  O   UNL     1     -23.580  82.587 -19.887  1.00  0.00    -0.547 OA
ENDBRANCH   3   8
BRANCH   4  11
ATOM     11  O   UNL     1     -20.908  80.252 -22.187  1.00  0.00    -0.387 OA
ATOM     12  H   UNL     1     -20.279  79.896 -22.868  1.00  0.00     0.211 HD
ENDBRANCH   4  11
BRANCH   6  13
ATOM     13  O   UNL     1     -21.004  82.639 -23.551  1.00  0.00    -0.387 OA
ATOM     14  H   UNL     1     -20.723  82.415 -22.626  1.00  0.00     0.211 HD
ENDBRANCH   6  13
BRANCH   7  15
ATOM     15  O   UNL     1     -23.724  81.028 -25.340  1.00  0.00    -0.384 OA
ATOM     16  H   UNL     1     -23.400  80.177 -24.943  1.00  0.00     0.211 HD
ENDBRANCH   7  15
ENDBRANCH   1   2
BRANCH   1  17
ATOM     17  C   UNL     1     -23.511  85.103 -23.557  1.00  0.00     0.172 A 
ATOM     18  C   UNL     1     -22.359  85.920 -23.698  1.00  0.00     0.201 A 
ATOM     19  C   UNL     1     -24.744  85.575 -24.003  1.00  0.00     0.098 A 
ATOM     20  C   UNL     1     -22.481  87.216 -24.269  1.00  0.00     0.176 A 
ATOM     21  C   UNL     1     -24.870  86.829 -24.591  1.00  0.00     0.146 A 
ATOM     22  C   UNL     1     -23.742  87.664 -24.734  1.00  0.00     0.111 A 
ATOM     23  O   UNL     1     -26.068  87.226 -25.011  1.00  0.00    -0.456 OA
ATOM     24  C   UNL     1     -23.941  88.924 -25.341  1.00  0.00     0.197 A 
ATOM     25  C   UNL     1     -26.289  88.409 -25.579  1.00  0.00     0.138 A 
ATOM     26  C   UNL     1     -25.217  89.295 -25.765  1.00  0.00     0.100 A 
ATOM     27  O   UNL     1     -22.985  89.727 -25.519  1.00  0.00    -0.289 OA
BRANCH  18  28
ATOM     28  O   UNL     1     -21.119  85.428 -23.288  1.00  0.00    -0.502 OA
ATOM     29  H   UNL     1     -20.620  85.733 -22.465  1.00  0.00     0.293 HD
ENDBRANCH  18  28
BRANCH  20  30
ATOM     30  O   UNL     1     -21.381  88.074 -24.372  1.00  0.00    -0.504 OA
ATOM     31  H   UNL     1     -20.552  88.021 -23.797  1.00  0.00     0.293 HD
ENDBRANCH  20  30
BRANCH  25  32
ATOM     32  C   UNL     1     -27.669  88.745 -26.013  1.00  0.00     0.017 A 
ATOM     33  C   UNL     1     -28.680  87.770 -25.924  1.00  0.00     0.012 A 
ATOM     34  C   UNL     1     -28.005  90.028 -26.488  1.00  0.00     0.012 A 
ATOM     35  C   UNL     1     -29.987  88.065 -26.322  1.00  0.00     0.001 A 
ATOM     36  C   UNL     1     -29.314  90.317 -26.884  1.00  0.00     0.001 A 
ATOM     37  C   UNL     1     -30.304  89.336 -26.803  1.00  0.00     0.000 A 
ENDBRANCH  25  32
ENDBRANCH   1  17
TORSDOF 9
ENDMDL
MODEL 8
REMARK VINA RESULT:    -6.543      2.239      8.256
REMARK INTER + INTRA:         -10.725
REMARK INTER:                  -9.205
REMARK INTRA:                  -1.520
REMARK UNBOUND:                -1.695
REMARK SMILES O=C([O-])[C@H]1O[C@@H](Oc2cc3oc(-c4ccccc4)cc(=O)c3c(O)c2O)[C@H](O)[C@@H](O)[C@H]1O
REMARK SMILES IDX 7 1 6 2 4 3 31 4 5 5 29 6 27 7 2 8 1 9 3 10 32 11 30 13
REMARK SMILES IDX 28 15 8 17 25 18 9 19 23 20 10 21 22 22 11 23 20 24 12 25
REMARK SMILES IDX 19 26 21 27 26 28 24 30 13 32 14 33 18 34 15 35 17 36 16 37
REMARK H PARENT 32 12 30 14 28 16 26 29 24 31
REMARK Flexibility Score: inf
ROOT
ATOM      1  O   UNL     1     -22.553  82.169 -23.402  1.00  0.00    -0.458 OA
ENDROOT
BRANCH   1   2
ATOM      2  C   UNL     1     -21.754  81.124 -23.963  1.00  0.00     0.339 C 
ATOM      3  C   UNL     1     -23.546  79.582 -24.255  1.00  0.00     0.199 C 
ATOM      4  C   UNL     1     -23.049  78.700 -23.075  1.00  0.00     0.180 C 
ATOM      5  O   UNL     1     -22.497  80.320 -24.872  1.00  0.00    -0.328 OA
ATOM      6  C   UNL     1     -22.178  79.483 -22.083  1.00  0.00     0.181 C 
ATOM      7  C   UNL     1     -21.110  80.288 -22.844  1.00  0.00     0.214 C 
BRANCH   3   8
ATOM      8  C   UNL     1     -24.752  80.452 -23.985  1.00  0.00     0.073 C 
ATOM      9  O   UNL     1     -25.302  80.488 -22.852  1.00  0.00    -0.547 OA
ATOM     10  O   UNL     1     -25.271  81.228 -25.013  1.00  0.00    -0.547 OA
ENDBRANCH   3   8
BRANCH   4  11
ATOM     11  O   UNL     1     -24.121  78.093 -22.397  1.00  0.00    -0.387 OA
ATOM     12  H   UNL     1     -24.840  78.775 -22.328  1.00  0.00     0.211 HD
ENDBRANCH   4  11
BRANCH   6  13
ATOM     13  O   UNL     1     -22.971  80.337 -21.299  1.00  0.00    -0.387 OA
ATOM     14  H   UNL     1     -23.754  79.807 -20.995  1.00  0.00     0.211 HD
ENDBRANCH   6  13
BRANCH   7  15
ATOM     15  O   UNL     1     -20.160  79.420 -23.409  1.00  0.00    -0.384 OA
ATOM     16  H   UNL     1     -20.458  78.496 -23.203  1.00  0.00     0.211 HD
ENDBRANCH   7  15
ENDBRANCH   1   2
BRANCH   1  17
ATOM     17  C   UNL     1     -22.438  83.556 -23.619  1.00  0.00     0.172 A 
ATOM     18  C   UNL     1     -21.512  84.400 -22.954  1.00  0.00     0.201 A 
ATOM     19  C   UNL     1     -23.301  84.099 -24.570  1.00  0.00     0.098 A 
ATOM     20  C   UNL     1     -21.493  85.791 -23.246  1.00  0.00     0.176 A 
ATOM     21  C   UNL     1     -23.270  85.452 -24.887  1.00  0.00     0.146 A 
ATOM     22  C   UNL     1     -22.366  86.315 -24.232  1.00  0.00     0.111 A 
ATOM     23  O   UNL     1     -24.106  85.917 -25.811  1.00  0.00    -0.456 OA
ATOM     24  C   UNL     1     -22.386  87.678 -24.602  1.00  0.00     0.197 A 
ATOM     25  C   UNL     1     -24.155  87.196 -26.176  1.00  0.00     0.138 A 
ATOM     26  C   UNL     1     -23.282  88.117 -25.577  1.00  0.00     0.100 A 
ATOM     27  O   UNL     1     -21.604  88.516 -24.077  1.00  0.00    -0.289 OA
BRANCH  18  28
ATOM     28  O   UNL     1     -20.622  83.847 -22.032  1.00  0.00    -0.502 OA
ATOM     29  H   UNL     1     -19.927  83.148 -22.249  1.00  0.00     0.293 HD
ENDBRANCH  18  28
BRANCH  20  30
ATOM     30  O   UNL     1     -20.636  86.667 -22.570  1.00  0.00    -0.504 OA
ATOM     31  H   UNL     1     -20.059  86.414 -21.781  1.00  0.00     0.293 HD
ENDBRANCH  20  30
BRANCH  25  32
ATOM     32  C   UNL     1     -25.127  87.602 -27.222  1.00  0.00     0.017 A 
ATOM     33  C   UNL     1     -24.655  88.075 -28.460  1.00  0.00     0.012 A 
ATOM     34  C   UNL     1     -26.518  87.500 -27.021  1.00  0.00     0.012 A 
ATOM     35  C   UNL     1     -25.551  88.458 -29.463  1.00  0.00     0.001 A 
ATOM     36  C   UNL     1     -27.410  87.884 -28.027  1.00  0.00     0.001 A 
ATOM     37  C   UNL     1     -26.927  88.365 -29.246  1.00  0.00     0.000 A 
ENDBRANCH  25  32
ENDBRANCH   1  17
TORSDOF 9
ENDMDL
MODEL 9
REMARK VINA RESULT:    -6.521      2.336      3.595
REMARK INTER + INTRA:         -10.695
REMARK INTER:                  -8.884
REMARK INTRA:                  -1.811
REMARK UNBOUND:                -1.695
REMARK SMILES O=C([O-])[C@H]1O[C@@H](Oc2cc3oc(-c4ccccc4)cc(=O)c3c(O)c2O)[C@H](O)[C@@H](O)[C@H]1O
REMARK SMILES IDX 7 1 6 2 4 3 31 4 5 5 29 6 27 7 2 8 1 9 3 10 32 11 30 13
REMARK SMILES IDX 28 15 8 17 25 18 9 19 23 20 10 21 22 22 11 23 20 24 12 25
REMARK SMILES IDX 19 26 21 27 26 28 24 30 13 32 14 33 18 34 15 35 17 36 16 37
REMARK H PARENT 32 12 30 14 28 16 26 29 24 31
REMARK Flexibility Score: inf
ROOT
ATOM      1  O   UNL     1     -25.390  90.108 -26.538  1.00  0.00    -0.458 OA
ENDROOT
BRANCH   1   2
ATOM      2  C   UNL     1     -26.432  89.965 -27.507  1.00  0.00     0.339 C 
ATOM      3  C   UNL     1     -25.370  91.269 -29.195  1.00  0.00     0.199 C 
ATOM      4  C   UNL     1     -26.361  92.449 -28.980  1.00  0.00     0.180 C 
ATOM      5  O   UNL     1     -25.927  90.009 -28.837  1.00  0.00    -0.328 OA
ATOM      6  C   UNL     1     -27.004  92.430 -27.587  1.00  0.00     0.181 C 
ATOM      7  C   UNL     1     -27.527  91.018 -27.269  1.00  0.00     0.214 C 
BRANCH   3   8
ATOM      8  C   UNL     1     -23.981  91.445 -28.625  1.00  0.00     0.073 C 
ATOM      9  O   UNL     1     -23.658  92.471 -27.970  1.00  0.00    -0.547 OA
ATOM     10  O   UNL     1     -23.034  90.450 -28.830  1.00  0.00    -0.547 OA
ENDBRANCH   3   8
BRANCH   4  11
ATOM     11  O   UNL     1     -25.741  93.691 -29.207  1.00  0.00    -0.387 OA
ATOM     12  H   UNL     1     -24.862  93.500 -29.628  1.00  0.00     0.211 HD
ENDBRANCH   4  11
BRANCH   6  13
ATOM     13  O   UNL     1     -26.079  92.842 -26.613  1.00  0.00    -0.387 OA
ATOM     14  H   UNL     1     -25.436  92.095 -26.490  1.00  0.00     0.211 HD
ENDBRANCH   6  13
BRANCH   7  15
ATOM     15  O   UNL     1     -28.635  90.718 -28.080  1.00  0.00    -0.384 OA
ATOM     16  H   UNL     1     -29.242  90.150 -27.537  1.00  0.00     0.211 HD
ENDBRANCH   7  15
ENDBRANCH   1   2
BRANCH   1  17
ATOM     17  C   UNL     1     -24.690  89.087 -25.865  1.00  0.00     0.172 A 
ATOM     18  C   UNL     1     -23.317  89.149 -25.517  1.00  0.00     0.201 A 
ATOM     19  C   UNL     1     -25.435  87.959 -25.523  1.00  0.00     0.098 A 
ATOM     20  C   UNL     1     -22.711  88.051 -24.847  1.00  0.00     0.176 A 
ATOM     21  C   UNL     1     -24.860  86.893 -24.840  1.00  0.00     0.146 A 
ATOM     22  C   UNL     1     -23.494  86.925 -24.491  1.00  0.00     0.111 A 
ATOM     23  O   UNL     1     -25.618  85.846 -24.526  1.00  0.00    -0.456 OA
ATOM     24  C   UNL     1     -22.975  85.810 -23.797  1.00  0.00     0.197 A 
ATOM     25  C   UNL     1     -25.157  84.777 -23.881  1.00  0.00     0.138 A 
ATOM     26  C   UNL     1     -23.810  84.735 -23.491  1.00  0.00     0.100 A 
ATOM     27  O   UNL     1     -21.768  85.761 -23.436  1.00  0.00    -0.289 OA
BRANCH  18  28
ATOM     28  O   UNL     1     -22.584  90.296 -25.824  1.00  0.00    -0.502 OA
ATOM     29  H   UNL     1     -21.594  90.315 -26.019  1.00  0.00     0.293 HD
ENDBRANCH  18  28
BRANCH  20  30
ATOM     30  O   UNL     1     -21.346  88.048 -24.538  1.00  0.00    -0.504 OA
ATOM     31  H   UNL     1     -20.612  87.770 -25.173  1.00  0.00     0.293 HD
ENDBRANCH  20  30
BRANCH  25  32
ATOM     32  C   UNL     1     -26.096  83.666 -23.580  1.00  0.00     0.017 A 
ATOM     33  C   UNL     1     -25.588  82.378 -23.331  1.00  0.00     0.012 A 
ATOM     34  C   UNL     1     -27.489  83.871 -23.508  1.00  0.00     0.012 A 
ATOM     35  C   UNL     1     -26.452  81.318 -23.040  1.00  0.00     0.001 A 
ATOM     36  C   UNL     1     -28.347  82.808 -23.216  1.00  0.00     0.001 A 
ATOM     37  C   UNL     1     -27.830  81.532 -22.985  1.00  0.00     0.000 A 
ENDBRANCH  25  32
ENDBRANCH   1  17
TORSDOF 9
ENDMDL
