MODEL 1
REMARK VINA RESULT:    -3.911      0.000      0.000
REMARK INTER + INTRA:          -6.638
REMARK INTER:                  -5.969
REMARK INTRA:                  -0.669
REMARK UNBOUND:                -0.669
REMARK SMILES O=C([O-])CCCCCCCCC(=O)[O-]
REMARK SMILES IDX 7 1 6 2 5 3 4 4 2 5 1 6 3 7 8 8 9 9 10 10 11 11 12 12 13 13
REMARK SMILES IDX 14 14
REMARK H PARENT
REMARK Flexibility Score: inf
ROOT
ATOM      1  C   UNL     1      52.152 -49.367  -8.202  1.00  0.00     0.000 C 
ENDROOT
BRANCH   1   2
ATOM      2  C   UNL     1      51.385 -50.692  -8.120  1.00  0.00     0.000 C 
BRANCH   2   3
ATOM      3  C   UNL     1      52.135 -51.808  -8.863  1.00  0.00     0.006 C 
BRANCH   3   4
ATOM      4  C   UNL     1      53.176 -51.255  -9.846  1.00  0.00     0.053 C 
BRANCH   4   5
ATOM      5  C   UNL     1      52.679 -51.288 -11.259  1.00  0.00     0.041 C 
ATOM      6  O   UNL     1      51.503 -50.926 -11.525  1.00  0.00    -0.550 OA
ATOM      7  O   UNL     1      53.527 -51.687 -12.285  1.00  0.00    -0.550 OA
ENDBRANCH   4   5
ENDBRANCH   3   4
ENDBRANCH   2   3
ENDBRANCH   1   2
BRANCH   1   8
ATOM      8  C   UNL     1      51.330 -48.301  -8.942  1.00  0.00     0.000 C 
BRANCH   8   9
ATOM      9  C   UNL     1      52.106 -47.650 -10.098  1.00  0.00     0.000 C 
BRANCH   9  10
ATOM     10  C   UNL     1      51.197 -47.260 -11.276  1.00  0.00     0.006 C 
BRANCH  10  11
ATOM     11  C   UNL     1      49.979 -46.443 -10.821  1.00  0.00     0.053 C 
BRANCH  11  12
ATOM     12  C   UNL     1      48.693 -47.068 -11.265  1.00  0.00     0.041 C 
ATOM     13  O   UNL     1      47.603 -46.724 -10.734  1.00  0.00    -0.550 OA
ATOM     14  O   UNL     1      48.699 -48.054 -12.244  1.00  0.00    -0.550 OA
ENDBRANCH  11  12
ENDBRANCH  10  11
ENDBRANCH   9  10
ENDBRANCH   8   9
ENDBRANCH   1   8
TORSDOF 9
ENDMDL
MODEL 2
REMARK VINA RESULT:    -3.911      0.713      5.386
REMARK INTER + INTRA:          -6.638
REMARK INTER:                  -5.978
REMARK INTRA:                  -0.660
REMARK UNBOUND:                -0.669
REMARK SMILES O=C([O-])CCCCCCCCC(=O)[O-]
REMARK SMILES IDX 7 1 6 2 5 3 4 4 2 5 1 6 3 7 8 8 9 9 10 10 11 11 12 12 13 13
REMARK SMILES IDX 14 14
REMARK H PARENT
REMARK Flexibility Score: inf
ROOT
ATOM      1  C   UNL     1      51.372 -48.194  -8.846  1.00  0.00     0.000 C 
ENDROOT
BRANCH   1   2
ATOM      2  C   UNL     1      52.070 -47.676 -10.109  1.00  0.00     0.000 C 
BRANCH   2   3
ATOM      3  C   UNL     1      51.126 -46.791 -10.937  1.00  0.00     0.006 C 
BRANCH   3   4
ATOM      4  C   UNL     1      50.188 -45.957 -10.053  1.00  0.00     0.053 C 
BRANCH   4   5
ATOM      5  C   UNL     1      48.778 -45.984 -10.559  1.00  0.00     0.041 C 
ATOM      6  O   UNL     1      48.074 -44.941 -10.530  1.00  0.00    -0.550 OA
ATOM      7  O   UNL     1      48.253 -47.155 -11.093  1.00  0.00    -0.550 OA
ENDBRANCH   4   5
ENDBRANCH   3   4
ENDBRANCH   2   3
ENDBRANCH   1   2
BRANCH   1   8
ATOM      8  C   UNL     1      52.179 -49.330  -8.199  1.00  0.00     0.000 C 
BRANCH   8   9
ATOM      9  C   UNL     1      51.410 -50.660  -8.169  1.00  0.00     0.000 C 
BRANCH   9  10
ATOM     10  C   UNL     1      52.155 -51.792  -8.899  1.00  0.00     0.006 C 
BRANCH  10  11
ATOM     11  C   UNL     1      53.184 -51.253  -9.902  1.00  0.00     0.053 C 
BRANCH  11  12
ATOM     12  C   UNL     1      52.665 -51.289 -11.306  1.00  0.00     0.041 C 
ATOM     13  O   UNL     1      51.480 -50.940 -11.554  1.00  0.00    -0.550 OA
ATOM     14  O   UNL     1      53.480 -51.737 -12.338  1.00  0.00    -0.550 OA
ENDBRANCH  11  12
ENDBRANCH  10  11
ENDBRANCH   9  10
ENDBRANCH   8   9
ENDBRANCH   1   8
TORSDOF 9
ENDMDL
MODEL 3
REMARK VINA RESULT:    -3.738      1.522      2.687
REMARK INTER + INTRA:          -6.375
REMARK INTER:                  -5.549
REMARK INTRA:                  -0.826
REMARK UNBOUND:                -0.669
REMARK SMILES O=C([O-])CCCCCCCCC(=O)[O-]
REMARK SMILES IDX 7 1 6 2 5 3 4 4 2 5 1 6 3 7 8 8 9 9 10 10 11 11 12 12 13 13
REMARK SMILES IDX 14 14
REMARK H PARENT
REMARK Flexibility Score: inf
ROOT
ATOM      1  C   UNL     1      52.044 -51.649  -9.128  1.00  0.00     0.000 C 
ENDROOT
BRANCH   1   2
ATOM      2  C   UNL     1      53.106 -51.061 -10.064  1.00  0.00     0.000 C 
BRANCH   2   3
ATOM      3  C   UNL     1      52.747 -51.316 -11.535  1.00  0.00     0.006 C 
BRANCH   3   4
ATOM      4  C   UNL     1      52.129 -50.082 -12.205  1.00  0.00     0.053 C 
BRANCH   4   5
ATOM      5  C   UNL     1      50.788 -50.385 -12.801  1.00  0.00     0.041 C 
ATOM      6  O   UNL     1      50.486 -51.567 -13.113  1.00  0.00    -0.550 OA
ATOM      7  O   UNL     1      49.859 -49.366 -12.980  1.00  0.00    -0.550 OA
ENDBRANCH   4   5
ENDBRANCH   3   4
ENDBRANCH   2   3
ENDBRANCH   1   2
BRANCH   1   8
ATOM      8  C   UNL     1      51.556 -50.597  -8.120  1.00  0.00     0.000 C 
BRANCH   8   9
ATOM      9  C   UNL     1      52.194 -49.217  -8.349  1.00  0.00     0.000 C 
BRANCH   9  10
ATOM     10  C   UNL     1      51.169 -48.157  -8.791  1.00  0.00     0.006 C 
BRANCH  10  11
ATOM     11  C   UNL     1      51.638 -47.382 -10.030  1.00  0.00     0.053 C 
BRANCH  11  12
ATOM     12  C   UNL     1      50.519 -46.611 -10.659  1.00  0.00     0.041 C 
ATOM     13  O   UNL     1      50.749 -45.517 -11.240  1.00  0.00    -0.550 OA
ATOM     14  O   UNL     1      49.216 -47.086 -10.580  1.00  0.00    -0.550 OA
ENDBRANCH  11  12
ENDBRANCH  10  11
ENDBRANCH   9  10
ENDBRANCH   8   9
ENDBRANCH   1   8
TORSDOF 9
ENDMDL
MODEL 4
REMARK VINA RESULT:    -3.724      2.252      3.019
REMARK INTER + INTRA:          -6.353
REMARK INTER:                  -5.454
REMARK INTRA:                  -0.899
REMARK UNBOUND:                -0.669
REMARK SMILES O=C([O-])CCCCCCCCC(=O)[O-]
REMARK SMILES IDX 7 1 6 2 5 3 4 4 2 5 1 6 3 7 8 8 9 9 10 10 11 11 12 12 13 13
REMARK SMILES IDX 14 14
REMARK H PARENT
REMARK Flexibility Score: inf
ROOT
ATOM      1  C   UNL     1      51.023 -47.599  -9.296  1.00  0.00     0.000 C 
ENDROOT
BRANCH   1   2
ATOM      2  C   UNL     1      51.469 -48.809  -8.468  1.00  0.00     0.000 C 
BRANCH   2   3
ATOM      3  C   UNL     1      52.909 -49.215  -8.817  1.00  0.00     0.006 C 
BRANCH   3   4
ATOM      4  C   UNL     1      53.093 -50.739  -8.845  1.00  0.00     0.053 C 
BRANCH   4   5
ATOM      5  C   UNL     1      52.617 -51.333 -10.136  1.00  0.00     0.041 C 
ATOM      6  O   UNL     1      51.434 -51.752 -10.242  1.00  0.00    -0.550 OA
ATOM      7  O   UNL     1      53.470 -51.393 -11.231  1.00  0.00    -0.550 OA
ENDBRANCH   4   5
ENDBRANCH   3   4
ENDBRANCH   2   3
ENDBRANCH   1   2
BRANCH   1   8
ATOM      8  C   UNL     1      50.468 -48.041 -10.660  1.00  0.00     0.000 C 
BRANCH   8   9
ATOM      9  C   UNL     1      51.473 -47.832 -11.804  1.00  0.00     0.000 C 
BRANCH   9  10
ATOM     10  C   UNL     1      51.445 -48.976 -12.833  1.00  0.00     0.006 C 
BRANCH  10  11
ATOM     11  C   UNL     1      50.034 -49.551 -13.020  1.00  0.00     0.053 C 
BRANCH  11  12
ATOM     12  C   UNL     1      50.071 -50.978 -13.472  1.00  0.00     0.041 C 
ATOM     13  O   UNL     1      48.999 -51.613 -13.656  1.00  0.00    -0.550 OA
ATOM     14  O   UNL     1      51.290 -51.616 -13.663  1.00  0.00    -0.550 OA
ENDBRANCH  11  12
ENDBRANCH  10  11
ENDBRANCH   9  10
ENDBRANCH   8   9
ENDBRANCH   1   8
TORSDOF 9
ENDMDL
MODEL 5
REMARK VINA RESULT:    -3.691      1.626      2.114
REMARK INTER + INTRA:          -6.303
REMARK INTER:                  -5.678
REMARK INTRA:                  -0.624
REMARK UNBOUND:                -0.669
REMARK SMILES O=C([O-])CCCCCCCCC(=O)[O-]
REMARK SMILES IDX 7 1 6 2 5 3 4 4 2 5 1 6 3 7 8 8 9 9 10 10 11 11 12 12 13 13
REMARK SMILES IDX 14 14
REMARK H PARENT
REMARK Flexibility Score: inf
ROOT
ATOM      1  C   UNL     1      52.763 -49.148  -8.541  1.00  0.00     0.000 C 
ENDROOT
BRANCH   1   2
ATOM      2  C   UNL     1      51.692 -50.204  -8.245  1.00  0.00     0.000 C 
BRANCH   2   3
ATOM      3  C   UNL     1      51.965 -51.499  -9.024  1.00  0.00     0.006 C 
BRANCH   3   4
ATOM      4  C   UNL     1      53.156 -51.360  -9.982  1.00  0.00     0.053 C 
BRANCH   4   5
ATOM      5  C   UNL     1      52.717 -51.319 -11.414  1.00  0.00     0.041 C 
ATOM      6  O   UNL     1      53.499 -51.690 -12.328  1.00  0.00    -0.550 OA
ATOM      7  O   UNL     1      51.431 -50.901 -11.735  1.00  0.00    -0.550 OA
ENDBRANCH   4   5
ENDBRANCH   3   4
ENDBRANCH   2   3
ENDBRANCH   1   2
BRANCH   1   8
ATOM      8  C   UNL     1      52.232 -48.084  -9.514  1.00  0.00     0.000 C 
BRANCH   8   9
ATOM      9  C   UNL     1      50.734 -47.798  -9.319  1.00  0.00     0.000 C 
BRANCH   9  10
ATOM     10  C   UNL     1      50.085 -47.167 -10.563  1.00  0.00     0.006 C 
BRANCH  10  11
ATOM     11  C   UNL     1      50.893 -47.442 -11.839  1.00  0.00     0.053 C 
BRANCH  11  12
ATOM     12  C   UNL     1      51.282 -46.175 -12.535  1.00  0.00     0.041 C 
ATOM     13  O   UNL     1      50.464 -45.221 -12.623  1.00  0.00    -0.550 OA
ATOM     14  O   UNL     1      52.540 -46.057 -13.114  1.00  0.00    -0.550 OA
ENDBRANCH  11  12
ENDBRANCH  10  11
ENDBRANCH   9  10
ENDBRANCH   8   9
ENDBRANCH   1   8
TORSDOF 9
ENDMDL
MODEL 6
REMARK VINA RESULT:    -3.681      1.941      4.426
REMARK INTER + INTRA:          -6.287
REMARK INTER:                  -5.321
REMARK INTRA:                  -0.965
REMARK UNBOUND:                -0.669
REMARK SMILES O=C([O-])CCCCCCCCC(=O)[O-]
REMARK SMILES IDX 7 1 6 2 5 3 4 4 2 5 1 6 3 7 8 8 9 9 10 10 11 11 12 12 13 13
REMARK SMILES IDX 14 14
REMARK H PARENT
REMARK Flexibility Score: inf
ROOT
ATOM      1  C   UNL     1      51.302 -47.666  -9.314  1.00  0.00     0.000 C 
ENDROOT
BRANCH   1   2
ATOM      2  C   UNL     1      49.980 -47.540 -10.081  1.00  0.00     0.000 C 
BRANCH   2   3
ATOM      3  C   UNL     1      50.142 -47.997 -11.538  1.00  0.00     0.006 C 
BRANCH   3   4
ATOM      4  C   UNL     1      51.577 -47.806 -12.050  1.00  0.00     0.053 C 
BRANCH   4   5
ATOM      5  C   UNL     1      51.634 -47.781 -13.547  1.00  0.00     0.041 C 
ATOM      6  O   UNL     1      51.280 -46.749 -14.177  1.00  0.00    -0.550 OA
ATOM      7  O   UNL     1      52.108 -48.885 -14.244  1.00  0.00    -0.550 OA
ENDBRANCH   4   5
ENDBRANCH   3   4
ENDBRANCH   2   3
ENDBRANCH   1   2
BRANCH   1   8
ATOM      8  C   UNL     1      51.436 -49.057  -8.675  1.00  0.00     0.000 C 
BRANCH   8   9
ATOM      9  C   UNL     1      52.894 -49.536  -8.599  1.00  0.00     0.000 C 
BRANCH   9  10
ATOM     10  C   UNL     1      53.121 -50.864  -9.342  1.00  0.00     0.006 C 
BRANCH  10  11
ATOM     11  C   UNL     1      51.840 -51.376 -10.016  1.00  0.00     0.053 C 
BRANCH  11  12
ATOM     12  C   UNL     1      51.959 -51.375 -11.509  1.00  0.00     0.041 C 
ATOM     13  O   UNL     1      50.925 -51.424 -12.228  1.00  0.00    -0.550 OA
ATOM     14  O   UNL     1      53.212 -51.350 -12.107  1.00  0.00    -0.550 OA
ENDBRANCH  11  12
ENDBRANCH  10  11
ENDBRANCH   9  10
ENDBRANCH   8   9
ENDBRANCH   1   8
TORSDOF 9
ENDMDL
MODEL 7
REMARK VINA RESULT:    -3.626      1.880      2.711
REMARK INTER + INTRA:          -6.203
REMARK INTER:                  -5.429
REMARK INTRA:                  -0.774
REMARK UNBOUND:                -0.669
REMARK SMILES O=C([O-])CCCCCCCCC(=O)[O-]
REMARK SMILES IDX 7 1 6 2 5 3 4 4 2 5 1 6 3 7 8 8 9 9 10 10 11 11 12 12 13 13
REMARK SMILES IDX 14 14
REMARK H PARENT
REMARK Flexibility Score: inf
ROOT
ATOM      1  C   UNL     1      50.800 -48.084  -9.499  1.00  0.00     0.000 C 
ENDROOT
BRANCH   1   2
ATOM      2  C   UNL     1      52.298 -48.410  -9.529  1.00  0.00     0.000 C 
BRANCH   2   3
ATOM      3  C   UNL     1      52.667 -49.405  -8.418  1.00  0.00     0.006 C 
BRANCH   3   4
ATOM      4  C   UNL     1      53.459 -50.606  -8.954  1.00  0.00     0.053 C 
BRANCH   4   5
ATOM      5  C   UNL     1      52.765 -51.260 -10.109  1.00  0.00     0.041 C 
ATOM      6  O   UNL     1      53.331 -51.331 -11.231  1.00  0.00    -0.550 OA
ATOM      7  O   UNL     1      51.504 -51.819  -9.937  1.00  0.00    -0.550 OA
ENDBRANCH   4   5
ENDBRANCH   3   4
ENDBRANCH   2   3
ENDBRANCH   1   2
BRANCH   1   8
ATOM      8  C   UNL     1      50.560 -46.583  -9.719  1.00  0.00     0.000 C 
BRANCH   8   9
ATOM      9  C   UNL     1      49.712 -46.295 -10.968  1.00  0.00     0.000 C 
BRANCH   9  10
ATOM     10  C   UNL     1      48.999 -47.551 -11.501  1.00  0.00     0.006 C 
BRANCH  10  11
ATOM     11  C   UNL     1      49.435 -47.900 -12.931  1.00  0.00     0.053 C 
BRANCH  11  12
ATOM     12  C   UNL     1      50.654 -48.770 -12.944  1.00  0.00     0.041 C 
ATOM     13  O   UNL     1      51.790 -48.268 -13.153  1.00  0.00    -0.550 OA
ATOM     14  O   UNL     1      50.532 -50.141 -12.754  1.00  0.00    -0.550 OA
ENDBRANCH  11  12
ENDBRANCH  10  11
ENDBRANCH   9  10
ENDBRANCH   8   9
ENDBRANCH   1   8
TORSDOF 9
ENDMDL
MODEL 8
REMARK VINA RESULT:    -3.619      1.842      2.649
REMARK INTER + INTRA:          -6.192
REMARK INTER:                  -5.648
REMARK INTRA:                  -0.544
REMARK UNBOUND:                -0.669
REMARK SMILES O=C([O-])CCCCCCCCC(=O)[O-]
REMARK SMILES IDX 7 1 6 2 5 3 4 4 2 5 1 6 3 7 8 8 9 9 10 10 11 11 12 12 13 13
REMARK SMILES IDX 14 14
REMARK H PARENT
REMARK Flexibility Score: inf
ROOT
ATOM      1  C   UNL     1      50.865 -47.746  -9.208  1.00  0.00     0.000 C 
ENDROOT
BRANCH   1   2
ATOM      2  C   UNL     1      51.758 -48.636  -8.335  1.00  0.00     0.000 C 
BRANCH   2   3
ATOM      3  C   UNL     1      52.925 -49.213  -9.151  1.00  0.00     0.006 C 
BRANCH   3   4
ATOM      4  C   UNL     1      53.221 -50.675  -8.788  1.00  0.00     0.053 C 
BRANCH   4   5
ATOM      5  C   UNL     1      52.033 -51.558  -9.024  1.00  0.00     0.041 C 
ATOM      6  O   UNL     1      51.462 -52.124  -8.055  1.00  0.00    -0.550 OA
ATOM      7  O   UNL     1      51.536 -51.727 -10.311  1.00  0.00    -0.550 OA
ENDBRANCH   4   5
ENDBRANCH   3   4
ENDBRANCH   2   3
ENDBRANCH   1   2
BRANCH   1   8
ATOM      8  C   UNL     1      50.993 -48.127 -10.692  1.00  0.00     0.000 C 
BRANCH   8   9
ATOM      9  C   UNL     1      49.799 -47.646 -11.531  1.00  0.00     0.000 C 
BRANCH   9  10
ATOM     10  C   UNL     1      48.841 -46.742 -10.735  1.00  0.00     0.006 C 
BRANCH  10  11
ATOM     11  C   UNL     1      47.385 -46.894 -11.196  1.00  0.00     0.053 C 
BRANCH  11  12
ATOM     12  C   UNL     1      46.566 -45.686 -10.859  1.00  0.00     0.041 C 
ATOM     13  O   UNL     1      45.544 -45.795 -10.131  1.00  0.00    -0.550 OA
ATOM     14  O   UNL     1      46.914 -44.444 -11.374  1.00  0.00    -0.550 OA
ENDBRANCH  11  12
ENDBRANCH  10  11
ENDBRANCH   9  10
ENDBRANCH   8   9
ENDBRANCH   1   8
TORSDOF 9
ENDMDL
MODEL 9
REMARK VINA RESULT:    -3.612      1.855      2.366
REMARK INTER + INTRA:          -6.182
REMARK INTER:                  -5.529
REMARK INTRA:                  -0.653
REMARK UNBOUND:                -0.669
REMARK SMILES O=C([O-])CCCCCCCCC(=O)[O-]
REMARK SMILES IDX 7 1 6 2 5 3 4 4 2 5 1 6 3 7 8 8 9 9 10 10 11 11 12 12 13 13
REMARK SMILES IDX 14 14
REMARK H PARENT
REMARK Flexibility Score: inf
ROOT
ATOM      1  C   UNL     1      51.453 -48.902  -8.543  1.00  0.00     0.000 C 
ENDROOT
BRANCH   1   2
ATOM      2  C   UNL     1      52.901 -49.279  -8.880  1.00  0.00     0.000 C 
BRANCH   2   3
ATOM      3  C   UNL     1      53.032 -50.788  -9.134  1.00  0.00     0.006 C 
BRANCH   3   4
ATOM      4  C   UNL     1      51.960 -51.311 -10.100  1.00  0.00     0.053 C 
BRANCH   4   5
ATOM      5  C   UNL     1      52.325 -51.049 -11.529  1.00  0.00     0.041 C 
ATOM      6  O   UNL     1      51.615 -50.285 -12.235  1.00  0.00    -0.550 OA
ATOM      7  O   UNL     1      53.469 -51.623 -12.072  1.00  0.00    -0.550 OA
ENDBRANCH   4   5
ENDBRANCH   3   4
ENDBRANCH   2   3
ENDBRANCH   1   2
BRANCH   1   8
ATOM      8  C   UNL     1      51.057 -47.581  -9.221  1.00  0.00     0.000 C 
BRANCH   8   9
ATOM      9  C   UNL     1      50.030 -47.778 -10.347  1.00  0.00     0.000 C 
BRANCH   9  10
ATOM     10  C   UNL     1      49.593 -46.449 -10.989  1.00  0.00     0.006 C 
BRANCH  10  11
ATOM     11  C   UNL     1      50.624 -45.333 -10.766  1.00  0.00     0.053 C 
BRANCH  11  12
ATOM     12  C   UNL     1      49.993 -44.098 -10.200  1.00  0.00     0.041 C 
ATOM     13  O   UNL     1      50.048 -43.010 -10.832  1.00  0.00    -0.550 OA
ATOM     14  O   UNL     1      49.369 -44.142  -8.959  1.00  0.00    -0.550 OA
ENDBRANCH  11  12
ENDBRANCH  10  11
ENDBRANCH   9  10
ENDBRANCH   8   9
ENDBRANCH   1   8
TORSDOF 9
ENDMDL
