MODEL 1
REMARK VINA RESULT:    -3.557      0.000      0.000
REMARK INTER + INTRA:          -4.004
REMARK INTER:                  -3.973
REMARK INTRA:                  -0.031
REMARK UNBOUND:                -0.031
REMARK SMILES CCCC(=O)[O-]
REMARK SMILES IDX 3 1 4 2 5 3 6 4 2 5 1 6
REMARK H PARENT
REMARK Flexibility Score: inf
ROOT
ATOM      1  C   UNL     1       7.668 -13.714  -1.816  1.00  0.00     0.052 C 
ENDROOT
BRANCH   1   2
ATOM      2  C   UNL     1       7.929 -12.585  -0.866  1.00  0.00     0.041 C 
ATOM      3  O   UNL     1       8.927 -12.621  -0.097  1.00  0.00    -0.550 OA
ATOM      4  O   UNL     1       7.050 -11.510  -0.803  1.00  0.00    -0.550 OA
ENDBRANCH   1   2
BRANCH   1   5
ATOM      5  C   UNL     1       6.610 -13.345  -2.862  1.00  0.00     0.003 C 
ATOM      6  C   UNL     1       7.201 -13.209  -4.265  1.00  0.00     0.004 C 
ENDBRANCH   1   5
TORSDOF 2
ENDMDL
MODEL 2
REMARK VINA RESULT:    -3.540      0.076      1.324
REMARK INTER + INTRA:          -3.985
REMARK INTER:                  -3.951
REMARK INTRA:                  -0.034
REMARK UNBOUND:                -0.031
REMARK SMILES CCCC(=O)[O-]
REMARK SMILES IDX 3 1 4 2 5 3 6 4 2 5 1 6
REMARK H PARENT
REMARK Flexibility Score: inf
ROOT
ATOM      1  C   UNL     1       7.600 -13.696  -1.772  1.00  0.00     0.052 C 
ENDROOT
BRANCH   1   2
ATOM      2  C   UNL     1       7.886 -12.545  -0.857  1.00  0.00     0.041 C 
ATOM      3  O   UNL     1       7.121 -11.545  -0.838  1.00  0.00    -0.550 OA
ATOM      4  O   UNL     1       9.019 -12.561  -0.052  1.00  0.00    -0.550 OA
ENDBRANCH   1   2
BRANCH   1   5
ATOM      5  C   UNL     1       6.581 -13.323  -2.856  1.00  0.00     0.003 C 
ATOM      6  C   UNL     1       7.221 -13.210  -4.240  1.00  0.00     0.004 C 
ENDBRANCH   1   5
TORSDOF 2
ENDMDL
MODEL 3
REMARK VINA RESULT:    -3.246      2.038      3.225
REMARK INTER + INTRA:          -3.656
REMARK INTER:                  -3.651
REMARK INTRA:                  -0.005
REMARK UNBOUND:                -0.031
REMARK SMILES CCCC(=O)[O-]
REMARK SMILES IDX 3 1 4 2 5 3 6 4 2 5 1 6
REMARK H PARENT
REMARK Flexibility Score: inf
ROOT
ATOM      1  C   UNL     1       8.080 -12.894  -0.861  1.00  0.00     0.052 C 
ENDROOT
BRANCH   1   2
ATOM      2  C   UNL     1       7.087 -13.309  -1.903  1.00  0.00     0.041 C 
ATOM      3  O   UNL     1       7.475 -13.619  -3.060  1.00  0.00    -0.550 OA
ATOM      4  O   UNL     1       5.729 -13.319  -1.606  1.00  0.00    -0.550 OA
ENDBRANCH   1   2
BRANCH   1   5
ATOM      5  C   UNL     1       8.048 -11.381  -0.614  1.00  0.00     0.003 C 
ATOM      6  C   UNL     1       9.209 -10.911   0.262  1.00  0.00     0.004 C 
ENDBRANCH   1   5
TORSDOF 2
ENDMDL
MODEL 4
REMARK VINA RESULT:    -3.201      1.464      1.706
REMARK INTER + INTRA:          -3.606
REMARK INTER:                  -3.577
REMARK INTRA:                  -0.029
REMARK UNBOUND:                -0.031
REMARK SMILES CCCC(=O)[O-]
REMARK SMILES IDX 3 1 4 2 5 3 6 4 2 5 1 6
REMARK H PARENT
REMARK Flexibility Score: inf
ROOT
ATOM      1  C   UNL     1       7.185 -12.260  -3.052  1.00  0.00     0.052 C 
ENDROOT
BRANCH   1   2
ATOM      2  C   UNL     1       6.975 -12.884  -1.706  1.00  0.00     0.041 C 
ATOM      3  O   UNL     1       7.965 -13.184  -0.986  1.00  0.00    -0.550 OA
ATOM      4  O   UNL     1       5.690 -13.168  -1.263  1.00  0.00    -0.550 OA
ENDBRANCH   1   2
BRANCH   1   5
ATOM      5  C   UNL     1       6.900 -13.249  -4.189  1.00  0.00     0.003 C 
ATOM      6  C   UNL     1       5.489 -13.093  -4.756  1.00  0.00     0.004 C 
ENDBRANCH   1   5
TORSDOF 2
ENDMDL
MODEL 5
REMARK VINA RESULT:    -2.999      1.795      2.161
REMARK INTER + INTRA:          -3.381
REMARK INTER:                  -3.375
REMARK INTRA:                  -0.006
REMARK UNBOUND:                -0.031
REMARK SMILES CCCC(=O)[O-]
REMARK SMILES IDX 3 1 4 2 5 3 6 4 2 5 1 6
REMARK H PARENT
REMARK Flexibility Score: inf
ROOT
ATOM      1  C   UNL     1       6.819 -13.196  -3.956  1.00  0.00     0.052 C 
ENDROOT
BRANCH   1   2
ATOM      2  C   UNL     1       7.245 -12.770  -2.584  1.00  0.00     0.041 C 
ATOM      3  O   UNL     1       7.332 -13.617  -1.656  1.00  0.00    -0.550 OA
ATOM      4  O   UNL     1       7.512 -11.432  -2.323  1.00  0.00    -0.550 OA
ENDBRANCH   1   2
BRANCH   1   5
ATOM      5  C   UNL     1       5.294 -13.290  -4.075  1.00  0.00     0.003 C 
ATOM      6  C   UNL     1       4.807 -13.056  -5.505  1.00  0.00     0.004 C 
ENDBRANCH   1   5
TORSDOF 2
ENDMDL
MODEL 6
REMARK VINA RESULT:    -2.906      2.782      3.790
REMARK INTER + INTRA:          -3.277
REMARK INTER:                  -3.245
REMARK INTRA:                  -0.032
REMARK UNBOUND:                -0.031
REMARK SMILES CCCC(=O)[O-]
REMARK SMILES IDX 3 1 4 2 5 3 6 4 2 5 1 6
REMARK H PARENT
REMARK Flexibility Score: inf
ROOT
ATOM      1  C   UNL     1       6.935 -12.852  -3.681  1.00  0.00     0.052 C 
ENDROOT
BRANCH   1   2
ATOM      2  C   UNL     1       5.529 -13.240  -4.025  1.00  0.00     0.041 C 
ATOM      3  O   UNL     1       4.763 -13.698  -3.136  1.00  0.00    -0.550 OA
ATOM      4  O   UNL     1       5.077 -13.130  -5.334  1.00  0.00    -0.550 OA
ENDBRANCH   1   2
BRANCH   1   5
ATOM      5  C   UNL     1       7.492 -13.692  -2.526  1.00  0.00     0.003 C 
ATOM      6  C   UNL     1       7.601 -12.893  -1.227  1.00  0.00     0.004 C 
ENDBRANCH   1   5
TORSDOF 2
ENDMDL
MODEL 7
REMARK VINA RESULT:    -2.896      2.148      3.301
REMARK INTER + INTRA:          -3.266
REMARK INTER:                  -3.255
REMARK INTRA:                  -0.011
REMARK UNBOUND:                -0.031
REMARK SMILES CCCC(=O)[O-]
REMARK SMILES IDX 3 1 4 2 5 3 6 4 2 5 1 6
REMARK H PARENT
REMARK Flexibility Score: inf
ROOT
ATOM      1  C   UNL     1       7.304 -11.337  -1.052  1.00  0.00     0.052 C 
ENDROOT
BRANCH   1   2
ATOM      2  C   UNL     1       8.016 -12.644  -0.883  1.00  0.00     0.041 C 
ATOM      3  O   UNL     1       8.991 -12.738  -0.091  1.00  0.00    -0.550 OA
ATOM      4  O   UNL     1       7.626 -13.750  -1.629  1.00  0.00    -0.550 OA
ENDBRANCH   1   2
BRANCH   1   5
ATOM      5  C   UNL     1       7.984 -10.212  -0.262  1.00  0.00     0.003 C 
ATOM      6  C   UNL     1       7.153  -8.929  -0.245  1.00  0.00     0.004 C 
ENDBRANCH   1   5
TORSDOF 2
ENDMDL
MODEL 8
REMARK VINA RESULT:    -2.888      2.099      2.522
REMARK INTER + INTRA:          -3.256
REMARK INTER:                  -3.216
REMARK INTRA:                  -0.040
REMARK UNBOUND:                -0.031
REMARK SMILES CCCC(=O)[O-]
REMARK SMILES IDX 3 1 4 2 5 3 6 4 2 5 1 6
REMARK H PARENT
REMARK Flexibility Score: inf
ROOT
ATOM      1  C   UNL     1       6.881 -12.375  -1.741  1.00  0.00     0.052 C 
ENDROOT
BRANCH   1   2
ATOM      2  C   UNL     1       5.446 -12.500  -1.329  1.00  0.00     0.041 C 
ATOM      3  O   UNL     1       4.855 -11.527  -0.791  1.00  0.00    -0.550 OA
ATOM      4  O   UNL     1       4.773 -13.702  -1.507  1.00  0.00    -0.550 OA
ENDBRANCH   1   2
BRANCH   1   5
ATOM      5  C   UNL     1       7.317 -13.534  -2.645  1.00  0.00     0.003 C 
ATOM      6  C   UNL     1       7.161 -13.204  -4.130  1.00  0.00     0.004 C 
ENDBRANCH   1   5
TORSDOF 2
ENDMDL
MODEL 9
REMARK VINA RESULT:    -2.809      2.498      3.704
REMARK INTER + INTRA:          -3.168
REMARK INTER:                  -3.096
REMARK INTRA:                  -0.072
REMARK UNBOUND:                -0.031
REMARK SMILES CCCC(=O)[O-]
REMARK SMILES IDX 3 1 4 2 5 3 6 4 2 5 1 6
REMARK H PARENT
REMARK Flexibility Score: inf
ROOT
ATOM      1  C   UNL     1       7.400 -10.017  -1.373  1.00  0.00     0.052 C 
ENDROOT
BRANCH   1   2
ATOM      2  C   UNL     1       6.794 -11.329  -1.765  1.00  0.00     0.041 C 
ATOM      3  O   UNL     1       5.829 -11.803  -1.109  1.00  0.00    -0.550 OA
ATOM      4  O   UNL     1       7.319 -12.047  -2.833  1.00  0.00    -0.550 OA
ENDBRANCH   1   2
BRANCH   1   5
ATOM      5  C   UNL     1       8.003 -10.066   0.036  1.00  0.00     0.003 C 
ATOM      6  C   UNL     1       9.165 -11.054   0.136  1.00  0.00     0.004 C 
ENDBRANCH   1   5
TORSDOF 2
ENDMDL
