MODEL 1
REMARK VINA RESULT:    -4.735      0.000      0.000
REMARK INTER + INTRA:          -5.374
REMARK INTER:                  -5.150
REMARK INTRA:                  -0.223
REMARK UNBOUND:                -0.223
REMARK SMILES O=C([O-])c1ccccc1O
REMARK SMILES IDX 4 1 9 2 5 3 8 4 6 5 7 6 2 7 1 8 3 9 10 10
REMARK H PARENT 10 11
REMARK Flexibility Score: inf
ROOT
ATOM      1  C   UNL     1      13.283 -16.310   7.461  1.00  0.00     0.039 A 
ATOM      2  C   UNL     1      12.667 -17.016   8.526  1.00  0.00     0.124 A 
ATOM      3  C   UNL     1      13.861 -17.040   6.406  1.00  0.00     0.014 A 
ATOM      4  C   UNL     1      12.698 -18.418   8.539  1.00  0.00     0.047 A 
ATOM      5  C   UNL     1      13.866 -18.437   6.424  1.00  0.00     0.001 A 
ATOM      6  C   UNL     1      13.294 -19.124   7.494  1.00  0.00     0.004 A 
ENDROOT
BRANCH   1   7
ATOM      7  C   UNL     1      13.377 -14.834   7.426  1.00  0.00     0.075 C 
ATOM      8  O   UNL     1      12.340 -14.119   7.435  1.00  0.00    -0.545 OA
ATOM      9  O   UNL     1      14.622 -14.216   7.454  1.00  0.00    -0.545 OA
ENDBRANCH   1   7
BRANCH   2  10
ATOM     10  O   UNL     1      11.987 -16.375   9.564  1.00  0.00    -0.507 OA
ATOM     11  H   UNL     1      12.073 -15.388   9.761  1.00  0.00     0.293 HD
ENDBRANCH   2  10
TORSDOF 2
ENDMDL
MODEL 2
REMARK VINA RESULT:    -4.537      2.165      3.583
REMARK INTER + INTRA:          -5.158
REMARK INTER:                  -4.918
REMARK INTRA:                  -0.240
REMARK UNBOUND:                -0.223
REMARK SMILES O=C([O-])c1ccccc1O
REMARK SMILES IDX 4 1 9 2 5 3 8 4 6 5 7 6 2 7 1 8 3 9 10 10
REMARK H PARENT 10 11
REMARK Flexibility Score: inf
ROOT
ATOM      1  C   UNL     1      12.293 -17.074   7.401  1.00  0.00     0.039 A 
ATOM      2  C   UNL     1      11.804 -15.742   7.392  1.00  0.00     0.124 A 
ATOM      3  C   UNL     1      13.663 -17.294   7.638  1.00  0.00     0.014 A 
ATOM      4  C   UNL     1      12.698 -14.675   7.557  1.00  0.00     0.047 A 
ATOM      5  C   UNL     1      14.536 -16.220   7.821  1.00  0.00     0.001 A 
ATOM      6  C   UNL     1      14.055 -14.912   7.770  1.00  0.00     0.004 A 
ENDROOT
BRANCH   1   7
ATOM      7  C   UNL     1      11.430 -18.247   7.137  1.00  0.00     0.075 C 
ATOM      8  O   UNL     1      10.371 -18.431   7.793  1.00  0.00    -0.545 OA
ATOM      9  O   UNL     1      11.746 -19.125   6.107  1.00  0.00    -0.545 OA
ENDBRANCH   1   7
BRANCH   2  10
ATOM     10  O   UNL     1      10.448 -15.436   7.260  1.00  0.00    -0.507 OA
ATOM     11  H   UNL     1       9.873 -15.767   6.498  1.00  0.00     0.293 HD
ENDBRANCH   2  10
TORSDOF 2
ENDMDL
MODEL 3
REMARK VINA RESULT:    -4.439      2.573      3.675
REMARK INTER + INTRA:          -5.051
REMARK INTER:                  -4.806
REMARK INTRA:                  -0.245
REMARK UNBOUND:                -0.223
REMARK SMILES O=C([O-])c1ccccc1O
REMARK SMILES IDX 4 1 9 2 5 3 8 4 6 5 7 6 2 7 1 8 3 9 10 10
REMARK H PARENT 10 11
REMARK Flexibility Score: inf
ROOT
ATOM      1  C   UNL     1      11.566 -16.959   7.663  1.00  0.00     0.039 A 
ATOM      2  C   UNL     1      12.487 -17.580   6.780  1.00  0.00     0.124 A 
ATOM      3  C   UNL     1      12.057 -16.097   8.662  1.00  0.00     0.014 A 
ATOM      4  C   UNL     1      13.862 -17.374   6.957  1.00  0.00     0.047 A 
ATOM      5  C   UNL     1      13.429 -15.887   8.810  1.00  0.00     0.001 A 
ATOM      6  C   UNL     1      14.331 -16.532   7.965  1.00  0.00     0.004 A 
ENDROOT
BRANCH   1   7
ATOM      7  C   UNL     1      10.108 -17.204   7.603  1.00  0.00     0.075 C 
ATOM      8  O   UNL     1       9.653 -18.302   7.188  1.00  0.00    -0.545 OA
ATOM      9  O   UNL     1       9.221 -16.243   8.074  1.00  0.00    -0.545 OA
ENDBRANCH   1   7
BRANCH   2  10
ATOM     10  O   UNL     1      12.084 -18.373   5.703  1.00  0.00    -0.507 OA
ATOM     11  H   UNL     1      12.309 -19.354   5.619  1.00  0.00     0.293 HD
ENDBRANCH   2  10
TORSDOF 2
ENDMDL
MODEL 4
REMARK VINA RESULT:    -4.280      1.748      2.764
REMARK INTER + INTRA:          -4.878
REMARK INTER:                  -4.661
REMARK INTRA:                  -0.217
REMARK UNBOUND:                -0.223
REMARK SMILES O=C([O-])c1ccccc1O
REMARK SMILES IDX 4 1 9 2 5 3 8 4 6 5 7 6 2 7 1 8 3 9 10 10
REMARK H PARENT 10 11
REMARK Flexibility Score: inf
ROOT
ATOM      1  C   UNL     1      12.655 -16.359   7.856  1.00  0.00     0.039 A 
ATOM      2  C   UNL     1      11.559 -15.490   7.613  1.00  0.00     0.124 A 
ATOM      3  C   UNL     1      12.397 -17.694   8.217  1.00  0.00     0.014 A 
ATOM      4  C   UNL     1      10.251 -15.958   7.796  1.00  0.00     0.047 A 
ATOM      5  C   UNL     1      11.087 -18.150   8.375  1.00  0.00     0.001 A 
ATOM      6  C   UNL     1      10.016 -17.280   8.174  1.00  0.00     0.004 A 
ENDROOT
BRANCH   1   7
ATOM      7  C   UNL     1      14.064 -15.912   7.780  1.00  0.00     0.075 C 
ATOM      8  O   UNL     1      14.993 -16.619   8.251  1.00  0.00    -0.545 OA
ATOM      9  O   UNL     1      14.384 -14.731   7.120  1.00  0.00    -0.545 OA
ENDBRANCH   1   7
BRANCH   2  10
ATOM     10  O   UNL     1      11.720 -14.179   7.159  1.00  0.00    -0.507 OA
ATOM     11  H   UNL     1      11.635 -13.910   6.189  1.00  0.00     0.293 HD
ENDBRANCH   2  10
TORSDOF 2
ENDMDL
MODEL 5
REMARK VINA RESULT:    -4.266      2.024      3.314
REMARK INTER + INTRA:          -4.863
REMARK INTER:                  -4.616
REMARK INTRA:                  -0.247
REMARK UNBOUND:                -0.223
REMARK SMILES O=C([O-])c1ccccc1O
REMARK SMILES IDX 4 1 9 2 5 3 8 4 6 5 7 6 2 7 1 8 3 9 10 10
REMARK H PARENT 10 11
REMARK Flexibility Score: inf
ROOT
ATOM      1  C   UNL     1      11.368 -17.114   7.643  1.00  0.00     0.039 A 
ATOM      2  C   UNL     1      12.187 -15.975   7.436  1.00  0.00     0.124 A 
ATOM      3  C   UNL     1      11.973 -18.383   7.717  1.00  0.00     0.014 A 
ATOM      4  C   UNL     1      13.567 -16.138   7.247  1.00  0.00     0.047 A 
ATOM      5  C   UNL     1      13.352 -18.526   7.547  1.00  0.00     0.001 A 
ATOM      6  C   UNL     1      14.146 -17.406   7.303  1.00  0.00     0.004 A 
ENDROOT
BRANCH   1   7
ATOM      7  C   UNL     1       9.894 -17.033   7.753  1.00  0.00     0.075 C 
ATOM      8  O   UNL     1       9.342 -16.073   8.353  1.00  0.00    -0.545 OA
ATOM      9  O   UNL     1       9.097 -17.986   7.130  1.00  0.00    -0.545 OA
ENDBRANCH   1   7
BRANCH   2  10
ATOM     10  O   UNL     1      11.686 -14.672   7.444  1.00  0.00    -0.507 OA
ATOM     11  H   UNL     1      10.708 -14.449   7.319  1.00  0.00     0.293 HD
ENDBRANCH   2  10
TORSDOF 2
ENDMDL
MODEL 6
REMARK VINA RESULT:    -4.131      2.377      3.113
REMARK INTER + INTRA:          -4.716
REMARK INTER:                  -4.474
REMARK INTRA:                  -0.242
REMARK UNBOUND:                -0.223
REMARK SMILES O=C([O-])c1ccccc1O
REMARK SMILES IDX 4 1 9 2 5 3 8 4 6 5 7 6 2 7 1 8 3 9 10 10
REMARK H PARENT 10 11
REMARK Flexibility Score: inf
ROOT
ATOM      1  C   UNL     1      11.459 -16.527   8.302  1.00  0.00     0.039 A 
ATOM      2  C   UNL     1      11.354 -17.932   8.470  1.00  0.00     0.124 A 
ATOM      3  C   UNL     1      10.337 -15.810   7.847  1.00  0.00     0.014 A 
ATOM      4  C   UNL     1      10.163 -18.584   8.121  1.00  0.00     0.047 A 
ATOM      5  C   UNL     1       9.151 -16.474   7.523  1.00  0.00     0.001 A 
ATOM      6  C   UNL     1       9.067 -17.859   7.651  1.00  0.00     0.004 A 
ENDROOT
BRANCH   1   7
ATOM      7  C   UNL     1      12.712 -15.781   8.555  1.00  0.00     0.075 C 
ATOM      8  O   UNL     1      13.509 -16.143   9.460  1.00  0.00    -0.545 OA
ATOM      9  O   UNL     1      13.058 -14.708   7.742  1.00  0.00    -0.545 OA
ENDBRANCH   1   7
BRANCH   2  10
ATOM     10  O   UNL     1      12.383 -18.708   9.006  1.00  0.00    -0.507 OA
ATOM     11  H   UNL     1      12.987 -19.296   8.449  1.00  0.00     0.293 HD
ENDBRANCH   2  10
TORSDOF 2
ENDMDL
MODEL 7
REMARK VINA RESULT:    -4.020      3.558      4.367
REMARK INTER + INTRA:          -4.596
REMARK INTER:                  -4.394
REMARK INTRA:                  -0.201
REMARK UNBOUND:                -0.223
REMARK SMILES O=C([O-])c1ccccc1O
REMARK SMILES IDX 4 1 9 2 5 3 8 4 6 5 7 6 2 7 1 8 3 9 10 10
REMARK H PARENT 10 11
REMARK Flexibility Score: inf
ROOT
ATOM      1  C   UNL     1      10.107 -16.808   7.831  1.00  0.00     0.039 A 
ATOM      2  C   UNL     1       9.874 -17.929   6.993  1.00  0.00     0.124 A 
ATOM      3  C   UNL     1       9.010 -16.188   8.458  1.00  0.00     0.014 A 
ATOM      4  C   UNL     1       8.560 -18.357   6.757  1.00  0.00     0.047 A 
ATOM      5  C   UNL     1       7.709 -16.640   8.228  1.00  0.00     0.001 A 
ATOM      6  C   UNL     1       7.484 -17.717   7.372  1.00  0.00     0.004 A 
ENDROOT
BRANCH   1   7
ATOM      7  C   UNL     1      11.455 -16.237   8.050  1.00  0.00     0.075 C 
ATOM      8  O   UNL     1      12.350 -16.900   8.636  1.00  0.00    -0.545 OA
ATOM      9  O   UNL     1      11.768 -14.981   7.544  1.00  0.00    -0.545 OA
ENDBRANCH   1   7
BRANCH   2  10
ATOM     10  O   UNL     1      10.908 -18.663   6.408  1.00  0.00    -0.507 OA
ATOM     11  H   UNL     1      11.624 -18.252   5.826  1.00  0.00     0.293 HD
ENDBRANCH   2  10
TORSDOF 2
ENDMDL
MODEL 8
REMARK VINA RESULT:    -3.993      5.424      6.367
REMARK INTER + INTRA:          -4.566
REMARK INTER:                  -4.350
REMARK INTRA:                  -0.217
REMARK UNBOUND:                -0.223
REMARK SMILES O=C([O-])c1ccccc1O
REMARK SMILES IDX 4 1 9 2 5 3 8 4 6 5 7 6 2 7 1 8 3 9 10 10
REMARK H PARENT 10 11
REMARK Flexibility Score: inf
ROOT
ATOM      1  C   UNL     1       7.931 -18.097   6.996  1.00  0.00     0.039 A 
ATOM      2  C   UNL     1       8.287 -16.831   7.527  1.00  0.00     0.124 A 
ATOM      3  C   UNL     1       6.770 -18.733   7.474  1.00  0.00     0.014 A 
ATOM      4  C   UNL     1       7.518 -16.269   8.555  1.00  0.00     0.047 A 
ATOM      5  C   UNL     1       6.003 -18.149   8.485  1.00  0.00     0.001 A 
ATOM      6  C   UNL     1       6.382 -16.924   9.031  1.00  0.00     0.004 A 
ENDROOT
BRANCH   1   7
ATOM      7  C   UNL     1       8.747 -18.799   5.980  1.00  0.00     0.075 C 
ATOM      8  O   UNL     1       8.255 -19.125   4.868  1.00  0.00    -0.545 OA
ATOM      9  O   UNL     1      10.094 -19.044   6.219  1.00  0.00    -0.545 OA
ENDBRANCH   1   7
BRANCH   2  10
ATOM     10  O   UNL     1       9.366 -16.086   7.045  1.00  0.00    -0.507 OA
ATOM     11  H   UNL     1       9.284 -15.394   6.314  1.00  0.00     0.293 HD
ENDBRANCH   2  10
TORSDOF 2
ENDMDL
MODEL 9
REMARK VINA RESULT:    -2.397      2.433      3.483
REMARK INTER + INTRA:          -2.831
REMARK INTER:                  -2.580
REMARK INTRA:                  -0.251
REMARK UNBOUND:                -0.223
REMARK SMILES O=C([O-])c1ccccc1O
REMARK SMILES IDX 4 1 9 2 5 3 8 4 6 5 7 6 2 7 1 8 3 9 10 10
REMARK H PARENT 10 11
REMARK Flexibility Score: inf
ROOT
ATOM      1  C   UNL     1      12.970 -17.465   6.993  1.00  0.00     0.039 A 
ATOM      2  C   UNL     1      12.589 -17.298   8.349  1.00  0.00     0.124 A 
ATOM      3  C   UNL     1      13.816 -16.509   6.401  1.00  0.00     0.014 A 
ATOM      4  C   UNL     1      13.009 -16.160   9.052  1.00  0.00     0.047 A 
ATOM      5  C   UNL     1      14.242 -15.391   7.122  1.00  0.00     0.001 A 
ATOM      6  C   UNL     1      13.831 -15.212   8.442  1.00  0.00     0.004 A 
ENDROOT
BRANCH   1   7
ATOM      7  C   UNL     1      12.487 -18.587   6.157  1.00  0.00     0.075 C 
ATOM      8  O   UNL     1      13.237 -19.125   5.300  1.00  0.00    -0.545 OA
ATOM      9  O   UNL     1      11.215 -19.108   6.361  1.00  0.00    -0.545 OA
ENDBRANCH   1   7
BRANCH   2  10
ATOM     10  O   UNL     1      11.831 -18.244   9.043  1.00  0.00    -0.507 OA
ATOM     11  H   UNL     1      11.576 -18.149  10.016  1.00  0.00     0.293 HD
ENDBRANCH   2  10
TORSDOF 2
ENDMDL
