MODEL 1
REMARK VINA RESULT:    -5.276      0.000      0.000
REMARK INTER + INTRA:         -12.144
REMARK INTER:                  -9.595
REMARK INTRA:                  -2.550
REMARK UNBOUND:                -2.550
REMARK SMILES CCCCCCCCCCCCCC[C@H](C)C(=O)[O-]
REMARK SMILES IDX 9 1 10 2 11 3 12 4 13 5 14 6 15 7 16 8 17 9 18 10 19 11 8 12
REMARK SMILES IDX 7 13 6 14 5 15 4 16 3 17 2 18 1 19
REMARK H PARENT
REMARK Flexibility Score: inf
ROOT
ATOM      1  C   UNL     1     -17.336   1.396 -22.899  1.00  0.00     0.000 C 
ENDROOT
BRANCH   1   2
ATOM      2  C   UNL     1     -16.747   2.011 -24.178  1.00  0.00     0.000 C 
BRANCH   2   3
ATOM      3  C   UNL     1     -16.023   3.342 -23.919  1.00  0.00     0.000 C 
BRANCH   3   4
ATOM      4  C   UNL     1     -14.542   3.147 -23.549  1.00  0.00     0.000 C 
BRANCH   4   5
ATOM      5  C   UNL     1     -13.914   4.413 -22.943  1.00  0.00     0.001 C 
BRANCH   5   6
ATOM      6  C   UNL     1     -14.937   5.553 -22.762  1.00  0.00     0.009 C 
BRANCH   6   7
ATOM      7  C   UNL     1     -14.521   6.623 -21.730  1.00  0.00     0.032 C 
ATOM      8  C   UNL     1     -13.352   6.172 -20.843  1.00  0.00     0.014 C 
BRANCH   7   9
ATOM      9  C   UNL     1     -15.695   7.087 -20.906  1.00  0.00     0.044 C 
ATOM     10  O   UNL     1     -16.867   6.882 -21.316  1.00  0.00    -0.550 OA
ATOM     11  O   UNL     1     -15.501   7.694 -19.671  1.00  0.00    -0.550 OA
ENDBRANCH   7   9
ENDBRANCH   6   7
ENDBRANCH   5   6
ENDBRANCH   4   5
ENDBRANCH   3   4
ENDBRANCH   2   3
ENDBRANCH   1   2
BRANCH   1  12
ATOM     12  C   UNL     1     -17.090  -0.120 -22.858  1.00  0.00     0.000 C 
BRANCH  12  13
ATOM     13  C   UNL     1     -15.648  -0.502 -23.239  1.00  0.00    -0.000 C 
BRANCH  13  14
ATOM     14  C   UNL     1     -14.844  -1.202 -22.125  1.00  0.00    -0.000 C 
BRANCH  14  15
ATOM     15  C   UNL     1     -15.011  -0.593 -20.719  1.00  0.00    -0.000 C 
BRANCH  15  16
ATOM     16  C   UNL     1     -14.464   0.840 -20.562  1.00  0.00    -0.000 C 
BRANCH  16  17
ATOM     17  C   UNL     1     -15.177   1.696 -19.496  1.00  0.00    -0.000 C 
BRANCH  17  18
ATOM     18  C   UNL     1     -15.328   3.184 -19.857  1.00  0.00    -0.003 C 
ATOM     19  C   UNL     1     -16.774   3.581 -20.156  1.00  0.00     0.004 C 
ENDBRANCH  17  18
ENDBRANCH  16  17
ENDBRANCH  15  16
ENDBRANCH  14  15
ENDBRANCH  13  14
ENDBRANCH  12  13
ENDBRANCH   1  12
TORSDOF 14
ENDMDL
MODEL 2
REMARK VINA RESULT:    -5.138      3.389      6.316
REMARK INTER + INTRA:         -11.892
REMARK INTER:                  -9.566
REMARK INTRA:                  -2.326
REMARK UNBOUND:                -2.550
REMARK SMILES CCCCCCCCCCCCCC[C@H](C)C(=O)[O-]
REMARK SMILES IDX 9 1 10 2 11 3 12 4 13 5 14 6 15 7 16 8 17 9 18 10 19 11 8 12
REMARK SMILES IDX 7 13 6 14 5 15 4 16 3 17 2 18 1 19
REMARK H PARENT
REMARK Flexibility Score: inf
ROOT
ATOM      1  C   UNL     1     -16.993   4.111 -22.974  1.00  0.00     0.000 C 
ENDROOT
BRANCH   1   2
ATOM      2  C   UNL     1     -16.991   2.972 -21.942  1.00  0.00     0.000 C 
BRANCH   2   3
ATOM      3  C   UNL     1     -17.041   3.483 -20.493  1.00  0.00     0.000 C 
BRANCH   3   4
ATOM      4  C   UNL     1     -15.802   3.071 -19.678  1.00  0.00     0.000 C 
BRANCH   4   5
ATOM      5  C   UNL     1     -14.878   2.115 -20.451  1.00  0.00     0.001 C 
BRANCH   5   6
ATOM      6  C   UNL     1     -14.870   0.691 -19.858  1.00  0.00     0.009 C 
BRANCH   6   7
ATOM      7  C   UNL     1     -14.646  -0.429 -20.897  1.00  0.00     0.032 C 
ATOM      8  C   UNL     1     -15.875  -0.672 -21.784  1.00  0.00     0.014 C 
BRANCH   7   9
ATOM      9  C   UNL     1     -14.172  -1.703 -20.247  1.00  0.00     0.044 C 
ATOM     10  O   UNL     1     -13.893  -1.713 -19.019  1.00  0.00    -0.550 OA
ATOM     11  O   UNL     1     -14.086  -2.884 -20.975  1.00  0.00    -0.550 OA
ENDBRANCH   7   9
ENDBRANCH   6   7
ENDBRANCH   5   6
ENDBRANCH   4   5
ENDBRANCH   3   4
ENDBRANCH   2   3
ENDBRANCH   1   2
BRANCH   1  12
ATOM     12  C   UNL     1     -15.565   4.419 -23.452  1.00  0.00     0.000 C 
BRANCH  12  13
ATOM     13  C   UNL     1     -14.990   5.703 -22.829  1.00  0.00    -0.000 C 
BRANCH  13  14
ATOM     14  C   UNL     1     -13.830   5.483 -21.838  1.00  0.00    -0.000 C 
BRANCH  14  15
ATOM     15  C   UNL     1     -13.909   6.317 -20.544  1.00  0.00    -0.000 C 
BRANCH  15  16
ATOM     16  C   UNL     1     -15.336   6.693 -20.100  1.00  0.00    -0.000 C 
BRANCH  16  17
ATOM     17  C   UNL     1     -15.693   8.186 -20.247  1.00  0.00    -0.000 C 
BRANCH  17  18
ATOM     18  C   UNL     1     -17.074   8.463 -20.866  1.00  0.00    -0.003 C 
ATOM     19  C   UNL     1     -17.877   7.189 -21.128  1.00  0.00     0.004 C 
ENDBRANCH  17  18
ENDBRANCH  16  17
ENDBRANCH  15  16
ENDBRANCH  14  15
ENDBRANCH  13  14
ENDBRANCH  12  13
ENDBRANCH   1  12
TORSDOF 14
ENDMDL
MODEL 3
REMARK VINA RESULT:    -5.138      2.718      5.620
REMARK INTER + INTRA:         -11.892
REMARK INTER:                  -9.289
REMARK INTRA:                  -2.603
REMARK UNBOUND:                -2.550
REMARK SMILES CCCCCCCCCCCCCC[C@H](C)C(=O)[O-]
REMARK SMILES IDX 9 1 10 2 11 3 12 4 13 5 14 6 15 7 16 8 17 9 18 10 19 11 8 12
REMARK SMILES IDX 7 13 6 14 5 15 4 16 3 17 2 18 1 19
REMARK H PARENT
REMARK Flexibility Score: inf
ROOT
ATOM      1  C   UNL     1     -15.644   6.276 -23.969  1.00  0.00     0.000 C 
ENDROOT
BRANCH   1   2
ATOM      2  C   UNL     1     -17.113   6.192 -23.526  1.00  0.00     0.000 C 
BRANCH   2   3
ATOM      3  C   UNL     1     -17.470   4.830 -22.910  1.00  0.00     0.000 C 
BRANCH   3   4
ATOM      4  C   UNL     1     -17.526   4.873 -21.372  1.00  0.00     0.000 C 
BRANCH   4   5
ATOM      5  C   UNL     1     -17.375   3.480 -20.738  1.00  0.00     0.001 C 
BRANCH   5   6
ATOM      6  C   UNL     1     -16.469   2.548 -21.566  1.00  0.00     0.009 C 
BRANCH   6   7
ATOM      7  C   UNL     1     -15.441   1.753 -20.730  1.00  0.00     0.032 C 
ATOM      8  C   UNL     1     -14.860   2.571 -19.568  1.00  0.00     0.014 C 
BRANCH   7   9
ATOM      9  C   UNL     1     -14.353   1.170 -21.595  1.00  0.00     0.044 C 
ATOM     10  O   UNL     1     -13.615   0.257 -21.141  1.00  0.00    -0.550 OA
ATOM     11  O   UNL     1     -14.187   1.591 -22.909  1.00  0.00    -0.550 OA
ENDBRANCH   7   9
ENDBRANCH   6   7
ENDBRANCH   5   6
ENDBRANCH   4   5
ENDBRANCH   3   4
ENDBRANCH   2   3
ENDBRANCH   1   2
BRANCH   1  12
ATOM     12  C   UNL     1     -14.943   4.919 -23.802  1.00  0.00     0.000 C 
BRANCH  12  13
ATOM     13  C   UNL     1     -13.715   4.990 -22.875  1.00  0.00    -0.000 C 
BRANCH  13  14
ATOM     14  C   UNL     1     -14.003   5.506 -21.452  1.00  0.00    -0.000 C 
BRANCH  14  15
ATOM     15  C   UNL     1     -13.032   6.589 -20.940  1.00  0.00    -0.000 C 
BRANCH  15  16
ATOM     16  C   UNL     1     -13.705   7.889 -20.457  1.00  0.00    -0.000 C 
BRANCH  16  17
ATOM     17  C   UNL     1     -15.239   7.819 -20.324  1.00  0.00    -0.000 C 
BRANCH  17  18
ATOM     18  C   UNL     1     -16.009   8.854 -21.162  1.00  0.00    -0.003 C 
ATOM     19  C   UNL     1     -17.516   8.829 -20.902  1.00  0.00     0.004 C 
ENDBRANCH  17  18
ENDBRANCH  16  17
ENDBRANCH  15  16
ENDBRANCH  14  15
ENDBRANCH  13  14
ENDBRANCH  12  13
ENDBRANCH   1  12
TORSDOF 14
ENDMDL
MODEL 4
REMARK VINA RESULT:    -5.110      2.621      5.902
REMARK INTER + INTRA:         -11.841
REMARK INTER:                  -9.392
REMARK INTRA:                  -2.449
REMARK UNBOUND:                -2.550
REMARK SMILES CCCCCCCCCCCCCC[C@H](C)C(=O)[O-]
REMARK SMILES IDX 9 1 10 2 11 3 12 4 13 5 14 6 15 7 16 8 17 9 18 10 19 11 8 12
REMARK SMILES IDX 7 13 6 14 5 15 4 16 3 17 2 18 1 19
REMARK H PARENT
REMARK Flexibility Score: inf
ROOT
ATOM      1  C   UNL     1     -17.285   5.685 -22.679  1.00  0.00     0.000 C 
ENDROOT
BRANCH   1   2
ATOM      2  C   UNL     1     -17.691   6.081 -21.251  1.00  0.00     0.000 C 
BRANCH   2   3
ATOM      3  C   UNL     1     -17.391   4.981 -20.221  1.00  0.00     0.000 C 
BRANCH   3   4
ATOM      4  C   UNL     1     -17.268   3.588 -20.862  1.00  0.00     0.000 C 
BRANCH   4   5
ATOM      5  C   UNL     1     -15.936   2.897 -20.521  1.00  0.00     0.001 C 
BRANCH   5   6
ATOM      6  C   UNL     1     -15.764   1.551 -21.253  1.00  0.00     0.009 C 
BRANCH   6   7
ATOM      7  C   UNL     1     -16.397   1.506 -22.661  1.00  0.00     0.032 C 
ATOM      8  C   UNL     1     -17.371   0.333 -22.839  1.00  0.00     0.014 C 
BRANCH   7   9
ATOM      9  C   UNL     1     -15.348   1.525 -23.743  1.00  0.00     0.044 C 
ATOM     10  O   UNL     1     -15.664   1.226 -24.925  1.00  0.00    -0.550 OA
ATOM     11  O   UNL     1     -14.045   1.918 -23.463  1.00  0.00    -0.550 OA
ENDBRANCH   7   9
ENDBRANCH   6   7
ENDBRANCH   5   6
ENDBRANCH   4   5
ENDBRANCH   3   4
ENDBRANCH   2   3
ENDBRANCH   1   2
BRANCH   1  12
ATOM     12  C   UNL     1     -15.947   6.333 -23.067  1.00  0.00     0.000 C 
BRANCH  12  13
ATOM     13  C   UNL     1     -14.827   5.301 -23.296  1.00  0.00    -0.000 C 
BRANCH  13  14
ATOM     14  C   UNL     1     -13.725   5.287 -22.219  1.00  0.00    -0.000 C 
BRANCH  14  15
ATOM     15  C   UNL     1     -14.016   6.149 -20.975  1.00  0.00    -0.000 C 
BRANCH  15  16
ATOM     16  C   UNL     1     -12.979   7.254 -20.693  1.00  0.00    -0.000 C 
BRANCH  16  17
ATOM     17  C   UNL     1     -13.569   8.592 -20.205  1.00  0.00    -0.000 C 
BRANCH  17  18
ATOM     18  C   UNL     1     -14.631   9.208 -21.132  1.00  0.00    -0.003 C 
ATOM     19  C   UNL     1     -16.014   9.289 -20.484  1.00  0.00     0.004 C 
ENDBRANCH  17  18
ENDBRANCH  16  17
ENDBRANCH  15  16
ENDBRANCH  14  15
ENDBRANCH  13  14
ENDBRANCH  12  13
ENDBRANCH   1  12
TORSDOF 14
ENDMDL
MODEL 5
REMARK VINA RESULT:    -5.108      2.294      4.400
REMARK INTER + INTRA:         -11.838
REMARK INTER:                  -9.640
REMARK INTRA:                  -2.198
REMARK UNBOUND:                -2.550
REMARK SMILES CCCCCCCCCCCCCC[C@H](C)C(=O)[O-]
REMARK SMILES IDX 9 1 10 2 11 3 12 4 13 5 14 6 15 7 16 8 17 9 18 10 19 11 8 12
REMARK SMILES IDX 7 13 6 14 5 15 4 16 3 17 2 18 1 19
REMARK H PARENT
REMARK Flexibility Score: inf
ROOT
ATOM      1  C   UNL     1     -16.083   6.966 -24.674  1.00  0.00     0.000 C 
ENDROOT
BRANCH   1   2
ATOM      2  C   UNL     1     -16.114   8.467 -24.344  1.00  0.00     0.000 C 
BRANCH   2   3
ATOM      3  C   UNL     1     -17.057   8.800 -23.178  1.00  0.00     0.000 C 
BRANCH   3   4
ATOM      4  C   UNL     1     -16.301   9.084 -21.868  1.00  0.00     0.000 C 
BRANCH   4   5
ATOM      5  C   UNL     1     -16.674   8.101 -20.746  1.00  0.00     0.001 C 
BRANCH   5   6
ATOM      6  C   UNL     1     -15.454   7.668 -19.908  1.00  0.00     0.009 C 
BRANCH   6   7
ATOM      7  C   UNL     1     -14.090   7.975 -20.565  1.00  0.00     0.032 C 
ATOM      8  C   UNL     1     -13.188   6.738 -20.668  1.00  0.00     0.014 C 
BRANCH   7   9
ATOM      9  C   UNL     1     -13.387   9.118 -19.879  1.00  0.00     0.044 C 
ATOM     10  O   UNL     1     -12.130   9.185 -19.903  1.00  0.00    -0.550 OA
ATOM     11  O   UNL     1     -14.112  10.131 -19.262  1.00  0.00    -0.550 OA
ENDBRANCH   7   9
ENDBRANCH   6   7
ENDBRANCH   5   6
ENDBRANCH   4   5
ENDBRANCH   3   4
ENDBRANCH   2   3
ENDBRANCH   1   2
BRANCH   1  12
ATOM     12  C   UNL     1     -15.347   6.180 -23.577  1.00  0.00     0.000 C 
BRANCH  12  13
ATOM     13  C   UNL     1     -15.162   4.693 -23.929  1.00  0.00    -0.000 C 
BRANCH  13  14
ATOM     14  C   UNL     1     -13.929   4.022 -23.293  1.00  0.00    -0.000 C 
BRANCH  14  15
ATOM     15  C   UNL     1     -14.129   2.554 -22.871  1.00  0.00    -0.000 C 
BRANCH  15  16
ATOM     16  C   UNL     1     -15.435   2.270 -22.103  1.00  0.00    -0.000 C 
BRANCH  16  17
ATOM     17  C   UNL     1     -15.416   2.671 -20.614  1.00  0.00    -0.000 C 
BRANCH  17  18
ATOM     18  C   UNL     1     -16.116   4.003 -20.293  1.00  0.00    -0.003 C 
ATOM     19  C   UNL     1     -17.451   4.166 -21.020  1.00  0.00     0.004 C 
ENDBRANCH  17  18
ENDBRANCH  16  17
ENDBRANCH  15  16
ENDBRANCH  14  15
ENDBRANCH  13  14
ENDBRANCH  12  13
ENDBRANCH   1  12
TORSDOF 14
ENDMDL
MODEL 6
REMARK VINA RESULT:    -5.078      2.762      5.686
REMARK INTER + INTRA:         -11.784
REMARK INTER:                  -9.590
REMARK INTRA:                  -2.194
REMARK UNBOUND:                -2.550
REMARK SMILES CCCCCCCCCCCCCC[C@H](C)C(=O)[O-]
REMARK SMILES IDX 9 1 10 2 11 3 12 4 13 5 14 6 15 7 16 8 17 9 18 10 19 11 8 12
REMARK SMILES IDX 7 13 6 14 5 15 4 16 3 17 2 18 1 19
REMARK H PARENT
REMARK Flexibility Score: inf
ROOT
ATOM      1  C   UNL     1     -12.799   7.306 -20.628  1.00  0.00     0.000 C 
ENDROOT
BRANCH   1   2
ATOM      2  C   UNL     1     -13.340   8.676 -20.191  1.00  0.00     0.000 C 
BRANCH   2   3
ATOM      3  C   UNL     1     -14.806   8.618 -19.734  1.00  0.00     0.000 C 
BRANCH   3   4
ATOM      4  C   UNL     1     -15.714   9.567 -20.536  1.00  0.00     0.000 C 
BRANCH   4   5
ATOM      5  C   UNL     1     -16.607   8.820 -21.541  1.00  0.00     0.001 C 
BRANCH   5   6
ATOM      6  C   UNL     1     -16.091   8.935 -22.990  1.00  0.00     0.009 C 
BRANCH   6   7
ATOM      7  C   UNL     1     -16.910   8.130 -24.022  1.00  0.00     0.032 C 
ATOM      8  C   UNL     1     -16.027   7.383 -25.031  1.00  0.00     0.014 C 
BRANCH   7   9
ATOM      9  C   UNL     1     -17.933   8.993 -24.715  1.00  0.00     0.044 C 
ATOM     10  O   UNL     1     -18.006  10.219 -24.441  1.00  0.00    -0.550 OA
ATOM     11  O   UNL     1     -18.766   8.462 -25.693  1.00  0.00    -0.550 OA
ENDBRANCH   7   9
ENDBRANCH   6   7
ENDBRANCH   5   6
ENDBRANCH   4   5
ENDBRANCH   3   4
ENDBRANCH   2   3
ENDBRANCH   1   2
BRANCH   1  12
ATOM     12  C   UNL     1     -13.887   6.227 -20.515  1.00  0.00     0.000 C 
BRANCH  12  13
ATOM     13  C   UNL     1     -14.235   5.584 -21.870  1.00  0.00    -0.000 C 
BRANCH  13  14
ATOM     14  C   UNL     1     -15.719   5.211 -22.052  1.00  0.00    -0.000 C 
BRANCH  14  15
ATOM     15  C   UNL     1     -16.587   5.345 -20.785  1.00  0.00    -0.000 C 
BRANCH  15  16
ATOM     16  C   UNL     1     -17.096   4.013 -20.201  1.00  0.00    -0.000 C 
BRANCH  16  17
ATOM     17  C   UNL     1     -16.328   2.761 -20.667  1.00  0.00    -0.000 C 
BRANCH  17  18
ATOM     18  C   UNL     1     -15.144   2.355 -19.772  1.00  0.00    -0.003 C 
ATOM     19  C   UNL     1     -14.820   0.863 -19.851  1.00  0.00     0.004 C 
ENDBRANCH  17  18
ENDBRANCH  16  17
ENDBRANCH  15  16
ENDBRANCH  14  15
ENDBRANCH  13  14
ENDBRANCH  12  13
ENDBRANCH   1  12
TORSDOF 14
ENDMDL
MODEL 7
REMARK VINA RESULT:    -5.049      2.245      4.198
REMARK INTER + INTRA:         -11.730
REMARK INTER:                  -9.324
REMARK INTRA:                  -2.406
REMARK UNBOUND:                -2.550
REMARK SMILES CCCCCCCCCCCCCC[C@H](C)C(=O)[O-]
REMARK SMILES IDX 9 1 10 2 11 3 12 4 13 5 14 6 15 7 16 8 17 9 18 10 19 11 8 12
REMARK SMILES IDX 7 13 6 14 5 15 4 16 3 17 2 18 1 19
REMARK H PARENT
REMARK Flexibility Score: inf
ROOT
ATOM      1  C   UNL     1     -14.489   5.499 -22.576  1.00  0.00     0.000 C 
ENDROOT
BRANCH   1   2
ATOM      2  C   UNL     1     -13.858   5.822 -21.213  1.00  0.00     0.000 C 
BRANCH   2   3
ATOM      3  C   UNL     1     -14.168   7.249 -20.736  1.00  0.00     0.000 C 
BRANCH   3   4
ATOM      4  C   UNL     1     -15.451   7.324 -19.889  1.00  0.00     0.000 C 
BRANCH   4   5
ATOM      5  C   UNL     1     -16.676   7.760 -20.710  1.00  0.00     0.001 C 
BRANCH   5   6
ATOM      6  C   UNL     1     -16.325   8.812 -21.782  1.00  0.00     0.009 C 
BRANCH   6   7
ATOM      7  C   UNL     1     -16.957   8.544 -23.166  1.00  0.00     0.032 C 
ATOM      8  C   UNL     1     -15.923   8.537 -24.300  1.00  0.00     0.014 C 
BRANCH   7   9
ATOM      9  C   UNL     1     -18.089   9.497 -23.454  1.00  0.00     0.044 C 
ATOM     10  O   UNL     1     -18.703  10.045 -22.501  1.00  0.00    -0.550 OA
ATOM     11  O   UNL     1     -18.431   9.820 -24.762  1.00  0.00    -0.550 OA
ENDBRANCH   7   9
ENDBRANCH   6   7
ENDBRANCH   5   6
ENDBRANCH   4   5
ENDBRANCH   3   4
ENDBRANCH   2   3
ENDBRANCH   1   2
BRANCH   1  12
ATOM     12  C   UNL     1     -13.734   4.356 -23.272  1.00  0.00     0.000 C 
BRANCH  12  13
ATOM     13  C   UNL     1     -14.598   3.095 -23.458  1.00  0.00    -0.000 C 
BRANCH  13  14
ATOM     14  C   UNL     1     -13.987   1.799 -22.889  1.00  0.00    -0.000 C 
BRANCH  14  15
ATOM     15  C   UNL     1     -14.305   1.523 -21.406  1.00  0.00    -0.000 C 
BRANCH  15  16
ATOM     16  C   UNL     1     -15.758   1.820 -20.986  1.00  0.00    -0.000 C 
BRANCH  16  17
ATOM     17  C   UNL     1     -15.915   2.908 -19.906  1.00  0.00    -0.000 C 
BRANCH  17  18
ATOM     18  C   UNL     1     -17.011   3.950 -20.191  1.00  0.00    -0.003 C 
ATOM     19  C   UNL     1     -17.690   3.746 -21.546  1.00  0.00     0.004 C 
ENDBRANCH  17  18
ENDBRANCH  16  17
ENDBRANCH  15  16
ENDBRANCH  14  15
ENDBRANCH  13  14
ENDBRANCH  12  13
ENDBRANCH   1  12
TORSDOF 14
ENDMDL
MODEL 8
REMARK VINA RESULT:    -5.037      3.164      6.726
REMARK INTER + INTRA:         -11.709
REMARK INTER:                  -9.338
REMARK INTRA:                  -2.371
REMARK UNBOUND:                -2.550
REMARK SMILES CCCCCCCCCCCCCC[C@H](C)C(=O)[O-]
REMARK SMILES IDX 9 1 10 2 11 3 12 4 13 5 14 6 15 7 16 8 17 9 18 10 19 11 8 12
REMARK SMILES IDX 7 13 6 14 5 15 4 16 3 17 2 18 1 19
REMARK H PARENT
REMARK Flexibility Score: inf
ROOT
ATOM      1  C   UNL     1     -14.659   5.297 -20.271  1.00  0.00     0.000 C 
ENDROOT
BRANCH   1   2
ATOM      2  C   UNL     1     -16.174   5.549 -20.313  1.00  0.00     0.000 C 
BRANCH   2   3
ATOM      3  C   UNL     1     -16.993   4.250 -20.335  1.00  0.00     0.000 C 
BRANCH   3   4
ATOM      4  C   UNL     1     -17.665   3.997 -21.696  1.00  0.00     0.000 C 
BRANCH   4   5
ATOM      5  C   UNL     1     -16.761   3.217 -22.665  1.00  0.00     0.001 C 
BRANCH   5   6
ATOM      6  C   UNL     1     -15.943   2.118 -21.957  1.00  0.00     0.009 C 
BRANCH   6   7
ATOM      7  C   UNL     1     -14.628   1.742 -22.673  1.00  0.00     0.032 C 
ATOM      8  C   UNL     1     -13.888   2.963 -23.237  1.00  0.00     0.014 C 
BRANCH   7   9
ATOM      9  C   UNL     1     -14.851   0.692 -23.731  1.00  0.00     0.044 C 
ATOM     10  O   UNL     1     -15.310  -0.435 -23.407  1.00  0.00    -0.550 OA
ATOM     11  O   UNL     1     -14.605   0.968 -25.070  1.00  0.00    -0.550 OA
ENDBRANCH   7   9
ENDBRANCH   6   7
ENDBRANCH   5   6
ENDBRANCH   4   5
ENDBRANCH   3   4
ENDBRANCH   2   3
ENDBRANCH   1   2
BRANCH   1  12
ATOM     12  C   UNL     1     -13.931   6.158 -21.315  1.00  0.00     0.000 C 
BRANCH  12  13
ATOM     13  C   UNL     1     -13.018   7.223 -20.681  1.00  0.00    -0.000 C 
BRANCH  13  14
ATOM     14  C   UNL     1     -13.756   8.421 -20.052  1.00  0.00    -0.000 C 
BRANCH  14  15
ATOM     15  C   UNL     1     -14.563   9.284 -21.042  1.00  0.00    -0.000 C 
BRANCH  15  16
ATOM     16  C   UNL     1     -16.093   9.219 -20.864  1.00  0.00    -0.000 C 
BRANCH  16  17
ATOM     17  C   UNL     1     -16.879   8.821 -22.128  1.00  0.00    -0.000 C 
BRANCH  17  18
ATOM     18  C   UNL     1     -16.018   8.590 -23.382  1.00  0.00    -0.003 C 
ATOM     19  C   UNL     1     -16.213   7.201 -23.992  1.00  0.00     0.004 C 
ENDBRANCH  17  18
ENDBRANCH  16  17
ENDBRANCH  15  16
ENDBRANCH  14  15
ENDBRANCH  13  14
ENDBRANCH  12  13
ENDBRANCH   1  12
TORSDOF 14
ENDMDL
MODEL 9
REMARK VINA RESULT:    -5.021      1.247      3.089
REMARK INTER + INTRA:         -11.680
REMARK INTER:                  -9.350
REMARK INTRA:                  -2.330
REMARK UNBOUND:                -2.550
REMARK SMILES CCCCCCCCCCCCCC[C@H](C)C(=O)[O-]
REMARK SMILES IDX 9 1 10 2 11 3 12 4 13 5 14 6 15 7 16 8 17 9 18 10 19 11 8 12
REMARK SMILES IDX 7 13 6 14 5 15 4 16 3 17 2 18 1 19
REMARK H PARENT
REMARK Flexibility Score: inf
ROOT
ATOM      1  C   UNL     1     -16.524   3.127 -23.108  1.00  0.00     0.000 C 
ENDROOT
BRANCH   1   2
ATOM      2  C   UNL     1     -15.150   2.671 -23.624  1.00  0.00     0.000 C 
BRANCH   2   3
ATOM      3  C   UNL     1     -14.012   3.610 -23.195  1.00  0.00     0.000 C 
BRANCH   3   4
ATOM      4  C   UNL     1     -14.467   5.076 -23.079  1.00  0.00     0.000 C 
BRANCH   4   5
ATOM      5  C   UNL     1     -14.080   5.708 -21.731  1.00  0.00     0.001 C 
BRANCH   5   6
ATOM      6  C   UNL     1     -14.889   6.985 -21.423  1.00  0.00     0.009 C 
BRANCH   6   7
ATOM      7  C   UNL     1     -16.067   7.239 -22.388  1.00  0.00     0.032 C 
ATOM      8  C   UNL     1     -16.046   8.650 -22.993  1.00  0.00     0.014 C 
BRANCH   7   9
ATOM      9  C   UNL     1     -17.393   6.935 -21.740  1.00  0.00     0.044 C 
ATOM     10  O   UNL     1     -17.432   6.576 -20.533  1.00  0.00    -0.550 OA
ATOM     11  O   UNL     1     -18.582   7.095 -22.442  1.00  0.00    -0.550 OA
ENDBRANCH   7   9
ENDBRANCH   6   7
ENDBRANCH   5   6
ENDBRANCH   4   5
ENDBRANCH   3   4
ENDBRANCH   2   3
ENDBRANCH   1   2
BRANCH   1  12
ATOM     12  C   UNL     1     -16.872   2.425 -21.786  1.00  0.00     0.000 C 
BRANCH  12  13
ATOM     13  C   UNL     1     -16.513   3.268 -20.549  1.00  0.00    -0.000 C 
BRANCH  13  14
ATOM     14  C   UNL     1     -15.622   2.555 -19.512  1.00  0.00    -0.000 C 
BRANCH  14  15
ATOM     15  C   UNL     1     -14.677   1.484 -20.089  1.00  0.00    -0.000 C 
BRANCH  15  16
ATOM     16  C   UNL     1     -14.844   0.075 -19.486  1.00  0.00    -0.000 C 
BRANCH  16  17
ATOM     17  C   UNL     1     -14.637  -1.087 -20.477  1.00  0.00    -0.000 C 
BRANCH  17  18
ATOM     18  C   UNL     1     -14.437  -0.661 -21.942  1.00  0.00    -0.003 C 
ATOM     19  C   UNL     1     -15.679  -0.889 -22.804  1.00  0.00     0.004 C 
ENDBRANCH  17  18
ENDBRANCH  16  17
ENDBRANCH  15  16
ENDBRANCH  14  15
ENDBRANCH  13  14
ENDBRANCH  12  13
ENDBRANCH   1  12
TORSDOF 14
ENDMDL
