MODEL 1
REMARK VINA RESULT:    -2.479      0.000      0.000
REMARK INTER + INTRA:          -2.696
REMARK INTER:                  -2.696
REMARK INTRA:                   0.000
REMARK UNBOUND:                 0.000
REMARK SMILES [NH3+]CC(=O)[O-]
REMARK SMILES IDX 2 1 1 2 3 6 4 7 5 8
REMARK H PARENT 1 3 1 4 1 5
REMARK Flexibility Score: inf
ROOT
ATOM      1  C   UNL     1     -10.367  11.718 -34.939  1.00  0.00     0.312 C 
ENDROOT
BRANCH   1   2
ATOM      2  N   UNL     1     -10.797  12.076 -36.290  1.00  0.00    -0.353 N 
ATOM      3  H   UNL     1     -10.841  13.117 -36.387  1.00  0.00     0.344 HD
ATOM      4  H   UNL     1     -11.748  11.678 -36.463  1.00  0.00     0.344 HD
ATOM      5  H   UNL     1     -10.131  11.683 -36.994  1.00  0.00     0.344 HD
ENDBRANCH   1   2
BRANCH   1   6
ATOM      6  C   UNL     1      -9.766  10.347 -34.922  1.00  0.00     0.096 C 
ATOM      7  O   UNL     1     -10.101   9.520 -34.034  1.00  0.00    -0.544 OA
ATOM      8  O   UNL     1      -8.875   9.966 -35.917  1.00  0.00    -0.544 OA
ENDBRANCH   1   6
TORSDOF 2
ENDMDL
MODEL 2
REMARK VINA RESULT:    -2.403      1.636      1.685
REMARK INTER + INTRA:          -2.613
REMARK INTER:                  -2.613
REMARK INTRA:                   0.000
REMARK UNBOUND:                 0.000
REMARK SMILES [NH3+]CC(=O)[O-]
REMARK SMILES IDX 2 1 1 2 3 6 4 7 5 8
REMARK H PARENT 1 3 1 4 1 5
REMARK Flexibility Score: inf
ROOT
ATOM      1  C   UNL     1      -9.525  10.243 -35.408  1.00  0.00     0.312 C 
ENDROOT
BRANCH   1   2
ATOM      2  N   UNL     1     -10.396  11.345 -35.815  1.00  0.00    -0.353 N 
ATOM      3  H   UNL     1     -11.376  11.000 -35.940  1.00  0.00     0.344 HD
ATOM      4  H   UNL     1     -10.054  11.732 -36.724  1.00  0.00     0.344 HD
ATOM      5  H   UNL     1     -10.377  12.103 -35.095  1.00  0.00     0.344 HD
ENDBRANCH   1   2
BRANCH   1   6
ATOM      6  C   UNL     1      -9.833   9.818 -34.005  1.00  0.00     0.096 C 
ATOM      7  O   UNL     1     -10.959  10.067 -33.501  1.00  0.00    -0.544 OA
ATOM      8  O   UNL     1      -8.894   9.104 -33.273  1.00  0.00    -0.544 OA
ENDBRANCH   1   6
TORSDOF 2
ENDMDL
MODEL 3
REMARK VINA RESULT:    -2.396      1.617      1.887
REMARK INTER + INTRA:          -2.606
REMARK INTER:                  -2.606
REMARK INTRA:                   0.000
REMARK UNBOUND:                 0.000
REMARK SMILES [NH3+]CC(=O)[O-]
REMARK SMILES IDX 2 1 1 2 3 6 4 7 5 8
REMARK H PARENT 1 3 1 4 1 5
REMARK Flexibility Score: inf
ROOT
ATOM      1  C   UNL     1      -9.572  10.266 -35.388  1.00  0.00     0.312 C 
ENDROOT
BRANCH   1   2
ATOM      2  N   UNL     1     -10.406  11.376 -35.847  1.00  0.00    -0.353 N 
ATOM      3  H   UNL     1     -11.418  11.130 -35.745  1.00  0.00     0.344 HD
ATOM      4  H   UNL     1     -10.202  11.563 -36.856  1.00  0.00     0.344 HD
ATOM      5  H   UNL     1     -10.193  12.238 -35.294  1.00  0.00     0.344 HD
ENDBRANCH   1   2
BRANCH   1   6
ATOM      6  C   UNL     1      -9.936   9.877 -33.988  1.00  0.00     0.096 C 
ATOM      7  O   UNL     1      -9.181   9.119 -33.326  1.00  0.00    -0.544 OA
ATOM      8  O   UNL     1     -11.083  10.391 -33.400  1.00  0.00    -0.544 OA
ENDBRANCH   1   6
TORSDOF 2
ENDMDL
MODEL 4
REMARK VINA RESULT:    -2.273      1.992      1.992
REMARK INTER + INTRA:          -2.472
REMARK INTER:                  -2.472
REMARK INTRA:                   0.000
REMARK UNBOUND:                 0.000
REMARK SMILES [NH3+]CC(=O)[O-]
REMARK SMILES IDX 2 1 1 2 3 6 4 7 5 8
REMARK H PARENT 1 3 1 4 1 5
REMARK Flexibility Score: inf
ROOT
ATOM      1  C   UNL     1     -10.709  11.112 -33.630  1.00  0.00     0.312 C 
ENDROOT
BRANCH   1   2
ATOM      2  N   UNL     1     -11.816  10.554 -32.854  1.00  0.00    -0.353 N 
ATOM      3  H   UNL     1     -11.541  10.470 -31.848  1.00  0.00     0.344 HD
ATOM      4  H   UNL     1     -12.047   9.604 -33.224  1.00  0.00     0.344 HD
ATOM      5  H   UNL     1     -12.659  11.166 -32.941  1.00  0.00     0.344 HD
ENDBRANCH   1   2
BRANCH   1   6
ATOM      6  C   UNL     1      -9.836  10.019 -34.166  1.00  0.00     0.096 C 
ATOM      7  O   UNL     1      -9.348   9.159 -33.387  1.00  0.00    -0.544 OA
ATOM      8  O   UNL     1      -9.603   9.921 -35.531  1.00  0.00    -0.544 OA
ENDBRANCH   1   6
TORSDOF 2
ENDMDL
MODEL 5
REMARK VINA RESULT:    -2.249      1.926      2.128
REMARK INTER + INTRA:          -2.447
REMARK INTER:                  -2.447
REMARK INTRA:                   0.000
REMARK UNBOUND:                 0.000
REMARK SMILES [NH3+]CC(=O)[O-]
REMARK SMILES IDX 2 1 1 2 3 6 4 7 5 8
REMARK H PARENT 1 3 1 4 1 5
REMARK Flexibility Score: inf
ROOT
ATOM      1  C   UNL     1     -10.333  10.010 -33.776  1.00  0.00     0.312 C 
ENDROOT
BRANCH   1   2
ATOM      2  N   UNL     1     -11.473  10.759 -33.250  1.00  0.00    -0.353 N 
ATOM      3  H   UNL     1     -11.581  10.574 -32.226  1.00  0.00     0.344 HD
ATOM      4  H   UNL     1     -12.341  10.451 -33.744  1.00  0.00     0.344 HD
ATOM      5  H   UNL     1     -11.335  11.783 -33.412  1.00  0.00     0.344 HD
ENDBRANCH   1   2
BRANCH   1   6
ATOM      6  C   UNL     1      -9.912  10.554 -35.106  1.00  0.00     0.096 C 
ATOM      7  O   UNL     1     -10.375  11.649 -35.517  1.00  0.00    -0.544 OA
ATOM      8  O   UNL     1      -8.970   9.875 -35.869  1.00  0.00    -0.544 OA
ENDBRANCH   1   6
TORSDOF 2
ENDMDL
MODEL 6
REMARK VINA RESULT:    -2.101      2.795      3.020
REMARK INTER + INTRA:          -2.285
REMARK INTER:                  -2.285
REMARK INTRA:                   0.000
REMARK UNBOUND:                 0.000
REMARK SMILES [NH3+]CC(=O)[O-]
REMARK SMILES IDX 2 1 1 2 3 6 4 7 5 8
REMARK H PARENT 1 3 1 4 1 5
REMARK Flexibility Score: inf
ROOT
ATOM      1  C   UNL     1     -11.719  10.367 -32.757  1.00  0.00     0.312 C 
ENDROOT
BRANCH   1   2
ATOM      2  N   UNL     1     -12.430   9.099 -32.598  1.00  0.00    -0.353 N 
ATOM      3  H   UNL     1     -12.060   8.583 -31.766  1.00  0.00     0.344 HD
ATOM      4  H   UNL     1     -12.284   8.515 -33.452  1.00  0.00     0.344 HD
ATOM      5  H   UNL     1     -13.455   9.275 -32.478  1.00  0.00     0.344 HD
ENDBRANCH   1   2
BRANCH   1   6
ATOM      6  C   UNL     1     -10.552  10.204 -33.682  1.00  0.00     0.096 C 
ATOM      7  O   UNL     1     -10.381  11.011 -34.633  1.00  0.00    -0.544 OA
ATOM      8  O   UNL     1      -9.627   9.192 -33.464  1.00  0.00    -0.544 OA
ENDBRANCH   1   6
TORSDOF 2
ENDMDL
MODEL 7
REMARK VINA RESULT:    -2.055      2.552      2.792
REMARK INTER + INTRA:          -2.236
REMARK INTER:                  -2.236
REMARK INTRA:                   0.000
REMARK UNBOUND:                 0.000
REMARK SMILES [NH3+]CC(=O)[O-]
REMARK SMILES IDX 2 1 1 2 3 6 4 7 5 8
REMARK H PARENT 1 3 1 4 1 5
REMARK Flexibility Score: inf
ROOT
ATOM      1  C   UNL     1     -10.723  11.811 -32.642  1.00  0.00     0.312 C 
ENDROOT
BRANCH   1   2
ATOM      2  N   UNL     1      -9.279  11.940 -32.831  1.00  0.00    -0.353 N 
ATOM      3  H   UNL     1      -8.914  11.120 -33.369  1.00  0.00     0.344 HD
ATOM      4  H   UNL     1      -8.813  11.966 -31.895  1.00  0.00     0.344 HD
ATOM      5  H   UNL     1      -9.061  12.825 -33.343  1.00  0.00     0.344 HD
ENDBRANCH   1   2
BRANCH   1   6
ATOM      6  C   UNL     1     -11.185  10.438 -33.021  1.00  0.00     0.096 C 
ATOM      7  O   UNL     1     -12.272   9.990 -32.574  1.00  0.00    -0.544 OA
ATOM      8  O   UNL     1     -10.438   9.673 -33.908  1.00  0.00    -0.544 OA
ENDBRANCH   1   6
TORSDOF 2
ENDMDL
MODEL 8
REMARK VINA RESULT:    -1.884      2.829      3.157
REMARK INTER + INTRA:          -2.049
REMARK INTER:                  -2.049
REMARK INTRA:                   0.000
REMARK UNBOUND:                 0.000
REMARK SMILES [NH3+]CC(=O)[O-]
REMARK SMILES IDX 2 1 1 2 3 6 4 7 5 8
REMARK H PARENT 1 3 1 4 1 5
REMARK Flexibility Score: inf
ROOT
ATOM      1  C   UNL     1     -10.335   9.822 -33.758  1.00  0.00     0.312 C 
ENDROOT
BRANCH   1   2
ATOM      2  N   UNL     1      -9.030   9.811 -34.419  1.00  0.00    -0.353 N 
ATOM      3  H   UNL     1      -9.085  10.327 -35.328  1.00  0.00     0.344 HD
ATOM      4  H   UNL     1      -8.751   8.822 -34.606  1.00  0.00     0.344 HD
ATOM      5  H   UNL     1      -8.312  10.256 -33.802  1.00  0.00     0.344 HD
ENDBRANCH   1   2
BRANCH   1   6
ATOM      6  C   UNL     1     -10.536  11.103 -33.008  1.00  0.00     0.096 C 
ATOM      7  O   UNL     1      -9.544  11.743 -32.571  1.00  0.00    -0.544 OA
ATOM      8  O   UNL     1     -11.815  11.614 -32.835  1.00  0.00    -0.544 OA
ENDBRANCH   1   6
TORSDOF 2
ENDMDL
MODEL 9
REMARK VINA RESULT:    -1.631     22.801     23.242
REMARK INTER + INTRA:          -1.774
REMARK INTER:                  -1.774
REMARK INTRA:                   0.000
REMARK UNBOUND:                 0.000
REMARK SMILES [NH3+]CC(=O)[O-]
REMARK SMILES IDX 2 1 1 2 3 6 4 7 5 8
REMARK H PARENT 1 3 1 4 1 5
REMARK Flexibility Score: inf
ROOT
ATOM      1  C   UNL     1     -23.267  -2.643 -21.277  1.00  0.00     0.312 C 
ENDROOT
BRANCH   1   2
ATOM      2  N   UNL     1     -24.563  -3.178 -21.696  1.00  0.00    -0.353 N 
ATOM      3  H   UNL     1     -25.019  -3.677 -20.898  1.00  0.00     0.344 HD
ATOM      4  H   UNL     1     -24.416  -3.853 -22.480  1.00  0.00     0.344 HD
ATOM      5  H   UNL     1     -25.181  -2.402 -22.027  1.00  0.00     0.344 HD
ENDBRANCH   1   2
BRANCH   1   6
ATOM      6  C   UNL     1     -23.372  -1.180 -20.977  1.00  0.00     0.096 C 
ATOM      7  O   UNL     1     -23.462  -0.782 -19.787  1.00  0.00    -0.544 OA
ATOM      8  O   UNL     1     -23.321  -0.253 -22.010  1.00  0.00    -0.544 OA
ENDBRANCH   1   6
TORSDOF 2
ENDMDL
