MODEL 1
REMARK VINA RESULT:    -4.454      0.000      0.000
REMARK INTER + INTRA:          -6.760
REMARK INTER:                  -6.276
REMARK INTRA:                  -0.484
REMARK UNBOUND:                -0.484
REMARK SMILES CCCCCCCCC(=O)[O-]
REMARK SMILES IDX 6 1 7 2 8 3 9 4 10 5 11 6 5 7 4 8 3 9 2 10 1 11
REMARK H PARENT
REMARK Flexibility Score: inf
ROOT
ATOM      1  C   UNL     1     -22.332  55.210  -1.694  1.00  0.00     0.000 C 
ENDROOT
BRANCH   1   2
ATOM      2  C   UNL     1     -22.262  53.720  -1.316  1.00  0.00     0.006 C 
BRANCH   2   3
ATOM      3  C   UNL     1     -21.014  53.375  -0.493  1.00  0.00     0.053 C 
BRANCH   3   4
ATOM      4  C   UNL     1     -20.113  52.467  -1.269  1.00  0.00     0.041 C 
ATOM      5  O   UNL     1     -19.714  52.800  -2.417  1.00  0.00    -0.550 OA
ATOM      6  O   UNL     1     -19.753  51.232  -0.747  1.00  0.00    -0.550 OA
ENDBRANCH   3   4
ENDBRANCH   2   3
ENDBRANCH   1   2
BRANCH   1   7
ATOM      7  C   UNL     1     -22.002  55.457  -3.176  1.00  0.00     0.000 C 
BRANCH   7   8
ATOM      8  C   UNL     1     -20.990  56.598  -3.372  1.00  0.00    -0.000 C 
BRANCH   8   9
ATOM      9  C   UNL     1     -19.620  56.289  -2.743  1.00  0.00    -0.000 C 
BRANCH   9  10
ATOM     10  C   UNL     1     -18.450  56.715  -3.643  1.00  0.00    -0.003 C 
ATOM     11  C   UNL     1     -17.336  55.669  -3.703  1.00  0.00     0.004 C 
ENDBRANCH   9  10
ENDBRANCH   8   9
ENDBRANCH   7   8
ENDBRANCH   1   7
TORSDOF 7
ENDMDL
MODEL 2
REMARK VINA RESULT:    -4.394      4.146      5.289
REMARK INTER + INTRA:          -6.676
REMARK INTER:                  -6.307
REMARK INTRA:                  -0.369
REMARK UNBOUND:                -0.484
REMARK SMILES CCCCCCCCC(=O)[O-]
REMARK SMILES IDX 6 1 7 2 8 3 9 4 10 5 11 6 5 7 4 8 3 9 2 10 1 11
REMARK H PARENT
REMARK Flexibility Score: inf
ROOT
ATOM      1  C   UNL     1     -17.844  54.657  -0.413  1.00  0.00     0.000 C 
ENDROOT
BRANCH   1   2
ATOM      2  C   UNL     1     -17.239  54.805  -1.820  1.00  0.00     0.006 C 
BRANCH   2   3
ATOM      3  C   UNL     1     -18.299  54.759  -2.928  1.00  0.00     0.053 C 
BRANCH   3   4
ATOM      4  C   UNL     1     -18.711  56.145  -3.313  1.00  0.00     0.041 C 
ATOM      5  O   UNL     1     -19.932  56.454  -3.353  1.00  0.00    -0.550 OA
ATOM      6  O   UNL     1     -17.751  57.081  -3.675  1.00  0.00    -0.550 OA
ENDBRANCH   3   4
ENDBRANCH   2   3
ENDBRANCH   1   2
BRANCH   1   7
ATOM      7  C   UNL     1     -17.935  56.000   0.333  1.00  0.00     0.000 C 
BRANCH   7   8
ATOM      8  C   UNL     1     -16.850  56.995  -0.111  1.00  0.00    -0.000 C 
BRANCH   8   9
ATOM      9  C   UNL     1     -16.298  57.831   1.058  1.00  0.00    -0.000 C 
BRANCH   9  10
ATOM     10  C   UNL     1     -15.489  59.047   0.580  1.00  0.00    -0.003 C 
ATOM     11  C   UNL     1     -14.080  59.091   1.171  1.00  0.00     0.004 C 
ENDBRANCH   9  10
ENDBRANCH   8   9
ENDBRANCH   7   8
ENDBRANCH   1   7
TORSDOF 7
ENDMDL
MODEL 3
REMARK VINA RESULT:    -4.305      3.051      3.819
REMARK INTER + INTRA:          -6.551
REMARK INTER:                  -5.774
REMARK INTRA:                  -0.777
REMARK UNBOUND:                -0.484
REMARK SMILES CCCCCCCCC(=O)[O-]
REMARK SMILES IDX 6 1 7 2 8 3 9 4 10 5 11 6 5 7 4 8 3 9 2 10 1 11
REMARK H PARENT
REMARK Flexibility Score: inf
ROOT
ATOM      1  C   UNL     1     -19.333  53.418  -0.731  1.00  0.00     0.000 C 
ENDROOT
BRANCH   1   2
ATOM      2  C   UNL     1     -17.849  53.749  -0.496  1.00  0.00     0.006 C 
BRANCH   2   3
ATOM      3  C   UNL     1     -17.632  54.670   0.712  1.00  0.00     0.053 C 
BRANCH   3   4
ATOM      4  C   UNL     1     -17.397  56.077   0.259  1.00  0.00     0.041 C 
ATOM      5  O   UNL     1     -16.223  56.496   0.078  1.00  0.00    -0.550 OA
ATOM      6  O   UNL     1     -18.472  56.939   0.085  1.00  0.00    -0.550 OA
ENDBRANCH   3   4
ENDBRANCH   2   3
ENDBRANCH   1   2
BRANCH   1   7
ATOM      7  C   UNL     1     -19.670  53.251  -2.223  1.00  0.00     0.000 C 
BRANCH   7   8
ATOM      8  C   UNL     1     -18.844  54.186  -3.122  1.00  0.00    -0.000 C 
BRANCH   8   9
ATOM      9  C   UNL     1     -19.427  55.609  -3.190  1.00  0.00    -0.000 C 
BRANCH   9  10
ATOM     10  C   UNL     1     -18.373  56.658  -3.578  1.00  0.00    -0.003 C 
ATOM     11  C   UNL     1     -16.943  56.127  -3.480  1.00  0.00     0.004 C 
ENDBRANCH   9  10
ENDBRANCH   8   9
ENDBRANCH   7   8
ENDBRANCH   1   7
TORSDOF 7
ENDMDL
MODEL 4
REMARK VINA RESULT:    -4.301      1.898      4.109
REMARK INTER + INTRA:          -6.546
REMARK INTER:                  -5.907
REMARK INTRA:                  -0.638
REMARK UNBOUND:                -0.484
REMARK SMILES CCCCCCCCC(=O)[O-]
REMARK SMILES IDX 6 1 7 2 8 3 9 4 10 5 11 6 5 7 4 8 3 9 2 10 1 11
REMARK H PARENT
REMARK Flexibility Score: inf
ROOT
ATOM      1  C   UNL     1     -20.694  56.542  -3.266  1.00  0.00     0.000 C 
ENDROOT
BRANCH   1   2
ATOM      2  C   UNL     1     -19.197  56.621  -3.611  1.00  0.00     0.006 C 
BRANCH   2   3
ATOM      3  C   UNL     1     -18.482  55.273  -3.456  1.00  0.00     0.053 C 
BRANCH   3   4
ATOM      4  C   UNL     1     -17.360  55.388  -2.472  1.00  0.00     0.041 C 
ATOM      5  O   UNL     1     -16.717  54.363  -2.122  1.00  0.00    -0.550 OA
ATOM      6  O   UNL     1     -17.059  56.618  -1.902  1.00  0.00    -0.550 OA
ENDBRANCH   3   4
ENDBRANCH   2   3
ENDBRANCH   1   2
BRANCH   1   7
ATOM      7  C   UNL     1     -21.183  55.093  -3.093  1.00  0.00     0.000 C 
BRANCH   7   8
ATOM      8  C   UNL     1     -22.155  54.936  -1.912  1.00  0.00    -0.000 C 
BRANCH   8   9
ATOM      9  C   UNL     1     -21.939  53.624  -1.137  1.00  0.00    -0.000 C 
BRANCH   9  10
ATOM     10  C   UNL     1     -20.777  52.792  -1.702  1.00  0.00    -0.003 C 
ATOM     11  C   UNL     1     -19.630  52.622  -0.705  1.00  0.00     0.004 C 
ENDBRANCH   9  10
ENDBRANCH   8   9
ENDBRANCH   7   8
ENDBRANCH   1   7
TORSDOF 7
ENDMDL
MODEL 5
REMARK VINA RESULT:    -4.284      2.298      3.331
REMARK INTER + INTRA:          -6.521
REMARK INTER:                  -5.887
REMARK INTRA:                  -0.634
REMARK UNBOUND:                -0.484
REMARK SMILES CCCCCCCCC(=O)[O-]
REMARK SMILES IDX 6 1 7 2 8 3 9 4 10 5 11 6 5 7 4 8 3 9 2 10 1 11
REMARK H PARENT
REMARK Flexibility Score: inf
ROOT
ATOM      1  C   UNL     1     -19.888  53.577  -0.805  1.00  0.00     0.000 C 
ENDROOT
BRANCH   1   2
ATOM      2  C   UNL     1     -21.061  54.569  -0.724  1.00  0.00     0.006 C 
BRANCH   2   3
ATOM      3  C   UNL     1     -22.356  54.004  -1.323  1.00  0.00     0.053 C 
BRANCH   3   4
ATOM      4  C   UNL     1     -22.922  54.954  -2.331  1.00  0.00     0.041 C 
ATOM      5  O   UNL     1     -24.162  55.175  -2.367  1.00  0.00    -0.550 OA
ATOM      6  O   UNL     1     -22.088  55.557  -3.263  1.00  0.00    -0.550 OA
ENDBRANCH   3   4
ENDBRANCH   2   3
ENDBRANCH   1   2
BRANCH   1   7
ATOM      7  C   UNL     1     -19.770  52.915  -2.189  1.00  0.00     0.000 C 
BRANCH   7   8
ATOM      8  C   UNL     1     -18.968  53.770  -3.185  1.00  0.00    -0.000 C 
BRANCH   8   9
ATOM      9  C   UNL     1     -17.741  54.437  -2.539  1.00  0.00    -0.000 C 
BRANCH   9  10
ATOM     10  C   UNL     1     -17.354  55.752  -3.232  1.00  0.00    -0.003 C 
ATOM     11  C   UNL     1     -18.568  56.557  -3.698  1.00  0.00     0.004 C 
ENDBRANCH   9  10
ENDBRANCH   8   9
ENDBRANCH   7   8
ENDBRANCH   1   7
TORSDOF 7
ENDMDL
MODEL 6
REMARK VINA RESULT:    -4.278      1.955      3.080
REMARK INTER + INTRA:          -6.513
REMARK INTER:                  -5.727
REMARK INTRA:                  -0.786
REMARK UNBOUND:                -0.484
REMARK SMILES CCCCCCCCC(=O)[O-]
REMARK SMILES IDX 6 1 7 2 8 3 9 4 10 5 11 6 5 7 4 8 3 9 2 10 1 11
REMARK H PARENT
REMARK Flexibility Score: inf
ROOT
ATOM      1  C   UNL     1     -19.568  56.425  -3.263  1.00  0.00     0.000 C 
ENDROOT
BRANCH   1   2
ATOM      2  C   UNL     1     -20.502  55.250  -2.927  1.00  0.00     0.006 C 
BRANCH   2   3
ATOM      3  C   UNL     1     -19.770  53.902  -2.899  1.00  0.00     0.053 C 
BRANCH   3   4
ATOM      4  C   UNL     1     -20.358  53.011  -1.850  1.00  0.00     0.041 C 
ATOM      5  O   UNL     1     -19.690  52.048  -1.390  1.00  0.00    -0.550 OA
ATOM      6  O   UNL     1     -21.662  53.214  -1.417  1.00  0.00    -0.550 OA
ENDBRANCH   3   4
ENDBRANCH   2   3
ENDBRANCH   1   2
BRANCH   1   7
ATOM      7  C   UNL     1     -18.218  55.960  -3.836  1.00  0.00     0.000 C 
BRANCH   7   8
ATOM      8  C   UNL     1     -17.020  56.566  -3.086  1.00  0.00    -0.000 C 
BRANCH   8   9
ATOM      9  C   UNL     1     -17.183  56.499  -1.557  1.00  0.00    -0.000 C 
BRANCH   9  10
ATOM     10  C   UNL     1     -16.897  55.098  -0.996  1.00  0.00    -0.003 C 
ATOM     11  C   UNL     1     -17.741  54.768   0.236  1.00  0.00     0.004 C 
ENDBRANCH   9  10
ENDBRANCH   8   9
ENDBRANCH   7   8
ENDBRANCH   1   7
TORSDOF 7
ENDMDL
MODEL 7
REMARK VINA RESULT:    -4.243      4.667      5.896
REMARK INTER + INTRA:          -6.464
REMARK INTER:                  -5.863
REMARK INTRA:                  -0.600
REMARK UNBOUND:                -0.484
REMARK SMILES CCCCCCCCC(=O)[O-]
REMARK SMILES IDX 6 1 7 2 8 3 9 4 10 5 11 6 5 7 4 8 3 9 2 10 1 11
REMARK H PARENT
REMARK Flexibility Score: inf
ROOT
ATOM      1  C   UNL     1     -17.535  55.469   0.340  1.00  0.00     0.000 C 
ENDROOT
BRANCH   1   2
ATOM      2  C   UNL     1     -17.430  56.991   0.141  1.00  0.00     0.006 C 
BRANCH   2   3
ATOM      3  C   UNL     1     -16.496  57.658   1.159  1.00  0.00     0.053 C 
BRANCH   3   4
ATOM      4  C   UNL     1     -15.426  58.432   0.455  1.00  0.00     0.041 C 
ATOM      5  O   UNL     1     -15.305  58.351  -0.796  1.00  0.00    -0.550 OA
ATOM      6  O   UNL     1     -14.531  59.203   1.186  1.00  0.00    -0.550 OA
ENDBRANCH   3   4
ENDBRANCH   2   3
ENDBRANCH   1   2
BRANCH   1   7
ATOM      7  C   UNL     1     -16.501  54.694  -0.495  1.00  0.00     0.000 C 
BRANCH   7   8
ATOM      8  C   UNL     1     -16.799  54.751  -2.003  1.00  0.00    -0.000 C 
BRANCH   8   9
ATOM      9  C   UNL     1     -18.265  54.415  -2.330  1.00  0.00    -0.000 C 
BRANCH   9  10
ATOM     10  C   UNL     1     -18.870  55.374  -3.367  1.00  0.00    -0.003 C 
ATOM     11  C   UNL     1     -17.953  56.555  -3.690  1.00  0.00     0.004 C 
ENDBRANCH   9  10
ENDBRANCH   8   9
ENDBRANCH   7   8
ENDBRANCH   1   7
TORSDOF 7
ENDMDL
MODEL 8
REMARK VINA RESULT:    -4.235      2.195      4.822
REMARK INTER + INTRA:          -6.452
REMARK INTER:                  -5.916
REMARK INTRA:                  -0.536
REMARK UNBOUND:                -0.484
REMARK SMILES CCCCCCCCC(=O)[O-]
REMARK SMILES IDX 6 1 7 2 8 3 9 4 10 5 11 6 5 7 4 8 3 9 2 10 1 11
REMARK H PARENT
REMARK Flexibility Score: inf
ROOT
ATOM      1  C   UNL     1     -19.979  53.250  -2.859  1.00  0.00     0.000 C 
ENDROOT
BRANCH   1   2
ATOM      2  C   UNL     1     -18.528  53.745  -2.980  1.00  0.00     0.006 C 
BRANCH   2   3
ATOM      3  C   UNL     1     -18.434  55.180  -3.516  1.00  0.00     0.053 C 
BRANCH   3   4
ATOM      4  C   UNL     1     -19.342  56.085  -2.744  1.00  0.00     0.041 C 
ATOM      5  O   UNL     1     -19.163  56.257  -1.509  1.00  0.00    -0.550 OA
ATOM      6  O   UNL     1     -20.415  56.698  -3.378  1.00  0.00    -0.550 OA
ENDBRANCH   3   4
ENDBRANCH   2   3
ENDBRANCH   1   2
BRANCH   1   7
ATOM      7  C   UNL     1     -20.240  52.509  -1.536  1.00  0.00     0.000 C 
BRANCH   7   8
ATOM      8  C   UNL     1     -21.216  53.266  -0.620  1.00  0.00    -0.000 C 
BRANCH   8   9
ATOM      9  C   UNL     1     -22.256  54.082  -1.407  1.00  0.00    -0.000 C 
BRANCH   9  10
ATOM     10  C   UNL     1     -23.267  54.787  -0.489  1.00  0.00    -0.003 C 
ATOM     11  C   UNL     1     -23.331  54.170   0.908  1.00  0.00     0.004 C 
ENDBRANCH   9  10
ENDBRANCH   8   9
ENDBRANCH   7   8
ENDBRANCH   1   7
TORSDOF 7
ENDMDL
MODEL 9
REMARK VINA RESULT:    -4.223      2.268      4.236
REMARK INTER + INTRA:          -6.435
REMARK INTER:                  -5.691
REMARK INTRA:                  -0.744
REMARK UNBOUND:                -0.484
REMARK SMILES CCCCCCCCC(=O)[O-]
REMARK SMILES IDX 6 1 7 2 8 3 9 4 10 5 11 6 5 7 4 8 3 9 2 10 1 11
REMARK H PARENT
REMARK Flexibility Score: inf
ROOT
ATOM      1  C   UNL     1     -19.903  52.894  -2.183  1.00  0.00     0.000 C 
ENDROOT
BRANCH   1   2
ATOM      2  C   UNL     1     -18.704  53.858  -2.151  1.00  0.00     0.006 C 
BRANCH   2   3
ATOM      3  C   UNL     1     -18.692  54.827  -3.341  1.00  0.00     0.053 C 
BRANCH   3   4
ATOM      4  C   UNL     1     -18.316  56.203  -2.889  1.00  0.00     0.041 C 
ATOM      5  O   UNL     1     -17.920  57.058  -3.725  1.00  0.00    -0.550 OA
ATOM      6  O   UNL     1     -18.354  56.526  -1.539  1.00  0.00    -0.550 OA
ENDBRANCH   3   4
ENDBRANCH   2   3
ENDBRANCH   1   2
BRANCH   1   7
ATOM      7  C   UNL     1     -20.768  52.988  -0.914  1.00  0.00     0.000 C 
BRANCH   7   8
ATOM      8  C   UNL     1     -21.477  54.346  -0.784  1.00  0.00    -0.000 C 
BRANCH   8   9
ATOM      9  C   UNL     1     -22.785  54.412  -1.591  1.00  0.00    -0.000 C 
BRANCH   9  10
ATOM     10  C   UNL     1     -22.650  55.266  -2.862  1.00  0.00    -0.003 C 
ATOM     11  C   UNL     1     -21.961  56.606  -2.605  1.00  0.00     0.004 C 
ENDBRANCH   9  10
ENDBRANCH   8   9
ENDBRANCH   7   8
ENDBRANCH   1   7
TORSDOF 7
ENDMDL
