MODEL 1
REMARK VINA RESULT:    -3.461      0.000      0.000
REMARK INTER + INTRA:          -4.508
REMARK INTER:                  -4.271
REMARK INTRA:                  -0.238
REMARK UNBOUND:                -0.238
REMARK SMILES CCCCCC(=O)[O-]
REMARK SMILES IDX 4 1 5 2 6 3 7 4 8 5 3 6 2 7 1 8
REMARK H PARENT
REMARK Flexibility Score: inf
ROOT
ATOM      1  C   UNL     1      59.152  34.242  80.553  1.00  0.00     0.006 C 
ENDROOT
BRANCH   1   2
ATOM      2  C   UNL     1      58.910  35.485  81.416  1.00  0.00     0.053 C 
BRANCH   2   3
ATOM      3  C   UNL     1      58.412  36.618  80.575  1.00  0.00     0.041 C 
ATOM      4  O   UNL     1      57.377  37.251  80.914  1.00  0.00    -0.550 OA
ATOM      5  O   UNL     1      59.117  37.007  79.444  1.00  0.00    -0.550 OA
ENDBRANCH   2   3
ENDBRANCH   1   2
BRANCH   1   6
ATOM      6  C   UNL     1      57.831  33.697  79.993  1.00  0.00     0.000 C 
BRANCH   6   7
ATOM      7  C   UNL     1      57.971  33.169  78.557  1.00  0.00    -0.003 C 
ATOM      8  C   UNL     1      57.664  34.233  77.504  1.00  0.00     0.004 C 
ENDBRANCH   6   7
ENDBRANCH   1   6
TORSDOF 4
ENDMDL
MODEL 2
REMARK VINA RESULT:    -3.332      1.019      1.665
REMARK INTER + INTRA:          -4.349
REMARK INTER:                  -4.248
REMARK INTRA:                  -0.101
REMARK UNBOUND:                -0.238
REMARK SMILES CCCCCC(=O)[O-]
REMARK SMILES IDX 4 1 5 2 6 3 7 4 8 5 3 6 2 7 1 8
REMARK H PARENT
REMARK Flexibility Score: inf
ROOT
ATOM      1  C   UNL     1      59.162  33.864  79.688  1.00  0.00     0.006 C 
ENDROOT
BRANCH   1   2
ATOM      2  C   UNL     1      58.810  34.795  80.852  1.00  0.00     0.053 C 
BRANCH   2   3
ATOM      3  C   UNL     1      58.760  36.217  80.391  1.00  0.00     0.041 C 
ATOM      4  O   UNL     1      59.295  36.549  79.300  1.00  0.00    -0.550 OA
ATOM      5  O   UNL     1      58.080  37.168  81.140  1.00  0.00    -0.550 OA
ENDBRANCH   2   3
ENDBRANCH   1   2
BRANCH   1   6
ATOM      6  C   UNL     1      57.897  33.245  79.078  1.00  0.00     0.000 C 
BRANCH   6   7
ATOM      7  C   UNL     1      58.001  33.066  77.555  1.00  0.00    -0.003 C 
ATOM      8  C   UNL     1      58.358  31.636  77.151  1.00  0.00     0.004 C 
ENDBRANCH   6   7
ENDBRANCH   1   6
TORSDOF 4
ENDMDL
MODEL 3
REMARK VINA RESULT:    -3.283      1.272      2.072
REMARK INTER + INTRA:          -4.288
REMARK INTER:                  -4.073
REMARK INTRA:                  -0.215
REMARK UNBOUND:                -0.238
REMARK SMILES CCCCCC(=O)[O-]
REMARK SMILES IDX 4 1 5 2 6 3 7 4 8 5 3 6 2 7 1 8
REMARK H PARENT
REMARK Flexibility Score: inf
ROOT
ATOM      1  C   UNL     1      58.958  35.812  79.830  1.00  0.00     0.006 C 
ENDROOT
BRANCH   1   2
ATOM      2  C   UNL     1      58.306  37.029  80.493  1.00  0.00     0.053 C 
BRANCH   2   3
ATOM      3  C   UNL     1      56.908  37.213  79.991  1.00  0.00     0.041 C 
ATOM      4  O   UNL     1      56.625  36.953  78.792  1.00  0.00    -0.550 OA
ATOM      5  O   UNL     1      55.906  37.625  80.861  1.00  0.00    -0.550 OA
ENDBRANCH   2   3
ENDBRANCH   1   2
BRANCH   1   6
ATOM      6  C   UNL     1      58.806  34.561  80.707  1.00  0.00     0.000 C 
BRANCH   6   7
ATOM      7  C   UNL     1      57.820  33.542  80.115  1.00  0.00    -0.003 C 
ATOM      8  C   UNL     1      58.003  33.349  78.609  1.00  0.00     0.004 C 
ENDBRANCH   6   7
ENDBRANCH   1   6
TORSDOF 4
ENDMDL
MODEL 4
REMARK VINA RESULT:    -3.232      1.158      1.799
REMARK INTER + INTRA:          -4.226
REMARK INTER:                  -4.062
REMARK INTRA:                  -0.164
REMARK UNBOUND:                -0.238
REMARK SMILES CCCCCC(=O)[O-]
REMARK SMILES IDX 4 1 5 2 6 3 7 4 8 5 3 6 2 7 1 8
REMARK H PARENT
REMARK Flexibility Score: inf
ROOT
ATOM      1  C   UNL     1      59.027  35.620  81.094  1.00  0.00     0.006 C 
ENDROOT
BRANCH   1   2
ATOM      2  C   UNL     1      58.137  36.824  80.769  1.00  0.00     0.053 C 
BRANCH   2   3
ATOM      3  C   UNL     1      58.431  37.338  79.395  1.00  0.00     0.041 C 
ATOM      4  O   UNL     1      59.566  37.157  78.880  1.00  0.00    -0.550 OA
ATOM      5  O   UNL     1      57.437  37.975  78.663  1.00  0.00    -0.550 OA
ENDBRANCH   2   3
ENDBRANCH   1   2
BRANCH   1   6
ATOM      6  C   UNL     1      58.343  34.306  80.689  1.00  0.00     0.000 C 
BRANCH   6   7
ATOM      7  C   UNL     1      58.972  33.674  79.438  1.00  0.00    -0.003 C 
ATOM      8  C   UNL     1      57.935  33.045  78.508  1.00  0.00     0.004 C 
ENDBRANCH   6   7
ENDBRANCH   1   6
TORSDOF 4
ENDMDL
MODEL 5
REMARK VINA RESULT:    -3.219      2.100      3.675
REMARK INTER + INTRA:          -4.209
REMARK INTER:                  -4.044
REMARK INTRA:                  -0.165
REMARK UNBOUND:                -0.238
REMARK SMILES CCCCCC(=O)[O-]
REMARK SMILES IDX 4 1 5 2 6 3 7 4 8 5 3 6 2 7 1 8
REMARK H PARENT
REMARK Flexibility Score: inf
ROOT
ATOM      1  C   UNL     1      57.808  33.788  79.907  1.00  0.00     0.006 C 
ENDROOT
BRANCH   1   2
ATOM      2  C   UNL     1      58.031  33.109  78.552  1.00  0.00     0.053 C 
BRANCH   2   3
ATOM      3  C   UNL     1      57.593  34.005  77.437  1.00  0.00     0.041 C 
ATOM      4  O   UNL     1      57.256  35.195  77.675  1.00  0.00    -0.550 OA
ATOM      5  O   UNL     1      57.605  33.543  76.128  1.00  0.00    -0.550 OA
ENDBRANCH   2   3
ENDBRANCH   1   2
BRANCH   1   6
ATOM      6  C   UNL     1      59.138  34.264  80.508  1.00  0.00     0.000 C 
BRANCH   6   7
ATOM      7  C   UNL     1      58.969  35.485  81.425  1.00  0.00    -0.003 C 
ATOM      8  C   UNL     1      58.358  36.686  80.702  1.00  0.00     0.004 C 
ENDBRANCH   6   7
ENDBRANCH   1   6
TORSDOF 4
ENDMDL
MODEL 6
REMARK VINA RESULT:    -3.187      1.397      2.194
REMARK INTER + INTRA:          -4.169
REMARK INTER:                  -4.035
REMARK INTRA:                  -0.135
REMARK UNBOUND:                -0.238
REMARK SMILES CCCCCC(=O)[O-]
REMARK SMILES IDX 4 1 5 2 6 3 7 4 8 5 3 6 2 7 1 8
REMARK H PARENT
REMARK Flexibility Score: inf
ROOT
ATOM      1  C   UNL     1      57.452  35.625  78.467  1.00  0.00     0.006 C 
ENDROOT
BRANCH   1   2
ATOM      2  C   UNL     1      58.758  36.071  79.131  1.00  0.00     0.053 C 
BRANCH   2   3
ATOM      3  C   UNL     1      58.590  36.155  80.616  1.00  0.00     0.041 C 
ATOM      4  O   UNL     1      59.052  35.249  81.359  1.00  0.00    -0.550 OA
ATOM      5  O   UNL     1      57.967  37.260  81.183  1.00  0.00    -0.550 OA
ENDBRANCH   2   3
ENDBRANCH   1   2
BRANCH   1   6
ATOM      6  C   UNL     1      57.677  34.384  77.590  1.00  0.00     0.000 C 
BRANCH   6   7
ATOM      7  C   UNL     1      57.953  33.119  78.417  1.00  0.00    -0.003 C 
ATOM      8  C   UNL     1      58.338  31.920  77.550  1.00  0.00     0.004 C 
ENDBRANCH   6   7
ENDBRANCH   1   6
TORSDOF 4
ENDMDL
MODEL 7
REMARK VINA RESULT:    -3.006      2.531      3.501
REMARK INTER + INTRA:          -3.947
REMARK INTER:                  -3.717
REMARK INTRA:                  -0.229
REMARK UNBOUND:                -0.238
REMARK SMILES CCCCCC(=O)[O-]
REMARK SMILES IDX 4 1 5 2 6 3 7 4 8 5 3 6 2 7 1 8
REMARK H PARENT
REMARK Flexibility Score: inf
ROOT
ATOM      1  C   UNL     1      58.817  35.841  79.218  1.00  0.00     0.006 C 
ENDROOT
BRANCH   1   2
ATOM      2  C   UNL     1      59.037  34.529  79.977  1.00  0.00     0.053 C 
BRANCH   2   3
ATOM      3  C   UNL     1      57.925  33.568  79.696  1.00  0.00     0.041 C 
ATOM      4  O   UNL     1      57.686  33.203  78.515  1.00  0.00    -0.550 OA
ATOM      5  O   UNL     1      57.185  33.035  80.744  1.00  0.00    -0.550 OA
ENDBRANCH   2   3
ENDBRANCH   1   2
BRANCH   1   6
ATOM      6  C   UNL     1      57.987  36.826  80.053  1.00  0.00     0.000 C 
BRANCH   6   7
ATOM      7  C   UNL     1      56.761  37.358  79.294  1.00  0.00    -0.003 C 
ATOM      8  C   UNL     1      56.591  36.711  77.919  1.00  0.00     0.004 C 
ENDBRANCH   6   7
ENDBRANCH   1   6
TORSDOF 4
ENDMDL
MODEL 8
REMARK VINA RESULT:    -2.972      1.452      2.681
REMARK INTER + INTRA:          -3.905
REMARK INTER:                  -3.713
REMARK INTRA:                  -0.192
REMARK UNBOUND:                -0.238
REMARK SMILES CCCCCC(=O)[O-]
REMARK SMILES IDX 4 1 5 2 6 3 7 4 8 5 3 6 2 7 1 8
REMARK H PARENT
REMARK Flexibility Score: inf
ROOT
ATOM      1  C   UNL     1      58.070  35.556  77.834  1.00  0.00     0.006 C 
ENDROOT
BRANCH   1   2
ATOM      2  C   UNL     1      56.890  36.481  78.145  1.00  0.00     0.053 C 
BRANCH   2   3
ATOM      3  C   UNL     1      57.148  37.258  79.398  1.00  0.00     0.041 C 
ATOM      4  O   UNL     1      58.312  37.651  79.671  1.00  0.00    -0.550 OA
ATOM      5  O   UNL     1      56.094  37.591  80.238  1.00  0.00    -0.550 OA
ENDBRANCH   2   3
ENDBRANCH   1   2
BRANCH   1   6
ATOM      6  C   UNL     1      57.768  34.115  78.272  1.00  0.00     0.000 C 
BRANCH   6   7
ATOM      7  C   UNL     1      58.825  33.557  79.238  1.00  0.00    -0.003 C 
ATOM      8  C   UNL     1      58.830  34.276  80.586  1.00  0.00     0.004 C 
ENDBRANCH   6   7
ENDBRANCH   1   6
TORSDOF 4
ENDMDL
MODEL 9
REMARK VINA RESULT:    -2.970      2.438      3.408
REMARK INTER + INTRA:          -3.902
REMARK INTER:                  -3.700
REMARK INTRA:                  -0.202
REMARK UNBOUND:                -0.238
REMARK SMILES CCCCCC(=O)[O-]
REMARK SMILES IDX 4 1 5 2 6 3 7 4 8 5 3 6 2 7 1 8
REMARK H PARENT
REMARK Flexibility Score: inf
ROOT
ATOM      1  C   UNL     1      56.790  37.343  79.309  1.00  0.00     0.006 C 
ENDROOT
BRANCH   1   2
ATOM      2  C   UNL     1      57.848  37.190  80.406  1.00  0.00     0.053 C 
BRANCH   2   3
ATOM      3  C   UNL     1      58.386  35.794  80.425  1.00  0.00     0.041 C 
ATOM      4  O   UNL     1      58.168  35.017  79.458  1.00  0.00    -0.550 OA
ATOM      5  O   UNL     1      59.170  35.365  81.489  1.00  0.00    -0.550 OA
ENDBRANCH   2   3
ENDBRANCH   1   2
BRANCH   1   6
ATOM      6  C   UNL     1      57.294  38.257  78.183  1.00  0.00     0.000 C 
BRANCH   6   7
ATOM      7  C   UNL     1      57.107  37.636  76.790  1.00  0.00    -0.003 C 
ATOM      8  C   UNL     1      56.158  36.438  76.800  1.00  0.00     0.004 C 
ENDBRANCH   6   7
ENDBRANCH   1   6
TORSDOF 4
ENDMDL
