MODEL 1
REMARK VINA RESULT:    -3.756      0.000      0.000
REMARK INTER + INTRA:          -5.647
REMARK INTER:                  -5.074
REMARK INTRA:                  -0.573
REMARK UNBOUND:                -0.573
REMARK SMILES CCCCCCCC(=O)[O-]
REMARK SMILES IDX 5 1 6 2 7 3 8 4 9 5 10 6 4 7 3 8 2 9 1 10
REMARK H PARENT
REMARK Flexibility Score: inf
ROOT
ATOM      1  C   UNL     1     -11.023   1.218   5.024  1.00  0.00     0.000 C 
ENDROOT
BRANCH   1   2
ATOM      2  C   UNL     1     -10.490   2.433   5.804  1.00  0.00     0.006 C 
BRANCH   2   3
ATOM      3  C   UNL     1      -9.126   2.903   5.283  1.00  0.00     0.053 C 
BRANCH   3   4
ATOM      4  C   UNL     1      -7.995   2.303   6.060  1.00  0.00     0.041 C 
ATOM      5  O   UNL     1      -6.934   1.962   5.473  1.00  0.00    -0.550 OA
ATOM      6  O   UNL     1      -8.123   2.091   7.427  1.00  0.00    -0.550 OA
ENDBRANCH   3   4
ENDBRANCH   2   3
ENDBRANCH   1   2
BRANCH   1   7
ATOM      7  C   UNL     1     -10.943  -0.087   5.832  1.00  0.00     0.000 C 
BRANCH   7   8
ATOM      8  C   UNL     1      -9.672  -0.896   5.524  1.00  0.00    -0.000 C 
BRANCH   8   9
ATOM      9  C   UNL     1      -9.524  -1.208   4.026  1.00  0.00    -0.003 C 
ATOM     10  C   UNL     1      -8.314  -0.520   3.393  1.00  0.00     0.004 C 
ENDBRANCH   8   9
ENDBRANCH   7   8
ENDBRANCH   1   7
TORSDOF 6
ENDMDL
MODEL 2
REMARK VINA RESULT:    -3.561      1.639      2.252
REMARK INTER + INTRA:          -5.383
REMARK INTER:                  -4.902
REMARK INTRA:                  -0.480
REMARK UNBOUND:                -0.573
REMARK SMILES CCCCCCCC(=O)[O-]
REMARK SMILES IDX 5 1 6 2 7 3 8 4 9 5 10 6 4 7 3 8 2 9 1 10
REMARK H PARENT
REMARK Flexibility Score: inf
ROOT
ATOM      1  C   UNL     1      -9.734   2.445   5.109  1.00  0.00     0.000 C 
ENDROOT
BRANCH   1   2
ATOM      2  C   UNL     1      -8.438   2.124   5.874  1.00  0.00     0.006 C 
BRANCH   2   3
ATOM      3  C   UNL     1      -7.184   2.472   5.060  1.00  0.00     0.053 C 
BRANCH   3   4
ATOM      4  C   UNL     1      -6.977   3.952   4.960  1.00  0.00     0.041 C 
ATOM      5  O   UNL     1      -6.951   4.659   6.002  1.00  0.00    -0.550 OA
ATOM      6  O   UNL     1      -6.843   4.555   3.717  1.00  0.00    -0.550 OA
ENDBRANCH   3   4
ENDBRANCH   2   3
ENDBRANCH   1   2
BRANCH   1   7
ATOM      7  C   UNL     1     -10.384   1.195   4.494  1.00  0.00     0.000 C 
BRANCH   7   8
ATOM      8  C   UNL     1     -10.195  -0.059   5.365  1.00  0.00    -0.000 C 
BRANCH   8   9
ATOM      9  C   UNL     1      -9.427  -1.172   4.634  1.00  0.00    -0.003 C 
ATOM     10  C   UNL     1      -8.640  -0.658   3.429  1.00  0.00     0.004 C 
ENDBRANCH   8   9
ENDBRANCH   7   8
ENDBRANCH   1   7
TORSDOF 6
ENDMDL
MODEL 3
REMARK VINA RESULT:    -3.543     12.491     13.791
REMARK INTER + INTRA:          -5.359
REMARK INTER:                  -4.751
REMARK INTRA:                  -0.609
REMARK UNBOUND:                -0.573
REMARK SMILES CCCCCCCC(=O)[O-]
REMARK SMILES IDX 5 1 6 2 7 3 8 4 9 5 10 6 4 7 3 8 2 9 1 10
REMARK H PARENT
REMARK Flexibility Score: inf
ROOT
ATOM      1  C   UNL     1      -1.107 -11.402   6.674  1.00  0.00     0.000 C 
ENDROOT
BRANCH   1   2
ATOM      2  C   UNL     1       0.302 -10.791   6.765  1.00  0.00     0.006 C 
BRANCH   2   3
ATOM      3  C   UNL     1       0.654 -10.357   8.194  1.00  0.00     0.053 C 
BRANCH   3   4
ATOM      4  C   UNL     1       0.733  -8.867   8.322  1.00  0.00     0.041 C 
ATOM      5  O   UNL     1       1.124  -8.169   7.349  1.00  0.00    -0.550 OA
ATOM      6  O   UNL     1       0.405  -8.252   9.523  1.00  0.00    -0.550 OA
ENDBRANCH   3   4
ENDBRANCH   2   3
ENDBRANCH   1   2
BRANCH   1   7
ATOM      7  C   UNL     1      -2.140 -10.426   6.087  1.00  0.00     0.000 C 
BRANCH   7   8
ATOM      8  C   UNL     1      -2.902  -9.648   7.174  1.00  0.00    -0.000 C 
BRANCH   8   9
ATOM      9  C   UNL     1      -2.660  -8.133   7.090  1.00  0.00    -0.003 C 
ATOM     10  C   UNL     1      -2.185  -7.682   5.709  1.00  0.00     0.004 C 
ENDBRANCH   8   9
ENDBRANCH   7   8
ENDBRANCH   1   7
TORSDOF 6
ENDMDL
MODEL 4
REMARK VINA RESULT:    -3.448      1.953      2.736
REMARK INTER + INTRA:          -5.230
REMARK INTER:                  -4.749
REMARK INTRA:                  -0.481
REMARK UNBOUND:                -0.573
REMARK SMILES CCCCCCCC(=O)[O-]
REMARK SMILES IDX 5 1 6 2 7 3 8 4 9 5 10 6 4 7 3 8 2 9 1 10
REMARK H PARENT
REMARK Flexibility Score: inf
ROOT
ATOM      1  C   UNL     1     -10.300   1.755   6.137  1.00  0.00     0.000 C 
ENDROOT
BRANCH   1   2
ATOM      2  C   UNL     1     -11.207   0.813   6.948  1.00  0.00     0.006 C 
BRANCH   2   3
ATOM      3  C   UNL     1     -10.512   0.283   8.209  1.00  0.00     0.053 C 
BRANCH   3   4
ATOM      4  C   UNL     1      -9.229  -0.419   7.886  1.00  0.00     0.041 C 
ATOM      5  O   UNL     1      -9.233  -1.436   7.143  1.00  0.00    -0.550 OA
ATOM      6  O   UNL     1      -8.032   0.032   8.427  1.00  0.00    -0.550 OA
ENDBRANCH   3   4
ENDBRANCH   2   3
ENDBRANCH   1   2
BRANCH   1   7
ATOM      7  C   UNL     1     -10.042   1.247   4.710  1.00  0.00     0.000 C 
BRANCH   7   8
ATOM      8  C   UNL     1      -8.566   0.887   4.469  1.00  0.00    -0.000 C 
BRANCH   8   9
ATOM      9  C   UNL     1      -8.401  -0.313   3.523  1.00  0.00    -0.003 C 
ATOM     10  C   UNL     1      -9.457  -1.396   3.747  1.00  0.00     0.004 C 
ENDBRANCH   8   9
ENDBRANCH   7   8
ENDBRANCH   1   7
TORSDOF 6
ENDMDL
MODEL 5
REMARK VINA RESULT:    -3.347     13.266     14.418
REMARK INTER + INTRA:          -5.094
REMARK INTER:                  -4.553
REMARK INTRA:                  -0.541
REMARK UNBOUND:                -0.573
REMARK SMILES CCCCCCCC(=O)[O-]
REMARK SMILES IDX 5 1 6 2 7 3 8 4 9 5 10 6 4 7 3 8 2 9 1 10
REMARK H PARENT
REMARK Flexibility Score: inf
ROOT
ATOM      1  C   UNL     1      -2.072  -9.608   7.070  1.00  0.00     0.000 C 
ENDROOT
BRANCH   1   2
ATOM      2  C   UNL     1      -1.257  -8.379   6.628  1.00  0.00     0.006 C 
BRANCH   2   3
ATOM      3  C   UNL     1       0.254  -8.620   6.730  1.00  0.00     0.053 C 
BRANCH   3   4
ATOM      4  C   UNL     1       0.667  -8.998   8.119  1.00  0.00     0.041 C 
ATOM      5  O   UNL     1       0.499  -8.191   9.071  1.00  0.00    -0.550 OA
ATOM      6  O   UNL     1       1.265 -10.229   8.357  1.00  0.00    -0.550 OA
ENDBRANCH   3   4
ENDBRANCH   2   3
ENDBRANCH   1   2
BRANCH   1   7
ATOM      7  C   UNL     1      -2.220 -10.654   5.952  1.00  0.00     0.000 C 
BRANCH   7   8
ATOM      8  C   UNL     1      -1.425 -11.939   6.237  1.00  0.00    -0.000 C 
BRANCH   8   9
ATOM      9  C   UNL     1      -0.141 -12.033   5.397  1.00  0.00    -0.003 C 
ATOM     10  C   UNL     1       0.887 -12.998   5.988  1.00  0.00     0.004 C 
ENDBRANCH   8   9
ENDBRANCH   7   8
ENDBRANCH   1   7
TORSDOF 6
ENDMDL
MODEL 6
REMARK VINA RESULT:    -3.311      1.390      1.825
REMARK INTER + INTRA:          -5.045
REMARK INTER:                  -4.568
REMARK INTRA:                  -0.477
REMARK UNBOUND:                -0.573
REMARK SMILES CCCCCCCC(=O)[O-]
REMARK SMILES IDX 5 1 6 2 7 3 8 4 9 5 10 6 4 7 3 8 2 9 1 10
REMARK H PARENT
REMARK Flexibility Score: inf
ROOT
ATOM      1  C   UNL     1     -10.040   0.411   7.426  1.00  0.00     0.000 C 
ENDROOT
BRANCH   1   2
ATOM      2  C   UNL     1      -8.748   0.934   8.078  1.00  0.00     0.006 C 
BRANCH   2   3
ATOM      3  C   UNL     1      -8.374   2.336   7.579  1.00  0.00     0.053 C 
BRANCH   3   4
ATOM      4  C   UNL     1      -7.954   2.324   6.141  1.00  0.00     0.041 C 
ATOM      5  O   UNL     1      -6.821   1.880   5.817  1.00  0.00    -0.550 OA
ATOM      6  O   UNL     1      -8.800   2.829   5.163  1.00  0.00    -0.550 OA
ENDBRANCH   3   4
ENDBRANCH   2   3
ENDBRANCH   1   2
BRANCH   1   7
ATOM      7  C   UNL     1      -9.795  -0.805   6.517  1.00  0.00     0.000 C 
BRANCH   7   8
ATOM      8  C   UNL     1     -10.206  -0.543   5.058  1.00  0.00    -0.000 C 
BRANCH   8   9
ATOM      9  C   UNL     1      -9.296  -1.267   4.053  1.00  0.00    -0.003 C 
ATOM     10  C   UNL     1      -8.269  -0.338   3.405  1.00  0.00     0.004 C 
ENDBRANCH   8   9
ENDBRANCH   7   8
ENDBRANCH   1   7
TORSDOF 6
ENDMDL
MODEL 7
REMARK VINA RESULT:    -3.300     12.565     13.706
REMARK INTER + INTRA:          -5.030
REMARK INTER:                  -4.559
REMARK INTRA:                  -0.472
REMARK UNBOUND:                -0.573
REMARK SMILES CCCCCCCC(=O)[O-]
REMARK SMILES IDX 5 1 6 2 7 3 8 4 9 5 10 6 4 7 3 8 2 9 1 10
REMARK H PARENT
REMARK Flexibility Score: inf
ROOT
ATOM      1  C   UNL     1      -1.578  -8.217   6.617  1.00  0.00     0.000 C 
ENDROOT
BRANCH   1   2
ATOM      2  C   UNL     1      -0.397  -9.200   6.534  1.00  0.00     0.006 C 
BRANCH   2   3
ATOM      3  C   UNL     1       0.828  -8.699   7.310  1.00  0.00     0.053 C 
BRANCH   3   4
ATOM      4  C   UNL     1       0.757  -9.060   8.762  1.00  0.00     0.041 C 
ATOM      5  O   UNL     1       1.054 -10.225   9.139  1.00  0.00    -0.550 OA
ATOM      6  O   UNL     1       0.333  -8.122   9.693  1.00  0.00    -0.550 OA
ENDBRANCH   3   4
ENDBRANCH   2   3
ENDBRANCH   1   2
BRANCH   1   7
ATOM      7  C   UNL     1      -2.873  -8.886   7.106  1.00  0.00     0.000 C 
BRANCH   7   8
ATOM      8  C   UNL     1      -2.637 -10.308   7.642  1.00  0.00    -0.000 C 
BRANCH   8   9
ATOM      9  C   UNL     1      -3.497 -11.358   6.920  1.00  0.00    -0.003 C 
ATOM     10  C   UNL     1      -2.775 -12.007   5.739  1.00  0.00     0.004 C 
ENDBRANCH   8   9
ENDBRANCH   7   8
ENDBRANCH   1   7
TORSDOF 6
ENDMDL
MODEL 8
REMARK VINA RESULT:    -3.176      3.005      3.620
REMARK INTER + INTRA:          -4.864
REMARK INTER:                  -4.488
REMARK INTRA:                  -0.375
REMARK UNBOUND:                -0.573
REMARK SMILES CCCCCCCC(=O)[O-]
REMARK SMILES IDX 5 1 6 2 7 3 8 4 9 5 10 6 4 7 3 8 2 9 1 10
REMARK H PARENT
REMARK Flexibility Score: inf
ROOT
ATOM      1  C   UNL     1     -10.059   1.832   5.562  1.00  0.00     0.000 C 
ENDROOT
BRANCH   1   2
ATOM      2  C   UNL     1     -11.566   1.552   5.423  1.00  0.00     0.006 C 
BRANCH   2   3
ATOM      3  C   UNL     1     -12.360   2.041   6.642  1.00  0.00     0.053 C 
BRANCH   3   4
ATOM      4  C   UNL     1     -13.170   0.942   7.257  1.00  0.00     0.041 C 
ATOM      5  O   UNL     1     -13.450  -0.088   6.589  1.00  0.00    -0.550 OA
ATOM      6  O   UNL     1     -13.642   1.068   8.557  1.00  0.00    -0.550 OA
ENDBRANCH   3   4
ENDBRANCH   2   3
ENDBRANCH   1   2
BRANCH   1   7
ATOM      7  C   UNL     1      -9.234   0.552   5.772  1.00  0.00     0.000 C 
BRANCH   7   8
ATOM      8  C   UNL     1     -10.007  -0.719   5.378  1.00  0.00    -0.000 C 
BRANCH   8   9
ATOM      9  C   UNL     1      -9.485  -1.343   4.074  1.00  0.00    -0.003 C 
ATOM     10  C   UNL     1      -8.363  -0.527   3.432  1.00  0.00     0.004 C 
ENDBRANCH   8   9
ENDBRANCH   7   8
ENDBRANCH   1   7
TORSDOF 6
ENDMDL
MODEL 9
REMARK VINA RESULT:    -3.154      2.080      3.863
REMARK INTER + INTRA:          -4.833
REMARK INTER:                  -4.435
REMARK INTRA:                  -0.398
REMARK UNBOUND:                -0.573
REMARK SMILES CCCCCCCC(=O)[O-]
REMARK SMILES IDX 5 1 6 2 7 3 8 4 9 5 10 6 4 7 3 8 2 9 1 10
REMARK H PARENT
REMARK Flexibility Score: inf
ROOT
ATOM      1  C   UNL     1     -11.452   1.867   5.920  1.00  0.00     0.000 C 
ENDROOT
BRANCH   1   2
ATOM      2  C   UNL     1     -11.045   0.456   5.459  1.00  0.00     0.006 C 
BRANCH   2   3
ATOM      3  C   UNL     1     -10.029   0.495   4.309  1.00  0.00     0.053 C 
BRANCH   3   4
ATOM      4  C   UNL     1      -9.063  -0.648   4.379  1.00  0.00     0.041 C 
ATOM      5  O   UNL     1      -8.170  -0.776   3.500  1.00  0.00    -0.550 OA
ATOM      6  O   UNL     1      -9.167  -1.587   5.396  1.00  0.00    -0.550 OA
ENDBRANCH   3   4
ENDBRANCH   2   3
ENDBRANCH   1   2
BRANCH   1   7
ATOM      7  C   UNL     1     -10.690   2.977   5.178  1.00  0.00     0.000 C 
BRANCH   7   8
ATOM      8  C   UNL     1     -10.305   4.147   6.099  1.00  0.00    -0.000 C 
BRANCH   8   9
ATOM      9  C   UNL     1      -8.790   4.403   6.121  1.00  0.00    -0.003 C 
ATOM     10  C   UNL     1      -8.012   3.442   5.223  1.00  0.00     0.004 C 
ENDBRANCH   8   9
ENDBRANCH   7   8
ENDBRANCH   1   7
TORSDOF 6
ENDMDL
