MODEL 1
REMARK VINA RESULT:    -4.035      0.000      0.000
REMARK INTER + INTRA:          -9.449
REMARK INTER:                  -7.337
REMARK INTRA:                  -2.112
REMARK UNBOUND:                -2.112
REMARK SMILES CCCCCCCCCCCCCCCC(=O)[O-]
REMARK SMILES IDX 9 1 10 2 11 3 12 4 13 5 14 6 15 7 16 8 17 9 18 10 8 11 7 12
REMARK SMILES IDX 6 13 5 14 4 15 3 16 2 17 1 18
REMARK H PARENT
REMARK Flexibility Score: inf
ROOT
ATOM      1  C   UNL     1       6.736  37.131  -0.771  1.00  0.00     0.000 C 
ENDROOT
BRANCH   1   2
ATOM      2  C   UNL     1       7.387  36.950   0.611  1.00  0.00     0.000 C 
BRANCH   2   3
ATOM      3  C   UNL     1       8.921  37.091   0.574  1.00  0.00     0.000 C 
BRANCH   3   4
ATOM      4  C   UNL     1       9.699  35.908   1.179  1.00  0.00     0.000 C 
BRANCH   4   5
ATOM      5  C   UNL     1      10.090  34.851   0.135  1.00  0.00     0.000 C 
BRANCH   5   6
ATOM      6  C   UNL     1       9.092  33.684   0.134  1.00  0.00     0.006 C 
BRANCH   6   7
ATOM      7  C   UNL     1       9.282  32.757  -1.074  1.00  0.00     0.053 C 
BRANCH   7   8
ATOM      8  C   UNL     1      10.048  31.521  -0.709  1.00  0.00     0.041 C 
ATOM      9  O   UNL     1      10.954  31.089  -1.468  1.00  0.00    -0.550 OA
ATOM     10  O   UNL     1       9.738  30.830   0.456  1.00  0.00    -0.550 OA
ENDBRANCH   7   8
ENDBRANCH   6   7
ENDBRANCH   5   6
ENDBRANCH   4   5
ENDBRANCH   3   4
ENDBRANCH   2   3
ENDBRANCH   1   2
BRANCH   1  11
ATOM     11  C   UNL     1       7.514  36.414  -1.887  1.00  0.00     0.000 C 
BRANCH  11  12
ATOM     12  C   UNL     1       6.608  35.529  -2.761  1.00  0.00    -0.000 C 
BRANCH  12  13
ATOM     13  C   UNL     1       6.023  34.339  -1.984  1.00  0.00    -0.000 C 
BRANCH  13  14
ATOM     14  C   UNL     1       4.501  34.200  -2.168  1.00  0.00    -0.000 C 
BRANCH  14  15
ATOM     15  C   UNL     1       3.820  35.532  -2.530  1.00  0.00    -0.000 C 
BRANCH  15  16
ATOM     16  C   UNL     1       3.173  36.272  -1.345  1.00  0.00    -0.000 C 
BRANCH  16  17
ATOM     17  C   UNL     1       3.090  35.411  -0.076  1.00  0.00    -0.003 C 
ATOM     18  C   UNL     1       3.564  36.188   1.148  1.00  0.00     0.004 C 
ENDBRANCH  16  17
ENDBRANCH  15  16
ENDBRANCH  14  15
ENDBRANCH  13  14
ENDBRANCH  12  13
ENDBRANCH  11  12
ENDBRANCH   1  11
TORSDOF 14
ENDMDL
MODEL 2
REMARK VINA RESULT:    -4.001      2.083      4.065
REMARK INTER + INTRA:          -9.387
REMARK INTER:                  -7.191
REMARK INTRA:                  -2.196
REMARK UNBOUND:                -2.112
REMARK SMILES CCCCCCCCCCCCCCCC(=O)[O-]
REMARK SMILES IDX 9 1 10 2 11 3 12 4 13 5 14 6 15 7 16 8 17 9 18 10 8 11 7 12
REMARK SMILES IDX 6 13 5 14 4 15 3 16 2 17 1 18
REMARK H PARENT
REMARK Flexibility Score: inf
ROOT
ATOM      1  C   UNL     1       3.417  35.500  -2.519  1.00  0.00     0.000 C 
ENDROOT
BRANCH   1   2
ATOM      2  C   UNL     1       4.000  34.130  -2.129  1.00  0.00     0.000 C 
BRANCH   2   3
ATOM      3  C   UNL     1       5.491  34.199  -1.751  1.00  0.00     0.000 C 
BRANCH   3   4
ATOM      4  C   UNL     1       6.467  33.793  -2.872  1.00  0.00     0.000 C 
BRANCH   4   5
ATOM      5  C   UNL     1       7.824  33.311  -2.340  1.00  0.00     0.000 C 
BRANCH   5   6
ATOM      6  C   UNL     1       8.086  33.857  -0.928  1.00  0.00     0.006 C 
BRANCH   6   7
ATOM      7  C   UNL     1       9.571  33.801  -0.549  1.00  0.00     0.053 C 
BRANCH   7   8
ATOM      8  C   UNL     1      10.115  35.162  -0.236  1.00  0.00     0.041 C 
ATOM      9  O   UNL     1      10.373  35.485   0.953  1.00  0.00    -0.550 OA
ATOM     10  O   UNL     1      10.304  36.086  -1.256  1.00  0.00    -0.550 OA
ENDBRANCH   7   8
ENDBRANCH   6   7
ENDBRANCH   5   6
ENDBRANCH   4   5
ENDBRANCH   3   4
ENDBRANCH   2   3
ENDBRANCH   1   2
BRANCH   1  11
ATOM     11  C   UNL     1       4.039  36.654  -1.715  1.00  0.00     0.000 C 
BRANCH  11  12
ATOM     12  C   UNL     1       4.927  37.564  -2.583  1.00  0.00    -0.000 C 
BRANCH  12  13
ATOM     13  C   UNL     1       5.936  38.369  -1.749  1.00  0.00    -0.000 C 
BRANCH  13  14
ATOM     14  C   UNL     1       6.918  37.470  -0.976  1.00  0.00    -0.000 C 
BRANCH  14  15
ATOM     15  C   UNL     1       6.856  37.690   0.546  1.00  0.00    -0.000 C 
BRANCH  15  16
ATOM     16  C   UNL     1       6.983  36.410   1.392  1.00  0.00    -0.000 C 
BRANCH  16  17
ATOM     17  C   UNL     1       5.669  35.619   1.482  1.00  0.00    -0.003 C 
ATOM     18  C   UNL     1       4.543  36.486   2.036  1.00  0.00     0.004 C 
ENDBRANCH  16  17
ENDBRANCH  15  16
ENDBRANCH  14  15
ENDBRANCH  13  14
ENDBRANCH  12  13
ENDBRANCH  11  12
ENDBRANCH   1  11
TORSDOF 14
ENDMDL
MODEL 3
REMARK VINA RESULT:    -4.000      3.128      5.777
REMARK INTER + INTRA:          -9.385
REMARK INTER:                  -6.971
REMARK INTRA:                  -2.414
REMARK UNBOUND:                -2.112
REMARK SMILES CCCCCCCCCCCCCCCC(=O)[O-]
REMARK SMILES IDX 9 1 10 2 11 3 12 4 13 5 14 6 15 7 16 8 17 9 18 10 8 11 7 12
REMARK SMILES IDX 6 13 5 14 4 15 3 16 2 17 1 18
REMARK H PARENT
REMARK Flexibility Score: inf
ROOT
ATOM      1  C   UNL     1       5.425  34.231  -2.129  1.00  0.00     0.000 C 
ENDROOT
BRANCH   1   2
ATOM      2  C   UNL     1       4.922  35.685  -2.175  1.00  0.00     0.000 C 
BRANCH   2   3
ATOM      3  C   UNL     1       6.020  36.687  -2.577  1.00  0.00     0.000 C 
BRANCH   3   4
ATOM      4  C   UNL     1       6.552  37.567  -1.431  1.00  0.00     0.000 C 
BRANCH   4   5
ATOM      5  C   UNL     1       5.696  37.476  -0.159  1.00  0.00     0.000 C 
BRANCH   5   6
ATOM      6  C   UNL     1       6.460  36.766   0.968  1.00  0.00     0.006 C 
BRANCH   6   7
ATOM      7  C   UNL     1       5.720  35.523   1.479  1.00  0.00     0.053 C 
BRANCH   7   8
ATOM      8  C   UNL     1       4.283  35.820   1.785  1.00  0.00     0.041 C 
ATOM      9  O   UNL     1       3.369  35.344   1.062  1.00  0.00    -0.550 OA
ATOM     10  O   UNL     1       3.957  36.651   2.850  1.00  0.00    -0.550 OA
ENDBRANCH   7   8
ENDBRANCH   6   7
ENDBRANCH   5   6
ENDBRANCH   4   5
ENDBRANCH   3   4
ENDBRANCH   2   3
ENDBRANCH   1   2
BRANCH   1  11
ATOM     11  C   UNL     1       6.790  34.060  -2.816  1.00  0.00     0.000 C 
BRANCH  11  12
ATOM     12  C   UNL     1       7.786  33.261  -1.956  1.00  0.00    -0.000 C 
BRANCH  12  13
ATOM     13  C   UNL     1       8.246  34.040  -0.714  1.00  0.00    -0.000 C 
BRANCH  13  14
ATOM     14  C   UNL     1       9.743  33.843  -0.412  1.00  0.00    -0.000 C 
BRANCH  14  15
ATOM     15  C   UNL     1      10.511  35.173  -0.311  1.00  0.00    -0.000 C 
BRANCH  15  16
ATOM     16  C   UNL     1      10.063  36.258  -1.307  1.00  0.00    -0.000 C 
BRANCH  16  17
ATOM     17  C   UNL     1      10.248  37.682  -0.765  1.00  0.00    -0.003 C 
ATOM     18  C   UNL     1      10.194  37.701   0.759  1.00  0.00     0.004 C 
ENDBRANCH  16  17
ENDBRANCH  15  16
ENDBRANCH  14  15
ENDBRANCH  13  14
ENDBRANCH  12  13
ENDBRANCH  11  12
ENDBRANCH   1  11
TORSDOF 14
ENDMDL
MODEL 4
REMARK VINA RESULT:    -3.990      1.804      4.793
REMARK INTER + INTRA:          -9.367
REMARK INTER:                  -7.421
REMARK INTRA:                  -1.946
REMARK UNBOUND:                -2.112
REMARK SMILES CCCCCCCCCCCCCCCC(=O)[O-]
REMARK SMILES IDX 9 1 10 2 11 3 12 4 13 5 14 6 15 7 16 8 17 9 18 10 8 11 7 12
REMARK SMILES IDX 6 13 5 14 4 15 3 16 2 17 1 18
REMARK H PARENT
REMARK Flexibility Score: inf
ROOT
ATOM      1  C   UNL     1       5.478  35.622   0.312  1.00  0.00     0.000 C 
ENDROOT
BRANCH   1   2
ATOM      2  C   UNL     1       4.448  35.978  -0.773  1.00  0.00     0.000 C 
BRANCH   2   3
ATOM      3  C   UNL     1       4.759  35.325  -2.132  1.00  0.00     0.000 C 
BRANCH   3   4
ATOM      4  C   UNL     1       5.696  34.104  -2.070  1.00  0.00     0.000 C 
BRANCH   4   5
ATOM      5  C   UNL     1       6.994  34.302  -2.866  1.00  0.00     0.000 C 
BRANCH   5   6
ATOM      6  C   UNL     1       8.009  33.195  -2.547  1.00  0.00     0.006 C 
BRANCH   6   7
ATOM      7  C   UNL     1       8.442  33.209  -1.075  1.00  0.00     0.053 C 
BRANCH   7   8
ATOM      8  C   UNL     1       9.850  32.722  -0.907  1.00  0.00     0.041 C 
ATOM      9  O   UNL     1      10.814  33.527  -0.989  1.00  0.00    -0.550 OA
ATOM     10  O   UNL     1      10.096  31.372  -0.693  1.00  0.00    -0.550 OA
ENDBRANCH   7   8
ENDBRANCH   6   7
ENDBRANCH   5   6
ENDBRANCH   4   5
ENDBRANCH   3   4
ENDBRANCH   2   3
ENDBRANCH   1   2
BRANCH   1  11
ATOM     11  C   UNL     1       6.503  36.745   0.541  1.00  0.00     0.000 C 
BRANCH  11  12
ATOM     12  C   UNL     1       7.939  36.311   0.196  1.00  0.00    -0.000 C 
BRANCH  12  13
ATOM     13  C   UNL     1       8.542  37.134  -0.953  1.00  0.00    -0.000 C 
BRANCH  13  14
ATOM     14  C   UNL     1      10.081  37.138  -0.935  1.00  0.00    -0.000 C 
BRANCH  14  15
ATOM     15  C   UNL     1      10.674  38.556  -0.844  1.00  0.00    -0.000 C 
BRANCH  15  16
ATOM     16  C   UNL     1       9.994  39.477   0.186  1.00  0.00    -0.000 C 
BRANCH  16  17
ATOM     17  C   UNL     1      10.346  39.114   1.636  1.00  0.00    -0.003 C 
ATOM     18  C   UNL     1       9.087  38.887   2.466  1.00  0.00     0.004 C 
ENDBRANCH  16  17
ENDBRANCH  15  16
ENDBRANCH  14  15
ENDBRANCH  13  14
ENDBRANCH  12  13
ENDBRANCH  11  12
ENDBRANCH   1  11
TORSDOF 14
ENDMDL
MODEL 5
REMARK VINA RESULT:    -3.989      2.832      4.869
REMARK INTER + INTRA:          -9.366
REMARK INTER:                  -7.117
REMARK INTRA:                  -2.249
REMARK UNBOUND:                -2.112
REMARK SMILES CCCCCCCCCCCCCCCC(=O)[O-]
REMARK SMILES IDX 9 1 10 2 11 3 12 4 13 5 14 6 15 7 16 8 17 9 18 10 8 11 7 12
REMARK SMILES IDX 6 13 5 14 4 15 3 16 2 17 1 18
REMARK H PARENT
REMARK Flexibility Score: inf
ROOT
ATOM      1  C   UNL     1       4.183  36.678  -0.451  1.00  0.00     0.000 C 
ENDROOT
BRANCH   1   2
ATOM      2  C   UNL     1       5.024  36.948   0.808  1.00  0.00     0.000 C 
BRANCH   2   3
ATOM      3  C   UNL     1       5.530  35.657   1.479  1.00  0.00     0.000 C 
BRANCH   3   4
ATOM      4  C   UNL     1       7.015  35.333   1.234  1.00  0.00     0.000 C 
BRANCH   4   5
ATOM      5  C   UNL     1       7.764  36.461   0.510  1.00  0.00     0.000 C 
BRANCH   5   6
ATOM      6  C   UNL     1       9.215  36.056   0.214  1.00  0.00     0.006 C 
BRANCH   6   7
ATOM      7  C   UNL     1       9.829  36.882  -0.924  1.00  0.00     0.053 C 
BRANCH   7   8
ATOM      8  C   UNL     1      10.636  38.032  -0.402  1.00  0.00     0.041 C 
ATOM      9  O   UNL     1      10.826  39.050  -1.117  1.00  0.00    -0.550 OA
ATOM     10  O   UNL     1      11.205  37.963   0.863  1.00  0.00    -0.550 OA
ENDBRANCH   7   8
ENDBRANCH   6   7
ENDBRANCH   5   6
ENDBRANCH   4   5
ENDBRANCH   3   4
ENDBRANCH   2   3
ENDBRANCH   1   2
BRANCH   1  11
ATOM     11  C   UNL     1       3.917  35.179  -0.671  1.00  0.00     0.000 C 
BRANCH  11  12
ATOM     12  C   UNL     1       4.616  34.636  -1.930  1.00  0.00    -0.000 C 
BRANCH  12  13
ATOM     13  C   UNL     1       5.655  35.617  -2.495  1.00  0.00    -0.000 C 
BRANCH  13  14
ATOM     14  C   UNL     1       7.005  34.942  -2.797  1.00  0.00    -0.000 C 
BRANCH  14  15
ATOM     15  C   UNL     1       7.250  33.687  -1.939  1.00  0.00    -0.000 C 
BRANCH  15  16
ATOM     16  C   UNL     1       8.671  33.103  -2.036  1.00  0.00    -0.000 C 
BRANCH  16  17
ATOM     17  C   UNL     1       9.238  32.679  -0.673  1.00  0.00    -0.003 C 
ATOM     18  C   UNL     1      10.099  31.426  -0.802  1.00  0.00     0.004 C 
ENDBRANCH  16  17
ENDBRANCH  15  16
ENDBRANCH  14  15
ENDBRANCH  13  14
ENDBRANCH  12  13
ENDBRANCH  11  12
ENDBRANCH   1  11
TORSDOF 14
ENDMDL
MODEL 6
REMARK VINA RESULT:    -3.957      1.470      4.456
REMARK INTER + INTRA:          -9.308
REMARK INTER:                  -6.899
REMARK INTRA:                  -2.409
REMARK UNBOUND:                -2.112
REMARK SMILES CCCCCCCCCCCCCCCC(=O)[O-]
REMARK SMILES IDX 9 1 10 2 11 3 12 4 13 5 14 6 15 7 16 8 17 9 18 10 8 11 7 12
REMARK SMILES IDX 6 13 5 14 4 15 3 16 2 17 1 18
REMARK H PARENT
REMARK Flexibility Score: inf
ROOT
ATOM      1  C   UNL     1       3.270  36.565  -1.042  1.00  0.00     0.000 C 
ENDROOT
BRANCH   1   2
ATOM      2  C   UNL     1       3.805  36.029  -2.381  1.00  0.00     0.000 C 
BRANCH   2   3
ATOM      3  C   UNL     1       5.156  36.652  -2.779  1.00  0.00     0.000 C 
BRANCH   3   4
ATOM      4  C   UNL     1       6.382  35.746  -2.556  1.00  0.00     0.000 C 
BRANCH   4   5
ATOM      5  C   UNL     1       6.025  34.254  -2.509  1.00  0.00     0.000 C 
BRANCH   5   6
ATOM      6  C   UNL     1       7.284  33.393  -2.327  1.00  0.00     0.006 C 
BRANCH   6   7
ATOM      7  C   UNL     1       8.164  33.886  -1.171  1.00  0.00     0.053 C 
BRANCH   7   8
ATOM      8  C   UNL     1       9.562  33.358  -1.275  1.00  0.00     0.041 C 
ATOM      9  O   UNL     1      10.527  34.020  -0.809  1.00  0.00    -0.550 OA
ATOM     10  O   UNL     1       9.803  32.150  -1.917  1.00  0.00    -0.550 OA
ENDBRANCH   7   8
ENDBRANCH   6   7
ENDBRANCH   5   6
ENDBRANCH   4   5
ENDBRANCH   3   4
ENDBRANCH   2   3
ENDBRANCH   1   2
BRANCH   1  11
ATOM     11  C   UNL     1       3.544  35.605   0.127  1.00  0.00     0.000 C 
BRANCH  11  12
ATOM     12  C   UNL     1       4.521  36.196   1.159  1.00  0.00    -0.000 C 
BRANCH  12  13
ATOM     13  C   UNL     1       5.904  35.529   1.110  1.00  0.00    -0.000 C 
BRANCH  13  14
ATOM     14  C   UNL     1       7.057  36.547   1.170  1.00  0.00    -0.000 C 
BRANCH  14  15
ATOM     15  C   UNL     1       6.698  37.894   0.516  1.00  0.00    -0.000 C 
BRANCH  15  16
ATOM     16  C   UNL     1       7.742  38.430  -0.480  1.00  0.00    -0.000 C 
BRANCH  16  17
ATOM     17  C   UNL     1       8.934  37.479  -0.666  1.00  0.00    -0.003 C 
ATOM     18  C   UNL     1      10.248  38.252  -0.729  1.00  0.00     0.004 C 
ENDBRANCH  16  17
ENDBRANCH  15  16
ENDBRANCH  14  15
ENDBRANCH  13  14
ENDBRANCH  12  13
ENDBRANCH  11  12
ENDBRANCH   1  11
TORSDOF 14
ENDMDL
MODEL 7
REMARK VINA RESULT:    -3.941      2.021      4.465
REMARK INTER + INTRA:          -9.279
REMARK INTER:                  -6.984
REMARK INTRA:                  -2.295
REMARK UNBOUND:                -2.112
REMARK SMILES CCCCCCCCCCCCCCCC(=O)[O-]
REMARK SMILES IDX 9 1 10 2 11 3 12 4 13 5 14 6 15 7 16 8 17 9 18 10 8 11 7 12
REMARK SMILES IDX 6 13 5 14 4 15 3 16 2 17 1 18
REMARK H PARENT
REMARK Flexibility Score: inf
ROOT
ATOM      1  C   UNL     1       2.875  34.668  -1.417  1.00  0.00     0.000 C 
ENDROOT
BRANCH   1   2
ATOM      2  C   UNL     1       3.846  33.768  -2.203  1.00  0.00     0.000 C 
BRANCH   2   3
ATOM      3  C   UNL     1       5.225  34.419  -2.418  1.00  0.00     0.000 C 
BRANCH   3   4
ATOM      4  C   UNL     1       6.406  33.434  -2.495  1.00  0.00     0.000 C 
BRANCH   4   5
ATOM      5  C   UNL     1       7.766  34.109  -2.266  1.00  0.00     0.000 C 
BRANCH   5   6
ATOM      6  C   UNL     1       8.448  33.557  -1.005  1.00  0.00     0.006 C 
BRANCH   6   7
ATOM      7  C   UNL     1       9.963  33.797  -1.011  1.00  0.00     0.053 C 
BRANCH   7   8
ATOM      8  C   UNL     1      10.312  35.150  -0.470  1.00  0.00     0.041 C 
ATOM      9  O   UNL     1      10.381  35.339   0.773  1.00  0.00    -0.550 OA
ATOM     10  O   UNL     1      10.527  36.211  -1.340  1.00  0.00    -0.550 OA
ENDBRANCH   7   8
ENDBRANCH   6   7
ENDBRANCH   5   6
ENDBRANCH   4   5
ENDBRANCH   3   4
ENDBRANCH   2   3
ENDBRANCH   1   2
BRANCH   1  11
ATOM     11  C   UNL     1       3.602  35.768  -0.626  1.00  0.00     0.000 C 
BRANCH  11  12
ATOM     12  C   UNL     1       3.429  35.611   0.895  1.00  0.00    -0.000 C 
BRANCH  12  13
ATOM     13  C   UNL     1       4.679  36.046   1.677  1.00  0.00    -0.000 C 
BRANCH  13  14
ATOM     14  C   UNL     1       5.963  35.368   1.167  1.00  0.00    -0.000 C 
BRANCH  14  15
ATOM     15  C   UNL     1       7.204  36.271   1.288  1.00  0.00    -0.000 C 
BRANCH  15  16
ATOM     16  C   UNL     1       7.081  37.637   0.587  1.00  0.00    -0.000 C 
BRANCH  16  17
ATOM     17  C   UNL     1       7.333  37.558  -0.926  1.00  0.00    -0.003 C 
ATOM     18  C   UNL     1       6.106  38.010  -1.711  1.00  0.00     0.004 C 
ENDBRANCH  16  17
ENDBRANCH  15  16
ENDBRANCH  14  15
ENDBRANCH  13  14
ENDBRANCH  12  13
ENDBRANCH  11  12
ENDBRANCH   1  11
TORSDOF 14
ENDMDL
MODEL 8
REMARK VINA RESULT:    -3.932      1.533      2.880
REMARK INTER + INTRA:          -9.262
REMARK INTER:                  -7.179
REMARK INTRA:                  -2.083
REMARK UNBOUND:                -2.112
REMARK SMILES CCCCCCCCCCCCCCCC(=O)[O-]
REMARK SMILES IDX 9 1 10 2 11 3 12 4 13 5 14 6 15 7 16 8 17 9 18 10 8 11 7 12
REMARK SMILES IDX 6 13 5 14 4 15 3 16 2 17 1 18
REMARK H PARENT
REMARK Flexibility Score: inf
ROOT
ATOM      1  C   UNL     1       8.677  37.748   1.932  1.00  0.00     0.000 C 
ENDROOT
BRANCH   1   2
ATOM      2  C   UNL     1      10.113  37.225   1.754  1.00  0.00     0.000 C 
BRANCH   2   3
ATOM      3  C   UNL     1      10.831  37.847   0.542  1.00  0.00     0.000 C 
BRANCH   3   4
ATOM      4  C   UNL     1      11.009  36.905  -0.664  1.00  0.00     0.000 C 
BRANCH   4   5
ATOM      5  C   UNL     1      10.494  35.484  -0.396  1.00  0.00     0.000 C 
BRANCH   5   6
ATOM      6  C   UNL     1       9.332  35.134  -1.339  1.00  0.00     0.006 C 
BRANCH   6   7
ATOM      7  C   UNL     1       8.571  33.882  -0.884  1.00  0.00     0.053 C 
BRANCH   7   8
ATOM      8  C   UNL     1       9.376  32.636  -1.099  1.00  0.00     0.041 C 
ATOM      9  O   UNL     1       9.589  31.845  -0.144  1.00  0.00    -0.550 OA
ATOM     10  O   UNL     1       9.918  32.367  -2.350  1.00  0.00    -0.550 OA
ENDBRANCH   7   8
ENDBRANCH   6   7
ENDBRANCH   5   6
ENDBRANCH   4   5
ENDBRANCH   3   4
ENDBRANCH   2   3
ENDBRANCH   1   2
BRANCH   1  11
ATOM     11  C   UNL     1       7.618  36.683   1.603  1.00  0.00     0.000 C 
BRANCH  11  12
ATOM     12  C   UNL     1       6.542  37.203   0.633  1.00  0.00    -0.000 C 
BRANCH  12  13
ATOM     13  C   UNL     1       7.146  37.856  -0.620  1.00  0.00    -0.000 C 
BRANCH  13  14
ATOM     14  C   UNL     1       6.172  37.866  -1.812  1.00  0.00    -0.000 C 
BRANCH  14  15
ATOM     15  C   UNL     1       6.049  36.491  -2.493  1.00  0.00    -0.000 C 
BRANCH  15  16
ATOM     16  C   UNL     1       4.720  35.757  -2.237  1.00  0.00    -0.000 C 
BRANCH  16  17
ATOM     17  C   UNL     1       4.904  34.249  -2.006  1.00  0.00    -0.003 C 
ATOM     18  C   UNL     1       3.619  33.487  -2.312  1.00  0.00     0.004 C 
ENDBRANCH  16  17
ENDBRANCH  15  16
ENDBRANCH  14  15
ENDBRANCH  13  14
ENDBRANCH  12  13
ENDBRANCH  11  12
ENDBRANCH   1  11
TORSDOF 14
ENDMDL
MODEL 9
REMARK VINA RESULT:    -3.893      2.881      4.566
REMARK INTER + INTRA:          -9.192
REMARK INTER:                  -6.741
REMARK INTRA:                  -2.450
REMARK UNBOUND:                -2.112
REMARK SMILES CCCCCCCCCCCCCCCC(=O)[O-]
REMARK SMILES IDX 9 1 10 2 11 3 12 4 13 5 14 6 15 7 16 8 17 9 18 10 8 11 7 12
REMARK SMILES IDX 6 13 5 14 4 15 3 16 2 17 1 18
REMARK H PARENT
REMARK Flexibility Score: inf
ROOT
ATOM      1  C   UNL     1       3.577  35.683   1.105  1.00  0.00     0.000 C 
ENDROOT
BRANCH   1   2
ATOM      2  C   UNL     1       4.820  35.635   2.012  1.00  0.00     0.000 C 
BRANCH   2   3
ATOM      3  C   UNL     1       6.141  35.673   1.221  1.00  0.00     0.000 C 
BRANCH   3   4
ATOM      4  C   UNL     1       6.890  37.018   1.266  1.00  0.00     0.000 C 
BRANCH   4   5
ATOM      5  C   UNL     1       8.372  36.891   0.888  1.00  0.00     0.000 C 
BRANCH   5   6
ATOM      6  C   UNL     1       8.605  37.312  -0.571  1.00  0.00     0.006 C 
BRANCH   6   7
ATOM      7  C   UNL     1      10.019  36.968  -1.057  1.00  0.00     0.053 C 
BRANCH   7   8
ATOM      8  C   UNL     1      11.014  38.012  -0.651  1.00  0.00     0.041 C 
ATOM      9  O   UNL     1      12.134  37.675  -0.185  1.00  0.00    -0.550 OA
ATOM     10  O   UNL     1      10.690  39.359  -0.756  1.00  0.00    -0.550 OA
ENDBRANCH   7   8
ENDBRANCH   6   7
ENDBRANCH   5   6
ENDBRANCH   4   5
ENDBRANCH   3   4
ENDBRANCH   2   3
ENDBRANCH   1   2
BRANCH   1  11
ATOM     11  C   UNL     1       3.258  37.106   0.620  1.00  0.00     0.000 C 
BRANCH  11  12
ATOM     12  C   UNL     1       3.210  37.208  -0.915  1.00  0.00    -0.000 C 
BRANCH  12  13
ATOM     13  C   UNL     1       4.534  37.707  -1.513  1.00  0.00    -0.000 C 
BRANCH  13  14
ATOM     14  C   UNL     1       5.159  36.700  -2.496  1.00  0.00    -0.000 C 
BRANCH  14  15
ATOM     15  C   UNL     1       4.500  35.311  -2.425  1.00  0.00    -0.000 C 
BRANCH  15  16
ATOM     16  C   UNL     1       5.474  34.143  -2.183  1.00  0.00    -0.000 C 
BRANCH  16  17
ATOM     17  C   UNL     1       6.947  34.559  -2.302  1.00  0.00    -0.003 C 
ATOM     18  C   UNL     1       7.832  33.708  -1.397  1.00  0.00     0.004 C 
ENDBRANCH  16  17
ENDBRANCH  15  16
ENDBRANCH  14  15
ENDBRANCH  13  14
ENDBRANCH  12  13
ENDBRANCH  11  12
ENDBRANCH   1  11
TORSDOF 14
ENDMDL
