MODEL 1
REMARK VINA RESULT:    -5.034      0.000      0.000
REMARK INTER + INTRA:          -5.181
REMARK INTER:                  -5.181
REMARK INTRA:                   0.000
REMARK UNBOUND:                 0.000
REMARK SMILES C[C@H]1CC[C@@H]2C(C)(C)[C@@H]3C[C@@]21CC[C@@]3(C)O
REMARK SMILES IDX 1 1 2 2 3 3 4 4 5 5 11 6 12 7 13 8 14 9 9 10 10 11 6 12 7 13
REMARK SMILES IDX 8 14 15 15 16 16
REMARK H PARENT 16 17
REMARK Flexibility Score: inf
ROOT
ATOM      1  C   UNL     1     117.718 117.755 123.109  1.00  0.00     0.008 C 
ATOM      2  C   UNL     1     116.513 116.886 122.706  1.00  0.00    -0.008 C 
ATOM      3  C   UNL     1     115.277 117.762 122.490  1.00  0.00     0.004 C 
ATOM      4  C   UNL     1     115.293 118.146 121.017  1.00  0.00     0.005 C 
ATOM      5  C   UNL     1     116.045 117.022 120.270  1.00  0.00     0.001 C 
ATOM      6  C   UNL     1     116.688 116.134 121.360  1.00  0.00    -0.023 C 
ATOM      7  C   UNL     1     118.150 115.736 120.984  1.00  0.00     0.010 C 
ATOM      8  C   UNL     1     118.241 115.048 119.598  1.00  0.00     0.036 C 
ATOM      9  C   UNL     1     117.084 114.041 119.326  1.00  0.00     0.065 C 
ATOM     10  C   UNL     1     115.696 114.613 119.837  1.00  0.00     0.027 C 
ATOM     11  C   UNL     1     115.854 114.850 121.337  1.00  0.00     0.014 C 
ATOM     12  C   UNL     1     115.227 116.037 119.353  1.00  0.00    -0.026 C 
ATOM     13  C   UNL     1     115.480 116.340 117.858  1.00  0.00     0.012 C 
ATOM     14  C   UNL     1     113.684 116.130 119.548  1.00  0.00     0.012 C 
ATOM     15  C   UNL     1     117.060 113.639 117.831  1.00  0.00     0.042 C 
ENDROOT
BRANCH   9  16
ATOM     16  O   UNL     1     117.388 112.868 120.052  1.00  0.00    -0.390 OA
ATOM     17  H   UNL     1     117.035 112.977 120.975  1.00  0.00     0.211 HD
ENDBRANCH   9  16
TORSDOF 1
ENDMDL
MODEL 2
REMARK VINA RESULT:    -5.028      1.994      2.966
REMARK INTER + INTRA:          -5.175
REMARK INTER:                  -5.175
REMARK INTRA:                   0.000
REMARK UNBOUND:                 0.000
REMARK SMILES C[C@H]1CC[C@@H]2C(C)(C)[C@@H]3C[C@@]21CC[C@@]3(C)O
REMARK SMILES IDX 1 1 2 2 3 3 4 4 5 5 11 6 12 7 13 8 14 9 9 10 10 11 6 12 7 13
REMARK SMILES IDX 8 14 15 15 16 16
REMARK H PARENT 16 17
REMARK Flexibility Score: inf
ROOT
ATOM      1  C   UNL     1     117.749 115.502 123.125  1.00  0.00     0.008 C 
ATOM      2  C   UNL     1     116.901 116.712 122.695  1.00  0.00    -0.008 C 
ATOM      3  C   UNL     1     117.803 117.918 122.419  1.00  0.00     0.004 C 
ATOM      4  C   UNL     1     118.158 117.840 120.940  1.00  0.00     0.005 C 
ATOM      5  C   UNL     1     117.003 117.090 120.242  1.00  0.00     0.001 C 
ATOM      6  C   UNL     1     116.121 116.509 121.370  1.00  0.00    -0.023 C 
ATOM      7  C   UNL     1     115.681 115.044 121.054  1.00  0.00     0.010 C 
ATOM      8  C   UNL     1     114.965 114.920 119.685  1.00  0.00     0.036 C 
ATOM      9  C   UNL     1     113.980 116.091 119.389  1.00  0.00     0.065 C 
ATOM     10  C   UNL     1     114.595 117.482 119.839  1.00  0.00     0.027 C 
ATOM     11  C   UNL     1     114.857 117.372 121.340  1.00  0.00     0.014 C 
ATOM     12  C   UNL     1     116.021 117.899 119.313  1.00  0.00    -0.026 C 
ATOM     13  C   UNL     1     116.290 117.585 117.824  1.00  0.00     0.012 C 
ATOM     14  C   UNL     1     116.154 119.445 119.451  1.00  0.00     0.012 C 
ATOM     15  C   UNL     1     113.551 116.072 117.901  1.00  0.00     0.042 C 
ENDROOT
BRANCH   9  16
ATOM     16  O   UNL     1     112.815 115.843 120.146  1.00  0.00    -0.390 OA
ATOM     17  H   UNL     1     113.078 115.767 121.102  1.00  0.00     0.211 HD
ENDBRANCH   9  16
TORSDOF 1
ENDMDL
MODEL 3
REMARK VINA RESULT:    -5.003      2.003      2.966
REMARK INTER + INTRA:          -5.149
REMARK INTER:                  -5.149
REMARK INTRA:                   0.000
REMARK UNBOUND:                 0.000
REMARK SMILES C[C@H]1CC[C@@H]2C(C)(C)[C@@H]3C[C@@]21CC[C@@]3(C)O
REMARK SMILES IDX 1 1 2 2 3 3 4 4 5 5 11 6 12 7 13 8 14 9 9 10 10 11 6 12 7 13
REMARK SMILES IDX 8 14 15 15 16 16
REMARK H PARENT 16 17
REMARK Flexibility Score: inf
ROOT
ATOM      1  C   UNL     1     115.430 117.689 123.044  1.00  0.00     0.008 C 
ATOM      2  C   UNL     1     116.281 116.483 122.607  1.00  0.00    -0.008 C 
ATOM      3  C   UNL     1     115.382 115.279 122.318  1.00  0.00     0.004 C 
ATOM      4  C   UNL     1     115.032 115.368 120.839  1.00  0.00     0.005 C 
ATOM      5  C   UNL     1     116.189 116.125 120.151  1.00  0.00     0.001 C 
ATOM      6  C   UNL     1     117.066 116.699 121.287  1.00  0.00    -0.023 C 
ATOM      7  C   UNL     1     117.506 118.166 120.985  1.00  0.00     0.010 C 
ATOM      8  C   UNL     1     118.227 118.302 119.619  1.00  0.00     0.036 C 
ATOM      9  C   UNL     1     119.214 117.135 119.318  1.00  0.00     0.065 C 
ATOM     10  C   UNL     1     118.600 115.739 119.755  1.00  0.00     0.027 C 
ATOM     11  C   UNL     1     118.332 115.837 121.255  1.00  0.00     0.014 C 
ATOM     12  C   UNL     1     117.176 115.325 119.220  1.00  0.00    -0.026 C 
ATOM     13  C   UNL     1     116.913 115.650 117.732  1.00  0.00     0.012 C 
ATOM     14  C   UNL     1     117.045 113.777 119.345  1.00  0.00     0.012 C 
ATOM     15  C   UNL     1     119.649 117.166 117.832  1.00  0.00     0.042 C 
ENDROOT
BRANCH   9  16
ATOM     16  O   UNL     1     120.376 117.378 120.082  1.00  0.00    -0.390 OA
ATOM     17  H   UNL     1     120.094 117.623 121.003  1.00  0.00     0.211 HD
ENDBRANCH   9  16
TORSDOF 1
ENDMDL
MODEL 4
REMARK VINA RESULT:    -4.969      2.574      4.150
REMARK INTER + INTRA:          -5.114
REMARK INTER:                  -5.114
REMARK INTRA:                   0.000
REMARK UNBOUND:                 0.000
REMARK SMILES C[C@H]1CC[C@@H]2C(C)(C)[C@@H]3C[C@@]21CC[C@@]3(C)O
REMARK SMILES IDX 1 1 2 2 3 3 4 4 5 5 11 6 12 7 13 8 14 9 9 10 10 11 6 12 7 13
REMARK SMILES IDX 8 14 15 15 16 16
REMARK H PARENT 16 17
REMARK Flexibility Score: inf
ROOT
ATOM      1  C   UNL     1     115.502 115.474 123.125  1.00  0.00     0.008 C 
ATOM      2  C   UNL     1     116.719 116.268 122.618  1.00  0.00    -0.008 C 
ATOM      3  C   UNL     1     117.869 115.315 122.281  1.00  0.00     0.004 C 
ATOM      4  C   UNL     1     117.691 114.954 120.813  1.00  0.00     0.005 C 
ATOM      5  C   UNL     1     116.949 116.135 120.149  1.00  0.00     0.001 C 
ATOM      6  C   UNL     1     116.471 117.048 121.301  1.00  0.00    -0.023 C 
ATOM      7  C   UNL     1     115.010 117.547 121.066  1.00  0.00     0.010 C 
ATOM      8  C   UNL     1     114.837 118.259 119.701  1.00  0.00     0.036 C 
ATOM      9  C   UNL     1     116.028 119.192 119.329  1.00  0.00     0.065 C 
ATOM     10  C   UNL     1     117.417 118.523 119.704  1.00  0.00     0.027 C 
ATOM     11  C   UNL     1     117.383 118.275 121.210  1.00  0.00     0.014 C 
ATOM     12  C   UNL     1     117.743 117.077 119.166  1.00  0.00    -0.026 C 
ATOM     13  C   UNL     1     117.332 116.812 117.700  1.00  0.00     0.012 C 
ATOM     14  C   UNL     1     119.288 116.881 119.216  1.00  0.00     0.012 C 
ATOM     15  C   UNL     1     115.940 119.612 117.841  1.00  0.00     0.042 C 
ENDROOT
BRANCH   9  16
ATOM     16  O   UNL     1     115.873 120.371 120.090  1.00  0.00    -0.390 OA
ATOM     17  H   UNL     1     116.538 120.353 120.828  1.00  0.00     0.211 HD
ENDBRANCH   9  16
TORSDOF 1
ENDMDL
MODEL 5
REMARK VINA RESULT:    -4.817      2.238      3.804
REMARK INTER + INTRA:          -4.958
REMARK INTER:                  -4.958
REMARK INTRA:                   0.000
REMARK UNBOUND:                 0.000
REMARK SMILES C[C@H]1CC[C@@H]2C(C)(C)[C@@H]3C[C@@]21CC[C@@]3(C)O
REMARK SMILES IDX 1 1 2 2 3 3 4 4 5 5 11 6 12 7 13 8 14 9 9 10 10 11 6 12 7 13
REMARK SMILES IDX 8 14 15 15 16 16
REMARK H PARENT 16 17
REMARK Flexibility Score: inf
ROOT
ATOM      1  C   UNL     1     119.645 116.980 117.556  1.00  0.00     0.008 C 
ATOM      2  C   UNL     1     118.945 117.946 118.528  1.00  0.00    -0.008 C 
ATOM      3  C   UNL     1     117.936 118.815 117.775  1.00  0.00     0.004 C 
ATOM      4  C   UNL     1     116.616 118.058 117.826  1.00  0.00     0.005 C 
ATOM      5  C   UNL     1     116.651 117.185 119.100  1.00  0.00     0.001 C 
ATOM      6  C   UNL     1     118.103 117.249 119.628  1.00  0.00    -0.023 C 
ATOM      7  C   UNL     1     118.606 115.843 120.087  1.00  0.00     0.010 C 
ATOM      8  C   UNL     1     117.672 115.192 121.139  1.00  0.00     0.036 C 
ATOM      9  C   UNL     1     117.140 116.195 122.205  1.00  0.00     0.065 C 
ATOM     10  C   UNL     1     116.741 117.578 121.540  1.00  0.00     0.027 C 
ATOM     11  C   UNL     1     118.008 118.121 120.882  1.00  0.00     0.014 C 
ATOM     12  C   UNL     1     115.741 117.585 120.322  1.00  0.00    -0.026 C 
ATOM     13  C   UNL     1     114.540 116.620 120.451  1.00  0.00     0.012 C 
ATOM     14  C   UNL     1     115.126 119.013 120.209  1.00  0.00     0.012 C 
ATOM     15  C   UNL     1     115.986 115.557 123.016  1.00  0.00     0.042 C 
ENDROOT
BRANCH   9  16
ATOM     16  O   UNL     1     118.196 116.417 123.116  1.00  0.00    -0.390 OA
ATOM     17  H   UNL     1     117.907 116.092 124.009  1.00  0.00     0.211 HD
ENDBRANCH   9  16
TORSDOF 1
ENDMDL
MODEL 6
REMARK VINA RESULT:    -4.812      2.220      3.902
REMARK INTER + INTRA:          -4.953
REMARK INTER:                  -4.953
REMARK INTRA:                   0.000
REMARK UNBOUND:                 0.000
REMARK SMILES C[C@H]1CC[C@@H]2C(C)(C)[C@@H]3C[C@@]21CC[C@@]3(C)O
REMARK SMILES IDX 1 1 2 2 3 3 4 4 5 5 11 6 12 7 13 8 14 9 9 10 10 11 6 12 7 13
REMARK SMILES IDX 8 14 15 15 16 16
REMARK H PARENT 16 17
REMARK Flexibility Score: inf
ROOT
ATOM      1  C   UNL     1     116.252 119.671 117.564  1.00  0.00     0.008 C 
ATOM      2  C   UNL     1     115.262 118.947 118.495  1.00  0.00    -0.008 C 
ATOM      3  C   UNL     1     114.425 117.944 117.698  1.00  0.00     0.004 C 
ATOM      4  C   UNL     1     115.193 116.630 117.750  1.00  0.00     0.005 C 
ATOM      5  C   UNL     1     116.025 116.650 119.051  1.00  0.00     0.001 C 
ATOM      6  C   UNL     1     115.933 118.091 119.601  1.00  0.00    -0.023 C 
ATOM      7  C   UNL     1     117.319 118.598 120.111  1.00  0.00     0.010 C 
ATOM      8  C   UNL     1     117.945 117.652 121.167  1.00  0.00     0.036 C 
ATOM      9  C   UNL     1     116.915 117.093 122.193  1.00  0.00     0.065 C 
ATOM     10  C   UNL     1     115.556 116.694 121.478  1.00  0.00     0.027 C 
ATOM     11  C   UNL     1     115.023 117.968 120.826  1.00  0.00     0.014 C 
ATOM     12  C   UNL     1     115.596 115.715 120.244  1.00  0.00    -0.026 C 
ATOM     13  C   UNL     1     116.567 114.521 120.383  1.00  0.00     0.012 C 
ATOM     14  C   UNL     1     114.178 115.091 120.077  1.00  0.00     0.012 C 
ATOM     15  C   UNL     1     117.537 115.930 123.004  1.00  0.00     0.042 C 
ENDROOT
BRANCH   9  16
ATOM     16  O   UNL     1     116.655 118.132 123.114  1.00  0.00    -0.390 OA
ATOM     17  H   UNL     1     115.771 117.959 123.534  1.00  0.00     0.211 HD
ENDBRANCH   9  16
TORSDOF 1
ENDMDL
MODEL 7
REMARK VINA RESULT:    -4.809      1.674      4.341
REMARK INTER + INTRA:          -4.950
REMARK INTER:                  -4.950
REMARK INTRA:                   0.000
REMARK UNBOUND:                 0.000
REMARK SMILES C[C@H]1CC[C@@H]2C(C)(C)[C@@H]3C[C@@]21CC[C@@]3(C)O
REMARK SMILES IDX 1 1 2 2 3 3 4 4 5 5 11 6 12 7 13 8 14 9 9 10 10 11 6 12 7 13
REMARK SMILES IDX 8 14 15 15 16 16
REMARK H PARENT 16 17
REMARK Flexibility Score: inf
ROOT
ATOM      1  C   UNL     1     117.004 113.508 117.581  1.00  0.00     0.008 C 
ATOM      2  C   UNL     1     117.959 114.243 118.539  1.00  0.00    -0.008 C 
ATOM      3  C   UNL     1     118.800 115.263 117.768  1.00  0.00     0.004 C 
ATOM      4  C   UNL     1     118.011 116.565 117.806  1.00  0.00     0.005 C 
ATOM      5  C   UNL     1     117.147 116.526 119.085  1.00  0.00     0.001 C 
ATOM      6  C   UNL     1     117.247 115.083 119.631  1.00  0.00    -0.023 C 
ATOM      7  C   UNL     1     115.857 114.553 120.104  1.00  0.00     0.010 C 
ATOM      8  C   UNL     1     115.189 115.484 121.148  1.00  0.00     0.036 C 
ATOM      9  C   UNL     1     116.184 116.054 122.202  1.00  0.00     0.065 C 
ATOM     10  C   UNL     1     117.555 116.477 121.524  1.00  0.00     0.027 C 
ATOM     11  C   UNL     1     118.124 115.215 120.880  1.00  0.00     0.014 C 
ATOM     12  C   UNL     1     117.531 117.461 120.294  1.00  0.00    -0.026 C 
ATOM     13  C   UNL     1     116.538 118.640 120.413  1.00  0.00     0.012 C 
ATOM     14  C   UNL     1     118.943 118.107 120.165  1.00  0.00     0.012 C 
ATOM     15  C   UNL     1     115.524 117.203 123.002  1.00  0.00     0.042 C 
ENDROOT
BRANCH   9  16
ATOM     16  O   UNL     1     116.436 115.015 123.125  1.00  0.00    -0.390 OA
ATOM     17  H   UNL     1     117.047 114.360 122.694  1.00  0.00     0.211 HD
ENDBRANCH   9  16
TORSDOF 1
ENDMDL
MODEL 8
REMARK VINA RESULT:    -4.796      1.741      4.430
REMARK INTER + INTRA:          -4.936
REMARK INTER:                  -4.936
REMARK INTRA:                   0.000
REMARK UNBOUND:                 0.000
REMARK SMILES C[C@H]1CC[C@@H]2C(C)(C)[C@@H]3C[C@@]21CC[C@@]3(C)O
REMARK SMILES IDX 1 1 2 2 3 3 4 4 5 5 11 6 12 7 13 8 14 9 9 10 10 11 6 12 7 13
REMARK SMILES IDX 8 14 15 15 16 16
REMARK H PARENT 16 17
REMARK Flexibility Score: inf
ROOT
ATOM      1  C   UNL     1     113.315 115.938 117.592  1.00  0.00     0.008 C 
ATOM      2  C   UNL     1     114.209 115.012 118.435  1.00  0.00    -0.008 C 
ATOM      3  C   UNL     1     115.283 114.368 117.555  1.00  0.00     0.004 C 
ATOM      4  C   UNL     1     116.479 115.309 117.605  1.00  0.00     0.005 C 
ATOM      5  C   UNL     1     116.401 116.060 118.953  1.00  0.00     0.001 C 
ATOM      6  C   UNL     1     115.011 115.736 119.547  1.00  0.00    -0.023 C 
ATOM      7  C   UNL     1     114.340 117.008 120.157  1.00  0.00     0.010 C 
ATOM      8  C   UNL     1     115.235 117.705 121.213  1.00  0.00     0.036 C 
ATOM      9  C   UNL     1     115.976 116.710 122.156  1.00  0.00     0.065 C 
ATOM     10  C   UNL     1     116.528 115.461 121.348  1.00  0.00     0.027 C 
ATOM     11  C   UNL     1     115.313 114.789 120.712  1.00  0.00     0.014 C 
ATOM     12  C   UNL     1     117.437 115.704 120.084  1.00  0.00    -0.026 C 
ATOM     13  C   UNL     1     118.490 116.825 120.237  1.00  0.00     0.012 C 
ATOM     14  C   UNL     1     118.244 114.399 119.812  1.00  0.00     0.012 C 
ATOM     15  C   UNL     1     117.076 117.446 122.959  1.00  0.00     0.042 C 
ENDROOT
BRANCH   9  16
ATOM     16  O   UNL     1     115.025 116.258 123.097  1.00  0.00    -0.390 OA
ATOM     17  H   UNL     1     114.985 115.267 123.044  1.00  0.00     0.211 HD
ENDBRANCH   9  16
TORSDOF 1
ENDMDL
MODEL 9
REMARK VINA RESULT:    -4.772      1.971      3.113
REMARK INTER + INTRA:          -4.912
REMARK INTER:                  -4.912
REMARK INTRA:                   0.000
REMARK UNBOUND:                 0.000
REMARK SMILES C[C@H]1CC[C@@H]2C(C)(C)[C@@H]3C[C@@]21CC[C@@]3(C)O
REMARK SMILES IDX 1 1 2 2 3 3 4 4 5 5 11 6 12 7 13 8 14 9 9 10 10 11 6 12 7 13
REMARK SMILES IDX 8 14 15 15 16 16
REMARK H PARENT 16 17
REMARK Flexibility Score: inf
ROOT
ATOM      1  C   UNL     1     119.322 116.546 119.739  1.00  0.00     0.008 C 
ATOM      2  C   UNL     1     118.088 117.376 120.136  1.00  0.00    -0.008 C 
ATOM      3  C   UNL     1     118.081 118.707 119.381  1.00  0.00     0.004 C 
ATOM      4  C   UNL     1     117.302 118.453 118.098  1.00  0.00     0.005 C 
ATOM      5  C   UNL     1     116.320 117.298 118.393  1.00  0.00     0.001 C 
ATOM      6  C   UNL     1     116.731 116.721 119.767  1.00  0.00    -0.023 C 
ATOM      7  C   UNL     1     116.704 115.160 119.763  1.00  0.00     0.010 C 
ATOM      8  C   UNL     1     115.332 114.590 119.322  1.00  0.00     0.036 C 
ATOM      9  C   UNL     1     114.117 115.370 119.908  1.00  0.00     0.065 C 
ATOM     10  C   UNL     1     114.373 116.935 119.874  1.00  0.00     0.027 C 
ATOM     11  C   UNL     1     115.623 117.185 120.716  1.00  0.00     0.014 C 
ATOM     12  C   UNL     1     114.782 117.618 118.514  1.00  0.00    -0.026 C 
ATOM     13  C   UNL     1     114.017 117.115 117.269  1.00  0.00     0.012 C 
ATOM     14  C   UNL     1     114.462 119.139 118.622  1.00  0.00     0.012 C 
ATOM     15  C   UNL     1     112.811 114.954 119.186  1.00  0.00     0.042 C 
ENDROOT
BRANCH   9  16
ATOM     16  O   UNL     1     113.981 114.960 121.252  1.00  0.00    -0.390 OA
ATOM     17  H   UNL     1     114.550 115.551 121.814  1.00  0.00     0.211 HD
ENDBRANCH   9  16
TORSDOF 1
ENDMDL
