MODEL 1
REMARK VINA RESULT:    -2.613      0.000      0.000
REMARK INTER + INTRA:          -2.613
REMARK INTER:                  -2.613
REMARK INTRA:                   0.000
REMARK UNBOUND:                 0.000
REMARK SMILES CC(=O)[O-]
REMARK SMILES IDX 1 1 2 2 3 3 4 4
REMARK H PARENT
REMARK Flexibility Score: inf
ROOT
ATOM      1  C   UNL     1     -15.508  -8.489 -20.593  1.00  0.00     0.063 C 
ATOM      2  C   UNL     1     -16.341  -9.099 -21.668  1.00  0.00     0.038 C 
ATOM      3  O   UNL     1     -15.882  -9.214 -22.835  1.00  0.00    -0.550 OA
ATOM      4  O   UNL     1     -17.606  -9.592 -21.373  1.00  0.00    -0.550 OA
ENDROOT
TORSDOF 0
ENDMDL
MODEL 2
REMARK VINA RESULT:    -2.599      0.091      1.620
REMARK INTER + INTRA:          -2.599
REMARK INTER:                  -2.599
REMARK INTRA:                   0.000
REMARK UNBOUND:                 0.000
REMARK SMILES CC(=O)[O-]
REMARK SMILES IDX 1 1 2 2 3 3 4 4
REMARK H PARENT
REMARK Flexibility Score: inf
ROOT
ATOM      1  C   UNL     1     -15.555  -8.482 -20.608  1.00  0.00     0.063 C 
ATOM      2  C   UNL     1     -16.400  -9.118 -21.660  1.00  0.00     0.038 C 
ATOM      3  O   UNL     1     -17.553  -9.537 -21.377  1.00  0.00    -0.550 OA
ATOM      4  O   UNL     1     -15.939  -9.200 -22.968  1.00  0.00    -0.550 OA
ENDROOT
TORSDOF 0
ENDMDL
MODEL 3
REMARK VINA RESULT:    -2.567      1.439      1.707
REMARK INTER + INTRA:          -2.567
REMARK INTER:                  -2.567
REMARK INTRA:                   0.000
REMARK UNBOUND:                 0.000
REMARK SMILES CC(=O)[O-]
REMARK SMILES IDX 1 1 2 2 3 3 4 4
REMARK H PARENT
REMARK Flexibility Score: inf
ROOT
ATOM      1  C   UNL     1     -15.543  -9.010 -22.873  1.00  0.00     0.063 C 
ATOM      2  C   UNL     1     -16.060  -9.043 -21.475  1.00  0.00     0.038 C 
ATOM      3  O   UNL     1     -15.341  -8.637 -20.525  1.00  0.00    -0.550 OA
ATOM      4  O   UNL     1     -17.358  -9.472 -21.223  1.00  0.00    -0.550 OA
ENDROOT
TORSDOF 0
ENDMDL
MODEL 4
REMARK VINA RESULT:    -2.550      1.476      2.083
REMARK INTER + INTRA:          -2.550
REMARK INTER:                  -2.550
REMARK INTRA:                   0.000
REMARK UNBOUND:                 0.000
REMARK SMILES CC(=O)[O-]
REMARK SMILES IDX 1 1 2 2 3 3 4 4
REMARK H PARENT
REMARK Flexibility Score: inf
ROOT
ATOM      1  C   UNL     1     -15.538  -9.052 -22.948  1.00  0.00     0.063 C 
ATOM      2  C   UNL     1     -16.067  -9.033 -21.554  1.00  0.00     0.038 C 
ATOM      3  O   UNL     1     -17.267  -9.341 -21.329  1.00  0.00    -0.550 OA
ATOM      4  O   UNL     1     -15.223  -8.727 -20.494  1.00  0.00    -0.550 OA
ENDROOT
TORSDOF 0
ENDMDL
MODEL 5
REMARK VINA RESULT:    -2.523      2.289      2.624
REMARK INTER + INTRA:          -2.523
REMARK INTER:                  -2.523
REMARK INTRA:                   0.000
REMARK UNBOUND:                 0.000
REMARK SMILES CC(=O)[O-]
REMARK SMILES IDX 1 1 2 2 3 3 4 4
REMARK H PARENT
REMARK Flexibility Score: inf
ROOT
ATOM      1  C   UNL     1     -15.819  -6.402 -22.111  1.00  0.00     0.063 C 
ATOM      2  C   UNL     1     -15.968  -7.403 -23.207  1.00  0.00     0.038 C 
ATOM      3  O   UNL     1     -16.518  -7.076 -24.291  1.00  0.00    -0.550 OA
ATOM      4  O   UNL     1     -15.451  -8.683 -23.055  1.00  0.00    -0.550 OA
ENDROOT
TORSDOF 0
ENDMDL
MODEL 6
REMARK VINA RESULT:    -2.493      2.180      2.656
REMARK INTER + INTRA:          -2.493
REMARK INTER:                  -2.493
REMARK INTRA:                   0.000
REMARK UNBOUND:                 0.000
REMARK SMILES CC(=O)[O-]
REMARK SMILES IDX 1 1 2 2 3 3 4 4
REMARK H PARENT
REMARK Flexibility Score: inf
ROOT
ATOM      1  C   UNL     1     -15.833  -6.473 -22.112  1.00  0.00     0.063 C 
ATOM      2  C   UNL     1     -15.866  -7.540 -23.153  1.00  0.00     0.038 C 
ATOM      3  O   UNL     1     -15.529  -8.718 -22.862  1.00  0.00    -0.550 OA
ATOM      4  O   UNL     1     -16.320  -7.250 -24.434  1.00  0.00    -0.550 OA
ENDROOT
TORSDOF 0
ENDMDL
MODEL 7
REMARK VINA RESULT:    -2.467      2.874      3.089
REMARK INTER + INTRA:          -2.467
REMARK INTER:                  -2.467
REMARK INTRA:                   0.000
REMARK UNBOUND:                 0.000
REMARK SMILES CC(=O)[O-]
REMARK SMILES IDX 1 1 2 2 3 3 4 4
REMARK H PARENT
REMARK Flexibility Score: inf
ROOT
ATOM      1  C   UNL     1     -15.262  -9.012 -23.683  1.00  0.00     0.063 C 
ATOM      2  C   UNL     1     -15.821  -7.637 -23.535  1.00  0.00     0.038 C 
ATOM      3  O   UNL     1     -15.504  -6.929 -22.544  1.00  0.00    -0.550 OA
ATOM      4  O   UNL     1     -16.651  -7.114 -24.518  1.00  0.00    -0.550 OA
ENDROOT
TORSDOF 0
ENDMDL
MODEL 8
REMARK VINA RESULT:    -2.460      2.278      2.830
REMARK INTER + INTRA:          -2.460
REMARK INTER:                  -2.460
REMARK INTRA:                   0.000
REMARK UNBOUND:                 0.000
REMARK SMILES CC(=O)[O-]
REMARK SMILES IDX 1 1 2 2 3 3 4 4
REMARK H PARENT
REMARK Flexibility Score: inf
ROOT
ATOM      1  C   UNL     1     -15.182  -9.207 -23.721  1.00  0.00     0.063 C 
ATOM      2  C   UNL     1     -16.627  -8.849 -23.814  1.00  0.00     0.038 C 
ATOM      3  O   UNL     1     -17.471  -9.433 -23.084  1.00  0.00    -0.550 OA
ATOM      4  O   UNL     1     -17.038  -7.832 -24.666  1.00  0.00    -0.550 OA
ENDROOT
TORSDOF 0
ENDMDL
MODEL 9
REMARK VINA RESULT:    -2.455      1.831      1.858
REMARK INTER + INTRA:          -2.455
REMARK INTER:                  -2.455
REMARK INTRA:                   0.000
REMARK UNBOUND:                 0.000
REMARK SMILES CC(=O)[O-]
REMARK SMILES IDX 1 1 2 2 3 3 4 4
REMARK H PARENT
REMARK Flexibility Score: inf
ROOT
ATOM      1  C   UNL     1     -15.849  -6.639 -22.120  1.00  0.00     0.063 C 
ATOM      2  C   UNL     1     -15.808  -8.092 -21.787  1.00  0.00     0.038 C 
ATOM      3  O   UNL     1     -16.030  -8.951 -22.680  1.00  0.00    -0.550 OA
ATOM      4  O   UNL     1     -15.471  -8.503 -20.504  1.00  0.00    -0.550 OA
ENDROOT
TORSDOF 0
ENDMDL
