MODEL 1
REMARK VINA RESULT:    -5.367      0.000      0.000
REMARK INTER + INTRA:          -6.621
REMARK INTER:                  -6.309
REMARK INTRA:                  -0.313
REMARK UNBOUND:                -0.313
REMARK SMILES O=c1c(O)c(-c2ccc(O)c(O)c2)oc2cc(O)ccc12
REMARK SMILES IDX 5 1 3 2 2 3 1 4 21 5 15 6 14 7 16 8 17 9 19 10 20 11 6 12
REMARK SMILES IDX 7 13 8 14 9 15 13 16 11 17 10 18 12 20 4 22 18 24
REMARK H PARENT 10 19 12 21 4 23 18 25
REMARK Flexibility Score: inf
ROOT
ATOM      1  C   UNL     1     -18.812  -6.461   3.983  1.00  0.00     0.180 A 
ATOM      2  C   UNL     1     -19.023  -5.114   3.624  1.00  0.00     0.208 A 
ATOM      3  C   UNL     1     -17.918  -4.329   3.261  1.00  0.00     0.235 A 
ATOM      4  O   UNL     1     -18.081  -3.117   2.946  1.00  0.00    -0.285 OA
ATOM      5  C   UNL     1     -16.638  -4.904   3.243  1.00  0.00     0.069 A 
ATOM      6  C   UNL     1     -16.513  -6.267   3.593  1.00  0.00     0.142 A 
ATOM      7  O   UNL     1     -17.583  -6.973   3.939  1.00  0.00    -0.452 OA
ATOM      8  C   UNL     1     -15.255  -6.880   3.578  1.00  0.00     0.094 A 
ATOM      9  C   UNL     1     -14.118  -6.149   3.221  1.00  0.00     0.119 A 
ATOM     10  C   UNL     1     -14.238  -4.796   2.875  1.00  0.00     0.047 A 
ATOM     11  C   UNL     1     -15.490  -4.174   2.885  1.00  0.00     0.020 A 
ENDROOT
BRANCH   1  12
ATOM     12  C   UNL     1     -19.923  -7.348   4.394  1.00  0.00     0.025 A 
ATOM     13  C   UNL     1     -20.693  -8.044   3.446  1.00  0.00     0.016 A 
ATOM     14  C   UNL     1     -21.753  -8.857   3.856  1.00  0.00     0.051 A 
ATOM     15  C   UNL     1     -22.068  -8.977   5.216  1.00  0.00     0.157 A 
ATOM     16  C   UNL     1     -20.256  -7.455   5.754  1.00  0.00     0.062 A 
ATOM     17  C   UNL     1     -21.316  -8.269   6.169  1.00  0.00     0.158 A 
BRANCH  15  18
ATOM     18  O   UNL     1     -23.124  -9.791   5.623  1.00  0.00    -0.504 OA
ATOM     19  H   UNL     1     -23.012 -10.792   5.729  1.00  0.00     0.293 HD
ENDBRANCH  15  18
BRANCH  17  20
ATOM     20  O   UNL     1     -21.607  -8.361   7.529  1.00  0.00    -0.504 OA
ATOM     21  H   UNL     1     -22.079  -7.617   8.030  1.00  0.00     0.293 HD
ENDBRANCH  17  20
ENDBRANCH   1  12
BRANCH   2  22
ATOM     22  O   UNL     1     -20.315  -4.581   3.602  1.00  0.00    -0.502 OA
ATOM     23  H   UNL     1     -20.546  -3.741   3.085  1.00  0.00     0.293 HD
ENDBRANCH   2  22
BRANCH   9  24
ATOM     24  O   UNL     1     -12.873  -6.775   3.212  1.00  0.00    -0.508 OA
ATOM     25  H   UNL     1     -12.775  -7.758   3.438  1.00  0.00     0.293 HD
ENDBRANCH   9  24
TORSDOF 5
ENDMDL
MODEL 2
REMARK VINA RESULT:    -5.199      1.925      3.706
REMARK INTER + INTRA:          -6.424
REMARK INTER:                  -6.133
REMARK INTRA:                  -0.291
REMARK UNBOUND:                -0.313
REMARK SMILES O=c1c(O)c(-c2ccc(O)c(O)c2)oc2cc(O)ccc12
REMARK SMILES IDX 5 1 3 2 2 3 1 4 21 5 15 6 14 7 16 8 17 9 19 10 20 11 6 12
REMARK SMILES IDX 7 13 8 14 9 15 13 16 11 17 10 18 12 20 4 22 18 24
REMARK H PARENT 10 19 12 21 4 23 18 25
REMARK Flexibility Score: inf
ROOT
ATOM      1  C   UNL     1     -18.508  -5.781   3.729  1.00  0.00     0.180 A 
ATOM      2  C   UNL     1     -17.100  -5.739   3.673  1.00  0.00     0.208 A 
ATOM      3  C   UNL     1     -16.469  -4.508   3.437  1.00  0.00     0.235 A 
ATOM      4  O   UNL     1     -15.210  -4.446   3.371  1.00  0.00    -0.285 OA
ATOM      5  C   UNL     1     -17.248  -3.350   3.285  1.00  0.00     0.069 A 
ATOM      6  C   UNL     1     -18.652  -3.472   3.378  1.00  0.00     0.142 A 
ATOM      7  O   UNL     1     -19.210  -4.658   3.594  1.00  0.00    -0.452 OA
ATOM      8  C   UNL     1     -19.464  -2.340   3.242  1.00  0.00     0.094 A 
ATOM      9  C   UNL     1     -18.891  -1.086   3.010  1.00  0.00     0.119 A 
ATOM     10  C   UNL     1     -17.499  -0.961   2.914  1.00  0.00     0.047 A 
ATOM     11  C   UNL     1     -16.678  -2.085   3.050  1.00  0.00     0.020 A 
ENDROOT
BRANCH   1  12
ATOM     12  C   UNL     1     -19.248  -7.043   3.957  1.00  0.00     0.025 A 
ATOM     13  C   UNL     1     -19.438  -7.976   2.923  1.00  0.00     0.016 A 
ATOM     14  C   UNL     1     -20.160  -9.150   3.154  1.00  0.00     0.051 A 
ATOM     15  C   UNL     1     -20.716  -9.402   4.415  1.00  0.00     0.157 A 
ATOM     16  C   UNL     1     -19.825  -7.291   5.213  1.00  0.00     0.062 A 
ATOM     17  C   UNL     1     -20.549  -8.465   5.448  1.00  0.00     0.158 A 
BRANCH  15  18
ATOM     18  O   UNL     1     -21.434 -10.575   4.643  1.00  0.00    -0.504 OA
ATOM     19  H   UNL     1     -21.304 -11.122   5.486  1.00  0.00     0.293 HD
ENDBRANCH  15  18
BRANCH  17  20
ATOM     20  O   UNL     1     -21.094  -8.682   6.713  1.00  0.00    -0.504 OA
ATOM     21  H   UNL     1     -21.077  -7.972   7.435  1.00  0.00     0.293 HD
ENDBRANCH  17  20
ENDBRANCH   1  12
BRANCH   2  22
ATOM     22  O   UNL     1     -16.347  -6.899   3.878  1.00  0.00    -0.502 OA
ATOM     23  H   UNL     1     -16.157  -7.559   3.134  1.00  0.00     0.293 HD
ENDBRANCH   2  22
BRANCH   9  24
ATOM     24  O   UNL     1     -19.714   0.030   2.876  1.00  0.00    -0.508 OA
ATOM     25  H   UNL     1     -19.573   0.705   2.134  1.00  0.00     0.293 HD
ENDBRANCH   9  24
TORSDOF 5
ENDMDL
MODEL 3
REMARK VINA RESULT:    -4.672      1.734      2.430
REMARK INTER + INTRA:          -5.804
REMARK INTER:                  -5.541
REMARK INTRA:                  -0.263
REMARK UNBOUND:                -0.313
REMARK SMILES O=c1c(O)c(-c2ccc(O)c(O)c2)oc2cc(O)ccc12
REMARK SMILES IDX 5 1 3 2 2 3 1 4 21 5 15 6 14 7 16 8 17 9 19 10 20 11 6 12
REMARK SMILES IDX 7 13 8 14 9 15 13 16 11 17 10 18 12 20 4 22 18 24
REMARK H PARENT 10 19 12 21 4 23 18 25
REMARK Flexibility Score: inf
ROOT
ATOM      1  C   UNL     1     -19.252  -5.567   3.908  1.00  0.00     0.180 A 
ATOM      2  C   UNL     1     -20.018  -4.442   3.543  1.00  0.00     0.208 A 
ATOM      3  C   UNL     1     -19.354  -3.253   3.202  1.00  0.00     0.235 A 
ATOM      4  O   UNL     1     -20.018  -2.229   2.882  1.00  0.00    -0.285 OA
ATOM      5  C   UNL     1     -17.951  -3.219   3.211  1.00  0.00     0.069 A 
ATOM      6  C   UNL     1     -17.255  -4.396   3.565  1.00  0.00     0.142 A 
ATOM      7  O   UNL     1     -17.922  -5.497   3.891  1.00  0.00    -0.452 OA
ATOM      8  C   UNL     1     -15.856  -4.405   3.577  1.00  0.00     0.094 A 
ATOM      9  C   UNL     1     -15.140  -3.251   3.242  1.00  0.00     0.119 A 
ATOM     10  C   UNL     1     -15.827  -2.081   2.892  1.00  0.00     0.047 A 
ATOM     11  C   UNL     1     -17.225  -2.061   2.875  1.00  0.00     0.020 A 
ENDROOT
BRANCH   1  12
ATOM     12  C   UNL     1     -19.877  -6.851   4.298  1.00  0.00     0.025 A 
ATOM     13  C   UNL     1     -20.504  -7.010   5.546  1.00  0.00     0.016 A 
ATOM     14  C   UNL     1     -21.067  -8.238   5.903  1.00  0.00     0.051 A 
ATOM     15  C   UNL     1     -20.999  -9.329   5.026  1.00  0.00     0.157 A 
ATOM     16  C   UNL     1     -19.794  -7.953   3.431  1.00  0.00     0.062 A 
ATOM     17  C   UNL     1     -20.357  -9.185   3.785  1.00  0.00     0.158 A 
BRANCH  15  18
ATOM     18  O   UNL     1     -21.564 -10.552   5.383  1.00  0.00    -0.504 OA
ATOM     19  H   UNL     1     -22.542 -10.755   5.217  1.00  0.00     0.293 HD
ENDBRANCH  15  18
BRANCH  17  20
ATOM     20  O   UNL     1     -20.266 -10.251   2.892  1.00  0.00    -0.504 OA
ATOM     21  H   UNL     1     -21.085 -10.753   2.568  1.00  0.00     0.293 HD
ENDBRANCH  17  20
ENDBRANCH   1  12
BRANCH   2  22
ATOM     22  O   UNL     1     -21.412  -4.519   3.495  1.00  0.00    -0.502 OA
ATOM     23  H   UNL     1     -21.979  -4.621   4.328  1.00  0.00     0.293 HD
ENDBRANCH   2  22
BRANCH   9  24
ATOM     24  O   UNL     1     -13.748  -3.278   3.260  1.00  0.00    -0.508 OA
ATOM     25  H   UNL     1     -13.211  -2.572   3.751  1.00  0.00     0.293 HD
ENDBRANCH   9  24
TORSDOF 5
ENDMDL
MODEL 4
REMARK VINA RESULT:    -4.507     13.781     15.758
REMARK INTER + INTRA:          -5.610
REMARK INTER:                  -5.419
REMARK INTRA:                  -0.191
REMARK UNBOUND:                -0.313
REMARK SMILES O=c1c(O)c(-c2ccc(O)c(O)c2)oc2cc(O)ccc12
REMARK SMILES IDX 5 1 3 2 2 3 1 4 21 5 15 6 14 7 16 8 17 9 19 10 20 11 6 12
REMARK SMILES IDX 7 13 8 14 9 15 13 16 11 17 10 18 12 20 4 22 18 24
REMARK H PARENT 10 19 12 21 4 23 18 25
REMARK Flexibility Score: inf
ROOT
ATOM      1  C   UNL     1     -19.088 -11.295  18.578  1.00  0.00     0.180 A 
ATOM      2  C   UNL     1     -18.430 -11.231  17.333  1.00  0.00     0.208 A 
ATOM      3  C   UNL     1     -17.456 -10.241  17.133  1.00  0.00     0.235 A 
ATOM      4  O   UNL     1     -16.861 -10.157  16.023  1.00  0.00    -0.285 OA
ATOM      5  C   UNL     1     -17.144  -9.357  18.177  1.00  0.00     0.069 A 
ATOM      6  C   UNL     1     -17.831  -9.502  19.403  1.00  0.00     0.142 A 
ATOM      7  O   UNL     1     -18.753 -10.446  19.548  1.00  0.00    -0.452 OA
ATOM      8  C   UNL     1     -17.542  -8.646  20.472  1.00  0.00     0.094 A 
ATOM      9  C   UNL     1     -16.576  -7.644  20.332  1.00  0.00     0.119 A 
ATOM     10  C   UNL     1     -15.894  -7.496  19.117  1.00  0.00     0.047 A 
ATOM     11  C   UNL     1     -16.174  -8.346  18.043  1.00  0.00     0.020 A 
ENDROOT
BRANCH   1  12
ATOM     12  C   UNL     1     -20.140 -12.297  18.861  1.00  0.00     0.025 A 
ATOM     13  C   UNL     1     -21.366 -12.285  18.175  1.00  0.00     0.016 A 
ATOM     14  C   UNL     1     -22.354 -13.226  18.475  1.00  0.00     0.051 A 
ATOM     15  C   UNL     1     -22.138 -14.184  19.475  1.00  0.00     0.157 A 
ATOM     16  C   UNL     1     -19.936 -13.245  19.877  1.00  0.00     0.062 A 
ATOM     17  C   UNL     1     -20.923 -14.190  20.181  1.00  0.00     0.158 A 
BRANCH  15  18
ATOM     18  O   UNL     1     -23.124 -15.123  19.771  1.00  0.00    -0.504 OA
ATOM     19  H   UNL     1     -23.825 -15.390  19.089  1.00  0.00     0.293 HD
ENDBRANCH  15  18
BRANCH  17  20
ATOM     20  O   UNL     1     -20.679 -15.125  21.186  1.00  0.00    -0.504 OA
ATOM     21  H   UNL     1     -20.832 -14.914  22.165  1.00  0.00     0.293 HD
ENDBRANCH  17  20
ENDBRANCH   1  12
BRANCH   2  22
ATOM     22  O   UNL     1     -18.725 -12.156  16.328  1.00  0.00    -0.502 OA
ATOM     23  H   UNL     1     -19.400 -11.965  15.597  1.00  0.00     0.293 HD
ENDBRANCH   2  22
BRANCH   9  24
ATOM     24  O   UNL     1     -16.302  -6.800  21.407  1.00  0.00    -0.508 OA
ATOM     25  H   UNL     1     -15.698  -5.994  21.305  1.00  0.00     0.293 HD
ENDBRANCH   9  24
TORSDOF 5
ENDMDL
MODEL 5
REMARK VINA RESULT:    -2.928     13.345     15.743
REMARK INTER + INTRA:          -3.754
REMARK INTER:                  -3.539
REMARK INTRA:                  -0.215
REMARK UNBOUND:                -0.313
REMARK SMILES O=c1c(O)c(-c2ccc(O)c(O)c2)oc2cc(O)ccc12
REMARK SMILES IDX 5 1 3 2 2 3 1 4 21 5 15 6 14 7 16 8 17 9 19 10 20 11 6 12
REMARK SMILES IDX 7 13 8 14 9 15 13 16 11 17 10 18 12 20 4 22 18 24
REMARK H PARENT 10 19 12 21 4 23 18 25
REMARK Flexibility Score: inf
ROOT
ATOM      1  C   UNL     1     -19.454 -11.961  18.486  1.00  0.00     0.180 A 
ATOM      2  C   UNL     1     -19.154 -12.204  17.130  1.00  0.00     0.208 A 
ATOM      3  C   UNL     1     -18.241 -11.361  16.478  1.00  0.00     0.235 A 
ATOM      4  O   UNL     1     -17.964 -11.551  15.261  1.00  0.00    -0.285 OA
ATOM      5  C   UNL     1     -17.635 -10.315  17.191  1.00  0.00     0.069 A 
ATOM      6  C   UNL     1     -17.971 -10.152  18.554  1.00  0.00     0.142 A 
ATOM      7  O   UNL     1     -18.847 -10.966  19.131  1.00  0.00    -0.452 OA
ATOM      8  C   UNL     1     -17.382  -9.127  19.302  1.00  0.00     0.094 A 
ATOM      9  C   UNL     1     -16.462  -8.258  18.707  1.00  0.00     0.119 A 
ATOM     10  C   UNL     1     -16.128  -8.415  17.355  1.00  0.00     0.047 A 
ATOM     11  C   UNL     1     -16.709  -9.437  16.598  1.00  0.00     0.020 A 
ENDROOT
BRANCH   1  12
ATOM     12  C   UNL     1     -20.419 -12.794  19.239  1.00  0.00     0.025 A 
ATOM     13  C   UNL     1     -21.792 -12.777  18.937  1.00  0.00     0.016 A 
ATOM     14  C   UNL     1     -22.688 -13.553  19.677  1.00  0.00     0.051 A 
ATOM     15  C   UNL     1     -22.229 -14.346  20.737  1.00  0.00     0.157 A 
ATOM     16  C   UNL     1     -19.967 -13.574  20.316  1.00  0.00     0.062 A 
ATOM     17  C   UNL     1     -20.862 -14.353  21.059  1.00  0.00     0.158 A 
BRANCH  15  18
ATOM     18  O   UNL     1     -23.125 -15.121  21.472  1.00  0.00    -0.504 OA
ATOM     19  H   UNL     1     -23.689 -14.721  22.213  1.00  0.00     0.293 HD
ENDBRANCH  15  18
BRANCH  17  20
ATOM     20  O   UNL     1     -20.373 -15.125  22.112  1.00  0.00    -0.504 OA
ATOM     21  H   UNL     1     -20.841 -15.968  22.422  1.00  0.00     0.293 HD
ENDBRANCH  17  20
ENDBRANCH   1  12
BRANCH   2  22
ATOM     22  O   UNL     1     -19.734 -13.283  16.458  1.00  0.00    -0.502 OA
ATOM     23  H   UNL     1     -20.006 -13.232  15.484  1.00  0.00     0.293 HD
ENDBRANCH   2  22
BRANCH   9  24
ATOM     24  O   UNL     1     -15.886  -7.243  19.467  1.00  0.00    -0.508 OA
ATOM     25  H   UNL     1     -15.979  -6.268  19.205  1.00  0.00     0.293 HD
ENDBRANCH   9  24
TORSDOF 5
ENDMDL
MODEL 6
REMARK VINA RESULT:    -2.846      2.557      6.639
REMARK INTER + INTRA:          -3.658
REMARK INTER:                  -4.048
REMARK INTRA:                   0.390
REMARK UNBOUND:                -0.313
REMARK SMILES O=c1c(O)c(-c2ccc(O)c(O)c2)oc2cc(O)ccc12
REMARK SMILES IDX 5 1 3 2 2 3 1 4 21 5 15 6 14 7 16 8 17 9 19 10 20 11 6 12
REMARK SMILES IDX 7 13 8 14 9 15 13 16 11 17 10 18 12 20 4 22 18 24
REMARK H PARENT 10 19 12 21 4 23 18 25
REMARK Flexibility Score: inf
ROOT
ATOM      1  C   UNL     1     -19.785  -4.573   3.632  1.00  0.00     0.180 A 
ATOM      2  C   UNL     1     -18.516  -5.178   3.522  1.00  0.00     0.208 A 
ATOM      3  C   UNL     1     -18.400  -6.556   3.759  1.00  0.00     0.235 A 
ATOM      4  O   UNL     1     -17.273  -7.119   3.678  1.00  0.00    -0.285 OA
ATOM      5  C   UNL     1     -19.547  -7.301   4.078  1.00  0.00     0.069 A 
ATOM      6  C   UNL     1     -20.785  -6.625   4.145  1.00  0.00     0.142 A 
ATOM      7  O   UNL     1     -20.850  -5.318   3.923  1.00  0.00    -0.452 OA
ATOM      8  C   UNL     1     -21.953  -7.334   4.450  1.00  0.00     0.094 A 
ATOM      9  C   UNL     1     -21.900  -8.710   4.692  1.00  0.00     0.119 A 
ATOM     10  C   UNL     1     -20.673  -9.384   4.628  1.00  0.00     0.047 A 
ATOM     11  C   UNL     1     -19.501  -8.686   4.323  1.00  0.00     0.020 A 
ENDROOT
BRANCH   1  12
ATOM     12  C   UNL     1     -19.985  -3.123   3.415  1.00  0.00     0.025 A 
ATOM     13  C   UNL     1     -18.905  -2.224   3.434  1.00  0.00     0.016 A 
ATOM     14  C   UNL     1     -19.121  -0.855   3.250  1.00  0.00     0.051 A 
ATOM     15  C   UNL     1     -20.419  -0.363   3.060  1.00  0.00     0.157 A 
ATOM     16  C   UNL     1     -21.287  -2.622   3.245  1.00  0.00     0.062 A 
ATOM     17  C   UNL     1     -21.507  -1.252   3.060  1.00  0.00     0.158 A 
BRANCH  15  18
ATOM     18  O   UNL     1     -20.632   1.002   2.875  1.00  0.00    -0.504 OA
ATOM     19  H   UNL     1     -21.020   1.583   3.609  1.00  0.00     0.293 HD
ENDBRANCH  15  18
BRANCH  17  20
ATOM     20  O   UNL     1     -22.812  -0.795   2.881  1.00  0.00    -0.504 OA
ATOM     21  H   UNL     1     -23.603  -1.427   2.843  1.00  0.00     0.293 HD
ENDBRANCH  17  20
ENDBRANCH   1  12
BRANCH   2  22
ATOM     22  O   UNL     1     -17.400  -4.421   3.154  1.00  0.00    -0.502 OA
ATOM     23  H   UNL     1     -16.579  -4.837   2.732  1.00  0.00     0.293 HD
ENDBRANCH   2  22
BRANCH   9  24
ATOM     24  O   UNL     1     -23.073  -9.399   4.995  1.00  0.00    -0.508 OA
ATOM     25  H   UNL     1     -23.119 -10.047   5.773  1.00  0.00     0.293 HD
ENDBRANCH   9  24
TORSDOF 5
ENDMDL
