MODEL 1
REMARK VINA RESULT:    -3.835      0.000      0.000
REMARK INTER + INTRA:          -3.983
REMARK INTER:                  -4.732
REMARK INTRA:                   0.749
REMARK UNBOUND:                 0.749
REMARK SMILES CC1=CC=CC(C)(C)CC1=O
REMARK SMILES IDX 1 1 2 2 3 3 10 4 11 5 9 6 4 8 5 9 6 10 7 11 8 12
REMARK H PARENT
REMARK Flexibility Score: 80.00
ROOT
ATOM      1  C   UNL     1      10.931 -29.217  22.550  1.00  0.00     0.048 C 
ATOM      2  C   UNL     1      12.187 -30.055  22.546  1.00  0.00    -0.008 C 
ATOM      3  C   UNL     1      12.382 -30.886  21.499  1.00  0.00     0.007 C 
ENDROOT
BRANCH   2   4
ATOM      4  C   UNL     1      13.147 -29.840  23.658  1.00  0.00     0.159 C 
ATOM      5  O   UNL     1      12.966 -28.864  24.436  1.00  0.00    -0.295 OA
BRANCH   4   6
ATOM      6  C   UNL     1      14.321 -30.732  23.920  1.00  0.00     0.091 CG0
ATOM      7  G   UNL     1      15.290 -30.833  22.722  1.00  0.00     0.000 G0
ENDBRANCH   4   6
ENDBRANCH   2   4
BRANCH   3   8
ATOM      8  C   UNL     1      13.513 -31.798  21.206  1.00  0.00    -0.003 C 
ATOM      9  C   UNL     1      14.756 -31.788  21.703  1.00  0.00    -0.020 C 
BRANCH   9  10
ATOM     10  C   UNL     1      15.303 -30.828  22.734  1.00  0.00    -0.010 CG0
ATOM     11  C   UNL     1      16.634 -31.402  23.272  1.00  0.00     0.016 C 
ATOM     12  C   UNL     1      15.604 -29.462  22.075  1.00  0.00     0.016 C 
ATOM     13  G   UNL     1      14.315 -30.715  23.916  1.00  0.00     0.000 G0
ENDBRANCH   9  10
ENDBRANCH   3   8
TORSDOF 0
ENDMDL
MODEL 2
REMARK VINA RESULT:    -3.810      1.862      2.838
REMARK INTER + INTRA:          -3.951
REMARK INTER:                  -4.702
REMARK INTRA:                   0.751
REMARK UNBOUND:                 0.749
REMARK SMILES CC1=CC=CC(C)(C)CC1=O
REMARK SMILES IDX 1 1 2 2 3 3 10 4 11 5 9 6 4 8 5 9 6 10 7 11 8 12
REMARK H PARENT
REMARK Flexibility Score: 80.00
ROOT
ATOM      1  C   UNL     1      13.089 -29.559  23.860  1.00  0.00     0.048 C 
ATOM      2  C   UNL     1      13.998 -30.715  23.518  1.00  0.00    -0.008 C 
ATOM      3  C   UNL     1      13.828 -31.868  24.199  1.00  0.00     0.007 C 
ENDROOT
BRANCH   2   4
ATOM      4  C   UNL     1      14.958 -30.513  22.403  1.00  0.00     0.159 C 
ATOM      5  O   UNL     1      14.852 -29.479  21.689  1.00  0.00    -0.295 OA
BRANCH   4   6
ATOM      6  C   UNL     1      16.064 -31.470  22.083  1.00  0.00     0.091 CG0
ATOM      7  G   UNL     1      15.564 -32.895  21.758  1.00  0.00     0.000 G0
ENDBRANCH   4   6
ENDBRANCH   2   4
BRANCH   3   8
ATOM      8  C   UNL     1      14.537 -33.163  24.072  1.00  0.00    -0.003 C 
ATOM      9  C   UNL     1      15.266 -33.628  23.050  1.00  0.00    -0.020 C 
BRANCH   9  10
ATOM     10  C   UNL     1      15.568 -32.904  21.759  1.00  0.00    -0.010 CG0
ATOM     11  C   UNL     1      16.712 -33.653  21.039  1.00  0.00     0.016 C 
ATOM     12  C   UNL     1      14.327 -32.929  20.837  1.00  0.00     0.016 C 
ATOM     13  G   UNL     1      16.052 -31.470  22.067  1.00  0.00     0.000 G0
ENDBRANCH   9  10
ENDBRANCH   3   8
TORSDOF 0
ENDMDL
MODEL 3
REMARK VINA RESULT:    -3.671      1.635      2.612
REMARK INTER + INTRA:          -3.780
REMARK INTER:                  -4.526
REMARK INTRA:                   0.746
REMARK UNBOUND:                 0.749
REMARK SMILES CC1=CC=CC(C)(C)CC1=O
REMARK SMILES IDX 1 1 2 2 3 3 10 4 11 5 9 6 4 8 5 9 6 10 7 11 8 12
REMARK H PARENT
REMARK Flexibility Score: 80.00
ROOT
ATOM      1  C   UNL     1      12.516 -28.776  24.136  1.00  0.00     0.048 C 
ATOM      2  C   UNL     1      13.717 -29.109  23.284  1.00  0.00    -0.008 C 
ATOM      3  C   UNL     1      14.692 -28.180  23.186  1.00  0.00     0.007 C 
ENDROOT
BRANCH   2   4
ATOM      4  C   UNL     1      13.764 -30.466  22.682  1.00  0.00     0.159 C 
ATOM      5  O   UNL     1      12.918 -31.324  23.053  1.00  0.00    -0.295 OA
BRANCH   4   6
ATOM      6  C   UNL     1      14.759 -30.873  21.640  1.00  0.00     0.091 CG0
ATOM      7  G   UNL     1      16.224 -30.744  22.112  1.00  0.00     0.000 G0
ENDBRANCH   4   6
ENDBRANCH   2   4
BRANCH   3   8
ATOM      8  C   UNL     1      15.982 -28.226  22.457  1.00  0.00    -0.003 C 
ATOM      9  C   UNL     1      16.656 -29.290  22.003  1.00  0.00    -0.020 C 
BRANCH   9  10
ATOM     10  C   UNL     1      16.229 -30.736  22.107  1.00  0.00    -0.010 CG0
ATOM     11  C   UNL     1      17.104 -31.570  21.143  1.00  0.00     0.016 C 
ATOM     12  C   UNL     1      16.472 -31.256  23.543  1.00  0.00     0.016 C 
ATOM     13  G   UNL     1      14.756 -30.877  21.664  1.00  0.00     0.000 G0
ENDBRANCH   9  10
ENDBRANCH   3   8
TORSDOF 0
ENDMDL
MODEL 4
REMARK VINA RESULT:    -3.653      1.828      2.867
REMARK INTER + INTRA:          -3.758
REMARK INTER:                  -4.499
REMARK INTRA:                   0.741
REMARK UNBOUND:                 0.749
REMARK SMILES CC1=CC=CC(C)(C)CC1=O
REMARK SMILES IDX 1 1 2 2 3 3 10 4 11 5 9 6 4 8 5 9 6 10 7 11 8 12
REMARK H PARENT
REMARK Flexibility Score: 80.00
ROOT
ATOM      1  C   UNL     1      13.474 -28.724  23.423  1.00  0.00     0.048 C 
ATOM      2  C   UNL     1      14.158 -29.809  22.626  1.00  0.00    -0.008 C 
ATOM      3  C   UNL     1      15.492 -29.705  22.443  1.00  0.00     0.007 C 
ENDROOT
BRANCH   2   4
ATOM      4  C   UNL     1      13.319 -30.946  22.171  1.00  0.00     0.159 C 
ATOM      5  O   UNL     1      12.143 -31.048  22.615  1.00  0.00    -0.295 OA
BRANCH   4   6
ATOM      6  C   UNL     1      13.788 -31.980  21.195  1.00  0.00     0.091 CG0
ATOM      7  G   UNL     1      15.039 -32.749  21.675  1.00  0.00     0.000 G0
ENDBRANCH   4   6
ENDBRANCH   2   4
BRANCH   3   8
ATOM      8  C   UNL     1      16.431 -30.611  21.740  1.00  0.00    -0.003 C 
ATOM      9  C   UNL     1      16.271 -31.898  21.408  1.00  0.00    -0.020 C 
BRANCH   9  10
ATOM     10  C   UNL     1      15.044 -32.744  21.655  1.00  0.00    -0.010 CG0
ATOM     11  C   UNL     1      15.152 -34.020  20.791  1.00  0.00     0.016 C 
ATOM     12  C   UNL     1      14.992 -33.176  23.139  1.00  0.00     0.016 C 
ATOM     13  G   UNL     1      13.781 -31.971  21.215  1.00  0.00     0.000 G0
ENDBRANCH   9  10
ENDBRANCH   3   8
TORSDOF 0
ENDMDL
MODEL 5
REMARK VINA RESULT:    -3.628      2.263      2.878
REMARK INTER + INTRA:          -3.727
REMARK INTER:                  -4.473
REMARK INTRA:                   0.746
REMARK UNBOUND:                 0.749
REMARK SMILES CC1=CC=CC(C)(C)CC1=O
REMARK SMILES IDX 1 1 2 2 3 3 10 4 11 5 9 6 4 8 5 9 6 10 7 11 8 12
REMARK H PARENT
REMARK Flexibility Score: 80.00
ROOT
ATOM      1  C   UNL     1      12.863 -30.965  21.538  1.00  0.00     0.048 C 
ATOM      2  C   UNL     1      13.817 -32.081  21.893  1.00  0.00    -0.008 C 
ATOM      3  C   UNL     1      14.280 -32.852  20.887  1.00  0.00     0.007 C 
ENDROOT
BRANCH   2   4
ATOM      4  C   UNL     1      14.229 -32.191  23.315  1.00  0.00     0.159 C 
ATOM      5  O   UNL     1      13.946 -31.249  24.104  1.00  0.00    -0.295 OA
BRANCH   4   6
ATOM      6  C   UNL     1      14.955 -33.374  23.875  1.00  0.00     0.091 CG0
ATOM      7  G   UNL     1      16.324 -33.623  23.203  1.00  0.00     0.000 G0
ENDBRANCH   4   6
ENDBRANCH   2   4
BRANCH   3   8
ATOM      8  C   UNL     1      15.232 -33.988  20.917  1.00  0.00    -0.003 C 
ATOM      9  C   UNL     1      16.111 -34.325  21.869  1.00  0.00    -0.020 C 
BRANCH   9  10
ATOM     10  C   UNL     1      16.323 -33.619  23.188  1.00  0.00    -0.010 CG0
ATOM     11  C   UNL     1      17.148 -34.547  24.108  1.00  0.00     0.016 C 
ATOM     12  C   UNL     1      17.135 -32.321  22.967  1.00  0.00     0.016 C 
ATOM     13  G   UNL     1      14.958 -33.360  23.865  1.00  0.00     0.000 G0
ENDBRANCH   9  10
ENDBRANCH   3   8
TORSDOF 0
ENDMDL
MODEL 6
REMARK VINA RESULT:    -3.528      3.426      5.113
REMARK INTER + INTRA:          -3.603
REMARK INTER:                  -4.346
REMARK INTRA:                   0.742
REMARK UNBOUND:                 0.749
REMARK SMILES CC1=CC=CC(C)(C)CC1=O
REMARK SMILES IDX 1 1 2 2 3 3 10 4 11 5 9 6 4 8 5 9 6 10 7 11 8 12
REMARK H PARENT
REMARK Flexibility Score: 80.00
ROOT
ATOM      1  C   UNL     1      16.530 -36.178  19.743  1.00  0.00     0.048 C 
ATOM      2  C   UNL     1      16.421 -35.240  20.922  1.00  0.00    -0.008 C 
ATOM      3  C   UNL     1      17.309 -35.394  21.927  1.00  0.00     0.007 C 
ENDROOT
BRANCH   2   4
ATOM      4  C   UNL     1      15.392 -34.173  20.844  1.00  0.00     0.159 C 
ATOM      5  O   UNL     1      14.802 -33.976  19.747  1.00  0.00    -0.295 OA
BRANCH   4   6
ATOM      6  C   UNL     1      15.000 -33.317  22.009  1.00  0.00     0.091 CG0
ATOM      7  G   UNL     1      16.181 -32.518  22.603  1.00  0.00     0.000 G0
ENDBRANCH   4   6
ENDBRANCH   2   4
BRANCH   3   8
ATOM      8  C   UNL     1      17.469 -34.622  23.183  1.00  0.00    -0.003 C 
ATOM      9  C   UNL     1      17.009 -33.402  23.487  1.00  0.00    -0.020 C 
BRANCH   9  10
ATOM     10  C   UNL     1      16.170 -32.511  22.601  1.00  0.00    -0.010 CG0
ATOM     11  C   UNL     1      15.563 -31.391  23.475  1.00  0.00     0.016 C 
ATOM     12  C   UNL     1      17.061 -31.847  21.525  1.00  0.00     0.016 C 
ATOM     13  G   UNL     1      15.009 -33.328  21.992  1.00  0.00     0.000 G0
ENDBRANCH   9  10
ENDBRANCH   3   8
TORSDOF 0
ENDMDL
MODEL 7
REMARK VINA RESULT:    -3.466      2.637      3.971
REMARK INTER + INTRA:          -3.528
REMARK INTER:                  -4.282
REMARK INTRA:                   0.755
REMARK UNBOUND:                 0.749
REMARK SMILES CC1=CC=CC(C)(C)CC1=O
REMARK SMILES IDX 1 1 2 2 3 3 10 4 11 5 9 6 4 8 5 9 6 10 7 11 8 12
REMARK H PARENT
REMARK Flexibility Score: 80.00
ROOT
ATOM      1  C   UNL     1      15.488 -34.916  20.492  1.00  0.00     0.048 C 
ATOM      2  C   UNL     1      15.394 -33.446  20.823  1.00  0.00    -0.008 C 
ATOM      3  C   UNL     1      14.195 -32.845  20.669  1.00  0.00     0.007 C 
ENDROOT
BRANCH   2   4
ATOM      4  C   UNL     1      16.614 -32.796  21.366  1.00  0.00     0.159 C 
ATOM      5  O   UNL     1      17.588 -33.520  21.706  1.00  0.00    -0.295 OA
BRANCH   4   6
ATOM      6  C   UNL     1      16.760 -31.314  21.522  1.00  0.00     0.091 CG0
ATOM      7  G   UNL     1      15.682 -30.687  22.433  1.00  0.00     0.000 G0
ENDBRANCH   4   6
ENDBRANCH   2   4
BRANCH   3   8
ATOM      8  C   UNL     1      13.791 -31.443  20.933  1.00  0.00    -0.003 C 
ATOM      9  C   UNL     1      14.398 -30.519  21.688  1.00  0.00    -0.020 C 
BRANCH   9  10
ATOM     10  C   UNL     1      15.694 -30.688  22.447  1.00  0.00    -0.010 CG0
ATOM     11  C   UNL     1      16.195 -29.288  22.869  1.00  0.00     0.016 C 
ATOM     12  C   UNL     1      15.449 -31.514  23.731  1.00  0.00     0.016 C 
ATOM     13  G   UNL     1      16.758 -31.322  21.524  1.00  0.00     0.000 G0
ENDBRANCH   9  10
ENDBRANCH   3   8
TORSDOF 0
ENDMDL
MODEL 8
REMARK VINA RESULT:    -3.430      3.468      5.150
REMARK INTER + INTRA:          -3.483
REMARK INTER:                  -4.247
REMARK INTRA:                   0.764
REMARK UNBOUND:                 0.749
REMARK SMILES CC1=CC=CC(C)(C)CC1=O
REMARK SMILES IDX 1 1 2 2 3 3 10 4 11 5 9 6 4 8 5 9 6 10 7 11 8 12
REMARK H PARENT
REMARK Flexibility Score: 80.00
ROOT
ATOM      1  C   UNL     1      17.811 -34.235  18.952  1.00  0.00     0.048 C 
ATOM      2  C   UNL     1      17.311 -33.641  20.247  1.00  0.00    -0.008 C 
ATOM      3  C   UNL     1      17.677 -32.374  20.537  1.00  0.00     0.007 C 
ENDROOT
BRANCH   2   4
ATOM      4  C   UNL     1      16.392 -34.474  21.063  1.00  0.00     0.159 C 
ATOM      5  O   UNL     1      15.926 -35.533  20.561  1.00  0.00    -0.295 OA
BRANCH   4   6
ATOM      6  C   UNL     1      15.994 -34.133  22.465  1.00  0.00     0.091 CG0
ATOM      7  G   UNL     1      15.301 -32.758  22.586  1.00  0.00     0.000 G0
ENDBRANCH   4   6
ENDBRANCH   2   4
BRANCH   3   8
ATOM      8  C   UNL     1      17.329 -31.524  21.701  1.00  0.00    -0.003 C 
ATOM      9  C   UNL     1      16.321 -31.660  22.571  1.00  0.00    -0.020 C 
BRANCH   9  10
ATOM     10  C   UNL     1      15.289 -32.762  22.587  1.00  0.00    -0.010 CG0
ATOM     11  C   UNL     1      14.553 -32.719  23.945  1.00  0.00     0.016 C 
ATOM     12  C   UNL     1      14.244 -32.522  21.471  1.00  0.00     0.016 C 
ATOM     13  G   UNL     1      15.989 -34.133  22.462  1.00  0.00     0.000 G0
ENDBRANCH   9  10
ENDBRANCH   3   8
TORSDOF 0
ENDMDL
MODEL 9
REMARK VINA RESULT:    -3.413      4.597      5.782
REMARK INTER + INTRA:          -3.462
REMARK INTER:                  -4.211
REMARK INTRA:                   0.749
REMARK UNBOUND:                 0.749
REMARK SMILES CC1=CC=CC(C)(C)CC1=O
REMARK SMILES IDX 1 1 2 2 3 3 10 4 11 5 9 6 4 8 5 9 6 10 7 11 8 12
REMARK H PARENT
REMARK Flexibility Score: 80.00
ROOT
ATOM      1  C   UNL     1      14.703 -33.896  20.053  1.00  0.00     0.048 C 
ATOM      2  C   UNL     1      15.788 -34.693  20.737  1.00  0.00    -0.008 C 
ATOM      3  C   UNL     1      16.341 -35.716  20.051  1.00  0.00     0.007 C 
ENDROOT
BRANCH   2   4
ATOM      4  C   UNL     1      16.214 -34.237  22.085  1.00  0.00     0.159 C 
ATOM      5  O   UNL     1      15.810 -33.118  22.503  1.00  0.00    -0.295 OA
BRANCH   4   6
ATOM      6  C   UNL     1      17.092 -35.043  22.990  1.00  0.00     0.091 CG0
ATOM      7  G   UNL     1      18.468 -35.373  22.370  1.00  0.00     0.000 G0
ENDBRANCH   4   6
ENDBRANCH   2   4
BRANCH   3   8
ATOM      8  C   UNL     1      17.426 -36.648  20.441  1.00  0.00    -0.003 C 
ATOM      9  C   UNL     1      18.341 -36.518  21.409  1.00  0.00    -0.020 C 
BRANCH   9  10
ATOM     10  C   UNL     1      18.467 -35.366  22.379  1.00  0.00    -0.010 CG0
ATOM     11  C   UNL     1      19.398 -35.803  23.532  1.00  0.00     0.016 C 
ATOM     12  C   UNL     1      19.116 -34.152  21.674  1.00  0.00     0.016 C 
ATOM     13  G   UNL     1      17.081 -35.037  22.977  1.00  0.00     0.000 G0
ENDBRANCH   9  10
ENDBRANCH   3   8
TORSDOF 0
ENDMDL
