MODEL 1
REMARK VINA RESULT:    -3.280      0.000      0.000
REMARK INTER + INTRA:          -9.118
REMARK INTER:                  -6.348
REMARK INTRA:                  -2.770
REMARK UNBOUND:                -2.770
REMARK SMILES CCCCCCCCCCCCCCCCCC(=O)[O-]
REMARK SMILES IDX 10 1 11 2 12 3 13 4 14 5 15 6 16 7 17 8 18 9 19 10 20 11
REMARK SMILES IDX 9 12 8 13 7 14 6 15 5 16 4 17 3 18 2 19 1 20
REMARK H PARENT
REMARK Flexibility Score: inf
ROOT
ATOM      1  C   UNL     1      64.287  33.106  59.854  1.00  0.00     0.000 C 
ENDROOT
BRANCH   1   2
ATOM      2  C   UNL     1      64.173  34.034  61.076  1.00  0.00     0.000 C 
BRANCH   2   3
ATOM      3  C   UNL     1      65.156  35.218  61.019  1.00  0.00     0.000 C 
BRANCH   3   4
ATOM      4  C   UNL     1      64.550  36.591  61.369  1.00  0.00     0.000 C 
BRANCH   4   5
ATOM      5  C   UNL     1      63.430  37.074  60.424  1.00  0.00     0.000 C 
BRANCH   5   6
ATOM      6  C   UNL     1      62.023  37.103  61.047  1.00  0.00     0.000 C 
BRANCH   6   7
ATOM      7  C   UNL     1      61.019  36.216  60.293  1.00  0.00     0.006 C 
BRANCH   7   8
ATOM      8  C   UNL     1      61.446  36.026  58.835  1.00  0.00     0.053 C 
BRANCH   8   9
ATOM      9  C   UNL     1      60.360  35.357  58.054  1.00  0.00     0.041 C 
ATOM     10  O   UNL     1      59.167  35.408  58.455  1.00  0.00    -0.550 OA
ATOM     11  O   UNL     1      60.657  34.718  56.857  1.00  0.00    -0.550 OA
ENDBRANCH   8   9
ENDBRANCH   7   8
ENDBRANCH   6   7
ENDBRANCH   5   6
ENDBRANCH   4   5
ENDBRANCH   3   4
ENDBRANCH   2   3
ENDBRANCH   1   2
BRANCH   1  12
ATOM     12  C   UNL     1      62.923  32.813  59.208  1.00  0.00     0.000 C 
BRANCH  12  13
ATOM     13  C   UNL     1      61.821  32.544  60.245  1.00  0.00    -0.000 C 
BRANCH  13  14
ATOM     14  C   UNL     1      60.843  31.478  59.740  1.00  0.00    -0.000 C 
BRANCH  14  15
ATOM     15  C   UNL     1      60.639  30.376  60.787  1.00  0.00    -0.000 C 
BRANCH  15  16
ATOM     16  C   UNL     1      61.908  30.167  61.621  1.00  0.00    -0.000 C 
BRANCH  16  17
ATOM     17  C   UNL     1      62.730  28.986  61.089  1.00  0.00    -0.000 C 
BRANCH  17  18
ATOM     18  C   UNL     1      64.150  29.427  60.714  1.00  0.00    -0.000 C 
BRANCH  18  19
ATOM     19  C   UNL     1      64.342  29.425  59.193  1.00  0.00    -0.003 C 
ATOM     20  C   UNL     1      63.174  28.736  58.492  1.00  0.00     0.004 C 
ENDBRANCH  18  19
ENDBRANCH  17  18
ENDBRANCH  16  17
ENDBRANCH  15  16
ENDBRANCH  14  15
ENDBRANCH  13  14
ENDBRANCH  12  13
ENDBRANCH   1  12
TORSDOF 16
ENDMDL
MODEL 2
REMARK VINA RESULT:    -3.236      3.463      6.661
REMARK INTER + INTRA:          -9.033
REMARK INTER:                  -6.484
REMARK INTRA:                  -2.549
REMARK UNBOUND:                -2.770
REMARK SMILES CCCCCCCCCCCCCCCCCC(=O)[O-]
REMARK SMILES IDX 10 1 11 2 12 3 13 4 14 5 15 6 16 7 17 8 18 9 19 10 20 11
REMARK SMILES IDX 9 12 8 13 7 14 6 15 5 16 4 17 3 18 2 19 1 20
REMARK H PARENT
REMARK Flexibility Score: inf
ROOT
ATOM      1  C   UNL     1      61.898  32.433  58.291  1.00  0.00     0.000 C 
ENDROOT
BRANCH   1   2
ATOM      2  C   UNL     1      60.810  31.847  59.208  1.00  0.00     0.000 C 
BRANCH   2   3
ATOM      3  C   UNL     1      61.248  31.777  60.683  1.00  0.00     0.000 C 
BRANCH   3   4
ATOM      4  C   UNL     1      61.287  30.360  61.289  1.00  0.00     0.000 C 
BRANCH   4   5
ATOM      5  C   UNL     1      62.674  29.684  61.288  1.00  0.00     0.000 C 
BRANCH   5   6
ATOM      6  C   UNL     1      63.864  30.643  61.110  1.00  0.00     0.000 C 
BRANCH   6   7
ATOM      7  C   UNL     1      64.919  30.108  60.130  1.00  0.00     0.006 C 
BRANCH   7   8
ATOM      8  C   UNL     1      65.293  28.662  60.465  1.00  0.00     0.053 C 
BRANCH   8   9
ATOM      9  C   UNL     1      66.780  28.489  60.451  1.00  0.00     0.041 C 
ATOM     10  O   UNL     1      67.414  28.543  59.365  1.00  0.00    -0.550 OA
ATOM     11  O   UNL     1      67.470  28.315  61.644  1.00  0.00    -0.550 OA
ENDBRANCH   8   9
ENDBRANCH   7   8
ENDBRANCH   6   7
ENDBRANCH   5   6
ENDBRANCH   4   5
ENDBRANCH   3   4
ENDBRANCH   2   3
ENDBRANCH   1   2
BRANCH   1  12
ATOM     12  C   UNL     1      61.463  33.749  57.628  1.00  0.00     0.000 C 
BRANCH  12  13
ATOM     13  C   UNL     1      60.396  34.498  58.440  1.00  0.00    -0.000 C 
BRANCH  13  14
ATOM     14  C   UNL     1      60.985  35.754  59.092  1.00  0.00    -0.000 C 
BRANCH  14  15
ATOM     15  C   UNL     1      61.484  35.456  60.511  1.00  0.00    -0.000 C 
BRANCH  15  16
ATOM     16  C   UNL     1      62.996  35.687  60.623  1.00  0.00    -0.000 C 
BRANCH  16  17
ATOM     17  C   UNL     1      63.736  34.372  60.900  1.00  0.00    -0.000 C 
BRANCH  17  18
ATOM     18  C   UNL     1      64.698  34.030  59.755  1.00  0.00    -0.000 C 
BRANCH  18  19
ATOM     19  C   UNL     1      64.770  35.175  58.739  1.00  0.00    -0.003 C 
ATOM     20  C   UNL     1      66.181  35.752  58.659  1.00  0.00     0.004 C 
ENDBRANCH  18  19
ENDBRANCH  17  18
ENDBRANCH  16  17
ENDBRANCH  15  16
ENDBRANCH  14  15
ENDBRANCH  13  14
ENDBRANCH  12  13
ENDBRANCH   1  12
TORSDOF 16
ENDMDL
MODEL 3
REMARK VINA RESULT:    -3.184     11.933     13.964
REMARK INTER + INTRA:          -8.933
REMARK INTER:                  -6.410
REMARK INTRA:                  -2.523
REMARK UNBOUND:                -2.770
REMARK SMILES CCCCCCCCCCCCCCCCCC(=O)[O-]
REMARK SMILES IDX 10 1 11 2 12 3 13 4 14 5 15 6 16 7 17 8 18 9 19 10 20 11
REMARK SMILES IDX 9 12 8 13 7 14 6 15 5 16 4 17 3 18 2 19 1 20
REMARK H PARENT
REMARK Flexibility Score: inf
ROOT
ATOM      1  C   UNL     1      57.659  28.433  51.531  1.00  0.00     0.000 C 
ENDROOT
BRANCH   1   2
ATOM      2  C   UNL     1      57.533  28.882  50.065  1.00  0.00     0.000 C 
BRANCH   2   3
ATOM      3  C   UNL     1      58.834  29.497  49.516  1.00  0.00     0.000 C 
BRANCH   3   4
ATOM      4  C   UNL     1      60.129  28.770  49.930  1.00  0.00     0.000 C 
BRANCH   4   5
ATOM      5  C   UNL     1      60.375  27.417  49.230  1.00  0.00     0.000 C 
BRANCH   5   6
ATOM      6  C   UNL     1      61.219  26.413  50.035  1.00  0.00     0.000 C 
BRANCH   6   7
ATOM      7  C   UNL     1      60.679  24.978  49.951  1.00  0.00     0.006 C 
BRANCH   7   8
ATOM      8  C   UNL     1      61.824  23.962  49.940  1.00  0.00     0.053 C 
BRANCH   8   9
ATOM      9  C   UNL     1      61.310  22.594  49.619  1.00  0.00     0.041 C 
ATOM     10  O   UNL     1      61.453  22.119  48.462  1.00  0.00    -0.550 OA
ATOM     11  O   UNL     1      60.713  21.825  50.611  1.00  0.00    -0.550 OA
ENDBRANCH   8   9
ENDBRANCH   7   8
ENDBRANCH   6   7
ENDBRANCH   5   6
ENDBRANCH   4   5
ENDBRANCH   3   4
ENDBRANCH   2   3
ENDBRANCH   1   2
BRANCH   1  12
ATOM     12  C   UNL     1      57.340  26.942  51.719  1.00  0.00     0.000 C 
BRANCH  12  13
ATOM     13  C   UNL     1      57.009  26.234  50.397  1.00  0.00    -0.000 C 
BRANCH  13  14
ATOM     14  C   UNL     1      55.590  25.655  50.426  1.00  0.00    -0.000 C 
BRANCH  14  15
ATOM     15  C   UNL     1      54.766  26.153  49.233  1.00  0.00    -0.000 C 
BRANCH  15  16
ATOM     16  C   UNL     1      53.634  27.079  49.693  1.00  0.00    -0.000 C 
BRANCH  16  17
ATOM     17  C   UNL     1      54.096  28.541  49.730  1.00  0.00    -0.000 C 
BRANCH  17  18
ATOM     18  C   UNL     1      53.903  29.143  51.127  1.00  0.00    -0.000 C 
BRANCH  18  19
ATOM     19  C   UNL     1      53.464  28.072  52.131  1.00  0.00    -0.003 C 
ATOM     20  C   UNL     1      54.257  28.178  53.432  1.00  0.00     0.004 C 
ENDBRANCH  18  19
ENDBRANCH  17  18
ENDBRANCH  16  17
ENDBRANCH  15  16
ENDBRANCH  14  15
ENDBRANCH  13  14
ENDBRANCH  12  13
ENDBRANCH   1  12
TORSDOF 16
ENDMDL
MODEL 4
REMARK VINA RESULT:    -3.181     10.597     12.739
REMARK INTER + INTRA:          -8.926
REMARK INTER:                  -6.059
REMARK INTRA:                  -2.867
REMARK UNBOUND:                -2.770
REMARK SMILES CCCCCCCCCCCCCCCCCC(=O)[O-]
REMARK SMILES IDX 10 1 11 2 12 3 13 4 14 5 15 6 16 7 17 8 18 9 19 10 20 11
REMARK SMILES IDX 9 12 8 13 7 14 6 15 5 16 4 17 3 18 2 19 1 20
REMARK H PARENT
REMARK Flexibility Score: inf
ROOT
ATOM      1  C   UNL     1      56.614  26.739  51.221  1.00  0.00     0.000 C 
ENDROOT
BRANCH   1   2
ATOM      2  C   UNL     1      56.469  26.287  49.757  1.00  0.00     0.000 C 
BRANCH   2   3
ATOM      3  C   UNL     1      55.017  25.940  49.381  1.00  0.00     0.000 C 
BRANCH   3   4
ATOM      4  C   UNL     1      53.935  26.680  50.192  1.00  0.00     0.000 C 
BRANCH   4   5
ATOM      5  C   UNL     1      53.207  27.812  49.436  1.00  0.00     0.000 C 
BRANCH   5   6
ATOM      6  C   UNL     1      53.586  29.236  49.879  1.00  0.00     0.000 C 
BRANCH   6   7
ATOM      7  C   UNL     1      53.898  29.330  51.381  1.00  0.00     0.006 C 
BRANCH   7   8
ATOM      8  C   UNL     1      54.428  30.720  51.743  1.00  0.00     0.053 C 
BRANCH   8   9
ATOM      9  C   UNL     1      55.435  30.625  52.845  1.00  0.00     0.041 C 
ATOM     10  O   UNL     1      56.327  31.507  52.966  1.00  0.00    -0.550 OA
ATOM     11  O   UNL     1      55.362  29.590  53.768  1.00  0.00    -0.550 OA
ENDBRANCH   8   9
ENDBRANCH   7   8
ENDBRANCH   6   7
ENDBRANCH   5   6
ENDBRANCH   4   5
ENDBRANCH   3   4
ENDBRANCH   2   3
ENDBRANCH   1   2
BRANCH   1  12
ATOM     12  C   UNL     1      57.502  27.984  51.368  1.00  0.00     0.000 C 
BRANCH  12  13
ATOM     13  C   UNL     1      57.387  28.940  50.171  1.00  0.00    -0.000 C 
BRANCH  13  14
ATOM     14  C   UNL     1      58.773  29.381  49.686  1.00  0.00    -0.000 C 
BRANCH  14  15
ATOM     15  C   UNL     1      59.865  28.440  50.208  1.00  0.00    -0.000 C 
BRANCH  15  16
ATOM     16  C   UNL     1      60.377  27.519  49.095  1.00  0.00    -0.000 C 
BRANCH  16  17
ATOM     17  C   UNL     1      61.028  26.258  49.677  1.00  0.00    -0.000 C 
BRANCH  17  18
ATOM     18  C   UNL     1      59.966  25.272  50.178  1.00  0.00    -0.000 C 
BRANCH  18  19
ATOM     19  C   UNL     1      60.042  25.109  51.700  1.00  0.00    -0.003 C 
ATOM     20  C   UNL     1      59.050  24.058  52.191  1.00  0.00     0.004 C 
ENDBRANCH  18  19
ENDBRANCH  17  18
ENDBRANCH  16  17
ENDBRANCH  15  16
ENDBRANCH  14  15
ENDBRANCH  13  14
ENDBRANCH  12  13
ENDBRANCH   1  12
TORSDOF 16
ENDMDL
MODEL 5
REMARK VINA RESULT:    -3.160      2.858      6.794
REMARK INTER + INTRA:          -8.886
REMARK INTER:                  -6.551
REMARK INTRA:                  -2.335
REMARK UNBOUND:                -2.770
REMARK SMILES CCCCCCCCCCCCCCCCCC(=O)[O-]
REMARK SMILES IDX 10 1 11 2 12 3 13 4 14 5 15 6 16 7 17 8 18 9 19 10 20 11
REMARK SMILES IDX 9 12 8 13 7 14 6 15 5 16 4 17 3 18 2 19 1 20
REMARK H PARENT
REMARK Flexibility Score: inf
ROOT
ATOM      1  C   UNL     1      63.781  32.881  59.230  1.00  0.00     0.000 C 
ENDROOT
BRANCH   1   2
ATOM      2  C   UNL     1      62.335  32.452  58.926  1.00  0.00     0.000 C 
BRANCH   2   3
ATOM      3  C   UNL     1      61.455  32.384  60.188  1.00  0.00     0.000 C 
BRANCH   3   4
ATOM      4  C   UNL     1      60.780  31.022  60.444  1.00  0.00     0.000 C 
BRANCH   4   5
ATOM      5  C   UNL     1      61.341  30.225  61.640  1.00  0.00     0.000 C 
BRANCH   5   6
ATOM      6  C   UNL     1      62.005  28.886  61.272  1.00  0.00     0.000 C 
BRANCH   6   7
ATOM      7  C   UNL     1      63.178  29.051  60.293  1.00  0.00     0.006 C 
BRANCH   7   8
ATOM      8  C   UNL     1      64.411  29.612  61.007  1.00  0.00     0.053 C 
BRANCH   8   9
ATOM      9  C   UNL     1      65.644  29.366  60.196  1.00  0.00     0.041 C 
ATOM     10  O   UNL     1      65.790  29.927  59.078  1.00  0.00    -0.550 OA
ATOM     11  O   UNL     1      66.653  28.552  60.695  1.00  0.00    -0.550 OA
ENDBRANCH   8   9
ENDBRANCH   7   8
ENDBRANCH   6   7
ENDBRANCH   5   6
ENDBRANCH   4   5
ENDBRANCH   3   4
ENDBRANCH   2   3
ENDBRANCH   1   2
BRANCH   1  12
ATOM     12  C   UNL     1      63.997  33.210  60.716  1.00  0.00     0.000 C 
BRANCH  12  13
ATOM     13  C   UNL     1      64.509  34.642  60.938  1.00  0.00    -0.000 C 
BRANCH  13  14
ATOM     14  C   UNL     1      63.730  35.642  60.076  1.00  0.00    -0.000 C 
BRANCH  14  15
ATOM     15  C   UNL     1      62.728  36.436  60.922  1.00  0.00    -0.000 C 
BRANCH  15  16
ATOM     16  C   UNL     1      61.285  36.049  60.573  1.00  0.00    -0.000 C 
BRANCH  16  17
ATOM     17  C   UNL     1      61.097  35.932  59.055  1.00  0.00    -0.000 C 
BRANCH  17  18
ATOM     18  C   UNL     1      59.772  36.566  58.615  1.00  0.00    -0.000 C 
BRANCH  18  19
ATOM     19  C   UNL     1      59.244  35.903  57.338  1.00  0.00    -0.003 C 
ATOM     20  C   UNL     1      58.260  34.782  57.666  1.00  0.00     0.004 C 
ENDBRANCH  18  19
ENDBRANCH  17  18
ENDBRANCH  16  17
ENDBRANCH  15  16
ENDBRANCH  14  15
ENDBRANCH  13  14
ENDBRANCH  12  13
ENDBRANCH   1  12
TORSDOF 16
ENDMDL
MODEL 6
REMARK VINA RESULT:    -3.094     10.490     13.302
REMARK INTER + INTRA:          -8.759
REMARK INTER:                  -6.301
REMARK INTRA:                  -2.458
REMARK UNBOUND:                -2.770
REMARK SMILES CCCCCCCCCCCCCCCCCC(=O)[O-]
REMARK SMILES IDX 10 1 11 2 12 3 13 4 14 5 15 6 16 7 17 8 18 9 19 10 20 11
REMARK SMILES IDX 9 12 8 13 7 14 6 15 5 16 4 17 3 18 2 19 1 20
REMARK H PARENT
REMARK Flexibility Score: inf
ROOT
ATOM      1  C   UNL     1      57.059  27.392  50.919  1.00  0.00     0.000 C 
ENDROOT
BRANCH   1   2
ATOM      2  C   UNL     1      57.213  28.730  50.174  1.00  0.00     0.000 C 
BRANCH   2   3
ATOM      3  C   UNL     1      58.639  29.302  50.266  1.00  0.00     0.000 C 
BRANCH   3   4
ATOM      4  C   UNL     1      59.452  29.251  48.957  1.00  0.00     0.000 C 
BRANCH   4   5
ATOM      5  C   UNL     1      60.601  28.222  48.938  1.00  0.00     0.000 C 
BRANCH   5   6
ATOM      6  C   UNL     1      60.185  26.777  49.268  1.00  0.00     0.000 C 
BRANCH   6   7
ATOM      7  C   UNL     1      61.058  26.141  50.361  1.00  0.00     0.006 C 
BRANCH   7   8
ATOM      8  C   UNL     1      60.367  26.216  51.725  1.00  0.00     0.053 C 
BRANCH   8   9
ATOM      9  C   UNL     1      60.985  27.288  52.567  1.00  0.00     0.041 C 
ATOM     10  O   UNL     1      61.988  27.924  52.148  1.00  0.00    -0.550 OA
ATOM     11  O   UNL     1      60.424  27.618  53.794  1.00  0.00    -0.550 OA
ENDBRANCH   8   9
ENDBRANCH   7   8
ENDBRANCH   6   7
ENDBRANCH   5   6
ENDBRANCH   4   5
ENDBRANCH   3   4
ENDBRANCH   2   3
ENDBRANCH   1   2
BRANCH   1  12
ATOM     12  C   UNL     1      56.479  26.285  50.024  1.00  0.00     0.000 C 
BRANCH  12  13
ATOM     13  C   UNL     1      55.115  25.777  50.517  1.00  0.00    -0.000 C 
BRANCH  13  14
ATOM     14  C   UNL     1      54.238  25.335  49.340  1.00  0.00    -0.000 C 
BRANCH  14  15
ATOM     15  C   UNL     1      53.272  26.450  48.923  1.00  0.00    -0.000 C 
BRANCH  15  16
ATOM     16  C   UNL     1      53.037  27.435  50.074  1.00  0.00    -0.000 C 
BRANCH  16  17
ATOM     17  C   UNL     1      53.093  28.886  49.580  1.00  0.00    -0.000 C 
BRANCH  17  18
ATOM     18  C   UNL     1      53.770  29.794  50.614  1.00  0.00    -0.000 C 
BRANCH  18  19
ATOM     19  C   UNL     1      53.586  29.244  52.032  1.00  0.00    -0.003 C 
ATOM     20  C   UNL     1      54.810  29.531  52.898  1.00  0.00     0.004 C 
ENDBRANCH  18  19
ENDBRANCH  17  18
ENDBRANCH  16  17
ENDBRANCH  15  16
ENDBRANCH  14  15
ENDBRANCH  13  14
ENDBRANCH  12  13
ENDBRANCH   1  12
TORSDOF 16
ENDMDL
MODEL 7
REMARK VINA RESULT:    -3.070      3.386      6.844
REMARK INTER + INTRA:          -8.712
REMARK INTER:                  -5.790
REMARK INTRA:                  -2.923
REMARK UNBOUND:                -2.770
REMARK SMILES CCCCCCCCCCCCCCCCCC(=O)[O-]
REMARK SMILES IDX 10 1 11 2 12 3 13 4 14 5 15 6 16 7 17 8 18 9 19 10 20 11
REMARK SMILES IDX 9 12 8 13 7 14 6 15 5 16 4 17 3 18 2 19 1 20
REMARK H PARENT
REMARK Flexibility Score: inf
ROOT
ATOM      1  C   UNL     1      61.189  32.270  59.129  1.00  0.00     0.000 C 
ENDROOT
BRANCH   1   2
ATOM      2  C   UNL     1      61.421  32.076  60.638  1.00  0.00     0.000 C 
BRANCH   2   3
ATOM      3  C   UNL     1      60.713  30.827  61.194  1.00  0.00     0.000 C 
BRANCH   3   4
ATOM      4  C   UNL     1      61.646  29.763  61.807  1.00  0.00     0.000 C 
BRANCH   4   5
ATOM      5  C   UNL     1      61.935  28.545  60.906  1.00  0.00     0.000 C 
BRANCH   5   6
ATOM      6  C   UNL     1      63.357  28.494  60.321  1.00  0.00     0.000 C 
BRANCH   6   7
ATOM      7  C   UNL     1      64.257  29.625  60.843  1.00  0.00     0.006 C 
BRANCH   7   8
ATOM      8  C   UNL     1      65.449  29.851  59.909  1.00  0.00     0.053 C 
BRANCH   8   9
ATOM      9  C   UNL     1      66.445  28.743  60.053  1.00  0.00     0.041 C 
ATOM     10  O   UNL     1      66.950  28.486  61.178  1.00  0.00    -0.550 OA
ATOM     11  O   UNL     1      66.782  27.964  58.953  1.00  0.00    -0.550 OA
ENDBRANCH   8   9
ENDBRANCH   7   8
ENDBRANCH   6   7
ENDBRANCH   5   6
ENDBRANCH   4   5
ENDBRANCH   3   4
ENDBRANCH   2   3
ENDBRANCH   1   2
BRANCH   1  12
ATOM     12  C   UNL     1      61.776  31.123  58.292  1.00  0.00     0.000 C 
BRANCH  12  13
ATOM     13  C   UNL     1      62.994  31.557  57.462  1.00  0.00    -0.000 C 
BRANCH  13  14
ATOM     14  C   UNL     1      63.297  33.045  57.670  1.00  0.00    -0.000 C 
BRANCH  14  15
ATOM     15  C   UNL     1      64.681  33.243  58.300  1.00  0.00    -0.000 C 
BRANCH  15  16
ATOM     16  C   UNL     1      64.562  33.782  59.731  1.00  0.00    -0.000 C 
BRANCH  16  17
ATOM     17  C   UNL     1      63.986  35.203  59.740  1.00  0.00    -0.000 C 
BRANCH  17  18
ATOM     18  C   UNL     1      63.041  35.407  60.930  1.00  0.00    -0.000 C 
BRANCH  18  19
ATOM     19  C   UNL     1      61.803  36.210  60.517  1.00  0.00    -0.003 C 
ATOM     20  C   UNL     1      61.419  35.925  59.067  1.00  0.00     0.004 C 
ENDBRANCH  18  19
ENDBRANCH  17  18
ENDBRANCH  16  17
ENDBRANCH  15  16
ENDBRANCH  14  15
ENDBRANCH  13  14
ENDBRANCH  12  13
ENDBRANCH   1  12
TORSDOF 16
ENDMDL
MODEL 8
REMARK VINA RESULT:    -3.024      2.429      3.898
REMARK INTER + INTRA:          -8.622
REMARK INTER:                  -6.130
REMARK INTRA:                  -2.492
REMARK UNBOUND:                -2.770
REMARK SMILES CCCCCCCCCCCCCCCCCC(=O)[O-]
REMARK SMILES IDX 10 1 11 2 12 3 13 4 14 5 15 6 16 7 17 8 18 9 19 10 20 11
REMARK SMILES IDX 9 12 8 13 7 14 6 15 5 16 4 17 3 18 2 19 1 20
REMARK H PARENT
REMARK Flexibility Score: inf
ROOT
ATOM      1  C   UNL     1      62.396  33.372  58.636  1.00  0.00     0.000 C 
ENDROOT
BRANCH   1   2
ATOM      2  C   UNL     1      61.809  33.977  59.923  1.00  0.00     0.000 C 
BRANCH   2   3
ATOM      3  C   UNL     1      61.479  35.474  59.781  1.00  0.00     0.000 C 
BRANCH   3   4
ATOM      4  C   UNL     1      61.949  36.362  60.950  1.00  0.00     0.000 C 
BRANCH   4   5
ATOM      5  C   UNL     1      63.398  36.882  60.839  1.00  0.00     0.000 C 
BRANCH   5   6
ATOM      6  C   UNL     1      64.454  36.014  61.545  1.00  0.00     0.000 C 
BRANCH   6   7
ATOM      7  C   UNL     1      65.656  35.688  60.646  1.00  0.00     0.006 C 
BRANCH   7   8
ATOM      8  C   UNL     1      65.312  35.914  59.171  1.00  0.00     0.053 C 
BRANCH   8   9
ATOM      9  C   UNL     1      66.308  35.228  58.290  1.00  0.00     0.041 C 
ATOM     10  O   UNL     1      65.956  34.253  57.574  1.00  0.00    -0.550 OA
ATOM     11  O   UNL     1      67.614  35.695  58.222  1.00  0.00    -0.550 OA
ENDBRANCH   8   9
ENDBRANCH   7   8
ENDBRANCH   6   7
ENDBRANCH   5   6
ENDBRANCH   4   5
ENDBRANCH   3   4
ENDBRANCH   2   3
ENDBRANCH   1   2
BRANCH   1  12
ATOM     12  C   UNL     1      63.336  32.189  58.917  1.00  0.00     0.000 C 
BRANCH  12  13
ATOM     13  C   UNL     1      64.135  32.361  60.218  1.00  0.00    -0.000 C 
BRANCH  13  14
ATOM     14  C   UNL     1      64.145  31.061  61.031  1.00  0.00    -0.000 C 
BRANCH  14  15
ATOM     15  C   UNL     1      63.171  30.035  60.441  1.00  0.00    -0.000 C 
BRANCH  15  16
ATOM     16  C   UNL     1      62.103  29.635  61.467  1.00  0.00    -0.000 C 
BRANCH  16  17
ATOM     17  C   UNL     1      60.802  30.415  61.241  1.00  0.00    -0.000 C 
BRANCH  17  18
ATOM     18  C   UNL     1      60.297  30.241  59.804  1.00  0.00    -0.000 C 
BRANCH  18  19
ATOM     19  C   UNL     1      59.942  28.778  59.520  1.00  0.00    -0.003 C 
ATOM     20  C   UNL     1      58.895  28.264  60.505  1.00  0.00     0.004 C 
ENDBRANCH  18  19
ENDBRANCH  17  18
ENDBRANCH  16  17
ENDBRANCH  15  16
ENDBRANCH  14  15
ENDBRANCH  13  14
ENDBRANCH  12  13
ENDBRANCH   1  12
TORSDOF 16
ENDMDL
MODEL 9
REMARK VINA RESULT:    -2.982      3.106      7.002
REMARK INTER + INTRA:          -8.541
REMARK INTER:                  -6.416
REMARK INTRA:                  -2.125
REMARK UNBOUND:                -2.770
REMARK SMILES CCCCCCCCCCCCCCCCCC(=O)[O-]
REMARK SMILES IDX 10 1 11 2 12 3 13 4 14 5 15 6 16 7 17 8 18 9 19 10 20 11
REMARK SMILES IDX 9 12 8 13 7 14 6 15 5 16 4 17 3 18 2 19 1 20
REMARK H PARENT
REMARK Flexibility Score: inf
ROOT
ATOM      1  C   UNL     1      62.134  32.360  59.053  1.00  0.00     0.000 C 
ENDROOT
BRANCH   1   2
ATOM      2  C   UNL     1      61.473  32.304  60.441  1.00  0.00     0.000 C 
BRANCH   2   3
ATOM      3  C   UNL     1      60.788  30.954  60.721  1.00  0.00     0.000 C 
BRANCH   3   4
ATOM      4  C   UNL     1      61.523  30.040  61.721  1.00  0.00     0.000 C 
BRANCH   4   5
ATOM      5  C   UNL     1      62.949  29.622  61.303  1.00  0.00     0.000 C 
BRANCH   5   6
ATOM      6  C   UNL     1      63.027  28.344  60.449  1.00  0.00     0.000 C 
BRANCH   6   7
ATOM      7  C   UNL     1      62.068  27.246  60.933  1.00  0.00     0.006 C 
BRANCH   7   8
ATOM      8  C   UNL     1      60.932  27.032  59.929  1.00  0.00     0.053 C 
BRANCH   8   9
ATOM      9  C   UNL     1      59.616  26.946  60.636  1.00  0.00     0.041 C 
ATOM     10  O   UNL     1      59.491  26.216  61.655  1.00  0.00    -0.550 OA
ATOM     11  O   UNL     1      58.540  27.709  60.199  1.00  0.00    -0.550 OA
ENDBRANCH   8   9
ENDBRANCH   7   8
ENDBRANCH   6   7
ENDBRANCH   5   6
ENDBRANCH   4   5
ENDBRANCH   3   4
ENDBRANCH   2   3
ENDBRANCH   1   2
BRANCH   1  12
ATOM     12  C   UNL     1      63.492  33.079  59.076  1.00  0.00     0.000 C 
BRANCH  12  13
ATOM     13  C   UNL     1      64.118  33.120  60.478  1.00  0.00    -0.000 C 
BRANCH  13  14
ATOM     14  C   UNL     1      64.492  34.555  60.870  1.00  0.00    -0.000 C 
BRANCH  14  15
ATOM     15  C   UNL     1      63.685  35.575  60.059  1.00  0.00    -0.000 C 
BRANCH  15  16
ATOM     16  C   UNL     1      62.680  36.316  60.949  1.00  0.00    -0.000 C 
BRANCH  16  17
ATOM     17  C   UNL     1      61.239  36.040  60.502  1.00  0.00    -0.000 C 
BRANCH  17  18
ATOM     18  C   UNL     1      61.049  36.372  59.018  1.00  0.00    -0.000 C 
BRANCH  18  19
ATOM     19  C   UNL     1      60.265  35.266  58.303  1.00  0.00    -0.003 C 
ATOM     20  C   UNL     1      58.835  35.710  58.005  1.00  0.00     0.004 C 
ENDBRANCH  18  19
ENDBRANCH  17  18
ENDBRANCH  16  17
ENDBRANCH  15  16
ENDBRANCH  14  15
ENDBRANCH  13  14
ENDBRANCH  12  13
ENDBRANCH   1  12
TORSDOF 16
ENDMDL
