MODEL 1
REMARK VINA RESULT:    -3.805      0.000      0.000
REMARK INTER + INTRA:         -15.052
REMARK INTER:                 -10.034
REMARK INTRA:                  -5.018
REMARK UNBOUND:                -5.018
REMARK SMILES CCCCCCCCCCCCCCCCCCCCCCCCCCCCCC(=O)[O-]
REMARK SMILES IDX 16 1 17 2 18 3 19 4 20 5 21 6 22 7 23 8 24 9 25 10 26 11
REMARK SMILES IDX 27 12 28 13 29 14 30 15 31 16 32 17 15 18 14 19 13 20 12 21
REMARK SMILES IDX 11 22 10 23 9 24 8 25 7 26 6 27 5 28 4 29 3 30 2 31 1 32
REMARK H PARENT
REMARK Flexibility Score: inf
ROOT
ATOM      1  C   UNL     1      14.847  14.860  29.458  1.00  0.00     0.000 C 
ENDROOT
BRANCH   1   2
ATOM      2  C   UNL     1      15.994  15.861  29.206  1.00  0.00     0.000 C 
BRANCH   2   3
ATOM      3  C   UNL     1      17.004  15.909  30.363  1.00  0.00     0.000 C 
BRANCH   3   4
ATOM      4  C   UNL     1      17.016  14.581  31.136  1.00  0.00     0.000 C 
BRANCH   4   5
ATOM      5  C   UNL     1      18.441  14.083  31.428  1.00  0.00     0.000 C 
BRANCH   5   6
ATOM      6  C   UNL     1      19.304  13.987  30.161  1.00  0.00     0.000 C 
BRANCH   6   7
ATOM      7  C   UNL     1      18.786  12.883  29.228  1.00  0.00     0.000 C 
BRANCH   7   8
ATOM      8  C   UNL     1      18.738  13.318  27.753  1.00  0.00     0.000 C 
BRANCH   8   9
ATOM      9  C   UNL     1      19.226  14.755  27.482  1.00  0.00     0.000 C 
BRANCH   9  10
ATOM     10  C   UNL     1      18.475  15.500  26.361  1.00  0.00     0.000 C 
BRANCH  10  11
ATOM     11  C   UNL     1      17.188  14.808  25.866  1.00  0.00     0.000 C 
BRANCH  11  12
ATOM     12  C   UNL     1      16.137  15.749  25.250  1.00  0.00     0.000 C 
BRANCH  12  13
ATOM     13  C   UNL     1      15.312  15.078  24.140  1.00  0.00     0.006 C 
BRANCH  13  14
ATOM     14  C   UNL     1      15.032  13.599  24.439  1.00  0.00     0.053 C 
BRANCH  14  15
ATOM     15  C   UNL     1      13.565  13.293  24.403  1.00  0.00     0.041 C 
ATOM     16  O   UNL     1      12.766  14.082  23.833  1.00  0.00    -0.550 OA
ATOM     17  O   UNL     1      13.085  12.124  24.979  1.00  0.00    -0.550 OA
ENDBRANCH  14  15
ENDBRANCH  13  14
ENDBRANCH  12  13
ENDBRANCH  11  12
ENDBRANCH  10  11
ENDBRANCH   9  10
ENDBRANCH   8   9
ENDBRANCH   7   8
ENDBRANCH   6   7
ENDBRANCH   5   6
ENDBRANCH   4   5
ENDBRANCH   3   4
ENDBRANCH   2   3
ENDBRANCH   1   2
BRANCH   1  18
ATOM     18  C   UNL     1      14.434  14.057  28.210  1.00  0.00     0.000 C 
BRANCH  18  19
ATOM     19  C   UNL     1      15.060  12.655  28.097  1.00  0.00     0.000 C 
BRANCH  19  20
ATOM     20  C   UNL     1      15.198  11.887  29.429  1.00  0.00     0.000 C 
BRANCH  20  21
ATOM     21  C   UNL     1      13.873  11.420  30.059  1.00  0.00     0.000 C 
BRANCH  21  22
ATOM     22  C   UNL     1      13.627  12.028  31.451  1.00  0.00     0.000 C 
BRANCH  22  23
ATOM     23  C   UNL     1      12.133  12.222  31.760  1.00  0.00     0.000 C 
BRANCH  23  24
ATOM     24  C   UNL     1      11.842  13.537  32.505  1.00  0.00    -0.000 C 
BRANCH  24  25
ATOM     25  C   UNL     1      11.273  14.620  31.574  1.00  0.00    -0.000 C 
BRANCH  25  26
ATOM     26  C   UNL     1      11.055  14.104  30.140  1.00  0.00    -0.000 C 
BRANCH  26  27
ATOM     27  C   UNL     1      10.819  15.238  29.126  1.00  0.00    -0.000 C 
BRANCH  27  28
ATOM     28  C   UNL     1      10.031  14.831  27.865  1.00  0.00    -0.000 C 
BRANCH  28  29
ATOM     29  C   UNL     1       8.944  15.832  27.422  1.00  0.00    -0.000 C 
BRANCH  29  30
ATOM     30  C   UNL     1       8.872  16.087  25.903  1.00  0.00    -0.000 C 
BRANCH  30  31
ATOM     31  C   UNL     1       8.568  17.542  25.505  1.00  0.00    -0.003 C 
ATOM     32  C   UNL     1       8.340  18.456  26.708  1.00  0.00     0.004 C 
ENDBRANCH  30  31
ENDBRANCH  29  30
ENDBRANCH  28  29
ENDBRANCH  27  28
ENDBRANCH  26  27
ENDBRANCH  25  26
ENDBRANCH  24  25
ENDBRANCH  23  24
ENDBRANCH  22  23
ENDBRANCH  21  22
ENDBRANCH  20  21
ENDBRANCH  19  20
ENDBRANCH  18  19
ENDBRANCH   1  18
TORSDOF 28
ENDMDL
MODEL 2
REMARK VINA RESULT:    -3.802      1.348      2.244
REMARK INTER + INTRA:         -15.044
REMARK INTER:                  -9.748
REMARK INTRA:                  -5.296
REMARK UNBOUND:                -5.018
REMARK SMILES CCCCCCCCCCCCCCCCCCCCCCCCCCCCCC(=O)[O-]
REMARK SMILES IDX 16 1 17 2 18 3 19 4 20 5 21 6 22 7 23 8 24 9 25 10 26 11
REMARK SMILES IDX 27 12 28 13 29 14 30 15 31 16 32 17 15 18 14 19 13 20 12 21
REMARK SMILES IDX 11 22 10 23 9 24 8 25 7 26 6 27 5 28 4 29 3 30 2 31 1 32
REMARK H PARENT
REMARK Flexibility Score: inf
ROOT
ATOM      1  C   UNL     1      15.872  11.280  28.522  1.00  0.00     0.000 C 
ENDROOT
BRANCH   1   2
ATOM      2  C   UNL     1      15.661  11.414  30.046  1.00  0.00     0.000 C 
BRANCH   2   3
ATOM      3  C   UNL     1      16.804  12.172  30.738  1.00  0.00     0.000 C 
BRANCH   3   4
ATOM      4  C   UNL     1      16.351  13.575  31.167  1.00  0.00     0.000 C 
BRANCH   4   5
ATOM      5  C   UNL     1      17.506  14.590  31.180  1.00  0.00     0.000 C 
BRANCH   5   6
ATOM      6  C   UNL     1      17.397  15.624  30.049  1.00  0.00     0.000 C 
BRANCH   6   7
ATOM      7  C   UNL     1      15.962  15.696  29.511  1.00  0.00     0.000 C 
BRANCH   7   8
ATOM      8  C   UNL     1      15.892  15.611  27.975  1.00  0.00     0.000 C 
BRANCH   8   9
ATOM      9  C   UNL     1      17.109  14.944  27.304  1.00  0.00     0.000 C 
BRANCH   9  10
ATOM     10  C   UNL     1      17.594  15.622  26.009  1.00  0.00     0.000 C 
BRANCH  10  11
ATOM     11  C   UNL     1      16.481  15.979  25.002  1.00  0.00     0.000 C 
BRANCH  11  12
ATOM     12  C   UNL     1      16.360  15.025  23.800  1.00  0.00     0.000 C 
BRANCH  12  13
ATOM     13  C   UNL     1      15.560  13.753  24.126  1.00  0.00     0.006 C 
BRANCH  13  14
ATOM     14  C   UNL     1      14.293  14.056  24.937  1.00  0.00     0.053 C 
BRANCH  14  15
ATOM     15  C   UNL     1      13.073  13.453  24.310  1.00  0.00     0.041 C 
ATOM     16  O   UNL     1      13.139  12.935  23.164  1.00  0.00    -0.550 OA
ATOM     17  O   UNL     1      11.869  13.444  25.001  1.00  0.00    -0.550 OA
ENDBRANCH  14  15
ENDBRANCH  13  14
ENDBRANCH  12  13
ENDBRANCH  11  12
ENDBRANCH  10  11
ENDBRANCH   9  10
ENDBRANCH   8   9
ENDBRANCH   7   8
ENDBRANCH   6   7
ENDBRANCH   5   6
ENDBRANCH   4   5
ENDBRANCH   3   4
ENDBRANCH   2   3
ENDBRANCH   1   2
BRANCH   1  18
ATOM     18  C   UNL     1      14.796  11.991  27.679  1.00  0.00     0.000 C 
BRANCH  18  19
ATOM     19  C   UNL     1      13.365  11.447  27.852  1.00  0.00     0.000 C 
BRANCH  19  20
ATOM     20  C   UNL     1      12.393  12.380  28.604  1.00  0.00     0.000 C 
BRANCH  20  21
ATOM     21  C   UNL     1      12.692  13.885  28.474  1.00  0.00     0.000 C 
BRANCH  21  22
ATOM     22  C   UNL     1      12.719  14.608  29.832  1.00  0.00     0.000 C 
BRANCH  22  23
ATOM     23  C   UNL     1      12.714  13.636  31.023  1.00  0.00     0.000 C 
BRANCH  23  24
ATOM     24  C   UNL     1      11.585  13.928  32.028  1.00  0.00    -0.000 C 
BRANCH  24  25
ATOM     25  C   UNL     1      10.486  14.820  31.426  1.00  0.00    -0.000 C 
BRANCH  25  26
ATOM     26  C   UNL     1       9.243  14.015  31.007  1.00  0.00    -0.000 C 
BRANCH  26  27
ATOM     27  C   UNL     1       9.117  13.861  29.480  1.00  0.00    -0.000 C 
BRANCH  27  28
ATOM     28  C   UNL     1       8.995  15.185  28.700  1.00  0.00    -0.000 C 
BRANCH  28  29
ATOM     29  C   UNL     1       9.390  15.105  27.211  1.00  0.00    -0.000 C 
BRANCH  29  30
ATOM     30  C   UNL     1       8.387  15.752  26.234  1.00  0.00    -0.000 C 
BRANCH  30  31
ATOM     31  C   UNL     1       8.784  17.152  25.732  1.00  0.00    -0.003 C 
ATOM     32  C   UNL     1       8.385  18.268  26.695  1.00  0.00     0.004 C 
ENDBRANCH  30  31
ENDBRANCH  29  30
ENDBRANCH  28  29
ENDBRANCH  27  28
ENDBRANCH  26  27
ENDBRANCH  25  26
ENDBRANCH  24  25
ENDBRANCH  23  24
ENDBRANCH  22  23
ENDBRANCH  21  22
ENDBRANCH  20  21
ENDBRANCH  19  20
ENDBRANCH  18  19
ENDBRANCH   1  18
TORSDOF 28
ENDMDL
MODEL 3
REMARK VINA RESULT:    -3.726      2.201      6.934
REMARK INTER + INTRA:         -14.843
REMARK INTER:                  -9.649
REMARK INTRA:                  -5.194
REMARK UNBOUND:                -5.018
REMARK SMILES CCCCCCCCCCCCCCCCCCCCCCCCCCCCCC(=O)[O-]
REMARK SMILES IDX 16 1 17 2 18 3 19 4 20 5 21 6 22 7 23 8 24 9 25 10 26 11
REMARK SMILES IDX 27 12 28 13 29 14 30 15 31 16 32 17 15 18 14 19 13 20 12 21
REMARK SMILES IDX 11 22 10 23 9 24 8 25 7 26 6 27 5 28 4 29 3 30 2 31 1 32
REMARK H PARENT
REMARK Flexibility Score: inf
ROOT
ATOM      1  C   UNL     1      13.743  13.731  28.480  1.00  0.00     0.000 C 
ENDROOT
BRANCH   1   2
ATOM      2  C   UNL     1      13.701  12.206  28.719  1.00  0.00     0.000 C 
BRANCH   2   3
ATOM      3  C   UNL     1      12.270  11.668  28.861  1.00  0.00     0.000 C 
BRANCH   3   4
ATOM      4  C   UNL     1      11.999  11.202  30.299  1.00  0.00     0.000 C 
BRANCH   4   5
ATOM      5  C   UNL     1      10.957  12.077  31.016  1.00  0.00     0.000 C 
BRANCH   5   6
ATOM      6  C   UNL     1      11.600  13.185  31.865  1.00  0.00     0.000 C 
BRANCH   6   7
ATOM      7  C   UNL     1      11.156  14.572  31.379  1.00  0.00     0.000 C 
BRANCH   7   8
ATOM      8  C   UNL     1      10.127  14.506  30.236  1.00  0.00     0.000 C 
BRANCH   8   9
ATOM      9  C   UNL     1      10.512  15.294  28.968  1.00  0.00     0.000 C 
BRANCH   9  10
ATOM     10  C   UNL     1      10.196  14.584  27.637  1.00  0.00     0.000 C 
BRANCH  10  11
ATOM     11  C   UNL     1       9.001  15.166  26.854  1.00  0.00     0.000 C 
BRANCH  11  12
ATOM     12  C   UNL     1       8.404  16.458  27.443  1.00  0.00     0.000 C 
BRANCH  12  13
ATOM     13  C   UNL     1       8.624  17.682  26.538  1.00  0.00     0.006 C 
BRANCH  13  14
ATOM     14  C   UNL     1       8.771  17.294  25.061  1.00  0.00     0.053 C 
BRANCH  14  15
ATOM     15  C   UNL     1       7.580  17.712  24.254  1.00  0.00     0.041 C 
ATOM     16  O   UNL     1       7.266  17.079  23.211  1.00  0.00    -0.550 OA
ATOM     17  O   UNL     1       6.803  18.786  24.667  1.00  0.00    -0.550 OA
ENDBRANCH  14  15
ENDBRANCH  13  14
ENDBRANCH  12  13
ENDBRANCH  11  12
ENDBRANCH  10  11
ENDBRANCH   9  10
ENDBRANCH   8   9
ENDBRANCH   7   8
ENDBRANCH   6   7
ENDBRANCH   5   6
ENDBRANCH   4   5
ENDBRANCH   3   4
ENDBRANCH   2   3
ENDBRANCH   1   2
BRANCH   1  18
ATOM     18  C   UNL     1      14.292  14.534  29.675  1.00  0.00     0.000 C 
BRANCH  18  19
ATOM     19  C   UNL     1      15.177  13.734  30.649  1.00  0.00     0.000 C 
BRANCH  19  20
ATOM     20  C   UNL     1      16.667  14.137  30.666  1.00  0.00     0.000 C 
BRANCH  20  21
ATOM     21  C   UNL     1      17.015  15.405  29.865  1.00  0.00     0.000 C 
BRANCH  21  22
ATOM     22  C   UNL     1      17.939  15.121  28.668  1.00  0.00     0.000 C 
BRANCH  22  23
ATOM     23  C   UNL     1      17.164  14.746  27.394  1.00  0.00     0.000 C 
BRANCH  23  24
ATOM     24  C   UNL     1      16.302  15.902  26.857  1.00  0.00    -0.000 C 
BRANCH  24  25
ATOM     25  C   UNL     1      16.682  16.292  25.418  1.00  0.00    -0.000 C 
BRANCH  25  26
ATOM     26  C   UNL     1      15.654  15.796  24.386  1.00  0.00    -0.000 C 
BRANCH  26  27
ATOM     27  C   UNL     1      16.217  14.703  23.459  1.00  0.00    -0.000 C 
BRANCH  27  28
ATOM     28  C   UNL     1      16.254  13.287  24.068  1.00  0.00    -0.000 C 
BRANCH  28  29
ATOM     29  C   UNL     1      15.048  12.927  24.959  1.00  0.00    -0.000 C 
BRANCH  29  30
ATOM     30  C   UNL     1      13.699  12.823  24.218  1.00  0.00    -0.000 C 
BRANCH  30  31
ATOM     31  C   UNL     1      12.471  13.237  25.050  1.00  0.00    -0.003 C 
ATOM     32  C   UNL     1      11.265  13.608  24.189  1.00  0.00     0.004 C 
ENDBRANCH  30  31
ENDBRANCH  29  30
ENDBRANCH  28  29
ENDBRANCH  27  28
ENDBRANCH  26  27
ENDBRANCH  25  26
ENDBRANCH  24  25
ENDBRANCH  23  24
ENDBRANCH  22  23
ENDBRANCH  21  22
ENDBRANCH  20  21
ENDBRANCH  19  20
ENDBRANCH  18  19
ENDBRANCH   1  18
TORSDOF 28
ENDMDL
MODEL 4
REMARK VINA RESULT:    -3.722      2.996      7.016
REMARK INTER + INTRA:         -14.833
REMARK INTER:                  -9.057
REMARK INTRA:                  -5.776
REMARK UNBOUND:                -5.018
REMARK SMILES CCCCCCCCCCCCCCCCCCCCCCCCCCCCCC(=O)[O-]
REMARK SMILES IDX 16 1 17 2 18 3 19 4 20 5 21 6 22 7 23 8 24 9 25 10 26 11
REMARK SMILES IDX 27 12 28 13 29 14 30 15 31 16 32 17 15 18 14 19 13 20 12 21
REMARK SMILES IDX 11 22 10 23 9 24 8 25 7 26 6 27 5 28 4 29 3 30 2 31 1 32
REMARK H PARENT
REMARK Flexibility Score: inf
ROOT
ATOM      1  C   UNL     1      17.327  13.244  32.003  1.00  0.00     0.000 C 
ENDROOT
BRANCH   1   2
ATOM      2  C   UNL     1      18.653  13.988  32.272  1.00  0.00     0.000 C 
BRANCH   2   3
ATOM      3  C   UNL     1      19.843  13.368  31.525  1.00  0.00     0.000 C 
BRANCH   3   4
ATOM      4  C   UNL     1      20.353  14.311  30.425  1.00  0.00     0.000 C 
BRANCH   4   5
ATOM      5  C   UNL     1      19.945  13.849  29.016  1.00  0.00     0.000 C 
BRANCH   5   6
ATOM      6  C   UNL     1      19.376  12.422  29.004  1.00  0.00     0.000 C 
BRANCH   6   7
ATOM      7  C   UNL     1      18.360  12.248  27.867  1.00  0.00     0.000 C 
BRANCH   7   8
ATOM      8  C   UNL     1      16.989  11.748  28.358  1.00  0.00     0.000 C 
BRANCH   8   9
ATOM      9  C   UNL     1      15.781  12.258  27.547  1.00  0.00     0.000 C 
BRANCH   9  10
ATOM     10  C   UNL     1      14.476  12.418  28.350  1.00  0.00     0.000 C 
BRANCH  10  11
ATOM     11  C   UNL     1      13.459  13.412  27.751  1.00  0.00     0.000 C 
BRANCH  11  12
ATOM     12  C   UNL     1      12.543  14.105  28.776  1.00  0.00     0.000 C 
BRANCH  12  13
ATOM     13  C   UNL     1      13.105  14.056  30.207  1.00  0.00     0.006 C 
BRANCH  13  14
ATOM     14  C   UNL     1      12.313  13.102  31.110  1.00  0.00     0.053 C 
BRANCH  14  15
ATOM     15  C   UNL     1      11.149  13.788  31.758  1.00  0.00     0.041 C 
ATOM     16  O   UNL     1      10.007  13.736  31.229  1.00  0.00    -0.550 OA
ATOM     17  O   UNL     1      11.321  14.465  32.958  1.00  0.00    -0.550 OA
ENDBRANCH  14  15
ENDBRANCH  13  14
ENDBRANCH  12  13
ENDBRANCH  11  12
ENDBRANCH  10  11
ENDBRANCH   9  10
ENDBRANCH   8   9
ENDBRANCH   7   8
ENDBRANCH   6   7
ENDBRANCH   5   6
ENDBRANCH   4   5
ENDBRANCH   3   4
ENDBRANCH   2   3
ENDBRANCH   1   2
BRANCH   1  18
ATOM     18  C   UNL     1      16.384  13.981  31.033  1.00  0.00     0.000 C 
BRANCH  18  19
ATOM     19  C   UNL     1      16.911  15.330  30.507  1.00  0.00     0.000 C 
BRANCH  19  20
ATOM     20  C   UNL     1      16.149  15.907  29.296  1.00  0.00     0.000 C 
BRANCH  20  21
ATOM     21  C   UNL     1      16.740  15.553  27.918  1.00  0.00     0.000 C 
BRANCH  21  22
ATOM     22  C   UNL     1      15.824  15.965  26.752  1.00  0.00     0.000 C 
BRANCH  22  23
ATOM     23  C   UNL     1      16.595  16.194  25.442  1.00  0.00     0.000 C 
BRANCH  23  24
ATOM     24  C   UNL     1      15.807  15.748  24.198  1.00  0.00    -0.000 C 
BRANCH  24  25
ATOM     25  C   UNL     1      14.920  14.523  24.479  1.00  0.00    -0.000 C 
BRANCH  25  26
ATOM     26  C   UNL     1      15.162  13.381  23.476  1.00  0.00    -0.000 C 
BRANCH  26  27
ATOM     27  C   UNL     1      16.239  12.389  23.950  1.00  0.00    -0.000 C 
BRANCH  27  28
ATOM     28  C   UNL     1      17.663  12.676  23.432  1.00  0.00    -0.000 C 
BRANCH  28  29
ATOM     29  C   UNL     1      18.686  13.072  24.517  1.00  0.00    -0.000 C 
BRANCH  29  30
ATOM     30  C   UNL     1      20.076  13.477  23.985  1.00  0.00    -0.000 C 
BRANCH  30  31
ATOM     31  C   UNL     1      20.843  14.473  24.873  1.00  0.00    -0.003 C 
ATOM     32  C   UNL     1      19.922  15.381  25.686  1.00  0.00     0.004 C 
ENDBRANCH  30  31
ENDBRANCH  29  30
ENDBRANCH  28  29
ENDBRANCH  27  28
ENDBRANCH  26  27
ENDBRANCH  25  26
ENDBRANCH  24  25
ENDBRANCH  23  24
ENDBRANCH  22  23
ENDBRANCH  21  22
ENDBRANCH  20  21
ENDBRANCH  19  20
ENDBRANCH  18  19
ENDBRANCH   1  18
TORSDOF 28
ENDMDL
MODEL 5
REMARK VINA RESULT:    -3.705      2.241      7.024
REMARK INTER + INTRA:         -14.788
REMARK INTER:                  -8.499
REMARK INTRA:                  -6.290
REMARK UNBOUND:                -5.018
REMARK SMILES CCCCCCCCCCCCCCCCCCCCCCCCCCCCCC(=O)[O-]
REMARK SMILES IDX 16 1 17 2 18 3 19 4 20 5 21 6 22 7 23 8 24 9 25 10 26 11
REMARK SMILES IDX 27 12 28 13 29 14 30 15 31 16 32 17 15 18 14 19 13 20 12 21
REMARK SMILES IDX 11 22 10 23 9 24 8 25 7 26 6 27 5 28 4 29 3 30 2 31 1 32
REMARK H PARENT
REMARK Flexibility Score: inf
ROOT
ATOM      1  C   UNL     1      17.269  11.700  29.131  1.00  0.00     0.000 C 
ENDROOT
BRANCH   1   2
ATOM      2  C   UNL     1      17.874  12.233  30.447  1.00  0.00     0.000 C 
BRANCH   2   3
ATOM      3  C   UNL     1      16.894  13.116  31.235  1.00  0.00     0.000 C 
BRANCH   3   4
ATOM      4  C   UNL     1      17.451  14.537  31.406  1.00  0.00     0.000 C 
BRANCH   4   5
ATOM      5  C   UNL     1      17.429  15.341  30.095  1.00  0.00     0.000 C 
BRANCH   5   6
ATOM      6  C   UNL     1      16.019  15.821  29.721  1.00  0.00     0.000 C 
BRANCH   6   7
ATOM      7  C   UNL     1      15.528  15.132  28.441  1.00  0.00     0.000 C 
BRANCH   7   8
ATOM      8  C   UNL     1      14.124  14.518  28.590  1.00  0.00     0.000 C 
BRANCH   8   9
ATOM      9  C   UNL     1      14.092  12.979  28.678  1.00  0.00     0.000 C 
BRANCH   9  10
ATOM     10  C   UNL     1      13.458  12.411  29.963  1.00  0.00     0.000 C 
BRANCH  10  11
ATOM     11  C   UNL     1      13.278  13.430  31.106  1.00  0.00     0.000 C 
BRANCH  11  12
ATOM     12  C   UNL     1      11.995  13.254  31.940  1.00  0.00     0.000 C 
BRANCH  12  13
ATOM     13  C   UNL     1      11.095  14.501  31.921  1.00  0.00     0.006 C 
BRANCH  13  14
ATOM     14  C   UNL     1      11.093  15.195  30.552  1.00  0.00     0.053 C 
BRANCH  14  15
ATOM     15  C   UNL     1      10.158  14.525  29.591  1.00  0.00     0.041 C 
ATOM     16  O   UNL     1       8.989  14.224  29.948  1.00  0.00    -0.550 OA
ATOM     17  O   UNL     1      10.573  14.256  28.293  1.00  0.00    -0.550 OA
ENDBRANCH  14  15
ENDBRANCH  13  14
ENDBRANCH  12  13
ENDBRANCH  11  12
ENDBRANCH  10  11
ENDBRANCH   9  10
ENDBRANCH   8   9
ENDBRANCH   7   8
ENDBRANCH   6   7
ENDBRANCH   5   6
ENDBRANCH   4   5
ENDBRANCH   3   4
ENDBRANCH   2   3
ENDBRANCH   1   2
BRANCH   1  18
ATOM     18  C   UNL     1      17.849  12.360  27.866  1.00  0.00     0.000 C 
BRANCH  18  19
ATOM     19  C   UNL     1      19.250  12.978  28.034  1.00  0.00     0.000 C 
BRANCH  19  20
ATOM     20  C   UNL     1      19.695  13.919  26.895  1.00  0.00     0.000 C 
BRANCH  20  21
ATOM     21  C   UNL     1      18.863  15.206  26.742  1.00  0.00     0.000 C 
BRANCH  21  22
ATOM     22  C   UNL     1      18.071  15.251  25.424  1.00  0.00     0.000 C 
BRANCH  22  23
ATOM     23  C   UNL     1      17.064  16.412  25.375  1.00  0.00     0.000 C 
BRANCH  23  24
ATOM     24  C   UNL     1      15.796  16.070  24.571  1.00  0.00    -0.000 C 
BRANCH  24  25
ATOM     25  C   UNL     1      16.007  14.868  23.635  1.00  0.00    -0.000 C 
BRANCH  25  26
ATOM     26  C   UNL     1      14.956  13.764  23.853  1.00  0.00    -0.000 C 
BRANCH  26  27
ATOM     27  C   UNL     1      15.080  13.085  25.229  1.00  0.00    -0.000 C 
BRANCH  27  28
ATOM     28  C   UNL     1      14.839  11.562  25.228  1.00  0.00    -0.000 C 
BRANCH  28  29
ATOM     29  C   UNL     1      16.114  10.699  25.130  1.00  0.00    -0.000 C 
BRANCH  29  30
ATOM     30  C   UNL     1      17.015  11.002  23.915  1.00  0.00    -0.000 C 
BRANCH  30  31
ATOM     31  C   UNL     1      18.359  11.669  24.257  1.00  0.00    -0.003 C 
ATOM     32  C   UNL     1      18.930  12.489  23.102  1.00  0.00     0.004 C 
ENDBRANCH  30  31
ENDBRANCH  29  30
ENDBRANCH  28  29
ENDBRANCH  27  28
ENDBRANCH  26  27
ENDBRANCH  25  26
ENDBRANCH  24  25
ENDBRANCH  23  24
ENDBRANCH  22  23
ENDBRANCH  21  22
ENDBRANCH  20  21
ENDBRANCH  19  20
ENDBRANCH  18  19
ENDBRANCH   1  18
TORSDOF 28
ENDMDL
MODEL 6
REMARK VINA RESULT:    -3.688      2.112      4.226
REMARK INTER + INTRA:         -14.744
REMARK INTER:                  -9.725
REMARK INTRA:                  -5.019
REMARK UNBOUND:                -5.018
REMARK SMILES CCCCCCCCCCCCCCCCCCCCCCCCCCCCCC(=O)[O-]
REMARK SMILES IDX 16 1 17 2 18 3 19 4 20 5 21 6 22 7 23 8 24 9 25 10 26 11
REMARK SMILES IDX 27 12 28 13 29 14 30 15 31 16 32 17 15 18 14 19 13 20 12 21
REMARK SMILES IDX 11 22 10 23 9 24 8 25 7 26 6 27 5 28 4 29 3 30 2 31 1 32
REMARK H PARENT
REMARK Flexibility Score: inf
ROOT
ATOM      1  C   UNL     1      16.378  13.817  31.080  1.00  0.00     0.000 C 
ENDROOT
BRANCH   1   2
ATOM      2  C   UNL     1      17.495  13.132  31.898  1.00  0.00     0.000 C 
BRANCH   2   3
ATOM      3  C   UNL     1      18.572  14.120  32.373  1.00  0.00     0.000 C 
BRANCH   3   4
ATOM      4  C   UNL     1      19.974  13.635  31.977  1.00  0.00     0.000 C 
BRANCH   4   5
ATOM      5  C   UNL     1      19.935  12.414  31.044  1.00  0.00     0.000 C 
BRANCH   5   6
ATOM      6  C   UNL     1      20.496  12.720  29.647  1.00  0.00     0.000 C 
BRANCH   6   7
ATOM      7  C   UNL     1      19.984  14.074  29.136  1.00  0.00     0.000 C 
BRANCH   7   8
ATOM      8  C   UNL     1      19.013  13.939  27.949  1.00  0.00     0.000 C 
BRANCH   8   9
ATOM      9  C   UNL     1      18.846  15.213  27.097  1.00  0.00     0.000 C 
BRANCH   9  10
ATOM     10  C   UNL     1      17.977  15.046  25.836  1.00  0.00     0.000 C 
BRANCH  10  11
ATOM     11  C   UNL     1      17.136  16.281  25.454  1.00  0.00     0.000 C 
BRANCH  11  12
ATOM     12  C   UNL     1      15.865  15.978  24.638  1.00  0.00     0.000 C 
BRANCH  12  13
ATOM     13  C   UNL     1      15.861  14.558  24.047  1.00  0.00     0.006 C 
BRANCH  13  14
ATOM     14  C   UNL     1      16.239  14.547  22.560  1.00  0.00     0.053 C 
BRANCH  14  15
ATOM     15  C   UNL     1      17.283  13.515  22.258  1.00  0.00     0.041 C 
ATOM     16  O   UNL     1      16.971  12.454  21.656  1.00  0.00    -0.550 OA
ATOM     17  O   UNL     1      18.605  13.736  22.622  1.00  0.00    -0.550 OA
ENDBRANCH  14  15
ENDBRANCH  13  14
ENDBRANCH  12  13
ENDBRANCH  11  12
ENDBRANCH  10  11
ENDBRANCH   9  10
ENDBRANCH   8   9
ENDBRANCH   7   8
ENDBRANCH   6   7
ENDBRANCH   5   6
ENDBRANCH   4   5
ENDBRANCH   3   4
ENDBRANCH   2   3
ENDBRANCH   1   2
BRANCH   1  18
ATOM     18  C   UNL     1      16.775  15.194  30.514  1.00  0.00     0.000 C 
BRANCH  18  19
ATOM     19  C   UNL     1      15.959  15.658  29.293  1.00  0.00     0.000 C 
BRANCH  19  20
ATOM     20  C   UNL     1      14.741  14.777  28.942  1.00  0.00     0.000 C 
BRANCH  20  21
ATOM     21  C   UNL     1      14.860  13.984  27.627  1.00  0.00     0.000 C 
BRANCH  21  22
ATOM     22  C   UNL     1      13.506  13.446  27.130  1.00  0.00     0.000 C 
BRANCH  22  23
ATOM     23  C   UNL     1      12.904  12.391  28.072  1.00  0.00     0.000 C 
BRANCH  23  24
ATOM     24  C   UNL     1      11.415  12.637  28.372  1.00  0.00    -0.000 C 
BRANCH  24  25
ATOM     25  C   UNL     1      10.882  13.901  27.676  1.00  0.00    -0.000 C 
BRANCH  25  26
ATOM     26  C   UNL     1      10.395  14.961  28.680  1.00  0.00    -0.000 C 
BRANCH  26  27
ATOM     27  C   UNL     1      11.290  15.057  29.929  1.00  0.00    -0.000 C 
BRANCH  27  28
ATOM     28  C   UNL     1      10.581  14.753  31.264  1.00  0.00    -0.000 C 
BRANCH  28  29
ATOM     29  C   UNL     1      11.472  14.111  32.346  1.00  0.00    -0.000 C 
BRANCH  29  30
ATOM     30  C   UNL     1      12.756  13.438  31.818  1.00  0.00    -0.000 C 
BRANCH  30  31
ATOM     31  C   UNL     1      13.008  12.016  32.352  1.00  0.00    -0.003 C 
ATOM     32  C   UNL     1      13.834  11.157  31.397  1.00  0.00     0.004 C 
ENDBRANCH  30  31
ENDBRANCH  29  30
ENDBRANCH  28  29
ENDBRANCH  27  28
ENDBRANCH  26  27
ENDBRANCH  25  26
ENDBRANCH  24  25
ENDBRANCH  23  24
ENDBRANCH  22  23
ENDBRANCH  21  22
ENDBRANCH  20  21
ENDBRANCH  19  20
ENDBRANCH  18  19
ENDBRANCH   1  18
TORSDOF 28
ENDMDL
MODEL 7
REMARK VINA RESULT:    -3.669      1.926      6.843
REMARK INTER + INTRA:         -14.692
REMARK INTER:                  -9.024
REMARK INTRA:                  -5.668
REMARK UNBOUND:                -5.018
REMARK SMILES CCCCCCCCCCCCCCCCCCCCCCCCCCCCCC(=O)[O-]
REMARK SMILES IDX 16 1 17 2 18 3 19 4 20 5 21 6 22 7 23 8 24 9 25 10 26 11
REMARK SMILES IDX 27 12 28 13 29 14 30 15 31 16 32 17 15 18 14 19 13 20 12 21
REMARK SMILES IDX 11 22 10 23 9 24 8 25 7 26 6 27 5 28 4 29 3 30 2 31 1 32
REMARK H PARENT
REMARK Flexibility Score: inf
ROOT
ATOM      1  C   UNL     1      17.516  15.304  30.277  1.00  0.00     0.000 C 
ENDROOT
BRANCH   1   2
ATOM      2  C   UNL     1      16.245  15.982  29.721  1.00  0.00     0.000 C 
BRANCH   2   3
ATOM      3  C   UNL     1      15.989  15.641  28.246  1.00  0.00     0.000 C 
BRANCH   3   4
ATOM      4  C   UNL     1      14.875  14.591  28.111  1.00  0.00     0.000 C 
BRANCH   4   5
ATOM      5  C   UNL     1      14.021  14.471  29.383  1.00  0.00     0.000 C 
BRANCH   5   6
ATOM      6  C   UNL     1      13.783  13.011  29.798  1.00  0.00     0.000 C 
BRANCH   6   7
ATOM      7  C   UNL     1      13.785  12.870  31.327  1.00  0.00     0.000 C 
BRANCH   7   8
ATOM      8  C   UNL     1      12.715  11.890  31.841  1.00  0.00     0.000 C 
BRANCH   8   9
ATOM      9  C   UNL     1      11.376  12.541  32.243  1.00  0.00     0.000 C 
BRANCH   9  10
ATOM     10  C   UNL     1      11.451  14.047  32.560  1.00  0.00     0.000 C 
BRANCH  10  11
ATOM     11  C   UNL     1      10.650  14.956  31.606  1.00  0.00     0.000 C 
BRANCH  11  12
ATOM     12  C   UNL     1      10.205  14.289  30.291  1.00  0.00     0.000 C 
BRANCH  12  13
ATOM     13  C   UNL     1      10.598  15.103  29.047  1.00  0.00     0.006 C 
BRANCH  13  14
ATOM     14  C   UNL     1      10.555  14.261  27.765  1.00  0.00     0.053 C 
BRANCH  14  15
ATOM     15  C   UNL     1       9.269  14.446  27.021  1.00  0.00     0.041 C 
ATOM     16  O   UNL     1       8.321  13.632  27.180  1.00  0.00    -0.550 OA
ATOM     17  O   UNL     1       9.109  15.530  26.168  1.00  0.00    -0.550 OA
ENDBRANCH  14  15
ENDBRANCH  13  14
ENDBRANCH  12  13
ENDBRANCH  11  12
ENDBRANCH  10  11
ENDBRANCH   9  10
ENDBRANCH   8   9
ENDBRANCH   7   8
ENDBRANCH   6   7
ENDBRANCH   5   6
ENDBRANCH   4   5
ENDBRANCH   3   4
ENDBRANCH   2   3
ENDBRANCH   1   2
BRANCH   1  18
ATOM     18  C   UNL     1      17.280  14.503  31.572  1.00  0.00     0.000 C 
BRANCH  18  19
ATOM     19  C   UNL     1      18.538  13.850  32.176  1.00  0.00     0.000 C 
BRANCH  19  20
ATOM     20  C   UNL     1      18.402  12.350  32.514  1.00  0.00     0.000 C 
BRANCH  20  21
ATOM     21  C   UNL     1      17.286  11.604  31.760  1.00  0.00     0.000 C 
BRANCH  21  22
ATOM     22  C   UNL     1      17.749  11.052  30.401  1.00  0.00     0.000 C 
BRANCH  22  23
ATOM     23  C   UNL     1      16.978  11.662  29.218  1.00  0.00     0.000 C 
BRANCH  23  24
ATOM     24  C   UNL     1      17.902  12.329  28.183  1.00  0.00    -0.000 C 
BRANCH  24  25
ATOM     25  C   UNL     1      19.370  12.348  28.640  1.00  0.00    -0.000 C 
BRANCH  25  26
ATOM     26  C   UNL     1      20.053  13.699  28.360  1.00  0.00    -0.000 C 
BRANCH  26  27
ATOM     27  C   UNL     1      19.326  14.524  27.283  1.00  0.00    -0.000 C 
BRANCH  27  28
ATOM     28  C   UNL     1      19.895  14.379  25.857  1.00  0.00    -0.000 C 
BRANCH  28  29
ATOM     29  C   UNL     1      18.893  14.666  24.720  1.00  0.00    -0.000 C 
BRANCH  29  30
ATOM     30  C   UNL     1      17.422  14.338  25.050  1.00  0.00    -0.000 C 
BRANCH  30  31
ATOM     31  C   UNL     1      16.384  15.172  24.277  1.00  0.00    -0.003 C 
ATOM     32  C   UNL     1      14.968  14.610  24.383  1.00  0.00     0.004 C 
ENDBRANCH  30  31
ENDBRANCH  29  30
ENDBRANCH  28  29
ENDBRANCH  27  28
ENDBRANCH  26  27
ENDBRANCH  25  26
ENDBRANCH  24  25
ENDBRANCH  23  24
ENDBRANCH  22  23
ENDBRANCH  21  22
ENDBRANCH  20  21
ENDBRANCH  19  20
ENDBRANCH  18  19
ENDBRANCH   1  18
TORSDOF 28
ENDMDL
MODEL 8
REMARK VINA RESULT:    -3.638      1.936      6.725
REMARK INTER + INTRA:         -14.612
REMARK INTER:                  -9.196
REMARK INTRA:                  -5.416
REMARK UNBOUND:                -5.018
REMARK SMILES CCCCCCCCCCCCCCCCCCCCCCCCCCCCCC(=O)[O-]
REMARK SMILES IDX 16 1 17 2 18 3 19 4 20 5 21 6 22 7 23 8 24 9 25 10 26 11
REMARK SMILES IDX 27 12 28 13 29 14 30 15 31 16 32 17 15 18 14 19 13 20 12 21
REMARK SMILES IDX 11 22 10 23 9 24 8 25 7 26 6 27 5 28 4 29 3 30 2 31 1 32
REMARK H PARENT
REMARK Flexibility Score: inf
ROOT
ATOM      1  C   UNL     1      14.479  13.468  27.043  1.00  0.00     0.000 C 
ENDROOT
BRANCH   1   2
ATOM      2  C   UNL     1      13.928  13.360  25.605  1.00  0.00     0.000 C 
BRANCH   2   3
ATOM      3  C   UNL     1      12.427  13.033  25.569  1.00  0.00     0.000 C 
BRANCH   3   4
ATOM      4  C   UNL     1      11.834  13.021  26.985  1.00  0.00     0.000 C 
BRANCH   4   5
ATOM      5  C   UNL     1      10.580  13.902  27.107  1.00  0.00     0.000 C 
BRANCH   5   6
ATOM      6  C   UNL     1       9.285  13.079  27.187  1.00  0.00     0.000 C 
BRANCH   6   7
ATOM      7  C   UNL     1       8.111  13.951  27.653  1.00  0.00     0.000 C 
BRANCH   7   8
ATOM      8  C   UNL     1       8.555  15.339  28.149  1.00  0.00     0.000 C 
BRANCH   8   9
ATOM      9  C   UNL     1       7.844  16.530  27.475  1.00  0.00     0.000 C 
BRANCH   9  10
ATOM     10  C   UNL     1       8.745  17.412  26.589  1.00  0.00     0.000 C 
BRANCH  10  11
ATOM     11  C   UNL     1       8.613  17.162  25.072  1.00  0.00     0.000 C 
BRANCH  11  12
ATOM     12  C   UNL     1       7.446  16.245  24.662  1.00  0.00     0.000 C 
BRANCH  12  13
ATOM     13  C   UNL     1       7.920  14.898  24.088  1.00  0.00     0.006 C 
BRANCH  13  14
ATOM     14  C   UNL     1       9.436  14.866  23.860  1.00  0.00     0.053 C 
BRANCH  14  15
ATOM     15  C   UNL     1       9.777  14.626  22.421  1.00  0.00     0.041 C 
ATOM     16  O   UNL     1      10.747  15.229  21.889  1.00  0.00    -0.550 OA
ATOM     17  O   UNL     1       9.038  13.719  21.673  1.00  0.00    -0.550 OA
ENDBRANCH  14  15
ENDBRANCH  13  14
ENDBRANCH  12  13
ENDBRANCH  11  12
ENDBRANCH  10  11
ENDBRANCH   9  10
ENDBRANCH   8   9
ENDBRANCH   7   8
ENDBRANCH   6   7
ENDBRANCH   5   6
ENDBRANCH   4   5
ENDBRANCH   3   4
ENDBRANCH   2   3
ENDBRANCH   1   2
BRANCH   1  18
ATOM     18  C   UNL     1      16.008  13.307  27.138  1.00  0.00     0.000 C 
BRANCH  18  19
ATOM     19  C   UNL     1      16.767  14.554  27.630  1.00  0.00     0.000 C 
BRANCH  19  20
ATOM     20  C   UNL     1      15.892  15.640  28.290  1.00  0.00     0.000 C 
BRANCH  20  21
ATOM     21  C   UNL     1      16.253  15.980  29.748  1.00  0.00     0.000 C 
BRANCH  21  22
ATOM     22  C   UNL     1      17.415  15.128  30.289  1.00  0.00     0.000 C 
BRANCH  22  23
ATOM     23  C   UNL     1      16.964  14.119  31.358  1.00  0.00     0.000 C 
BRANCH  23  24
ATOM     24  C   UNL     1      16.983  12.665  30.853  1.00  0.00    -0.000 C 
BRANCH  24  25
ATOM     25  C   UNL     1      15.566  12.088  30.688  1.00  0.00    -0.000 C 
BRANCH  25  26
ATOM     26  C   UNL     1      14.491  12.983  31.331  1.00  0.00    -0.000 C 
BRANCH  26  27
ATOM     27  C   UNL     1      13.249  13.159  30.439  1.00  0.00    -0.000 C 
BRANCH  27  28
ATOM     28  C   UNL     1      12.825  14.621  30.194  1.00  0.00    -0.000 C 
BRANCH  28  29
ATOM     29  C   UNL     1      11.346  14.934  30.502  1.00  0.00    -0.000 C 
BRANCH  29  30
ATOM     30  C   UNL     1      10.881  14.551  31.922  1.00  0.00    -0.000 C 
BRANCH  30  31
ATOM     31  C   UNL     1       9.928  13.344  31.987  1.00  0.00    -0.003 C 
ATOM     32  C   UNL     1       8.522  13.665  31.483  1.00  0.00     0.004 C 
ENDBRANCH  30  31
ENDBRANCH  29  30
ENDBRANCH  28  29
ENDBRANCH  27  28
ENDBRANCH  26  27
ENDBRANCH  25  26
ENDBRANCH  24  25
ENDBRANCH  23  24
ENDBRANCH  22  23
ENDBRANCH  21  22
ENDBRANCH  20  21
ENDBRANCH  19  20
ENDBRANCH  18  19
ENDBRANCH   1  18
TORSDOF 28
ENDMDL
MODEL 9
REMARK VINA RESULT:    -3.630      3.055      7.562
REMARK INTER + INTRA:         -14.590
REMARK INTER:                  -8.655
REMARK INTRA:                  -5.935
REMARK UNBOUND:                -5.018
REMARK SMILES CCCCCCCCCCCCCCCCCCCCCCCCCCCCCC(=O)[O-]
REMARK SMILES IDX 16 1 17 2 18 3 19 4 20 5 21 6 22 7 23 8 24 9 25 10 26 11
REMARK SMILES IDX 27 12 28 13 29 14 30 15 31 16 32 17 15 18 14 19 13 20 12 21
REMARK SMILES IDX 11 22 10 23 9 24 8 25 7 26 6 27 5 28 4 29 3 30 2 31 1 32
REMARK H PARENT
REMARK Flexibility Score: inf
ROOT
ATOM      1  C   UNL     1      13.033  12.182  27.003  1.00  0.00     0.000 C 
ENDROOT
BRANCH   1   2
ATOM      2  C   UNL     1      12.176  13.324  26.416  1.00  0.00     0.000 C 
BRANCH   2   3
ATOM      3  C   UNL     1      10.706  13.247  26.854  1.00  0.00     0.000 C 
BRANCH   3   4
ATOM      4  C   UNL     1      10.344  14.425  27.770  1.00  0.00     0.000 C 
BRANCH   4   5
ATOM      5  C   UNL     1      10.310  14.029  29.255  1.00  0.00     0.000 C 
BRANCH   5   6
ATOM      6  C   UNL     1      11.252  14.885  30.116  1.00  0.00     0.000 C 
BRANCH   6   7
ATOM      7  C   UNL     1      11.326  14.341  31.550  1.00  0.00     0.000 C 
BRANCH   7   8
ATOM      8  C   UNL     1      12.586  13.494  31.806  1.00  0.00     0.000 C 
BRANCH   8   9
ATOM      9  C   UNL     1      12.600  12.121  31.106  1.00  0.00     0.000 C 
BRANCH   9  10
ATOM     10  C   UNL     1      13.787  11.211  31.478  1.00  0.00     0.000 C 
BRANCH  10  11
ATOM     11  C   UNL     1      14.851  11.864  32.384  1.00  0.00     0.000 C 
BRANCH  11  12
ATOM     12  C   UNL     1      16.120  12.345  31.656  1.00  0.00     0.000 C 
BRANCH  12  13
ATOM     13  C   UNL     1      17.300  12.586  32.613  1.00  0.00     0.006 C 
BRANCH  13  14
ATOM     14  C   UNL     1      18.599  11.948  32.104  1.00  0.00     0.053 C 
BRANCH  14  15
ATOM     15  C   UNL     1      19.695  12.959  31.955  1.00  0.00     0.041 C 
ATOM     16  O   UNL     1      20.683  12.719  31.212  1.00  0.00    -0.550 OA
ATOM     17  O   UNL     1      19.613  14.176  32.619  1.00  0.00    -0.550 OA
ENDBRANCH  14  15
ENDBRANCH  13  14
ENDBRANCH  12  13
ENDBRANCH  11  12
ENDBRANCH  10  11
ENDBRANCH   9  10
ENDBRANCH   8   9
ENDBRANCH   7   8
ENDBRANCH   6   7
ENDBRANCH   5   6
ENDBRANCH   4   5
ENDBRANCH   3   4
ENDBRANCH   2   3
ENDBRANCH   1   2
BRANCH   1  18
ATOM     18  C   UNL     1      14.204  12.668  27.878  1.00  0.00     0.000 C 
BRANCH  18  19
ATOM     19  C   UNL     1      14.335  14.197  28.004  1.00  0.00     0.000 C 
BRANCH  19  20
ATOM     20  C   UNL     1      14.785  14.708  29.390  1.00  0.00     0.000 C 
BRANCH  20  21
ATOM     21  C   UNL     1      15.846  15.823  29.367  1.00  0.00     0.000 C 
BRANCH  21  22
ATOM     22  C   UNL     1      17.082  15.490  30.221  1.00  0.00     0.000 C 
BRANCH  22  23
ATOM     23  C   UNL     1      18.309  15.120  29.373  1.00  0.00     0.000 C 
BRANCH  23  24
ATOM     24  C   UNL     1      18.154  13.768  28.654  1.00  0.00    -0.000 C 
BRANCH  24  25
ATOM     25  C   UNL     1      17.950  13.935  27.138  1.00  0.00    -0.000 C 
BRANCH  25  26
ATOM     26  C   UNL     1      18.905  14.978  26.530  1.00  0.00    -0.000 C 
BRANCH  26  27
ATOM     27  C   UNL     1      18.168  16.062  25.723  1.00  0.00    -0.000 C 
BRANCH  27  28
ATOM     28  C   UNL     1      16.630  16.015  25.819  1.00  0.00    -0.000 C 
BRANCH  28  29
ATOM     29  C   UNL     1      15.894  15.881  24.469  1.00  0.00    -0.000 C 
BRANCH  29  30
ATOM     30  C   UNL     1      14.921  14.689  24.373  1.00  0.00    -0.000 C 
BRANCH  30  31
ATOM     31  C   UNL     1      15.593  13.305  24.349  1.00  0.00    -0.003 C 
ATOM     32  C   UNL     1      16.827  13.256  23.450  1.00  0.00     0.004 C 
ENDBRANCH  30  31
ENDBRANCH  29  30
ENDBRANCH  28  29
ENDBRANCH  27  28
ENDBRANCH  26  27
ENDBRANCH  25  26
ENDBRANCH  24  25
ENDBRANCH  23  24
ENDBRANCH  22  23
ENDBRANCH  21  22
ENDBRANCH  20  21
ENDBRANCH  19  20
ENDBRANCH  18  19
ENDBRANCH   1  18
TORSDOF 28
ENDMDL
