MODEL 1
REMARK VINA RESULT:    -1.233      0.000      0.000
REMARK INTER + INTRA:          -1.628
REMARK INTER:                  -1.485
REMARK INTRA:                  -0.144
REMARK UNBOUND:                -0.144
REMARK SMILES Oc1cc(O)c2c(c1)O[C@@H](c1ccc(O)c(O)c1)[C@@H](O)C2
REMARK SMILES IDX 21 1 19 2 10 3 9 4 7 5 8 6 2 7 3 8 4 9 6 10 20 11 11 13
REMARK SMILES IDX 18 14 12 15 16 16 13 17 14 18 17 19 15 21 5 23 1 25
REMARK H PARENT 20 12 17 20 15 22 5 24 1 26
REMARK Flexibility Score: inf
ROOT
ATOM      1  C   UNL     1       5.137   6.499  12.505  1.00  0.00     0.079 C 
ATOM      2  C   UNL     1       3.978   6.496  13.520  1.00  0.00     0.164 C 
ATOM      3  C   UNL     1       3.837   7.862  14.233  1.00  0.00     0.232 C 
ATOM      4  O   UNL     1       5.096   8.277  14.775  1.00  0.00    -0.482 OA
ATOM      5  C   UNL     1       6.333   7.916  14.221  1.00  0.00     0.131 A 
ATOM      6  C   UNL     1       7.504   8.440  14.777  1.00  0.00     0.093 A 
ATOM      7  C   UNL     1       8.750   8.108  14.241  1.00  0.00     0.122 A 
ATOM      8  C   UNL     1       8.827   7.251  13.136  1.00  0.00     0.092 A 
ATOM      9  C   UNL     1       7.661   6.718  12.570  1.00  0.00     0.126 A 
ATOM     10  C   UNL     1       6.405   7.032  13.125  1.00  0.00     0.039 A 
ENDROOT
BRANCH   2  11
ATOM     11  O   UNL     1       2.769   6.089  12.927  1.00  0.00    -0.389 OA
ATOM     12  H   UNL     1       2.771   6.393  11.982  1.00  0.00     0.211 HD
ENDBRANCH   2  11
BRANCH   3  13
ATOM     13  C   UNL     1       3.246   8.945  13.348  1.00  0.00    -0.001 A 
ATOM     14  C   UNL     1       1.895   9.306  13.504  1.00  0.00     0.057 A 
ATOM     15  C   UNL     1       4.005   9.574  12.343  1.00  0.00     0.012 A 
ATOM     16  C   UNL     1       1.316  10.281  12.680  1.00  0.00     0.157 A 
ATOM     17  C   UNL     1       3.428  10.547  11.524  1.00  0.00     0.050 A 
ATOM     18  C   UNL     1       2.085  10.905  11.690  1.00  0.00     0.157 A 
BRANCH  16  19
ATOM     19  O   UNL     1      -0.022  10.633  12.839  1.00  0.00    -0.504 OA
ATOM     20  H   UNL     1      -0.429  11.416  12.338  1.00  0.00     0.293 HD
ENDBRANCH  16  19
BRANCH  18  21
ATOM     21  O   UNL     1       1.506  11.876  10.875  1.00  0.00    -0.504 OA
ATOM     22  H   UNL     1       1.592  11.840   9.866  1.00  0.00     0.293 HD
ENDBRANCH  18  21
ENDBRANCH   3  13
BRANCH   9  23
ATOM     23  O   UNL     1       7.747   5.881  11.458  1.00  0.00    -0.507 OA
ATOM     24  H   UNL     1       7.314   4.965  11.448  1.00  0.00     0.293 HD
ENDBRANCH   9  23
BRANCH   7  25
ATOM     25  O   UNL     1       9.906   8.632  14.814  1.00  0.00    -0.508 OA
ATOM     26  H   UNL     1      10.495   9.289  14.315  1.00  0.00     0.293 HD
ENDBRANCH   7  25
TORSDOF 6
ENDMDL
