MODEL 1
REMARK VINA RESULT:    -4.276      0.000      0.000
REMARK INTER + INTRA:          -5.381
REMARK INTER:                  -6.026
REMARK INTRA:                   0.645
REMARK UNBOUND:                 0.645
REMARK SMILES CC1=CCC(=C(C)C)C(=O)CC(C)=CCC1
REMARK SMILES IDX 12 1 14 2 13 3 15 4 16 5 2 6 1 7 3 8 11 10 9 11 10 12 5 13
REMARK SMILES IDX 6 14 7 15 8 16 4 17
REMARK H PARENT
REMARK Flexibility Score: 60.00
ROOT
ATOM      1  C   UNL     1      10.354 -33.097 -31.872  1.00  0.00    -0.070 C 
ATOM      2  C   UNL     1       9.875 -32.494 -30.759  1.00  0.00    -0.027 C 
ATOM      3  C   UNL     1      10.224 -32.366 -33.185  1.00  0.00     0.039 C 
ENDROOT
BRANCH   2   4
ATOM      4  C   UNL     1       9.966 -33.054 -29.358  1.00  0.00     0.032 C 
BRANCH   4   5
ATOM      5  C   UNL     1      11.288 -32.668 -28.678  1.00  0.00     0.034 C 
BRANCH   5   6
ATOM      6  C   UNL     1      11.793 -33.713 -27.693  1.00  0.00    -0.077 C 
ATOM      7  C   UNL     1      11.102 -33.849 -26.358  1.00  0.00     0.039 C 
ATOM      8  C   UNL     1      12.822 -34.550 -27.957  1.00  0.00    -0.023 CG0
ATOM      9  G   UNL     1      13.676 -34.522 -29.203  1.00  0.00     0.000 G0
ENDBRANCH   5   6
ENDBRANCH   4   5
ENDBRANCH   2   4
BRANCH   1  10
ATOM     10  C   UNL     1      11.002 -34.467 -31.856  1.00  0.00     0.111 C 
BRANCH  10  11
ATOM     11  C   UNL     1      12.460 -34.374 -31.501  1.00  0.00     0.163 C 
ATOM     12  O   UNL     1      13.196 -33.561 -32.121  1.00  0.00    -0.294 OA
BRANCH  11  13
ATOM     13  C   UNL     1      13.044 -35.206 -30.418  1.00  0.00    -0.002 C 
ATOM     14  C   UNL     1      13.024 -36.564 -30.509  1.00  0.00    -0.069 C 
ATOM     15  C   UNL     1      13.564 -37.428 -29.393  1.00  0.00     0.039 C 
ATOM     16  C   UNL     1      12.493 -37.258 -31.744  1.00  0.00     0.039 C 
BRANCH  13  17
ATOM     17  C   UNL     1      13.670 -34.520 -29.209  1.00  0.00     0.066 CG0
ATOM     18  G   UNL     1      12.803 -34.561 -27.972  1.00  0.00     0.000 G0
ENDBRANCH  13  17
ENDBRANCH  11  13
ENDBRANCH  10  11
ENDBRANCH   1  10
TORSDOF 0
ENDMDL
MODEL 2
REMARK VINA RESULT:    -4.053      1.770      4.748
REMARK INTER + INTRA:          -5.067
REMARK INTER:                  -5.678
REMARK INTRA:                   0.611
REMARK UNBOUND:                 0.645
REMARK SMILES CC1=CCC(=C(C)C)C(=O)CC(C)=CCC1
REMARK SMILES IDX 12 1 14 2 13 3 15 4 16 5 2 6 1 7 3 8 11 10 9 11 10 12 5 13
REMARK SMILES IDX 6 14 7 15 8 16 4 17
REMARK H PARENT
REMARK Flexibility Score: 60.00
ROOT
ATOM      1  C   UNL     1      13.086 -33.871 -27.474  1.00  0.00    -0.070 C 
ATOM      2  C   UNL     1      13.420 -35.168 -27.669  1.00  0.00    -0.027 C 
ATOM      3  C   UNL     1      13.808 -33.109 -26.391  1.00  0.00     0.039 C 
ENDROOT
BRANCH   2   4
ATOM      4  C   UNL     1      12.839 -36.066 -28.738  1.00  0.00     0.032 C 
BRANCH   4   5
ATOM      5  C   UNL     1      13.718 -36.089 -29.998  1.00  0.00     0.034 C 
BRANCH   5   6
ATOM      6  C   UNL     1      12.927 -36.251 -31.288  1.00  0.00    -0.077 C 
ATOM      7  C   UNL     1      12.503 -37.636 -31.712  1.00  0.00     0.039 C 
ATOM      8  C   UNL     1      12.560 -35.212 -32.072  1.00  0.00    -0.023 CG0
ATOM      9  G   UNL     1      12.945 -33.768 -31.850  1.00  0.00     0.000 G0
ENDBRANCH   5   6
ENDBRANCH   4   5
ENDBRANCH   2   4
BRANCH   1  10
ATOM     10  C   UNL     1      12.019 -33.162 -28.285  1.00  0.00     0.111 C 
BRANCH  10  11
ATOM     11  C   UNL     1      12.586 -32.615 -29.565  1.00  0.00     0.163 C 
ATOM     12  O   UNL     1      13.555 -31.811 -29.519  1.00  0.00    -0.294 OA
BRANCH  11  13
ATOM     13  C   UNL     1      12.039 -33.020 -30.885  1.00  0.00    -0.002 C 
ATOM     14  C   UNL     1      10.753 -32.724 -31.217  1.00  0.00    -0.069 C 
ATOM     15  C   UNL     1      10.162 -33.175 -32.532  1.00  0.00     0.039 C 
ATOM     16  C   UNL     1       9.878 -31.900 -30.297  1.00  0.00     0.039 C 
BRANCH  13  17
ATOM     17  C   UNL     1      12.938 -33.769 -31.864  1.00  0.00     0.066 CG0
ATOM     18  G   UNL     1      12.534 -35.209 -32.080  1.00  0.00     0.000 G0
ENDBRANCH  13  17
ENDBRANCH  11  13
ENDBRANCH  10  11
ENDBRANCH   1  10
TORSDOF 0
ENDMDL
MODEL 3
REMARK VINA RESULT:    -3.889      2.070      4.678
REMARK INTER + INTRA:          -4.836
REMARK INTER:                  -6.279
REMARK INTRA:                   1.443
REMARK UNBOUND:                 0.645
REMARK SMILES CC1=CCC(=C(C)C)C(=O)CC(C)=CCC1
REMARK SMILES IDX 12 1 14 2 13 3 15 4 16 5 2 6 1 7 3 8 11 10 9 11 10 12 5 13
REMARK SMILES IDX 6 14 7 15 8 16 4 17
REMARK H PARENT
REMARK Flexibility Score: 60.00
ROOT
ATOM      1  C   UNL     1      12.388 -34.486 -27.927  1.00  0.00    -0.070 C 
ATOM      2  C   UNL     1      13.469 -35.284 -28.092  1.00  0.00    -0.027 C 
ATOM      3  C   UNL     1      12.393 -33.516 -26.773  1.00  0.00     0.039 C 
ENDROOT
BRANCH   2   4
ATOM      4  C   UNL     1      13.657 -36.275 -29.218  1.00  0.00     0.032 C 
BRANCH   4   5
ATOM      5  C   UNL     1      13.612 -35.587 -30.591  1.00  0.00     0.034 C 
BRANCH   5   6
ATOM      6  C   UNL     1      12.497 -36.099 -31.491  1.00  0.00    -0.077 C 
ATOM      7  C   UNL     1      12.309 -37.588 -31.642  1.00  0.00     0.039 C 
ATOM      8  C   UNL     1      11.641 -35.286 -32.153  1.00  0.00    -0.023 CG0
ATOM      9  G   UNL     1      11.711 -33.777 -32.179  1.00  0.00     0.000 G0
ENDBRANCH   5   6
ENDBRANCH   4   5
ENDBRANCH   2   4
BRANCH   1  10
ATOM     10  C   UNL     1      11.180 -34.534 -28.841  1.00  0.00     0.111 C 
BRANCH  10  11
ATOM     11  C   UNL     1      11.107 -33.309 -29.709  1.00  0.00     0.163 C 
ATOM     12  O   UNL     1      10.258 -32.416 -29.448  1.00  0.00    -0.294 OA
BRANCH  11  13
ATOM     13  C   UNL     1      12.032 -33.121 -30.856  1.00  0.00    -0.002 C 
ATOM     14  C   UNL     1      13.170 -32.389 -30.708  1.00  0.00    -0.069 C 
ATOM     15  C   UNL     1      14.095 -32.141 -31.877  1.00  0.00     0.039 C 
ATOM     16  C   UNL     1      13.570 -31.827 -29.361  1.00  0.00     0.039 C 
BRANCH  13  17
ATOM     17  C   UNL     1      11.692 -33.762 -32.197  1.00  0.00     0.066 CG0
ATOM     18  G   UNL     1      11.645 -35.272 -32.155  1.00  0.00     0.000 G0
ENDBRANCH  13  17
ENDBRANCH  11  13
ENDBRANCH  10  11
ENDBRANCH   1  10
TORSDOF 0
ENDMDL
MODEL 4
REMARK VINA RESULT:    -3.738      1.653      3.701
REMARK INTER + INTRA:          -4.624
REMARK INTER:                  -5.035
REMARK INTRA:                   0.412
REMARK UNBOUND:                 0.645
REMARK SMILES CC1=CCC(=C(C)C)C(=O)CC(C)=CCC1
REMARK SMILES IDX 12 1 14 2 13 3 15 4 16 5 2 6 1 7 3 8 11 10 9 11 10 12 5 13
REMARK SMILES IDX 6 14 7 15 8 16 4 17
REMARK H PARENT
REMARK Flexibility Score: 60.00
ROOT
ATOM      1  C   UNL     1      11.675 -33.936 -31.999  1.00  0.00    -0.070 C 
ATOM      2  C   UNL     1      11.793 -35.280 -32.114  1.00  0.00    -0.027 C 
ATOM      3  C   UNL     1      10.560 -33.255 -32.752  1.00  0.00     0.039 C 
ENDROOT
BRANCH   2   4
ATOM      4  C   UNL     1      12.815 -36.129 -31.394  1.00  0.00     0.032 C 
BRANCH   4   5
ATOM      5  C   UNL     1      12.272 -36.656 -30.056  1.00  0.00     0.034 C 
BRANCH   5   6
ATOM      6  C   UNL     1      13.258 -36.523 -28.905  1.00  0.00    -0.077 C 
ATOM      7  C   UNL     1      14.361 -37.544 -28.770  1.00  0.00     0.039 C 
ATOM      8  C   UNL     1      13.215 -35.519 -28.000  1.00  0.00    -0.023 CG0
ATOM      9  G   UNL     1      12.152 -34.446 -27.931  1.00  0.00     0.000 G0
ENDBRANCH   5   6
ENDBRANCH   4   5
ENDBRANCH   2   4
BRANCH   1  10
ATOM     10  C   UNL     1      12.614 -33.094 -31.157  1.00  0.00     0.111 C 
BRANCH  10  11
ATOM     11  C   UNL     1      11.979 -32.719 -29.848  1.00  0.00     0.163 C 
ATOM     12  O   UNL     1      10.905 -32.059 -29.848  1.00  0.00    -0.294 OA
BRANCH  11  13
ATOM     13  C   UNL     1      12.582 -33.127 -28.553  1.00  0.00    -0.002 C 
ATOM     14  C   UNL     1      13.504 -32.332 -27.943  1.00  0.00    -0.069 C 
ATOM     15  C   UNL     1      14.169 -32.757 -26.655  1.00  0.00     0.039 C 
ATOM     16  C   UNL     1      13.869 -30.979 -28.513  1.00  0.00     0.039 C 
BRANCH  13  17
ATOM     17  C   UNL     1      12.154 -34.445 -27.917  1.00  0.00     0.066 CG0
ATOM     18  G   UNL     1      13.210 -35.524 -27.984  1.00  0.00     0.000 G0
ENDBRANCH  13  17
ENDBRANCH  11  13
ENDBRANCH  10  11
ENDBRANCH   1  10
TORSDOF 0
ENDMDL
MODEL 5
REMARK VINA RESULT:    -3.484      2.285      4.828
REMARK INTER + INTRA:          -4.266
REMARK INTER:                  -5.105
REMARK INTRA:                   0.839
REMARK UNBOUND:                 0.645
REMARK SMILES CC1=CCC(=C(C)C)C(=O)CC(C)=CCC1
REMARK SMILES IDX 12 1 14 2 13 3 15 4 16 5 2 6 1 7 3 8 11 10 9 11 10 12 5 13
REMARK SMILES IDX 6 14 7 15 8 16 4 17
REMARK H PARENT
REMARK Flexibility Score: 60.00
ROOT
ATOM      1  C   UNL     1      13.010 -35.903 -29.444  1.00  0.00    -0.070 C 
ATOM      2  C   UNL     1      13.340 -36.146 -30.734  1.00  0.00    -0.027 C 
ATOM      3  C   UNL     1      14.036 -36.205 -28.381  1.00  0.00     0.039 C 
ENDROOT
BRANCH   2   4
ATOM      4  C   UNL     1      12.459 -35.857 -31.928  1.00  0.00     0.032 C 
BRANCH   4   5
ATOM      5  C   UNL     1      12.110 -34.365 -32.026  1.00  0.00     0.034 C 
BRANCH   5   6
ATOM      6  C   UNL     1      13.301 -33.445 -31.803  1.00  0.00    -0.077 C 
ATOM      7  C   UNL     1      14.487 -33.552 -32.730  1.00  0.00     0.039 C 
ATOM      8  C   UNL     1      13.349 -32.513 -30.824  1.00  0.00    -0.023 CG0
ATOM      9  G   UNL     1      12.294 -32.303 -29.762  1.00  0.00     0.000 G0
ENDBRANCH   5   6
ENDBRANCH   4   5
ENDBRANCH   2   4
BRANCH   1  10
ATOM     10  C   UNL     1      11.659 -35.355 -29.027  1.00  0.00     0.111 C 
BRANCH  10  11
ATOM     11  C   UNL     1      11.814 -34.203 -28.073  1.00  0.00     0.163 C 
ATOM     12  O   UNL     1      11.291 -34.274 -26.929  1.00  0.00    -0.294 OA
BRANCH  11  13
ATOM     13  C   UNL     1      12.588 -32.992 -28.447  1.00  0.00    -0.002 C 
ATOM     14  C   UNL     1      13.556 -32.513 -27.619  1.00  0.00    -0.069 C 
ATOM     15  C   UNL     1      14.317 -31.252 -27.955  1.00  0.00     0.039 C 
ATOM     16  C   UNL     1      13.933 -33.246 -26.349  1.00  0.00     0.039 C 
BRANCH  13  17
ATOM     17  C   UNL     1      12.286 -32.295 -29.769  1.00  0.00     0.066 CG0
ATOM     18  G   UNL     1      13.350 -32.504 -30.822  1.00  0.00     0.000 G0
ENDBRANCH  13  17
ENDBRANCH  11  13
ENDBRANCH  10  11
ENDBRANCH   1  10
TORSDOF 0
ENDMDL
MODEL 6
REMARK VINA RESULT:    -3.438      2.266      4.441
REMARK INTER + INTRA:          -4.201
REMARK INTER:                  -5.844
REMARK INTRA:                   1.644
REMARK UNBOUND:                 0.645
REMARK SMILES CC1=CCC(=C(C)C)C(=O)CC(C)=CCC1
REMARK SMILES IDX 12 1 14 2 13 3 15 4 16 5 2 6 1 7 3 8 11 10 9 11 10 12 5 13
REMARK SMILES IDX 6 14 7 15 8 16 4 17
REMARK H PARENT
REMARK Flexibility Score: 60.00
ROOT
ATOM      1  C   UNL     1      11.600 -34.015 -28.055  1.00  0.00    -0.070 C 
ATOM      2  C   UNL     1      10.494 -34.237 -28.803  1.00  0.00    -0.027 C 
ATOM      3  C   UNL     1      11.467 -34.083 -26.555  1.00  0.00     0.039 C 
ENDROOT
BRANCH   2   4
ATOM      4  C   UNL     1      10.454 -34.259 -30.314  1.00  0.00     0.032 C 
BRANCH   4   5
ATOM      5  C   UNL     1      10.718 -35.667 -30.867  1.00  0.00     0.034 C 
BRANCH   5   6
ATOM      6  C   UNL     1      12.178 -35.920 -31.215  1.00  0.00    -0.077 C 
ATOM      7  C   UNL     1      12.744 -37.305 -31.018  1.00  0.00     0.039 C 
ATOM      8  C   UNL     1      13.000 -34.970 -31.715  1.00  0.00    -0.023 CG0
ATOM      9  G   UNL     1      12.637 -33.517 -31.918  1.00  0.00     0.000 G0
ENDBRANCH   5   6
ENDBRANCH   4   5
ENDBRANCH   2   4
BRANCH   1  10
ATOM     10  C   UNL     1      12.954 -33.694 -28.658  1.00  0.00     0.111 C 
BRANCH  10  11
ATOM     11  C   UNL     1      12.875 -32.491 -29.556  1.00  0.00     0.163 C 
ATOM     12  O   UNL     1      12.432 -31.405 -29.097  1.00  0.00    -0.294 OA
BRANCH  11  13
ATOM     13  C   UNL     1      13.330 -32.552 -30.969  1.00  0.00    -0.002 C 
ATOM     14  C   UNL     1      14.348 -31.758 -31.398  1.00  0.00    -0.069 C 
ATOM     15  C   UNL     1      14.788 -31.767 -32.844  1.00  0.00     0.039 C 
ATOM     16  C   UNL     1      15.102 -30.865 -30.438  1.00  0.00     0.039 C 
BRANCH  13  17
ATOM     17  C   UNL     1      12.643 -33.518 -31.929  1.00  0.00     0.066 CG0
ATOM     18  G   UNL     1      13.014 -34.965 -31.703  1.00  0.00     0.000 G0
ENDBRANCH  13  17
ENDBRANCH  11  13
ENDBRANCH  10  11
ENDBRANCH   1  10
TORSDOF 0
ENDMDL
MODEL 7
REMARK VINA RESULT:    -3.350      1.724      3.547
REMARK INTER + INTRA:          -4.076
REMARK INTER:                  -5.957
REMARK INTRA:                   1.881
REMARK UNBOUND:                 0.645
REMARK SMILES CC1=CCC(=C(C)C)C(=O)CC(C)=CCC1
REMARK SMILES IDX 12 1 14 2 13 3 15 4 16 5 2 6 1 7 3 8 11 10 9 11 10 12 5 13
REMARK SMILES IDX 6 14 7 15 8 16 4 17
REMARK H PARENT
REMARK Flexibility Score: 60.00
ROOT
ATOM      1  C   UNL     1      12.516 -36.579 -30.569  1.00  0.00    -0.070 C 
ATOM      2  C   UNL     1      13.616 -36.564 -29.781  1.00  0.00    -0.027 C 
ATOM      3  C   UNL     1      12.500 -37.519 -31.747  1.00  0.00     0.039 C 
ENDROOT
BRANCH   2   4
ATOM      4  C   UNL     1      13.784 -35.727 -28.534  1.00  0.00     0.032 C 
BRANCH   4   5
ATOM      5  C   UNL     1      12.499 -34.960 -28.189  1.00  0.00     0.034 C 
BRANCH   5   6
ATOM      6  C   UNL     1      12.752 -33.559 -27.651  1.00  0.00    -0.077 C 
ATOM      7  C   UNL     1      13.477 -33.404 -26.337  1.00  0.00     0.039 C 
ATOM      8  C   UNL     1      12.379 -32.433 -28.301  1.00  0.00    -0.023 CG0
ATOM      9  G   UNL     1      11.588 -32.386 -29.588  1.00  0.00     0.000 G0
ENDBRANCH   5   6
ENDBRANCH   4   5
ENDBRANCH   2   4
BRANCH   1  10
ATOM     10  C   UNL     1      11.312 -35.690 -30.322  1.00  0.00     0.111 C 
BRANCH  10  11
ATOM     11  C   UNL     1      11.381 -34.442 -31.157  1.00  0.00     0.163 C 
ATOM     12  O   UNL     1      10.751 -34.391 -32.247  1.00  0.00    -0.294 OA
BRANCH  11  13
ATOM     13  C   UNL     1      12.161 -33.259 -30.712  1.00  0.00    -0.002 C 
ATOM     14  C   UNL     1      13.360 -32.970 -31.287  1.00  0.00    -0.069 C 
ATOM     15  C   UNL     1      14.193 -31.803 -30.810  1.00  0.00     0.039 C 
ATOM     16  C   UNL     1      13.886 -33.783 -32.450  1.00  0.00     0.039 C 
BRANCH  13  17
ATOM     17  C   UNL     1      11.599 -32.372 -29.605  1.00  0.00     0.066 CG0
ATOM     18  G   UNL     1      12.381 -32.444 -28.314  1.00  0.00     0.000 G0
ENDBRANCH  13  17
ENDBRANCH  11  13
ENDBRANCH  10  11
ENDBRANCH   1  10
TORSDOF 0
ENDMDL
MODEL 8
REMARK VINA RESULT:    -2.967      1.741      2.353
REMARK INTER + INTRA:          -3.537
REMARK INTER:                  -4.876
REMARK INTRA:                   1.339
REMARK UNBOUND:                 0.645
REMARK SMILES CC1=CCC(=C(C)C)C(=O)CC(C)=CCC1
REMARK SMILES IDX 12 1 14 2 13 3 15 4 16 5 2 6 1 7 3 8 11 10 9 11 10 12 5 13
REMARK SMILES IDX 6 14 7 15 8 16 4 17
REMARK H PARENT
REMARK Flexibility Score: 60.00
ROOT
ATOM      1  C   UNL     1      13.382 -32.509 -31.279  1.00  0.00    -0.070 C 
ATOM      2  C   UNL     1      14.147 -31.866 -30.366  1.00  0.00    -0.027 C 
ATOM      3  C   UNL     1      14.046 -33.000 -32.541  1.00  0.00     0.039 C 
ENDROOT
BRANCH   2   4
ATOM      4  C   UNL     1      13.662 -31.355 -29.029  1.00  0.00     0.032 C 
BRANCH   4   5
ATOM      5  C   UNL     1      12.471 -32.172 -28.507  1.00  0.00     0.034 C 
BRANCH   5   6
ATOM      6  C   UNL     1      12.875 -33.313 -27.584  1.00  0.00    -0.077 C 
ATOM      7  C   UNL     1      13.886 -33.047 -26.497  1.00  0.00     0.039 C 
ATOM      8  C   UNL     1      12.357 -34.560 -27.670  1.00  0.00    -0.023 CG0
ATOM      9  G   UNL     1      11.388 -35.034 -28.729  1.00  0.00     0.000 G0
ENDBRANCH   5   6
ENDBRANCH   4   5
ENDBRANCH   2   4
BRANCH   1  10
ATOM     10  C   UNL     1      11.896 -32.746 -31.091  1.00  0.00     0.111 C 
BRANCH  10  11
ATOM     11  C   UNL     1      11.565 -34.210 -31.184  1.00  0.00     0.163 C 
ATOM     12  O   UNL     1      10.932 -34.638 -32.186  1.00  0.00    -0.294 OA
BRANCH  11  13
ATOM     13  C   UNL     1      11.987 -35.164 -30.128  1.00  0.00    -0.002 C 
ATOM     14  C   UNL     1      12.905 -36.131 -30.402  1.00  0.00    -0.069 C 
ATOM     15  C   UNL     1      13.306 -37.145 -29.356  1.00  0.00     0.039 C 
ATOM     16  C   UNL     1      13.585 -36.204 -31.752  1.00  0.00     0.039 C 
BRANCH  13  17
ATOM     17  C   UNL     1      11.382 -35.044 -28.733  1.00  0.00     0.066 CG0
ATOM     18  G   UNL     1      12.359 -34.561 -27.687  1.00  0.00     0.000 G0
ENDBRANCH  13  17
ENDBRANCH  11  13
ENDBRANCH  10  11
ENDBRANCH   1  10
TORSDOF 0
ENDMDL
MODEL 9
REMARK VINA RESULT:    -2.876      2.146      4.164
REMARK INTER + INTRA:          -3.408
REMARK INTER:                  -5.121
REMARK INTRA:                   1.713
REMARK UNBOUND:                 0.645
REMARK SMILES CC1=CCC(=C(C)C)C(=O)CC(C)=CCC1
REMARK SMILES IDX 12 1 14 2 13 3 15 4 16 5 2 6 1 7 3 8 11 10 9 11 10 12 5 13
REMARK SMILES IDX 6 14 7 15 8 16 4 17
REMARK H PARENT
REMARK Flexibility Score: 60.00
ROOT
ATOM      1  C   UNL     1      13.389 -33.146 -27.661  1.00  0.00    -0.070 C 
ATOM      2  C   UNL     1      13.286 -32.168 -28.592  1.00  0.00    -0.027 C 
ATOM      3  C   UNL     1      13.612 -32.738 -26.226  1.00  0.00     0.039 C 
ENDROOT
BRANCH   2   4
ATOM      4  C   UNL     1      13.013 -32.391 -30.062  1.00  0.00     0.032 C 
BRANCH   4   5
ATOM      5  C   UNL     1      11.509 -32.529 -30.344  1.00  0.00     0.034 C 
BRANCH   5   6
ATOM      6  C   UNL     1      11.199 -33.206 -31.671  1.00  0.00    -0.077 C 
ATOM      7  C   UNL     1      11.372 -32.420 -32.947  1.00  0.00     0.039 C 
ATOM      8  C   UNL     1      10.794 -34.493 -31.774  1.00  0.00    -0.023 CG0
ATOM      9  G   UNL     1      10.502 -35.414 -30.613  1.00  0.00     0.000 G0
ENDBRANCH   5   6
ENDBRANCH   4   5
ENDBRANCH   2   4
BRANCH   1  10
ATOM     10  C   UNL     1      13.299 -34.621 -27.999  1.00  0.00     0.111 C 
BRANCH  10  11
ATOM     11  C   UNL     1      11.923 -34.983 -28.484  1.00  0.00     0.163 C 
ATOM     12  O   UNL     1      10.917 -34.620 -27.817  1.00  0.00    -0.294 OA
BRANCH  11  13
ATOM     13  C   UNL     1      11.725 -35.743 -29.745  1.00  0.00    -0.002 C 
ATOM     14  C   UNL     1      12.617 -36.702 -30.116  1.00  0.00    -0.069 C 
ATOM     15  C   UNL     1      12.462 -37.447 -31.422  1.00  0.00     0.039 C 
ATOM     16  C   UNL     1      13.775 -37.083 -29.220  1.00  0.00     0.039 C 
BRANCH  13  17
ATOM     17  C   UNL     1      10.509 -35.437 -30.614  1.00  0.00     0.066 CG0
ATOM     18  G   UNL     1      10.803 -34.499 -31.761  1.00  0.00     0.000 G0
ENDBRANCH  13  17
ENDBRANCH  11  13
ENDBRANCH  10  11
ENDBRANCH   1  10
TORSDOF 0
ENDMDL
