MODEL 1
REMARK VINA RESULT:    -5.654      0.000      0.000
REMARK INTER + INTRA:         -11.860
REMARK INTER:                 -10.612
REMARK INTRA:                  -1.248
REMARK UNBOUND:                -1.248
REMARK SMILES O=C([O-])CCCCCCCCCCCCCCC(=O)[O-]
REMARK SMILES IDX 10 1 9 2 8 3 7 4 6 5 5 6 4 7 2 8 1 9 3 10 11 11 12 12 13 13
REMARK SMILES IDX 14 14 15 15 16 16 17 17 18 18 19 19 20 20
REMARK H PARENT
REMARK Flexibility Score: inf
ROOT
ATOM      1  C   UNL     1     -12.258  10.652   7.696  1.00  0.00     0.000 C 
ENDROOT
BRANCH   1   2
ATOM      2  C   UNL     1     -12.000  10.362   6.208  1.00  0.00     0.000 C 
BRANCH   2   3
ATOM      3  C   UNL     1     -11.233  11.496   5.503  1.00  0.00     0.000 C 
BRANCH   3   4
ATOM      4  C   UNL     1     -10.828  11.202   4.044  1.00  0.00     0.000 C 
BRANCH   4   5
ATOM      5  C   UNL     1     -10.139  12.367   3.311  1.00  0.00     0.000 C 
BRANCH   5   6
ATOM      6  C   UNL     1      -9.344  13.282   4.257  1.00  0.00     0.006 C 
BRANCH   6   7
ATOM      7  C   UNL     1      -7.835  13.220   3.988  1.00  0.00     0.053 C 
BRANCH   7   8
ATOM      8  C   UNL     1      -7.506  13.625   2.583  1.00  0.00     0.041 C 
ATOM      9  O   UNL     1      -7.729  14.801   2.194  1.00  0.00    -0.550 OA
ATOM     10  O   UNL     1      -6.989  12.692   1.693  1.00  0.00    -0.550 OA
ENDBRANCH   7   8
ENDBRANCH   6   7
ENDBRANCH   5   6
ENDBRANCH   4   5
ENDBRANCH   3   4
ENDBRANCH   2   3
ENDBRANCH   1   2
BRANCH   1  11
ATOM     11  C   UNL     1     -13.078  11.934   7.909  1.00  0.00     0.000 C 
BRANCH  11  12
ATOM     12  C   UNL     1     -12.379  12.930   8.851  1.00  0.00     0.000 C 
BRANCH  12  13
ATOM     13  C   UNL     1     -10.901  12.581   9.088  1.00  0.00     0.000 C 
BRANCH  13  14
ATOM     14  C   UNL     1      -9.945  13.531   8.353  1.00  0.00     0.000 C 
BRANCH  14  15
ATOM     15  C   UNL     1      -9.509  14.685   9.265  1.00  0.00     0.000 C 
BRANCH  15  16
ATOM     16  C   UNL     1      -8.034  14.542   9.668  1.00  0.00     0.006 C 
BRANCH  16  17
ATOM     17  C   UNL     1      -7.817  14.775  11.169  1.00  0.00     0.053 C 
BRANCH  17  18
ATOM     18  C   UNL     1      -7.580  13.492  11.904  1.00  0.00     0.041 C 
ATOM     19  O   UNL     1      -8.444  12.576  11.872  1.00  0.00    -0.550 OA
ATOM     20  O   UNL     1      -6.393  13.293  12.596  1.00  0.00    -0.550 OA
ENDBRANCH  17  18
ENDBRANCH  16  17
ENDBRANCH  15  16
ENDBRANCH  14  15
ENDBRANCH  13  14
ENDBRANCH  12  13
ENDBRANCH  11  12
ENDBRANCH   1  11
TORSDOF 15
ENDMDL
MODEL 2
REMARK VINA RESULT:    -5.581      1.299      7.493
REMARK INTER + INTRA:         -11.722
REMARK INTER:                 -10.787
REMARK INTRA:                  -0.936
REMARK UNBOUND:                -1.248
REMARK SMILES O=C([O-])CCCCCCCCCCCCCCC(=O)[O-]
REMARK SMILES IDX 10 1 9 2 8 3 7 4 6 5 5 6 4 7 2 8 1 9 3 10 11 11 12 12 13 13
REMARK SMILES IDX 14 14 15 15 16 16 17 17 18 18 19 19 20 20
REMARK H PARENT
REMARK Flexibility Score: inf
ROOT
ATOM      1  C   UNL     1     -12.470  12.669   8.724  1.00  0.00     0.000 C 
ENDROOT
BRANCH   1   2
ATOM      2  C   UNL     1     -10.947  12.484   8.825  1.00  0.00     0.000 C 
BRANCH   2   3
ATOM      3  C   UNL     1     -10.253  13.642   9.564  1.00  0.00     0.000 C 
BRANCH   3   4
ATOM      4  C   UNL     1      -9.206  14.413   8.733  1.00  0.00     0.000 C 
BRANCH   4   5
ATOM      5  C   UNL     1      -7.834  14.584   9.409  1.00  0.00     0.000 C 
BRANCH   5   6
ATOM      6  C   UNL     1      -7.853  14.221  10.903  1.00  0.00     0.006 C 
BRANCH   6   7
ATOM      7  C   UNL     1      -7.792  15.463  11.800  1.00  0.00     0.053 C 
BRANCH   7   8
ATOM      8  C   UNL     1      -8.026  15.119  13.240  1.00  0.00     0.041 C 
ATOM      9  O   UNL     1      -8.121  16.031  14.101  1.00  0.00    -0.550 OA
ATOM     10  O   UNL     1      -8.101  13.789  13.633  1.00  0.00    -0.550 OA
ENDBRANCH   7   8
ENDBRANCH   6   7
ENDBRANCH   5   6
ENDBRANCH   4   5
ENDBRANCH   3   4
ENDBRANCH   2   3
ENDBRANCH   1   2
BRANCH   1  11
ATOM     11  C   UNL     1     -13.099  11.780   7.641  1.00  0.00     0.000 C 
BRANCH  11  12
ATOM     12  C   UNL     1     -12.282  10.501   7.382  1.00  0.00     0.000 C 
BRANCH  12  13
ATOM     13  C   UNL     1     -11.974  10.290   5.891  1.00  0.00     0.000 C 
BRANCH  13  14
ATOM     14  C   UNL     1     -11.145  11.435   5.291  1.00  0.00     0.000 C 
BRANCH  14  15
ATOM     15  C   UNL     1     -11.025  11.288   3.770  1.00  0.00     0.000 C 
BRANCH  15  16
ATOM     16  C   UNL     1      -9.582  11.530   3.305  1.00  0.00     0.006 C 
BRANCH  16  17
ATOM     17  C   UNL     1      -8.967  12.781   3.947  1.00  0.00     0.053 C 
BRANCH  17  18
ATOM     18  C   UNL     1      -8.740  13.868   2.942  1.00  0.00     0.041 C 
ATOM     19  O   UNL     1      -7.572  14.273   2.700  1.00  0.00    -0.550 OA
ATOM     20  O   UNL     1      -9.813  14.411   2.247  1.00  0.00    -0.550 OA
ENDBRANCH  17  18
ENDBRANCH  16  17
ENDBRANCH  15  16
ENDBRANCH  14  15
ENDBRANCH  13  14
ENDBRANCH  12  13
ENDBRANCH  11  12
ENDBRANCH   1  11
TORSDOF 15
ENDMDL
MODEL 3
REMARK VINA RESULT:    -5.507      1.569      2.675
REMARK INTER + INTRA:         -11.584
REMARK INTER:                 -10.670
REMARK INTRA:                  -0.915
REMARK UNBOUND:                -1.248
REMARK SMILES O=C([O-])CCCCCCCCCCCCCCC(=O)[O-]
REMARK SMILES IDX 10 1 9 2 8 3 7 4 6 5 5 6 4 7 2 8 1 9 3 10 11 11 12 12 13 13
REMARK SMILES IDX 14 14 15 15 16 16 17 17 18 18 19 19 20 20
REMARK H PARENT
REMARK Flexibility Score: inf
ROOT
ATOM      1  C   UNL     1     -11.351  11.539   5.351  1.00  0.00     0.000 C 
ENDROOT
BRANCH   1   2
ATOM      2  C   UNL     1     -10.710  11.137   4.012  1.00  0.00     0.000 C 
BRANCH   2   3
ATOM      3  C   UNL     1     -10.806  12.247   2.949  1.00  0.00     0.000 C 
BRANCH   3   4
ATOM      4  C   UNL     1      -9.784  13.392   3.106  1.00  0.00     0.000 C 
BRANCH   4   5
ATOM      5  C   UNL     1      -8.573  13.067   3.998  1.00  0.00     0.000 C 
BRANCH   5   6
ATOM      6  C   UNL     1      -7.255  12.982   3.210  1.00  0.00     0.006 C 
BRANCH   6   7
ATOM      7  C   UNL     1      -7.268  13.877   1.964  1.00  0.00     0.053 C 
BRANCH   7   8
ATOM      8  C   UNL     1      -6.877  13.117   0.733  1.00  0.00     0.041 C 
ATOM      9  O   UNL     1      -6.437  11.942   0.827  1.00  0.00    -0.550 OA
ATOM     10  O   UNL     1      -6.964  13.722  -0.514  1.00  0.00    -0.550 OA
ENDBRANCH   7   8
ENDBRANCH   6   7
ENDBRANCH   5   6
ENDBRANCH   4   5
ENDBRANCH   3   4
ENDBRANCH   2   3
ENDBRANCH   1   2
BRANCH   1  11
ATOM     11  C   UNL     1     -12.004  10.348   6.069  1.00  0.00     0.000 C 
BRANCH  11  12
ATOM     12  C   UNL     1     -12.005  10.512   7.600  1.00  0.00     0.000 C 
BRANCH  12  13
ATOM     13  C   UNL     1     -13.111  11.460   8.091  1.00  0.00     0.000 C 
BRANCH  13  14
ATOM     14  C   UNL     1     -12.551  12.728   8.752  1.00  0.00     0.000 C 
BRANCH  14  15
ATOM     15  C   UNL     1     -11.027  12.642   8.901  1.00  0.00     0.000 C 
BRANCH  15  16
ATOM     16  C   UNL     1     -10.445  13.977   9.387  1.00  0.00     0.006 C 
BRANCH  16  17
ATOM     17  C   UNL     1      -9.165  13.788  10.211  1.00  0.00     0.053 C 
BRANCH  17  18
ATOM     18  C   UNL     1      -8.056  14.672   9.730  1.00  0.00     0.041 C 
ATOM     19  O   UNL     1      -7.490  14.435   8.631  1.00  0.00    -0.550 OA
ATOM     20  O   UNL     1      -7.670  15.776  10.478  1.00  0.00    -0.550 OA
ENDBRANCH  17  18
ENDBRANCH  16  17
ENDBRANCH  15  16
ENDBRANCH  14  15
ENDBRANCH  13  14
ENDBRANCH  12  13
ENDBRANCH  11  12
ENDBRANCH   1  11
TORSDOF 15
ENDMDL
MODEL 4
REMARK VINA RESULT:    -5.422      1.918      3.934
REMARK INTER + INTRA:         -11.425
REMARK INTER:                 -10.151
REMARK INTRA:                  -1.274
REMARK UNBOUND:                -1.248
REMARK SMILES O=C([O-])CCCCCCCCCCCCCCC(=O)[O-]
REMARK SMILES IDX 10 1 9 2 8 3 7 4 6 5 5 6 4 7 2 8 1 9 3 10 11 11 12 12 13 13
REMARK SMILES IDX 14 14 15 15 16 16 17 17 18 18 19 19 20 20
REMARK H PARENT
REMARK Flexibility Score: inf
ROOT
ATOM      1  C   UNL     1     -10.472  14.030   9.259  1.00  0.00     0.000 C 
ENDROOT
BRANCH   1   2
ATOM      2  C   UNL     1     -11.017  12.596   9.157  1.00  0.00     0.000 C 
BRANCH   2   3
ATOM      3  C   UNL     1     -12.488  12.548   8.704  1.00  0.00     0.000 C 
BRANCH   3   4
ATOM      4  C   UNL     1     -12.905  11.251   7.979  1.00  0.00     0.000 C 
BRANCH   4   5
ATOM      5  C   UNL     1     -11.834  10.648   7.053  1.00  0.00     0.000 C 
BRANCH   5   6
ATOM      6  C   UNL     1     -11.941  11.155   5.605  1.00  0.00     0.006 C 
BRANCH   6   7
ATOM      7  C   UNL     1     -10.672  11.888   5.154  1.00  0.00     0.053 C 
BRANCH   7   8
ATOM      8  C   UNL     1     -10.574  11.959   3.660  1.00  0.00     0.041 C 
ATOM      9  O   UNL     1     -10.826  10.945   2.960  1.00  0.00    -0.550 OA
ATOM     10  O   UNL     1     -10.169  13.137   3.045  1.00  0.00    -0.550 OA
ENDBRANCH   7   8
ENDBRANCH   6   7
ENDBRANCH   5   6
ENDBRANCH   4   5
ENDBRANCH   3   4
ENDBRANCH   2   3
ENDBRANCH   1   2
BRANCH   1  11
ATOM     11  C   UNL     1      -9.185  14.228   8.443  1.00  0.00     0.000 C 
BRANCH  11  12
ATOM     12  C   UNL     1      -7.975  14.578   9.327  1.00  0.00     0.000 C 
BRANCH  12  13
ATOM     13  C   UNL     1      -8.380  14.957  10.761  1.00  0.00     0.000 C 
BRANCH  13  14
ATOM     14  C   UNL     1      -7.304  14.595  11.794  1.00  0.00     0.000 C 
BRANCH  14  15
ATOM     15  C   UNL     1      -7.792  13.483  12.730  1.00  0.00     0.000 C 
BRANCH  15  16
ATOM     16  C   UNL     1      -8.610  12.436  11.960  1.00  0.00     0.006 C 
BRANCH  16  17
ATOM     17  C   UNL     1      -8.513  11.042  12.595  1.00  0.00     0.053 C 
BRANCH  17  18
ATOM     18  C   UNL     1      -7.099  10.676  12.925  1.00  0.00     0.041 C 
ATOM     19  O   UNL     1      -6.752  10.509  14.124  1.00  0.00    -0.550 OA
ATOM     20  O   UNL     1      -6.173  10.486  11.908  1.00  0.00    -0.550 OA
ENDBRANCH  17  18
ENDBRANCH  16  17
ENDBRANCH  15  16
ENDBRANCH  14  15
ENDBRANCH  13  14
ENDBRANCH  12  13
ENDBRANCH  11  12
ENDBRANCH   1  11
TORSDOF 15
ENDMDL
MODEL 5
REMARK VINA RESULT:    -5.407      1.652      7.403
REMARK INTER + INTRA:         -11.396
REMARK INTER:                 -10.395
REMARK INTRA:                  -1.002
REMARK UNBOUND:                -1.248
REMARK SMILES O=C([O-])CCCCCCCCCCCCCCC(=O)[O-]
REMARK SMILES IDX 10 1 9 2 8 3 7 4 6 5 5 6 4 7 2 8 1 9 3 10 11 11 12 12 13 13
REMARK SMILES IDX 14 14 15 15 16 16 17 17 18 18 19 19 20 20
REMARK H PARENT
REMARK Flexibility Score: inf
ROOT
ATOM      1  C   UNL     1     -12.033  10.869   5.679  1.00  0.00     0.000 C 
ENDROOT
BRANCH   1   2
ATOM      2  C   UNL     1     -12.076  11.122   7.196  1.00  0.00     0.000 C 
BRANCH   2   3
ATOM      3  C   UNL     1     -10.931  12.029   7.682  1.00  0.00     0.000 C 
BRANCH   3   4
ATOM      4  C   UNL     1     -11.139  12.652   9.078  1.00  0.00     0.000 C 
BRANCH   4   5
ATOM      5  C   UNL     1     -10.262  13.881   9.381  1.00  0.00     0.000 C 
BRANCH   5   6
ATOM      6  C   UNL     1      -9.163  13.592  10.417  1.00  0.00     0.006 C 
BRANCH   6   7
ATOM      7  C   UNL     1      -7.902  14.429  10.169  1.00  0.00     0.053 C 
BRANCH   7   8
ATOM      8  C   UNL     1      -7.858  15.638  11.055  1.00  0.00     0.041 C 
ATOM      9  O   UNL     1      -7.665  16.778  10.560  1.00  0.00    -0.550 OA
ATOM     10  O   UNL     1      -7.992  15.498  12.430  1.00  0.00    -0.550 OA
ENDBRANCH   7   8
ENDBRANCH   6   7
ENDBRANCH   5   6
ENDBRANCH   4   5
ENDBRANCH   3   4
ENDBRANCH   2   3
ENDBRANCH   1   2
BRANCH   1  11
ATOM     11  C   UNL     1     -10.722  11.352   5.041  1.00  0.00     0.000 C 
BRANCH  11  12
ATOM     12  C   UNL     1     -10.912  11.823   3.588  1.00  0.00     0.000 C 
BRANCH  12  13
ATOM     13  C   UNL     1     -10.010  13.016   3.231  1.00  0.00     0.000 C 
BRANCH  13  14
ATOM     14  C   UNL     1      -9.016  13.360   4.350  1.00  0.00     0.000 C 
BRANCH  14  15
ATOM     15  C   UNL     1      -7.578  13.381   3.819  1.00  0.00     0.000 C 
BRANCH  15  16
ATOM     16  C   UNL     1      -7.230  12.060   3.119  1.00  0.00     0.006 C 
BRANCH  16  17
ATOM     17  C   UNL     1      -5.954  12.169   2.273  1.00  0.00     0.053 C 
BRANCH  17  18
ATOM     18  C   UNL     1      -6.151  13.050   1.079  1.00  0.00     0.041 C 
ATOM     19  O   UNL     1      -7.185  12.933   0.369  1.00  0.00    -0.550 OA
ATOM     20  O   UNL     1      -5.211  14.024   0.768  1.00  0.00    -0.550 OA
ENDBRANCH  17  18
ENDBRANCH  16  17
ENDBRANCH  15  16
ENDBRANCH  14  15
ENDBRANCH  13  14
ENDBRANCH  12  13
ENDBRANCH  11  12
ENDBRANCH   1  11
TORSDOF 15
ENDMDL
MODEL 6
REMARK VINA RESULT:    -5.402      4.099      6.585
REMARK INTER + INTRA:         -11.388
REMARK INTER:                 -10.308
REMARK INTRA:                  -1.080
REMARK UNBOUND:                -1.248
REMARK SMILES O=C([O-])CCCCCCCCCCCCCCC(=O)[O-]
REMARK SMILES IDX 10 1 9 2 8 3 7 4 6 5 5 6 4 7 2 8 1 9 3 10 11 11 12 12 13 13
REMARK SMILES IDX 14 14 15 15 16 16 17 17 18 18 19 19 20 20
REMARK H PARENT
REMARK Flexibility Score: inf
ROOT
ATOM      1  C   UNL     1      -6.558  11.957   3.014  1.00  0.00     0.000 C 
ENDROOT
BRANCH   1   2
ATOM      2  C   UNL     1      -7.326  10.692   2.597  1.00  0.00     0.000 C 
BRANCH   2   3
ATOM      3  C   UNL     1      -6.449   9.426   2.625  1.00  0.00     0.000 C 
BRANCH   3   4
ATOM      4  C   UNL     1      -5.222   9.502   3.557  1.00  0.00     0.000 C 
BRANCH   4   5
ATOM      5  C   UNL     1      -5.114   8.362   4.586  1.00  0.00     0.000 C 
BRANCH   5   6
ATOM      6  C   UNL     1      -3.922   8.532   5.544  1.00  0.00     0.006 C 
BRANCH   6   7
ATOM      7  C   UNL     1      -4.374   8.839   6.978  1.00  0.00     0.053 C 
BRANCH   7   8
ATOM      8  C   UNL     1      -3.796  10.129   7.475  1.00  0.00     0.041 C 
ATOM      9  O   UNL     1      -3.818  11.155   6.747  1.00  0.00    -0.550 OA
ATOM     10  O   UNL     1      -3.201  10.187   8.729  1.00  0.00    -0.550 OA
ENDBRANCH   7   8
ENDBRANCH   6   7
ENDBRANCH   5   6
ENDBRANCH   4   5
ENDBRANCH   3   4
ENDBRANCH   2   3
ENDBRANCH   1   2
BRANCH   1  11
ATOM     11  C   UNL     1      -7.472  13.014   3.653  1.00  0.00     0.000 C 
BRANCH  11  12
ATOM     12  C   UNL     1      -8.523  13.558   2.668  1.00  0.00     0.000 C 
BRANCH  12  13
ATOM     13  C   UNL     1      -9.956  13.154   3.051  1.00  0.00     0.000 C 
BRANCH  13  14
ATOM     14  C   UNL     1     -10.028  12.462   4.420  1.00  0.00     0.000 C 
BRANCH  14  15
ATOM     15  C   UNL     1     -10.904  11.204   4.354  1.00  0.00     0.000 C 
BRANCH  15  16
ATOM     16  C   UNL     1     -11.639  10.976   5.682  1.00  0.00     0.006 C 
BRANCH  16  17
ATOM     17  C   UNL     1     -11.041  11.803   6.828  1.00  0.00     0.053 C 
BRANCH  17  18
ATOM     18  C   UNL     1     -11.885  11.736   8.063  1.00  0.00     0.041 C 
ATOM     19  O   UNL     1     -11.342  11.710   9.199  1.00  0.00    -0.550 OA
ATOM     20  O   UNL     1     -13.270  11.737   7.963  1.00  0.00    -0.550 OA
ENDBRANCH  17  18
ENDBRANCH  16  17
ENDBRANCH  15  16
ENDBRANCH  14  15
ENDBRANCH  13  14
ENDBRANCH  12  13
ENDBRANCH  11  12
ENDBRANCH   1  11
TORSDOF 15
ENDMDL
MODEL 7
REMARK VINA RESULT:    -5.360      1.814      7.565
REMARK INTER + INTRA:         -11.309
REMARK INTER:                 -10.344
REMARK INTRA:                  -0.965
REMARK UNBOUND:                -1.248
REMARK SMILES O=C([O-])CCCCCCCCCCCCCCC(=O)[O-]
REMARK SMILES IDX 10 1 9 2 8 3 7 4 6 5 5 6 4 7 2 8 1 9 3 10 11 11 12 12 13 13
REMARK SMILES IDX 14 14 15 15 16 16 17 17 18 18 19 19 20 20
REMARK H PARENT
REMARK Flexibility Score: inf
ROOT
ATOM      1  C   UNL     1     -12.014  11.167   6.786  1.00  0.00     0.000 C 
ENDROOT
BRANCH   1   2
ATOM      2  C   UNL     1     -10.912  12.033   7.418  1.00  0.00     0.000 C 
BRANCH   2   3
ATOM      3  C   UNL     1     -11.236  12.447   8.866  1.00  0.00     0.000 C 
BRANCH   3   4
ATOM      4  C   UNL     1     -10.329  13.550   9.448  1.00  0.00     0.000 C 
BRANCH   4   5
ATOM      5  C   UNL     1      -9.350  14.187   8.445  1.00  0.00     0.000 C 
BRANCH   5   6
ATOM      6  C   UNL     1      -8.024  14.617   9.093  1.00  0.00     0.006 C 
BRANCH   6   7
ATOM      7  C   UNL     1      -8.049  14.461  10.618  1.00  0.00     0.053 C 
BRANCH   7   8
ATOM      8  C   UNL     1      -8.019  15.789  11.312  1.00  0.00     0.041 C 
ATOM      9  O   UNL     1      -7.869  15.848  12.559  1.00  0.00    -0.550 OA
ATOM     10  O   UNL     1      -8.195  16.958  10.583  1.00  0.00    -0.550 OA
ENDBRANCH   7   8
ENDBRANCH   6   7
ENDBRANCH   5   6
ENDBRANCH   4   5
ENDBRANCH   3   4
ENDBRANCH   2   3
ENDBRANCH   1   2
BRANCH   1  11
ATOM     11  C   UNL     1     -11.673  10.741   5.349  1.00  0.00     0.000 C 
BRANCH  11  12
ATOM     12  C   UNL     1     -10.841  11.799   4.603  1.00  0.00     0.000 C 
BRANCH  12  13
ATOM     13  C   UNL     1     -10.573  11.415   3.139  1.00  0.00     0.000 C 
BRANCH  13  14
ATOM     14  C   UNL     1      -9.124  10.966   2.902  1.00  0.00     0.000 C 
BRANCH  14  15
ATOM     15  C   UNL     1      -8.771  11.015   1.410  1.00  0.00     0.000 C 
BRANCH  15  16
ATOM     16  C   UNL     1      -7.663  12.044   1.141  1.00  0.00     0.006 C 
BRANCH  16  17
ATOM     17  C   UNL     1      -8.212  13.348   0.548  1.00  0.00     0.053 C 
BRANCH  17  18
ATOM     18  C   UNL     1      -8.381  14.408   1.592  1.00  0.00     0.041 C 
ATOM     19  O   UNL     1      -9.520  14.641   2.078  1.00  0.00    -0.550 OA
ATOM     20  O   UNL     1      -7.279  15.114   2.054  1.00  0.00    -0.550 OA
ENDBRANCH  17  18
ENDBRANCH  16  17
ENDBRANCH  15  16
ENDBRANCH  14  15
ENDBRANCH  13  14
ENDBRANCH  12  13
ENDBRANCH  11  12
ENDBRANCH   1  11
TORSDOF 15
ENDMDL
MODEL 8
REMARK VINA RESULT:    -5.350      4.806      8.154
REMARK INTER + INTRA:         -11.290
REMARK INTER:                 -10.513
REMARK INTRA:                  -0.778
REMARK UNBOUND:                -1.248
REMARK SMILES O=C([O-])CCCCCCCCCCCCCCC(=O)[O-]
REMARK SMILES IDX 10 1 9 2 8 3 7 4 6 5 5 6 4 7 2 8 1 9 3 10 11 11 12 12 13 13
REMARK SMILES IDX 14 14 15 15 16 16 17 17 18 18 19 19 20 20
REMARK H PARENT
REMARK Flexibility Score: inf
ROOT
ATOM      1  C   UNL     1     -10.926  11.153   4.027  1.00  0.00     0.000 C 
ENDROOT
BRANCH   1   2
ATOM      2  C   UNL     1     -11.296  11.336   5.509  1.00  0.00     0.000 C 
BRANCH   2   3
ATOM      3  C   UNL     1     -12.290  10.273   6.012  1.00  0.00     0.000 C 
BRANCH   3   4
ATOM      4  C   UNL     1     -12.318  10.077   7.541  1.00  0.00     0.000 C 
BRANCH   4   5
ATOM      5  C   UNL     1     -13.423   9.138   8.058  1.00  0.00     0.000 C 
BRANCH   5   6
ATOM      6  C   UNL     1     -13.830   8.070   7.029  1.00  0.00     0.006 C 
BRANCH   6   7
ATOM      7  C   UNL     1     -13.582   6.647   7.545  1.00  0.00     0.053 C 
BRANCH   7   8
ATOM      8  C   UNL     1     -14.867   5.915   7.787  1.00  0.00     0.041 C 
ATOM      9  O   UNL     1     -15.126   4.861   7.150  1.00  0.00    -0.550 OA
ATOM     10  O   UNL     1     -15.795   6.419   8.690  1.00  0.00    -0.550 OA
ENDBRANCH   7   8
ENDBRANCH   6   7
ENDBRANCH   5   6
ENDBRANCH   4   5
ENDBRANCH   3   4
ENDBRANCH   2   3
ENDBRANCH   1   2
BRANCH   1  11
ATOM     11  C   UNL     1     -10.200  12.377   3.448  1.00  0.00     0.000 C 
BRANCH  11  12
ATOM     12  C   UNL     1      -9.288  13.063   4.481  1.00  0.00     0.000 C 
BRANCH  12  13
ATOM     13  C   UNL     1      -7.891  13.374   3.920  1.00  0.00     0.000 C 
BRANCH  13  14
ATOM     14  C   UNL     1      -7.559  12.546   2.670  1.00  0.00     0.000 C 
BRANCH  14  15
ATOM     15  C   UNL     1      -6.098  12.080   2.692  1.00  0.00     0.000 C 
BRANCH  15  16
ATOM     16  C   UNL     1      -5.997  10.602   3.096  1.00  0.00     0.006 C 
BRANCH  16  17
ATOM     17  C   UNL     1      -4.867  10.351   4.104  1.00  0.00     0.053 C 
BRANCH  17  18
ATOM     18  C   UNL     1      -4.530   8.896   4.211  1.00  0.00     0.041 C 
ATOM     19  O   UNL     1      -3.422   8.471   3.789  1.00  0.00    -0.550 OA
ATOM     20  O   UNL     1      -5.423   8.015   4.807  1.00  0.00    -0.550 OA
ENDBRANCH  17  18
ENDBRANCH  16  17
ENDBRANCH  15  16
ENDBRANCH  14  15
ENDBRANCH  13  14
ENDBRANCH  12  13
ENDBRANCH  11  12
ENDBRANCH   1  11
TORSDOF 15
ENDMDL
MODEL 9
REMARK VINA RESULT:    -5.339      1.122      2.071
REMARK INTER + INTRA:         -11.268
REMARK INTER:                 -10.360
REMARK INTRA:                  -0.908
REMARK UNBOUND:                -1.248
REMARK SMILES O=C([O-])CCCCCCCCCCCCCCC(=O)[O-]
REMARK SMILES IDX 10 1 9 2 8 3 7 4 6 5 5 6 4 7 2 8 1 9 3 10 11 11 12 12 13 13
REMARK SMILES IDX 14 14 15 15 16 16 17 17 18 18 19 19 20 20
REMARK H PARENT
REMARK Flexibility Score: inf
ROOT
ATOM      1  C   UNL     1     -10.892  12.212   7.750  1.00  0.00     0.000 C 
ENDROOT
BRANCH   1   2
ATOM      2  C   UNL     1     -11.863  11.074   7.396  1.00  0.00     0.000 C 
BRANCH   2   3
ATOM      3  C   UNL     1     -11.953  10.817   5.880  1.00  0.00     0.000 C 
BRANCH   3   4
ATOM      4  C   UNL     1     -10.838  11.472   5.039  1.00  0.00     0.000 C 
BRANCH   4   5
ATOM      5  C   UNL     1     -10.827  11.077   3.551  1.00  0.00     0.000 C 
BRANCH   5   6
ATOM      6  C   UNL     1      -9.732  11.799   2.749  1.00  0.00     0.006 C 
BRANCH   6   7
ATOM      7  C   UNL     1      -9.268  13.089   3.437  1.00  0.00     0.053 C 
BRANCH   7   8
ATOM      8  C   UNL     1      -8.649  14.045   2.462  1.00  0.00     0.041 C 
ATOM      9  O   UNL     1      -9.252  15.102   2.142  1.00  0.00    -0.550 OA
ATOM     10  O   UNL     1      -7.424  13.748   1.879  1.00  0.00    -0.550 OA
ENDBRANCH   7   8
ENDBRANCH   6   7
ENDBRANCH   5   6
ENDBRANCH   4   5
ENDBRANCH   3   4
ENDBRANCH   2   3
ENDBRANCH   1   2
BRANCH   1  11
ATOM     11  C   UNL     1     -10.887  12.533   9.252  1.00  0.00     0.000 C 
BRANCH  11  12
ATOM     12  C   UNL     1     -10.573  14.013   9.538  1.00  0.00     0.000 C 
BRANCH  12  13
ATOM     13  C   UNL     1      -9.065  14.311   9.519  1.00  0.00     0.000 C 
BRANCH  13  14
ATOM     14  C   UNL     1      -8.718  15.642  10.200  1.00  0.00     0.000 C 
BRANCH  14  15
ATOM     15  C   UNL     1      -7.525  15.480  11.150  1.00  0.00     0.000 C 
BRANCH  15  16
ATOM     16  C   UNL     1      -7.880  14.558  12.326  1.00  0.00     0.006 C 
BRANCH  16  17
ATOM     17  C   UNL     1      -6.835  13.453  12.534  1.00  0.00     0.053 C 
BRANCH  17  18
ATOM     18  C   UNL     1      -7.364  12.107  12.145  1.00  0.00     0.041 C 
ATOM     19  O   UNL     1      -6.571  11.147  11.954  1.00  0.00    -0.550 OA
ATOM     20  O   UNL     1      -8.732  11.902  12.028  1.00  0.00    -0.550 OA
ENDBRANCH  17  18
ENDBRANCH  16  17
ENDBRANCH  15  16
ENDBRANCH  14  15
ENDBRANCH  13  14
ENDBRANCH  12  13
ENDBRANCH  11  12
ENDBRANCH   1  11
TORSDOF 15
ENDMDL
