MODEL 1
REMARK VINA RESULT:    -4.003      0.000      0.000
REMARK INTER + INTRA:          -4.744
REMARK INTER:                  -4.705
REMARK INTRA:                  -0.039
REMARK UNBOUND:                -0.039
REMARK SMILES O=C([O-])CCC(=O)[O-]
REMARK SMILES IDX 4 1 2 2 1 3 3 4 5 5 6 6 7 7 8 8
REMARK H PARENT
REMARK Flexibility Score: inf
ROOT
ATOM      1  C   UNL     1      -5.980  -0.614   0.245  1.00  0.00     0.059 C 
ENDROOT
BRANCH   1   2
ATOM      2  C   UNL     1      -5.026  -1.521  -0.472  1.00  0.00     0.042 C 
ATOM      3  O   UNL     1      -4.077  -1.038  -1.145  1.00  0.00    -0.550 OA
ATOM      4  O   UNL     1      -5.161  -2.900  -0.364  1.00  0.00    -0.550 OA
ENDBRANCH   1   2
BRANCH   1   5
ATOM      5  C   UNL     1      -5.903   0.820  -0.288  1.00  0.00     0.059 C 
BRANCH   5   6
ATOM      6  C   UNL     1      -7.255   1.466  -0.333  1.00  0.00     0.042 C 
ATOM      7  O   UNL     1      -7.519   2.320  -1.218  1.00  0.00    -0.550 OA
ATOM      8  O   UNL     1      -8.235   1.093   0.579  1.00  0.00    -0.550 OA
ENDBRANCH   5   6
ENDBRANCH   1   5
TORSDOF 3
ENDMDL
MODEL 2
REMARK VINA RESULT:    -3.990      0.186      4.169
REMARK INTER + INTRA:          -4.729
REMARK INTER:                  -4.691
REMARK INTRA:                  -0.038
REMARK UNBOUND:                -0.039
REMARK SMILES O=C([O-])CCC(=O)[O-]
REMARK SMILES IDX 4 1 2 2 1 3 3 4 5 5 6 6 7 7 8 8
REMARK H PARENT
REMARK Flexibility Score: inf
ROOT
ATOM      1  C   UNL     1      -6.014   0.778  -0.064  1.00  0.00     0.059 C 
ENDROOT
BRANCH   1   2
ATOM      2  C   UNL     1      -7.332   1.471  -0.235  1.00  0.00     0.042 C 
ATOM      3  O   UNL     1      -7.511   2.260  -1.200  1.00  0.00    -0.550 OA
ATOM      4  O   UNL     1      -8.374   1.214   0.647  1.00  0.00    -0.550 OA
ENDBRANCH   1   2
BRANCH   1   5
ATOM      5  C   UNL     1      -6.194  -0.716   0.226  1.00  0.00     0.059 C 
BRANCH   5   6
ATOM      6  C   UNL     1      -5.186  -1.547  -0.508  1.00  0.00     0.042 C 
ATOM      7  O   UNL     1      -5.279  -2.803  -0.505  1.00  0.00    -0.550 OA
ATOM      8  O   UNL     1      -4.169  -0.933  -1.228  1.00  0.00    -0.550 OA
ENDBRANCH   5   6
ENDBRANCH   1   5
TORSDOF 3
ENDMDL
MODEL 3
REMARK VINA RESULT:    -3.975      0.836      1.357
REMARK INTER + INTRA:          -4.711
REMARK INTER:                  -4.661
REMARK INTRA:                  -0.051
REMARK UNBOUND:                -0.039
REMARK SMILES O=C([O-])CCC(=O)[O-]
REMARK SMILES IDX 4 1 2 2 1 3 3 4 5 5 6 6 7 7 8 8
REMARK H PARENT
REMARK Flexibility Score: inf
ROOT
ATOM      1  C   UNL     1      -6.073  -0.170  -0.077  1.00  0.00     0.059 C 
ENDROOT
BRANCH   1   2
ATOM      2  C   UNL     1      -5.150  -1.175  -0.695  1.00  0.00     0.042 C 
ATOM      3  O   UNL     1      -4.136  -0.794  -1.337  1.00  0.00    -0.550 OA
ATOM      4  O   UNL     1      -5.387  -2.534  -0.527  1.00  0.00    -0.550 OA
ENDBRANCH   1   2
BRANCH   1   5
ATOM      5  C   UNL     1      -5.584   1.263  -0.310  1.00  0.00     0.059 C 
BRANCH   5   6
ATOM      6  C   UNL     1      -6.722   2.199  -0.585  1.00  0.00     0.042 C 
ATOM      7  O   UNL     1      -7.902   1.858  -0.308  1.00  0.00    -0.550 OA
ATOM      8  O   UNL     1      -6.474   3.463  -1.107  1.00  0.00    -0.550 OA
ENDBRANCH   5   6
ENDBRANCH   1   5
TORSDOF 3
ENDMDL
MODEL 4
REMARK VINA RESULT:    -3.936      0.849      4.255
REMARK INTER + INTRA:          -4.666
REMARK INTER:                  -4.620
REMARK INTRA:                  -0.046
REMARK UNBOUND:                -0.039
REMARK SMILES O=C([O-])CCC(=O)[O-]
REMARK SMILES IDX 4 1 2 2 1 3 3 4 5 5 6 6 7 7 8 8
REMARK H PARENT
REMARK Flexibility Score: inf
ROOT
ATOM      1  C   UNL     1      -5.589   1.255  -0.344  1.00  0.00     0.059 C 
ENDROOT
BRANCH   1   2
ATOM      2  C   UNL     1      -6.699   2.223  -0.621  1.00  0.00     0.042 C 
ATOM      3  O   UNL     1      -7.890   1.914  -0.353  1.00  0.00    -0.550 OA
ATOM      4  O   UNL     1      -6.415   3.480  -1.139  1.00  0.00    -0.550 OA
ENDBRANCH   1   2
BRANCH   1   5
ATOM      5  C   UNL     1      -6.108  -0.182  -0.231  1.00  0.00     0.059 C 
BRANCH   5   6
ATOM      6  C   UNL     1      -5.087  -1.176  -0.693  1.00  0.00     0.042 C 
ATOM      7  O   UNL     1      -4.114  -0.803  -1.398  1.00  0.00    -0.550 OA
ATOM      8  O   UNL     1      -5.190  -2.508  -0.310  1.00  0.00    -0.550 OA
ENDBRANCH   5   6
ENDBRANCH   1   5
TORSDOF 3
ENDMDL
MODEL 5
REMARK VINA RESULT:    -3.923      0.860      4.363
REMARK INTER + INTRA:          -4.650
REMARK INTER:                  -4.603
REMARK INTRA:                  -0.047
REMARK UNBOUND:                -0.039
REMARK SMILES O=C([O-])CCC(=O)[O-]
REMARK SMILES IDX 4 1 2 2 1 3 3 4 5 5 6 6 7 7 8 8
REMARK H PARENT
REMARK Flexibility Score: inf
ROOT
ATOM      1  C   UNL     1      -5.613   1.257  -0.346  1.00  0.00     0.059 C 
ENDROOT
BRANCH   1   2
ATOM      2  C   UNL     1      -6.750   2.210  -0.551  1.00  0.00     0.042 C 
ATOM      3  O   UNL     1      -7.932   1.848  -0.310  1.00  0.00    -0.550 OA
ATOM      4  O   UNL     1      -6.501   3.511  -0.971  1.00  0.00    -0.550 OA
ENDBRANCH   1   2
BRANCH   1   5
ATOM      5  C   UNL     1      -6.111  -0.169  -0.089  1.00  0.00     0.059 C 
BRANCH   5   6
ATOM      6  C   UNL     1      -5.205  -1.191  -0.705  1.00  0.00     0.042 C 
ATOM      7  O   UNL     1      -5.471  -2.417  -0.601  1.00  0.00    -0.550 OA
ATOM      8  O   UNL     1      -4.090  -0.787  -1.428  1.00  0.00    -0.550 OA
ENDBRANCH   5   6
ENDBRANCH   1   5
TORSDOF 3
ENDMDL
MODEL 6
REMARK VINA RESULT:    -3.892      0.915      4.177
REMARK INTER + INTRA:          -4.614
REMARK INTER:                  -4.510
REMARK INTRA:                  -0.104
REMARK UNBOUND:                -0.039
REMARK SMILES O=C([O-])CCC(=O)[O-]
REMARK SMILES IDX 4 1 2 2 1 3 3 4 5 5 6 6 7 7 8 8
REMARK H PARENT
REMARK Flexibility Score: inf
ROOT
ATOM      1  C   UNL     1      -6.081   0.111   0.961  1.00  0.00     0.059 C 
ENDROOT
BRANCH   1   2
ATOM      2  C   UNL     1      -6.674   1.219   0.145  1.00  0.00     0.042 C 
ATOM      3  O   UNL     1      -7.922   1.388   0.119  1.00  0.00    -0.550 OA
ATOM      4  O   UNL     1      -5.848   2.091  -0.553  1.00  0.00    -0.550 OA
ENDBRANCH   1   2
BRANCH   1   5
ATOM      5  C   UNL     1      -6.182  -1.237   0.240  1.00  0.00     0.059 C 
BRANCH   5   6
ATOM      6  C   UNL     1      -4.869  -1.647  -0.353  1.00  0.00     0.042 C 
ATOM      7  O   UNL     1      -4.357  -2.757  -0.052  1.00  0.00    -0.550 OA
ATOM      8  O   UNL     1      -4.231  -0.822  -1.270  1.00  0.00    -0.550 OA
ENDBRANCH   5   6
ENDBRANCH   1   5
TORSDOF 3
ENDMDL
MODEL 7
REMARK VINA RESULT:    -3.554      1.549      2.044
REMARK INTER + INTRA:          -4.216
REMARK INTER:                  -4.188
REMARK INTRA:                  -0.028
REMARK UNBOUND:                -0.039
REMARK SMILES O=C([O-])CCC(=O)[O-]
REMARK SMILES IDX 4 1 2 2 1 3 3 4 5 5 6 6 7 7 8 8
REMARK H PARENT
REMARK Flexibility Score: inf
ROOT
ATOM      1  C   UNL     1      -5.686   0.902  -0.368  1.00  0.00     0.059 C 
ENDROOT
BRANCH   1   2
ATOM      2  C   UNL     1      -5.727  -0.590  -0.491  1.00  0.00     0.042 C 
ATOM      3  O   UNL     1      -5.995  -1.301   0.514  1.00  0.00    -0.550 OA
ATOM      4  O   UNL     1      -5.509  -1.194  -1.723  1.00  0.00    -0.550 OA
ENDBRANCH   1   2
BRANCH   1   5
ATOM      5  C   UNL     1      -7.093   1.499  -0.257  1.00  0.00     0.059 C 
BRANCH   5   6
ATOM      6  C   UNL     1      -7.210   2.785  -1.017  1.00  0.00     0.042 C 
ATOM      7  O   UNL     1      -8.081   2.911  -1.918  1.00  0.00    -0.550 OA
ATOM      8  O   UNL     1      -6.385   3.858  -0.701  1.00  0.00    -0.550 OA
ENDBRANCH   5   6
ENDBRANCH   1   5
TORSDOF 3
ENDMDL
MODEL 8
REMARK VINA RESULT:    -3.328      1.893      2.210
REMARK INTER + INTRA:          -3.951
REMARK INTER:                  -3.806
REMARK INTRA:                  -0.145
REMARK UNBOUND:                -0.039
REMARK SMILES O=C([O-])CCC(=O)[O-]
REMARK SMILES IDX 4 1 2 2 1 3 3 4 5 5 6 6 7 7 8 8
REMARK H PARENT
REMARK Flexibility Score: inf
ROOT
ATOM      1  C   UNL     1      -6.050  -1.490   0.065  1.00  0.00     0.059 C 
ENDROOT
BRANCH   1   2
ATOM      2  C   UNL     1      -5.654  -1.453   1.509  1.00  0.00     0.042 C 
ATOM      3  O   UNL     1      -4.513  -1.853   1.863  1.00  0.00    -0.550 OA
ATOM      4  O   UNL     1      -6.528  -0.939   2.459  1.00  0.00    -0.550 OA
ENDBRANCH   1   2
BRANCH   1   5
ATOM      5  C   UNL     1      -5.435  -0.326  -0.720  1.00  0.00     0.059 C 
BRANCH   5   6
ATOM      6  C   UNL     1      -6.084   0.979  -0.373  1.00  0.00     0.042 C 
ATOM      7  O   UNL     1      -5.381   2.009  -0.200  1.00  0.00    -0.550 OA
ATOM      8  O   UNL     1      -7.468   1.066  -0.282  1.00  0.00    -0.550 OA
ENDBRANCH   5   6
ENDBRANCH   1   5
TORSDOF 3
ENDMDL
MODEL 9
REMARK VINA RESULT:    -3.166      3.295      5.025
REMARK INTER + INTRA:          -3.760
REMARK INTER:                  -3.582
REMARK INTRA:                  -0.178
REMARK UNBOUND:                -0.039
REMARK SMILES O=C([O-])CCC(=O)[O-]
REMARK SMILES IDX 4 1 2 2 1 3 3 4 5 5 6 6 7 7 8 8
REMARK H PARENT
REMARK Flexibility Score: inf
ROOT
ATOM      1  C   UNL     1      -7.096   3.513  -0.908  1.00  0.00     0.059 C 
ENDROOT
BRANCH   1   2
ATOM      2  C   UNL     1      -8.451   4.089  -0.628  1.00  0.00     0.042 C 
ATOM      3  O   UNL     1      -9.424   3.810  -1.376  1.00  0.00    -0.550 OA
ATOM      4  O   UNL     1      -8.646   4.901   0.482  1.00  0.00    -0.550 OA
ENDBRANCH   1   2
BRANCH   1   5
ATOM      5  C   UNL     1      -7.077   1.994  -0.716  1.00  0.00     0.059 C 
BRANCH   5   6
ATOM      6  C   UNL     1      -7.525   1.605   0.661  1.00  0.00     0.042 C 
ATOM      7  O   UNL     1      -6.825   1.906   1.663  1.00  0.00    -0.550 OA
ATOM      8  O   UNL     1      -8.736   0.947   0.839  1.00  0.00    -0.550 OA
ENDBRANCH   5   6
ENDBRANCH   1   5
TORSDOF 3
ENDMDL
