MODEL 1
REMARK VINA RESULT:    -2.453      0.000      0.000
REMARK INTER + INTRA:          -2.453
REMARK INTER:                  -2.453
REMARK INTRA:                   0.000
REMARK UNBOUND:                 0.000
REMARK SMILES CC(=O)[O-]
REMARK SMILES IDX 1 1 2 2 3 3 4 4
REMARK H PARENT
REMARK Flexibility Score: inf
ROOT
ATOM      1  C   UNL     1      15.309  71.886  68.262  1.00  0.00     0.063 C 
ATOM      2  C   UNL     1      15.371  73.346  68.554  1.00  0.00     0.038 C 
ATOM      3  O   UNL     1      15.079  74.183  67.660  1.00  0.00    -0.550 OA
ATOM      4  O   UNL     1      15.699  73.788  69.830  1.00  0.00    -0.550 OA
ENDROOT
TORSDOF 0
ENDMDL
MODEL 2
REMARK VINA RESULT:    -2.448      2.042      2.844
REMARK INTER + INTRA:          -2.448
REMARK INTER:                  -2.448
REMARK INTRA:                   0.000
REMARK UNBOUND:                 0.000
REMARK SMILES CC(=O)[O-]
REMARK SMILES IDX 1 1 2 2 3 3 4 4
REMARK H PARENT
REMARK Flexibility Score: inf
ROOT
ATOM      1  C   UNL     1      13.056  75.584  68.266  1.00  0.00     0.063 C 
ATOM      2  C   UNL     1      14.065  74.552  68.638  1.00  0.00     0.038 C 
ATOM      3  O   UNL     1      13.961  73.929  69.727  1.00  0.00    -0.550 OA
ATOM      4  O   UNL     1      15.093  74.235  67.759  1.00  0.00    -0.550 OA
ENDROOT
TORSDOF 0
ENDMDL
MODEL 3
REMARK VINA RESULT:    -2.441      2.799      3.537
REMARK INTER + INTRA:          -2.441
REMARK INTER:                  -2.441
REMARK INTRA:                   0.000
REMARK UNBOUND:                 0.000
REMARK SMILES CC(=O)[O-]
REMARK SMILES IDX 1 1 2 2 3 3 4 4
REMARK H PARENT
REMARK Flexibility Score: inf
ROOT
ATOM      1  C   UNL     1      13.167  75.726  70.260  1.00  0.00     0.063 C 
ATOM      2  C   UNL     1      13.363  75.208  68.877  1.00  0.00     0.038 C 
ATOM      3  O   UNL     1      13.940  74.105  68.690  1.00  0.00    -0.550 OA
ATOM      4  O   UNL     1      12.860  75.914  67.791  1.00  0.00    -0.550 OA
ENDROOT
TORSDOF 0
ENDMDL
MODEL 4
REMARK VINA RESULT:    -2.411      2.636      3.152
REMARK INTER + INTRA:          -2.411
REMARK INTER:                  -2.411
REMARK INTRA:                   0.000
REMARK UNBOUND:                 0.000
REMARK SMILES CC(=O)[O-]
REMARK SMILES IDX 1 1 2 2 3 3 4 4
REMARK H PARENT
REMARK Flexibility Score: inf
ROOT
ATOM      1  C   UNL     1      13.157  75.409  70.185  1.00  0.00     0.063 C 
ATOM      2  C   UNL     1      13.498  75.257  68.742  1.00  0.00     0.038 C 
ATOM      3  O   UNL     1      12.747  75.750  67.859  1.00  0.00    -0.550 OA
ATOM      4  O   UNL     1      14.673  74.616  68.368  1.00  0.00    -0.550 OA
ENDROOT
TORSDOF 0
ENDMDL
MODEL 5
REMARK VINA RESULT:    -2.407      1.899      2.362
REMARK INTER + INTRA:          -2.407
REMARK INTER:                  -2.407
REMARK INTRA:                   0.000
REMARK UNBOUND:                 0.000
REMARK SMILES CC(=O)[O-]
REMARK SMILES IDX 1 1 2 2 3 3 4 4
REMARK H PARENT
REMARK Flexibility Score: inf
ROOT
ATOM      1  C   UNL     1      13.085  75.392  68.493  1.00  0.00     0.063 C 
ATOM      2  C   UNL     1      14.144  74.356  68.660  1.00  0.00     0.038 C 
ATOM      3  O   UNL     1      15.061  74.244  67.805  1.00  0.00    -0.550 OA
ATOM      4  O   UNL     1      14.152  73.546  69.789  1.00  0.00    -0.550 OA
ENDROOT
TORSDOF 0
ENDMDL
MODEL 6
REMARK VINA RESULT:    -2.354     17.067     17.273
REMARK INTER + INTRA:          -2.354
REMARK INTER:                  -2.354
REMARK INTRA:                   0.000
REMARK UNBOUND:                 0.000
REMARK SMILES CC(=O)[O-]
REMARK SMILES IDX 1 1 2 2 3 3 4 4
REMARK H PARENT
REMARK Flexibility Score: inf
ROOT
ATOM      1  C   UNL     1      11.338  88.380  62.244  1.00  0.00     0.063 C 
ATOM      2  C   UNL     1      11.449  89.280  63.426  1.00  0.00     0.038 C 
ATOM      3  O   UNL     1      10.533  89.306  64.289  1.00  0.00    -0.550 OA
ATOM      4  O   UNL     1      12.588  90.054  63.607  1.00  0.00    -0.550 OA
ENDROOT
TORSDOF 0
ENDMDL
MODEL 7
REMARK VINA RESULT:    -2.320      2.820      3.178
REMARK INTER + INTRA:          -2.320
REMARK INTER:                  -2.320
REMARK INTRA:                   0.000
REMARK UNBOUND:                 0.000
REMARK SMILES CC(=O)[O-]
REMARK SMILES IDX 1 1 2 2 3 3 4 4
REMARK H PARENT
REMARK Flexibility Score: inf
ROOT
ATOM      1  C   UNL     1      12.752  75.749  68.003  1.00  0.00     0.063 C 
ATOM      2  C   UNL     1      13.592  75.273  69.138  1.00  0.00     0.038 C 
ATOM      3  O   UNL     1      14.749  74.824  68.925  1.00  0.00    -0.550 OA
ATOM      4  O   UNL     1      13.123  75.376  70.442  1.00  0.00    -0.550 OA
ENDROOT
TORSDOF 0
ENDMDL
MODEL 8
REMARK VINA RESULT:    -2.311      4.683      5.089
REMARK INTER + INTRA:          -2.311
REMARK INTER:                  -2.311
REMARK INTRA:                   0.000
REMARK UNBOUND:                 0.000
REMARK SMILES CC(=O)[O-]
REMARK SMILES IDX 1 1 2 2 3 3 4 4
REMARK H PARENT
REMARK Flexibility Score: inf
ROOT
ATOM      1  C   UNL     1      16.471  76.753  72.655  1.00  0.00     0.063 C 
ATOM      2  C   UNL     1      15.156  76.062  72.534  1.00  0.00     0.038 C 
ATOM      3  O   UNL     1      14.481  76.167  71.477  1.00  0.00    -0.550 OA
ATOM      4  O   UNL     1      14.697  75.256  73.568  1.00  0.00    -0.550 OA
ENDROOT
TORSDOF 0
ENDMDL
MODEL 9
REMARK VINA RESULT:    -2.211      1.989      2.237
REMARK INTER + INTRA:          -2.211
REMARK INTER:                  -2.211
REMARK INTRA:                   0.000
REMARK UNBOUND:                 0.000
REMARK SMILES CC(=O)[O-]
REMARK SMILES IDX 1 1 2 2 3 3 4 4
REMARK H PARENT
REMARK Flexibility Score: inf
ROOT
ATOM      1  C   UNL     1      15.461  74.087  70.443  1.00  0.00     0.063 C 
ATOM      2  C   UNL     1      14.435  73.698  69.435  1.00  0.00     0.038 C 
ATOM      3  O   UNL     1      13.578  74.535  69.050  1.00  0.00    -0.550 OA
ATOM      4  O   UNL     1      14.455  72.426  68.876  1.00  0.00    -0.550 OA
ENDROOT
TORSDOF 0
ENDMDL
