MODEL 1
REMARK VINA RESULT:    -4.232      0.000      0.000
REMARK INTER + INTRA:          -6.348
REMARK INTER:                  -5.964
REMARK INTRA:                  -0.383
REMARK UNBOUND:                -0.383
REMARK SMILES C=CCCCCCCC(=O)[O-]
REMARK SMILES IDX 6 1 7 2 8 3 9 4 10 5 11 6 5 7 4 8 3 9 2 10 1 11
REMARK H PARENT
REMARK Flexibility Score: inf
ROOT
ATOM      1  C   UNL     1     131.865 131.633 125.340  1.00  0.00     0.000 C 
ENDROOT
BRANCH   1   2
ATOM      2  C   UNL     1     133.135 132.483 125.222  1.00  0.00     0.006 C 
BRANCH   2   3
ATOM      3  C   UNL     1     134.299 131.843 125.985  1.00  0.00     0.053 C 
BRANCH   3   4
ATOM      4  C   UNL     1     135.464 132.780 126.047  1.00  0.00     0.041 C 
ATOM      5  O   UNL     1     135.429 133.877 125.430  1.00  0.00    -0.550 OA
ATOM      6  O   UNL     1     136.610 132.418 126.744  1.00  0.00    -0.550 OA
ENDBRANCH   3   4
ENDBRANCH   2   3
ENDBRANCH   1   2
BRANCH   1   7
ATOM      7  C   UNL     1     130.858 132.277 126.303  1.00  0.00     0.000 C 
BRANCH   7   8
ATOM      8  C   UNL     1     129.514 132.607 125.629  1.00  0.00     0.004 C 
BRANCH   8   9
ATOM      9  C   UNL     1     129.087 134.079 125.760  1.00  0.00     0.027 C 
BRANCH   9  10
ATOM     10  C   UNL     1     130.232 134.986 126.121  1.00  0.00    -0.035 C 
ATOM     11  C   UNL     1     130.044 136.122 126.799  1.00  0.00     0.004 C 
ENDBRANCH   9  10
ENDBRANCH   8   9
ENDBRANCH   7   8
ENDBRANCH   1   7
TORSDOF 7
ENDMDL
MODEL 2
REMARK VINA RESULT:    -4.213      3.085      5.131
REMARK INTER + INTRA:          -6.320
REMARK INTER:                  -5.825
REMARK INTRA:                  -0.495
REMARK UNBOUND:                -0.383
REMARK SMILES C=CCCCCCCC(=O)[O-]
REMARK SMILES IDX 6 1 7 2 8 3 9 4 10 5 11 6 5 7 4 8 3 9 2 10 1 11
REMARK H PARENT
REMARK Flexibility Score: inf
ROOT
ATOM      1  C   UNL     1     129.800 132.545 125.717  1.00  0.00     0.000 C 
ENDROOT
BRANCH   1   2
ATOM      2  C   UNL     1     129.282 133.981 125.860  1.00  0.00     0.006 C 
BRANCH   2   3
ATOM      3  C   UNL     1     130.434 134.958 126.116  1.00  0.00     0.053 C 
BRANCH   3   4
ATOM      4  C   UNL     1     129.908 136.272 126.603  1.00  0.00     0.041 C 
ATOM      5  O   UNL     1     130.256 136.716 127.729  1.00  0.00    -0.550 OA
ATOM      6  O   UNL     1     128.994 136.982 125.836  1.00  0.00    -0.550 OA
ENDBRANCH   3   4
ENDBRANCH   2   3
ENDBRANCH   1   2
BRANCH   1   7
ATOM      7  C   UNL     1     131.116 132.355 126.486  1.00  0.00     0.000 C 
BRANCH   7   8
ATOM      8  C   UNL     1     132.012 131.264 125.874  1.00  0.00     0.004 C 
BRANCH   8   9
ATOM      9  C   UNL     1     133.468 131.702 125.635  1.00  0.00     0.027 C 
BRANCH   9  10
ATOM     10  C   UNL     1     133.567 133.074 125.025  1.00  0.00    -0.035 C 
ATOM     11  C   UNL     1     134.696 133.787 125.075  1.00  0.00     0.004 C 
ENDBRANCH   9  10
ENDBRANCH   8   9
ENDBRANCH   7   8
ENDBRANCH   1   7
TORSDOF 7
ENDMDL
MODEL 3
REMARK VINA RESULT:    -4.062     18.160     19.155
REMARK INTER + INTRA:          -6.107
REMARK INTER:                  -5.767
REMARK INTRA:                  -0.340
REMARK UNBOUND:                -0.383
REMARK SMILES C=CCCCCCCC(=O)[O-]
REMARK SMILES IDX 6 1 7 2 8 3 9 4 10 5 11 6 5 7 4 8 3 9 2 10 1 11
REMARK H PARENT
REMARK Flexibility Score: inf
ROOT
ATOM      1  C   UNL     1     130.650 120.990 138.406  1.00  0.00     0.000 C 
ENDROOT
BRANCH   1   2
ATOM      2  C   UNL     1     130.900 119.507 138.703  1.00  0.00     0.006 C 
BRANCH   2   3
ATOM      3  C   UNL     1     129.913 118.982 139.750  1.00  0.00     0.053 C 
BRANCH   3   4
ATOM      4  C   UNL     1     130.416 117.708 140.352  1.00  0.00     0.041 C 
ATOM      5  O   UNL     1     131.462 117.167 139.908  1.00  0.00    -0.550 OA
ATOM      6  O   UNL     1     129.701 117.091 141.371  1.00  0.00    -0.550 OA
ENDBRANCH   3   4
ENDBRANCH   2   3
ENDBRANCH   1   2
BRANCH   1   7
ATOM      7  C   UNL     1     130.159 121.728 139.661  1.00  0.00     0.000 C 
BRANCH   7   8
ATOM      8  C   UNL     1     131.268 122.551 140.342  1.00  0.00     0.004 C 
BRANCH   8   9
ATOM      9  C   UNL     1     132.438 122.923 139.414  1.00  0.00     0.027 C 
BRANCH   9  10
ATOM     10  C   UNL     1     132.933 124.326 139.640  1.00  0.00    -0.035 C 
ATOM     11  C   UNL     1     134.177 124.574 140.061  1.00  0.00     0.004 C 
ENDBRANCH   9  10
ENDBRANCH   8   9
ENDBRANCH   7   8
ENDBRANCH   1   7
TORSDOF 7
ENDMDL
MODEL 4
REMARK VINA RESULT:    -3.999     18.074     19.152
REMARK INTER + INTRA:          -6.019
REMARK INTER:                  -5.473
REMARK INTRA:                  -0.545
REMARK UNBOUND:                -0.383
REMARK SMILES C=CCCCCCCC(=O)[O-]
REMARK SMILES IDX 6 1 7 2 8 3 9 4 10 5 11 6 5 7 4 8 3 9 2 10 1 11
REMARK H PARENT
REMARK Flexibility Score: inf
ROOT
ATOM      1  C   UNL     1     129.647 120.876 138.132  1.00  0.00     0.000 C 
ENDROOT
BRANCH   1   2
ATOM      2  C   UNL     1     131.074 120.708 138.665  1.00  0.00     0.006 C 
BRANCH   2   3
ATOM      3  C   UNL     1     131.912 121.963 138.403  1.00  0.00     0.053 C 
BRANCH   3   4
ATOM      4  C   UNL     1     132.000 122.802 139.639  1.00  0.00     0.041 C 
ATOM      5  O   UNL     1     131.403 122.448 140.689  1.00  0.00    -0.550 OA
ATOM      6  O   UNL     1     132.700 124.002 139.616  1.00  0.00    -0.550 OA
ENDBRANCH   3   4
ENDBRANCH   2   3
ENDBRANCH   1   2
BRANCH   1   7
ATOM      7  C   UNL     1     128.668 119.958 138.879  1.00  0.00     0.000 C 
BRANCH   7   8
ATOM      8  C   UNL     1     129.158 119.585 140.290  1.00  0.00     0.004 C 
BRANCH   8   9
ATOM      9  C   UNL     1     128.767 118.167 140.740  1.00  0.00     0.027 C 
BRANCH   9  10
ATOM     10  C   UNL     1     129.958 117.260 140.900  1.00  0.00    -0.035 C 
ATOM     11  C   UNL     1     130.943 117.226 139.998  1.00  0.00     0.004 C 
ENDBRANCH   9  10
ENDBRANCH   8   9
ENDBRANCH   7   8
ENDBRANCH   1   7
TORSDOF 7
ENDMDL
MODEL 5
REMARK VINA RESULT:    -3.987     17.958     19.086
REMARK INTER + INTRA:          -6.002
REMARK INTER:                  -5.375
REMARK INTRA:                  -0.627
REMARK UNBOUND:                -0.383
REMARK SMILES C=CCCCCCCC(=O)[O-]
REMARK SMILES IDX 6 1 7 2 8 3 9 4 10 5 11 6 5 7 4 8 3 9 2 10 1 11
REMARK H PARENT
REMARK Flexibility Score: inf
ROOT
ATOM      1  C   UNL     1     128.849 121.167 140.129  1.00  0.00     0.000 C 
ENDROOT
BRANCH   1   2
ATOM      2  C   UNL     1     129.605 122.495 140.257  1.00  0.00     0.006 C 
BRANCH   2   3
ATOM      3  C   UNL     1     131.063 122.260 140.664  1.00  0.00     0.053 C 
BRANCH   3   4
ATOM      4  C   UNL     1     131.989 122.691 139.571  1.00  0.00     0.041 C 
ATOM      5  O   UNL     1     132.175 121.951 138.570  1.00  0.00    -0.550 OA
ATOM      6  O   UNL     1     132.686 123.887 139.681  1.00  0.00    -0.550 OA
ENDBRANCH   3   4
ENDBRANCH   2   3
ENDBRANCH   1   2
BRANCH   1   7
ATOM      7  C   UNL     1     128.968 120.600 138.707  1.00  0.00     0.000 C 
BRANCH   7   8
ATOM      8  C   UNL     1     129.377 119.116 138.688  1.00  0.00     0.004 C 
BRANCH   8   9
ATOM      9  C   UNL     1     130.657 118.804 139.483  1.00  0.00     0.027 C 
BRANCH   9  10
ATOM     10  C   UNL     1     130.561 117.514 140.253  1.00  0.00    -0.035 C 
ATOM     11  C   UNL     1     129.554 117.269 141.096  1.00  0.00     0.004 C 
ENDBRANCH   9  10
ENDBRANCH   8   9
ENDBRANCH   7   8
ENDBRANCH   1   7
TORSDOF 7
ENDMDL
MODEL 6
REMARK VINA RESULT:    -3.934     17.983     18.985
REMARK INTER + INTRA:          -5.928
REMARK INTER:                  -5.315
REMARK INTRA:                  -0.613
REMARK UNBOUND:                -0.383
REMARK SMILES C=CCCCCCCC(=O)[O-]
REMARK SMILES IDX 6 1 7 2 8 3 9 4 10 5 11 6 5 7 4 8 3 9 2 10 1 11
REMARK H PARENT
REMARK Flexibility Score: inf
ROOT
ATOM      1  C   UNL     1     130.084 120.036 138.152  1.00  0.00     0.000 C 
ENDROOT
BRANCH   1   2
ATOM      2  C   UNL     1     130.189 121.531 138.476  1.00  0.00     0.006 C 
BRANCH   2   3
ATOM      3  C   UNL     1     131.653 121.976 138.551  1.00  0.00     0.053 C 
BRANCH   3   4
ATOM      4  C   UNL     1     131.883 122.819 139.765  1.00  0.00     0.041 C 
ATOM      5  O   UNL     1     132.669 123.801 139.716  1.00  0.00    -0.550 OA
ATOM      6  O   UNL     1     131.268 122.490 140.967  1.00  0.00    -0.550 OA
ENDBRANCH   3   4
ENDBRANCH   2   3
ENDBRANCH   1   2
BRANCH   1   7
ATOM      7  C   UNL     1     131.058 119.217 139.012  1.00  0.00     0.000 C 
BRANCH   7   8
ATOM      8  C   UNL     1     130.350 118.132 139.845  1.00  0.00     0.004 C 
BRANCH   8   9
ATOM      9  C   UNL     1     128.814 118.184 139.774  1.00  0.00     0.027 C 
BRANCH   9  10
ATOM     10  C   UNL     1     128.194 118.737 141.028  1.00  0.00    -0.035 C 
ATOM     11  C   UNL     1     127.849 120.024 141.135  1.00  0.00     0.004 C 
ENDBRANCH   9  10
ENDBRANCH   8   9
ENDBRANCH   7   8
ENDBRANCH   1   7
TORSDOF 7
ENDMDL
MODEL 7
REMARK VINA RESULT:    -3.919      2.027      3.540
REMARK INTER + INTRA:          -5.906
REMARK INTER:                  -5.502
REMARK INTRA:                  -0.404
REMARK UNBOUND:                -0.383
REMARK SMILES C=CCCCCCCC(=O)[O-]
REMARK SMILES IDX 6 1 7 2 8 3 9 4 10 5 11 6 5 7 4 8 3 9 2 10 1 11
REMARK H PARENT
REMARK Flexibility Score: inf
ROOT
ATOM      1  C   UNL     1     129.352 133.995 125.962  1.00  0.00     0.000 C 
ENDROOT
BRANCH   1   2
ATOM      2  C   UNL     1     129.911 132.606 125.635  1.00  0.00     0.006 C 
BRANCH   2   3
ATOM      3  C   UNL     1     131.099 132.264 126.539  1.00  0.00     0.053 C 
BRANCH   3   4
ATOM      4  C   UNL     1     132.234 131.721 125.731  1.00  0.00     0.041 C 
ATOM      5  O   UNL     1     132.402 130.477 125.627  1.00  0.00    -0.550 OA
ATOM      6  O   UNL     1     133.139 132.589 125.132  1.00  0.00    -0.550 OA
ENDBRANCH   3   4
ENDBRANCH   2   3
ENDBRANCH   1   2
BRANCH   1   7
ATOM      7  C   UNL     1     130.482 135.026 126.096  1.00  0.00     0.000 C 
BRANCH   7   8
ATOM      8  C   UNL     1     129.966 136.438 126.431  1.00  0.00     0.004 C 
BRANCH   8   9
ATOM      9  C   UNL     1     130.359 136.938 127.832  1.00  0.00     0.027 C 
BRANCH   9  10
ATOM     10  C   UNL     1     129.555 136.289 128.926  1.00  0.00    -0.035 C 
ATOM     11  C   UNL     1     128.427 136.836 129.391  1.00  0.00     0.004 C 
ENDBRANCH   9  10
ENDBRANCH   8   9
ENDBRANCH   7   8
ENDBRANCH   1   7
TORSDOF 7
ENDMDL
MODEL 8
REMARK VINA RESULT:    -3.891     18.683     19.702
REMARK INTER + INTRA:          -5.867
REMARK INTER:                  -5.169
REMARK INTRA:                  -0.697
REMARK UNBOUND:                -0.383
REMARK SMILES C=CCCCCCCC(=O)[O-]
REMARK SMILES IDX 6 1 7 2 8 3 9 4 10 5 11 6 5 7 4 8 3 9 2 10 1 11
REMARK H PARENT
REMARK Flexibility Score: inf
ROOT
ATOM      1  C   UNL     1     128.454 120.581 139.389  1.00  0.00     0.000 C 
ENDROOT
BRANCH   1   2
ATOM      2  C   UNL     1     128.773 119.087 139.258  1.00  0.00     0.006 C 
BRANCH   2   3
ATOM      3  C   UNL     1     130.286 118.847 139.236  1.00  0.00     0.053 C 
BRANCH   3   4
ATOM      4  C   UNL     1     130.644 117.675 140.094  1.00  0.00     0.041 C 
ATOM      5  O   UNL     1     131.699 117.026 139.872  1.00  0.00    -0.550 OA
ATOM      6  O   UNL     1     129.785 117.267 141.107  1.00  0.00    -0.550 OA
ENDBRANCH   3   4
ENDBRANCH   2   3
ENDBRANCH   1   2
BRANCH   1   7
ATOM      7  C   UNL     1     128.586 121.046 140.847  1.00  0.00     0.000 C 
BRANCH   7   8
ATOM      8  C   UNL     1     129.408 122.340 140.988  1.00  0.00     0.004 C 
BRANCH   8   9
ATOM      9  C   UNL     1     130.931 122.122 141.011  1.00  0.00     0.027 C 
BRANCH   9  10
ATOM     10  C   UNL     1     131.631 122.797 139.862  1.00  0.00    -0.035 C 
ATOM     11  C   UNL     1     131.974 122.129 138.757  1.00  0.00     0.004 C 
ENDBRANCH   9  10
ENDBRANCH   8   9
ENDBRANCH   7   8
ENDBRANCH   1   7
TORSDOF 7
ENDMDL
MODEL 9
REMARK VINA RESULT:    -3.873     18.373     19.375
REMARK INTER + INTRA:          -5.841
REMARK INTER:                  -5.278
REMARK INTRA:                  -0.563
REMARK UNBOUND:                -0.383
REMARK SMILES C=CCCCCCCC(=O)[O-]
REMARK SMILES IDX 6 1 7 2 8 3 9 4 10 5 11 6 5 7 4 8 3 9 2 10 1 11
REMARK H PARENT
REMARK Flexibility Score: inf
ROOT
ATOM      1  C   UNL     1     130.238 119.958 138.290  1.00  0.00     0.000 C 
ENDROOT
BRANCH   1   2
ATOM      2  C   UNL     1     130.361 119.118 139.566  1.00  0.00     0.006 C 
BRANCH   2   3
ATOM      3  C   UNL     1     129.346 117.971 139.571  1.00  0.00     0.053 C 
BRANCH   3   4
ATOM      4  C   UNL     1     127.998 118.466 139.990  1.00  0.00     0.041 C 
ATOM      5  O   UNL     1     126.996 118.275 139.253  1.00  0.00    -0.550 OA
ATOM      6  O   UNL     1     127.857 119.184 141.171  1.00  0.00    -0.550 OA
ENDBRANCH   3   4
ENDBRANCH   2   3
ENDBRANCH   1   2
BRANCH   1   7
ATOM      7  C   UNL     1     130.066 121.447 138.624  1.00  0.00     0.000 C 
BRANCH   7   8
ATOM      8  C   UNL     1     130.034 121.718 140.140  1.00  0.00     0.004 C 
BRANCH   8   9
ATOM      9  C   UNL     1     131.256 122.487 140.670  1.00  0.00     0.027 C 
BRANCH   9  10
ATOM     10  C   UNL     1     132.185 122.928 139.571  1.00  0.00    -0.035 C 
ATOM     11  C   UNL     1     132.863 124.077 139.641  1.00  0.00     0.004 C 
ENDBRANCH   9  10
ENDBRANCH   8   9
ENDBRANCH   7   8
ENDBRANCH   1   7
TORSDOF 7
ENDMDL
