MODEL 1
REMARK VINA RESULT:     1.277      0.000      0.000
REMARK INTER + INTRA:           2.128
REMARK INTER:                   1.650
REMARK INTRA:                   0.477
REMARK UNBOUND:                 0.477
REMARK SMILES CCCCCCC(=O)[O-]
REMARK SMILES IDX 5 1 6 2 7 3 8 4 9 5 4 6 3 7 2 8 1 9
REMARK H PARENT
REMARK Flexibility Score: inf
ROOT
ATOM      1  C   UNL     1      -4.594   6.119  33.061  1.00  0.00     0.006 C 
ENDROOT
BRANCH   1   2
ATOM      2  C   UNL     1      -3.586   7.263  32.894  1.00  0.00     0.053 C 
BRANCH   2   3
ATOM      3  C   UNL     1      -2.686   7.044  31.717  1.00  0.00     0.041 C 
ATOM      4  O   UNL     1      -2.388   5.875  31.356  1.00  0.00    -0.550 OA
ATOM      5  O   UNL     1      -2.150   8.131  31.038  1.00  0.00    -0.550 OA
ENDBRANCH   2   3
ENDBRANCH   1   2
BRANCH   1   6
ATOM      6  C   UNL     1      -6.048   6.604  32.959  1.00  0.00     0.000 C 
BRANCH   6   7
ATOM      7  C   UNL     1      -6.125   8.134  33.069  1.00  0.00    -0.000 C 
BRANCH   7   8
ATOM      8  C   UNL     1      -5.755   8.841  31.757  1.00  0.00    -0.003 C 
ATOM      9  C   UNL     1      -6.125   8.023  30.520  1.00  0.00     0.004 C 
ENDBRANCH   7   8
ENDBRANCH   6   7
ENDBRANCH   1   6
TORSDOF 5
ENDMDL
MODEL 2
REMARK VINA RESULT:     2.035     15.937     16.668
REMARK INTER + INTRA:           3.107
REMARK INTER:                   3.257
REMARK INTRA:                  -0.150
REMARK UNBOUND:                 0.477
REMARK SMILES CCCCCCC(=O)[O-]
REMARK SMILES IDX 5 1 6 2 7 3 8 4 9 5 4 6 3 7 2 8 1 9
REMARK H PARENT
REMARK Flexibility Score: inf
ROOT
ATOM      1  C   UNL     1       8.450  17.503  30.148  1.00  0.00     0.006 C 
ENDROOT
BRANCH   1   2
ATOM      2  C   UNL     1       9.113  17.499  31.532  1.00  0.00     0.053 C 
BRANCH   2   3
ATOM      3  C   UNL     1       8.101  17.436  32.634  1.00  0.00     0.041 C 
ATOM      4  O   UNL     1       7.739  16.323  33.099  1.00  0.00    -0.550 OA
ATOM      5  O   UNL     1       7.531  18.604  33.125  1.00  0.00    -0.550 OA
ENDBRANCH   2   3
ENDBRANCH   1   2
BRANCH   1   6
ATOM      6  C   UNL     1       9.440  17.855  29.028  1.00  0.00     0.000 C 
BRANCH   6   7
ATOM      7  C   UNL     1       9.034  17.186  27.706  1.00  0.00    -0.000 C 
BRANCH   7   8
ATOM      8  C   UNL     1       7.512  17.158  27.500  1.00  0.00    -0.003 C 
ATOM      9  C   UNL     1       7.064  17.971  26.287  1.00  0.00     0.004 C 
ENDBRANCH   7   8
ENDBRANCH   6   7
ENDBRANCH   1   6
TORSDOF 5
ENDMDL
MODEL 3
REMARK VINA RESULT:     2.961     16.098     16.873
REMARK INTER + INTRA:           4.304
REMARK INTER:                   4.472
REMARK INTRA:                  -0.168
REMARK UNBOUND:                 0.477
REMARK SMILES CCCCCCC(=O)[O-]
REMARK SMILES IDX 5 1 6 2 7 3 8 4 9 5 4 6 3 7 2 8 1 9
REMARK H PARENT
REMARK Flexibility Score: inf
ROOT
ATOM      1  C   UNL     1       9.546  17.655  29.674  1.00  0.00     0.006 C 
ENDROOT
BRANCH   1   2
ATOM      2  C   UNL     1       9.159  18.187  28.287  1.00  0.00     0.053 C 
BRANCH   2   3
ATOM      3  C   UNL     1       8.546  17.120  27.434  1.00  0.00     0.041 C 
ATOM      4  O   UNL     1       7.358  17.235  27.031  1.00  0.00    -0.550 OA
ATOM      5  O   UNL     1       9.275  15.982  27.110  1.00  0.00    -0.550 OA
ENDBRANCH   2   3
ENDBRANCH   1   2
BRANCH   1   6
ATOM      6  C   UNL     1       8.330  17.504  30.600  1.00  0.00     0.000 C 
BRANCH   6   7
ATOM      7  C   UNL     1       8.770  17.288  32.055  1.00  0.00    -0.000 C 
BRANCH   7   8
ATOM      8  C   UNL     1       7.709  17.744  33.068  1.00  0.00    -0.003 C 
ATOM      9  C   UNL     1       7.499  19.257  33.064  1.00  0.00     0.004 C 
ENDBRANCH   7   8
ENDBRANCH   6   7
ENDBRANCH   1   6
TORSDOF 5
ENDMDL
MODEL 4
REMARK VINA RESULT:     3.683     15.663     16.817
REMARK INTER + INTRA:           5.237
REMARK INTER:                   5.392
REMARK INTRA:                  -0.155
REMARK UNBOUND:                 0.477
REMARK SMILES CCCCCCC(=O)[O-]
REMARK SMILES IDX 5 1 6 2 7 3 8 4 9 5 4 6 3 7 2 8 1 9
REMARK H PARENT
REMARK Flexibility Score: inf
ROOT
ATOM      1  C   UNL     1       9.210  17.880  27.921  1.00  0.00     0.006 C 
ENDROOT
BRANCH   1   2
ATOM      2  C   UNL     1       8.062  16.901  27.639  1.00  0.00     0.053 C 
BRANCH   2   3
ATOM      3  C   UNL     1       7.004  17.518  26.777  1.00  0.00     0.041 C 
ATOM      4  O   UNL     1       7.238  17.765  25.565  1.00  0.00    -0.550 OA
ATOM      5  O   UNL     1       5.770  17.852  27.322  1.00  0.00    -0.550 OA
ENDBRANCH   2   3
ENDBRANCH   1   2
BRANCH   1   6
ATOM      6  C   UNL     1       9.680  17.821  29.382  1.00  0.00     0.000 C 
BRANCH   6   7
ATOM      7  C   UNL     1       8.507  17.508  30.323  1.00  0.00    -0.000 C 
BRANCH   7   8
ATOM      8  C   UNL     1       8.901  17.590  31.806  1.00  0.00    -0.003 C 
ATOM      9  C   UNL     1       7.868  16.942  32.728  1.00  0.00     0.004 C 
ENDBRANCH   7   8
ENDBRANCH   6   7
ENDBRANCH   1   6
TORSDOF 5
ENDMDL
