MODEL 1
REMARK VINA RESULT:    23.989      0.000      0.000
REMARK INTER + INTRA:          59.127
REMARK INTER:                  60.451
REMARK INTRA:                  -1.324
REMARK UNBOUND:                -1.324
REMARK SMILES CCCCCCCCCCCCCCCCCCCCCCCCCCCC(=O)[O-]
REMARK SMILES IDX 15 1 16 2 17 3 18 4 19 5 20 6 21 7 22 8 23 9 24 10 25 11
REMARK SMILES IDX 26 12 27 13 28 14 29 15 30 16 14 17 13 18 12 19 11 20 10 21
REMARK SMILES IDX 9 22 8 23 7 24 6 25 5 26 4 27 3 28 2 29 1 30
REMARK H PARENT
REMARK Flexibility Score: inf
ROOT
ATOM      1  C   UNL     1     -12.204   0.225 -18.485  1.00  0.00     0.000 C 
ENDROOT
BRANCH   1   2
ATOM      2  C   UNL     1     -11.265  -0.971 -18.254  1.00  0.00     0.000 C 
BRANCH   2   3
ATOM      3  C   UNL     1     -11.925  -2.078 -17.405  1.00  0.00     0.000 C 
BRANCH   3   4
ATOM      4  C   UNL     1     -13.175  -1.604 -16.642  1.00  0.00     0.000 C 
BRANCH   4   5
ATOM      5  C   UNL     1     -14.373  -2.552 -16.817  1.00  0.00     0.000 C 
BRANCH   5   6
ATOM      6  C   UNL     1     -14.859  -3.160 -15.489  1.00  0.00     0.000 C 
BRANCH   6   7
ATOM      7  C   UNL     1     -13.929  -4.219 -14.861  1.00  0.00     0.000 C 
BRANCH   7   8
ATOM      8  C   UNL     1     -14.084  -4.422 -13.344  1.00  0.00     0.000 C 
BRANCH   8   9
ATOM      9  C   UNL     1     -14.664  -3.189 -12.628  1.00  0.00     0.000 C 
BRANCH   9  10
ATOM     10  C   UNL     1     -15.017  -3.460 -11.155  1.00  0.00     0.000 C 
BRANCH  10  11
ATOM     11  C   UNL     1     -13.987  -2.979 -10.115  1.00  0.00     0.000 C 
BRANCH  11  12
ATOM     12  C   UNL     1     -14.311  -1.620  -9.466  1.00  0.00     0.006 C 
BRANCH  12  13
ATOM     13  C   UNL     1     -15.140  -0.688 -10.370  1.00  0.00     0.053 C 
BRANCH  13  14
ATOM     14  C   UNL     1     -14.326   0.490 -10.814  1.00  0.00     0.041 C 
ATOM     15  O   UNL     1     -13.279   0.814 -10.193  1.00  0.00    -0.550 OA
ATOM     16  O   UNL     1     -14.722   1.231 -11.920  1.00  0.00    -0.550 OA
ENDBRANCH  13  14
ENDBRANCH  12  13
ENDBRANCH  11  12
ENDBRANCH  10  11
ENDBRANCH   9  10
ENDBRANCH   8   9
ENDBRANCH   7   8
ENDBRANCH   6   7
ENDBRANCH   5   6
ENDBRANCH   4   5
ENDBRANCH   3   4
ENDBRANCH   2   3
ENDBRANCH   1   2
BRANCH   1  17
ATOM     17  C   UNL     1     -12.267   1.167 -17.271  1.00  0.00     0.000 C 
BRANCH  17  18
ATOM     18  C   UNL     1     -12.296   2.651 -17.674  1.00  0.00     0.000 C 
BRANCH  18  19
ATOM     19  C   UNL     1     -13.563   3.016 -18.464  1.00  0.00     0.000 C 
BRANCH  19  20
ATOM     20  C   UNL     1     -13.527   4.462 -18.985  1.00  0.00     0.000 C 
BRANCH  20  21
ATOM     21  C   UNL     1     -14.823   5.208 -18.638  1.00  0.00     0.000 C 
BRANCH  21  22
ATOM     22  C   UNL     1     -15.518   5.804 -19.875  1.00  0.00    -0.000 C 
BRANCH  22  23
ATOM     23  C   UNL     1     -14.662   6.799 -20.680  1.00  0.00    -0.000 C 
BRANCH  23  24
ATOM     24  C   UNL     1     -14.520   8.192 -20.040  1.00  0.00    -0.000 C 
BRANCH  24  25
ATOM     25  C   UNL     1     -15.167   8.294 -18.642  1.00  0.00    -0.000 C 
BRANCH  25  26
ATOM     26  C   UNL     1     -14.170   8.775 -17.573  1.00  0.00    -0.000 C 
BRANCH  26  27
ATOM     27  C   UNL     1     -14.652   8.493 -16.141  1.00  0.00    -0.000 C 
BRANCH  27  28
ATOM     28  C   UNL     1     -13.632   7.690 -15.315  1.00  0.00    -0.000 C 
BRANCH  28  29
ATOM     29  C   UNL     1     -12.419   7.246 -16.146  1.00  0.00    -0.003 C 
ATOM     30  C   UNL     1     -12.042   5.785 -15.904  1.00  0.00     0.004 C 
ENDBRANCH  28  29
ENDBRANCH  27  28
ENDBRANCH  26  27
ENDBRANCH  25  26
ENDBRANCH  24  25
ENDBRANCH  23  24
ENDBRANCH  22  23
ENDBRANCH  21  22
ENDBRANCH  20  21
ENDBRANCH  19  20
ENDBRANCH  18  19
ENDBRANCH  17  18
ENDBRANCH   1  17
TORSDOF 26
ENDMDL
MODEL 2
REMARK VINA RESULT:    24.031      2.142      9.844
REMARK INTER + INTRA:          59.233
REMARK INTER:                  58.684
REMARK INTRA:                   0.549
REMARK UNBOUND:                -1.324
REMARK SMILES CCCCCCCCCCCCCCCCCCCCCCCCCCCC(=O)[O-]
REMARK SMILES IDX 15 1 16 2 17 3 18 4 19 5 20 6 21 7 22 8 23 9 24 10 25 11
REMARK SMILES IDX 26 12 27 13 28 14 29 15 30 16 14 17 13 18 12 19 11 20 10 21
REMARK SMILES IDX 9 22 8 23 7 24 6 25 5 26 4 27 3 28 2 29 1 30
REMARK H PARENT
REMARK Flexibility Score: inf
ROOT
ATOM      1  C   UNL     1     -11.783  -0.035 -18.051  1.00  0.00     0.000 C 
ENDROOT
BRANCH   1   2
ATOM      2  C   UNL     1     -12.676   1.046 -17.419  1.00  0.00     0.000 C 
BRANCH   2   3
ATOM      3  C   UNL     1     -12.055   2.455 -17.526  1.00  0.00     0.000 C 
BRANCH   3   4
ATOM      4  C   UNL     1     -12.897   3.435 -18.363  1.00  0.00     0.000 C 
BRANCH   4   5
ATOM      5  C   UNL     1     -14.397   3.359 -18.034  1.00  0.00     0.000 C 
BRANCH   5   6
ATOM      6  C   UNL     1     -15.238   4.381 -18.820  1.00  0.00     0.000 C 
BRANCH   6   7
ATOM      7  C   UNL     1     -14.496   5.663 -19.254  1.00  0.00     0.000 C 
BRANCH   7   8
ATOM      8  C   UNL     1     -15.217   6.522 -20.308  1.00  0.00     0.000 C 
BRANCH   8   9
ATOM      9  C   UNL     1     -15.240   8.018 -19.951  1.00  0.00     0.000 C 
BRANCH   9  10
ATOM     10  C   UNL     1     -15.462   8.274 -18.450  1.00  0.00     0.000 C 
BRANCH  10  11
ATOM     11  C   UNL     1     -14.229   8.749 -17.657  1.00  0.00     0.000 C 
BRANCH  11  12
ATOM     12  C   UNL     1     -14.393   8.715 -16.125  1.00  0.00     0.006 C 
BRANCH  12  13
ATOM     13  C   UNL     1     -13.816   7.444 -15.472  1.00  0.00     0.053 C 
BRANCH  13  14
ATOM     14  C   UNL     1     -12.450   7.141 -16.010  1.00  0.00     0.041 C 
ATOM     15  O   UNL     1     -11.944   5.997 -15.862  1.00  0.00    -0.550 OA
ATOM     16  O   UNL     1     -11.734   8.124 -16.681  1.00  0.00    -0.550 OA
ENDBRANCH  13  14
ENDBRANCH  12  13
ENDBRANCH  11  12
ENDBRANCH  10  11
ENDBRANCH   9  10
ENDBRANCH   8   9
ENDBRANCH   7   8
ENDBRANCH   6   7
ENDBRANCH   5   6
ENDBRANCH   4   5
ENDBRANCH   3   4
ENDBRANCH   2   3
ENDBRANCH   1   2
BRANCH   1  17
ATOM     17  C   UNL     1     -12.143  -1.451 -17.573  1.00  0.00     0.000 C 
BRANCH  17  18
ATOM     18  C   UNL     1     -13.303  -1.458 -16.562  1.00  0.00     0.000 C 
BRANCH  18  19
ATOM     19  C   UNL     1     -14.096  -2.774 -16.596  1.00  0.00     0.000 C 
BRANCH  19  20
ATOM     20  C   UNL     1     -14.734  -3.103 -15.236  1.00  0.00     0.000 C 
BRANCH  20  21
ATOM     21  C   UNL     1     -14.127  -4.379 -14.635  1.00  0.00     0.000 C 
BRANCH  21  22
ATOM     22  C   UNL     1     -14.076  -4.347 -13.097  1.00  0.00    -0.000 C 
BRANCH  22  23
ATOM     23  C   UNL     1     -14.738  -3.115 -12.453  1.00  0.00    -0.000 C 
BRANCH  23  24
ATOM     24  C   UNL     1     -15.166  -3.306 -10.987  1.00  0.00    -0.000 C 
BRANCH  24  25
ATOM     25  C   UNL     1     -14.139  -2.760  -9.971  1.00  0.00    -0.000 C 
BRANCH  25  26
ATOM     26  C   UNL     1     -14.084  -1.223  -9.968  1.00  0.00    -0.000 C 
BRANCH  26  27
ATOM     27  C   UNL     1     -15.289  -0.584 -10.676  1.00  0.00    -0.000 C 
BRANCH  27  28
ATOM     28  C   UNL     1     -15.037   0.879 -11.081  1.00  0.00    -0.000 C 
BRANCH  28  29
ATOM     29  C   UNL     1     -13.541   1.216 -11.172  1.00  0.00    -0.003 C 
ATOM     30  C   UNL     1     -12.773   0.831  -9.908  1.00  0.00     0.004 C 
ENDBRANCH  28  29
ENDBRANCH  27  28
ENDBRANCH  26  27
ENDBRANCH  25  26
ENDBRANCH  24  25
ENDBRANCH  23  24
ENDBRANCH  22  23
ENDBRANCH  21  22
ENDBRANCH  20  21
ENDBRANCH  19  20
ENDBRANCH  18  19
ENDBRANCH  17  18
ENDBRANCH   1  17
TORSDOF 26
ENDMDL
MODEL 3
REMARK VINA RESULT:    24.147      1.017      1.595
REMARK INTER + INTRA:          59.525
REMARK INTER:                  60.987
REMARK INTRA:                  -1.462
REMARK UNBOUND:                -1.324
REMARK SMILES CCCCCCCCCCCCCCCCCCCCCCCCCCCC(=O)[O-]
REMARK SMILES IDX 15 1 16 2 17 3 18 4 19 5 20 6 21 7 22 8 23 9 24 10 25 11
REMARK SMILES IDX 26 12 27 13 28 14 29 15 30 16 14 17 13 18 12 19 11 20 10 21
REMARK SMILES IDX 9 22 8 23 7 24 6 25 5 26 4 27 3 28 2 29 1 30
REMARK H PARENT
REMARK Flexibility Score: inf
ROOT
ATOM      1  C   UNL     1     -11.357  -0.278 -17.506  1.00  0.00     0.000 C 
ENDROOT
BRANCH   1   2
ATOM      2  C   UNL     1     -12.123  -1.509 -18.019  1.00  0.00     0.000 C 
BRANCH   2   3
ATOM      3  C   UNL     1     -13.532  -1.622 -17.400  1.00  0.00     0.000 C 
BRANCH   3   4
ATOM      4  C   UNL     1     -13.529  -2.171 -15.961  1.00  0.00     0.000 C 
BRANCH   4   5
ATOM      5  C   UNL     1     -14.782  -3.002 -15.641  1.00  0.00     0.000 C 
BRANCH   5   6
ATOM      6  C   UNL     1     -14.456  -4.349 -14.971  1.00  0.00     0.000 C 
BRANCH   6   7
ATOM      7  C   UNL     1     -13.972  -4.266 -13.508  1.00  0.00     0.000 C 
BRANCH   7   8
ATOM      8  C   UNL     1     -14.839  -3.406 -12.571  1.00  0.00     0.000 C 
BRANCH   8   9
ATOM      9  C   UNL     1     -15.013  -4.026 -11.174  1.00  0.00     0.000 C 
BRANCH   9  10
ATOM     10  C   UNL     1     -14.371  -3.182 -10.058  1.00  0.00     0.000 C 
BRANCH  10  11
ATOM     11  C   UNL     1     -14.535  -1.656 -10.188  1.00  0.00     0.000 C 
BRANCH  11  12
ATOM     12  C   UNL     1     -13.308  -0.834  -9.749  1.00  0.00     0.006 C 
BRANCH  12  13
ATOM     13  C   UNL     1     -13.509   0.689  -9.877  1.00  0.00     0.053 C 
BRANCH  13  14
ATOM     14  C   UNL     1     -14.190   1.030 -11.169  1.00  0.00     0.041 C 
ATOM     15  O   UNL     1     -13.532   1.503 -12.133  1.00  0.00    -0.550 OA
ATOM     16  O   UNL     1     -15.556   0.822 -11.309  1.00  0.00    -0.550 OA
ENDBRANCH  13  14
ENDBRANCH  12  13
ENDBRANCH  11  12
ENDBRANCH  10  11
ENDBRANCH   9  10
ENDBRANCH   8   9
ENDBRANCH   7   8
ENDBRANCH   6   7
ENDBRANCH   5   6
ENDBRANCH   4   5
ENDBRANCH   3   4
ENDBRANCH   2   3
ENDBRANCH   1   2
BRANCH   1  17
ATOM     17  C   UNL     1     -12.265   0.952 -17.340  1.00  0.00     0.000 C 
BRANCH  17  18
ATOM     18  C   UNL     1     -11.483   2.219 -16.953  1.00  0.00     0.000 C 
BRANCH  18  19
ATOM     19  C   UNL     1     -12.268   3.504 -17.255  1.00  0.00     0.000 C 
BRANCH  19  20
ATOM     20  C   UNL     1     -12.972   3.448 -18.621  1.00  0.00     0.000 C 
BRANCH  20  21
ATOM     21  C   UNL     1     -14.498   3.383 -18.455  1.00  0.00     0.000 C 
BRANCH  21  22
ATOM     22  C   UNL     1     -15.182   4.741 -18.697  1.00  0.00    -0.000 C 
BRANCH  22  23
ATOM     23  C   UNL     1     -14.463   5.656 -19.706  1.00  0.00    -0.000 C 
BRANCH  23  24
ATOM     24  C   UNL     1     -15.367   6.701 -20.386  1.00  0.00    -0.000 C 
BRANCH  24  25
ATOM     25  C   UNL     1     -15.302   8.094 -19.724  1.00  0.00    -0.000 C 
BRANCH  25  26
ATOM     26  C   UNL     1     -13.930   8.370 -19.084  1.00  0.00    -0.000 C 
BRANCH  26  27
ATOM     27  C   UNL     1     -14.017   8.591 -17.565  1.00  0.00    -0.000 C 
BRANCH  27  28
ATOM     28  C   UNL     1     -13.483   7.395 -16.757  1.00  0.00    -0.000 C 
BRANCH  28  29
ATOM     29  C   UNL     1     -13.289   7.728 -15.270  1.00  0.00    -0.003 C 
ATOM     30  C   UNL     1     -14.406   8.611 -14.714  1.00  0.00     0.004 C 
ENDBRANCH  28  29
ENDBRANCH  27  28
ENDBRANCH  26  27
ENDBRANCH  25  26
ENDBRANCH  24  25
ENDBRANCH  23  24
ENDBRANCH  22  23
ENDBRANCH  21  22
ENDBRANCH  20  21
ENDBRANCH  19  20
ENDBRANCH  18  19
ENDBRANCH  17  18
ENDBRANCH   1  17
TORSDOF 26
ENDMDL
MODEL 4
REMARK VINA RESULT:    24.406      2.608     10.144
REMARK INTER + INTRA:          60.178
REMARK INTER:                  61.982
REMARK INTRA:                  -1.804
REMARK UNBOUND:                -1.324
REMARK SMILES CCCCCCCCCCCCCCCCCCCCCCCCCCCC(=O)[O-]
REMARK SMILES IDX 15 1 16 2 17 3 18 4 19 5 20 6 21 7 22 8 23 9 24 10 25 11
REMARK SMILES IDX 26 12 27 13 28 14 29 15 30 16 14 17 13 18 12 19 11 20 10 21
REMARK SMILES IDX 9 22 8 23 7 24 6 25 5 26 4 27 3 28 2 29 1 30
REMARK H PARENT
REMARK Flexibility Score: inf
ROOT
ATOM      1  C   UNL     1     -11.310   0.225 -17.232  1.00  0.00     0.000 C 
ENDROOT
BRANCH   1   2
ATOM      2  C   UNL     1     -12.337   1.297 -16.831  1.00  0.00     0.000 C 
BRANCH   2   3
ATOM      3  C   UNL     1     -12.766   2.173 -18.027  1.00  0.00     0.000 C 
BRANCH   3   4
ATOM      4  C   UNL     1     -12.490   3.673 -17.821  1.00  0.00     0.000 C 
BRANCH   4   5
ATOM      5  C   UNL     1     -11.609   3.951 -16.591  1.00  0.00     0.000 C 
BRANCH   5   6
ATOM      6  C   UNL     1     -11.469   5.451 -16.277  1.00  0.00     0.000 C 
BRANCH   6   7
ATOM      7  C   UNL     1     -12.757   6.156 -15.803  1.00  0.00     0.000 C 
BRANCH   7   8
ATOM      8  C   UNL     1     -12.933   7.608 -16.284  1.00  0.00     0.000 C 
BRANCH   8   9
ATOM      9  C   UNL     1     -14.129   8.318 -15.628  1.00  0.00     0.000 C 
BRANCH   9  10
ATOM     10  C   UNL     1     -14.956   9.147 -16.627  1.00  0.00     0.000 C 
BRANCH  10  11
ATOM     11  C   UNL     1     -15.879   8.347 -17.567  1.00  0.00     0.000 C 
BRANCH  11  12
ATOM     12  C   UNL     1     -15.605   8.551 -19.070  1.00  0.00     0.006 C 
BRANCH  12  13
ATOM     13  C   UNL     1     -14.482   7.649 -19.619  1.00  0.00     0.053 C 
BRANCH  13  14
ATOM     14  C   UNL     1     -15.027   6.320 -20.048  1.00  0.00     0.041 C 
ATOM     15  O   UNL     1     -14.894   5.307 -19.312  1.00  0.00    -0.550 OA
ATOM     16  O   UNL     1     -15.686   6.201 -21.265  1.00  0.00    -0.550 OA
ENDBRANCH  13  14
ENDBRANCH  12  13
ENDBRANCH  11  12
ENDBRANCH  10  11
ENDBRANCH   9  10
ENDBRANCH   8   9
ENDBRANCH   7   8
ENDBRANCH   6   7
ENDBRANCH   5   6
ENDBRANCH   4   5
ENDBRANCH   3   4
ENDBRANCH   2   3
ENDBRANCH   1   2
BRANCH   1  17
ATOM     17  C   UNL     1     -11.773  -0.612 -18.437  1.00  0.00     0.000 C 
BRANCH  17  18
ATOM     18  C   UNL     1     -13.051  -1.416 -18.145  1.00  0.00     0.000 C 
BRANCH  18  19
ATOM     19  C   UNL     1     -12.930  -2.258 -16.865  1.00  0.00     0.000 C 
BRANCH  19  20
ATOM     20  C   UNL     1     -14.058  -1.961 -15.864  1.00  0.00     0.000 C 
BRANCH  20  21
ATOM     21  C   UNL     1     -14.846  -3.234 -15.525  1.00  0.00     0.000 C 
BRANCH  21  22
ATOM     22  C   UNL     1     -13.978  -4.310 -14.847  1.00  0.00    -0.000 C 
BRANCH  22  23
ATOM     23  C   UNL     1     -14.035  -4.313 -13.308  1.00  0.00    -0.000 C 
BRANCH  23  24
ATOM     24  C   UNL     1     -14.900  -3.196 -12.695  1.00  0.00    -0.000 C 
BRANCH  24  25
ATOM     25  C   UNL     1     -15.151  -3.374 -11.182  1.00  0.00    -0.000 C 
BRANCH  25  26
ATOM     26  C   UNL     1     -13.996  -2.818 -10.332  1.00  0.00    -0.000 C 
BRANCH  26  27
ATOM     27  C   UNL     1     -14.325  -1.456  -9.699  1.00  0.00    -0.000 C 
BRANCH  27  28
ATOM     28  C   UNL     1     -15.214  -0.580 -10.599  1.00  0.00    -0.000 C 
BRANCH  28  29
ATOM     29  C   UNL     1     -14.456   0.620 -11.187  1.00  0.00    -0.003 C 
ATOM     30  C   UNL     1     -13.263   1.040 -10.330  1.00  0.00     0.004 C 
ENDBRANCH  28  29
ENDBRANCH  27  28
ENDBRANCH  26  27
ENDBRANCH  25  26
ENDBRANCH  24  25
ENDBRANCH  23  24
ENDBRANCH  22  23
ENDBRANCH  21  22
ENDBRANCH  20  21
ENDBRANCH  19  20
ENDBRANCH  18  19
ENDBRANCH  17  18
ENDBRANCH   1  17
TORSDOF 26
ENDMDL
MODEL 5
REMARK VINA RESULT:    24.410      0.791      2.615
REMARK INTER + INTRA:          60.190
REMARK INTER:                  61.632
REMARK INTRA:                  -1.443
REMARK UNBOUND:                -1.324
REMARK SMILES CCCCCCCCCCCCCCCCCCCCCCCCCCCC(=O)[O-]
REMARK SMILES IDX 15 1 16 2 17 3 18 4 19 5 20 6 21 7 22 8 23 9 24 10 25 11
REMARK SMILES IDX 26 12 27 13 28 14 29 15 30 16 14 17 13 18 12 19 11 20 10 21
REMARK SMILES IDX 9 22 8 23 7 24 6 25 5 26 4 27 3 28 2 29 1 30
REMARK H PARENT
REMARK Flexibility Score: inf
ROOT
ATOM      1  C   UNL     1     -11.147   0.283 -17.801  1.00  0.00     0.000 C 
ENDROOT
BRANCH   1   2
ATOM      2  C   UNL     1     -11.537  -1.186 -18.035  1.00  0.00     0.000 C 
BRANCH   2   3
ATOM      3  C   UNL     1     -13.047  -1.430 -17.829  1.00  0.00     0.000 C 
BRANCH   3   4
ATOM      4  C   UNL     1     -13.412  -1.846 -16.392  1.00  0.00     0.000 C 
BRANCH   4   5
ATOM      5  C   UNL     1     -14.564  -2.864 -16.343  1.00  0.00     0.000 C 
BRANCH   5   6
ATOM      6  C   UNL     1     -14.891  -3.334 -14.915  1.00  0.00     0.000 C 
BRANCH   6   7
ATOM      7  C   UNL     1     -13.928  -4.383 -14.321  1.00  0.00     0.000 C 
BRANCH   7   8
ATOM      8  C   UNL     1     -13.948  -4.507 -12.787  1.00  0.00     0.000 C 
BRANCH   8   9
ATOM      9  C   UNL     1     -15.125  -3.761 -12.138  1.00  0.00     0.000 C 
BRANCH   9  10
ATOM     10  C   UNL     1     -15.069  -3.773 -10.600  1.00  0.00     0.000 C 
BRANCH  10  11
ATOM     11  C   UNL     1     -14.112  -2.754  -9.951  1.00  0.00     0.000 C 
BRANCH  11  12
ATOM     12  C   UNL     1     -14.623  -1.300  -9.945  1.00  0.00     0.006 C 
BRANCH  12  13
ATOM     13  C   UNL     1     -13.500  -0.254  -9.809  1.00  0.00     0.053 C 
BRANCH  13  14
ATOM     14  C   UNL     1     -13.783   0.948 -10.660  1.00  0.00     0.041 C 
ATOM     15  O   UNL     1     -14.709   0.923 -11.514  1.00  0.00    -0.550 OA
ATOM     16  O   UNL     1     -13.025   2.101 -10.506  1.00  0.00    -0.550 OA
ENDBRANCH  13  14
ENDBRANCH  12  13
ENDBRANCH  11  12
ENDBRANCH  10  11
ENDBRANCH   9  10
ENDBRANCH   8   9
ENDBRANCH   7   8
ENDBRANCH   6   7
ENDBRANCH   5   6
ENDBRANCH   4   5
ENDBRANCH   3   4
ENDBRANCH   2   3
ENDBRANCH   1   2
BRANCH   1  17
ATOM     17  C   UNL     1     -12.247   1.076 -17.077  1.00  0.00     0.000 C 
BRANCH  17  18
ATOM     18  C   UNL     1     -12.971   2.067 -18.004  1.00  0.00     0.000 C 
BRANCH  18  19
ATOM     19  C   UNL     1     -12.511   3.516 -17.781  1.00  0.00     0.000 C 
BRANCH  19  20
ATOM     20  C   UNL     1     -11.347   3.610 -16.781  1.00  0.00     0.000 C 
BRANCH  20  21
ATOM     21  C   UNL     1     -11.384   4.938 -16.012  1.00  0.00     0.000 C 
BRANCH  21  22
ATOM     22  C   UNL     1     -12.539   5.854 -16.458  1.00  0.00    -0.000 C 
BRANCH  22  23
ATOM     23  C   UNL     1     -12.415   7.319 -16.002  1.00  0.00    -0.000 C 
BRANCH  23  24
ATOM     24  C   UNL     1     -13.661   7.880 -15.292  1.00  0.00    -0.000 C 
BRANCH  24  25
ATOM     25  C   UNL     1     -14.565   8.726 -16.213  1.00  0.00    -0.000 C 
BRANCH  25  26
ATOM     26  C   UNL     1     -14.240   8.513 -17.702  1.00  0.00    -0.000 C 
BRANCH  26  27
ATOM     27  C   UNL     1     -15.494   8.252 -18.552  1.00  0.00    -0.000 C 
BRANCH  27  28
ATOM     28  C   UNL     1     -15.172   8.055 -20.044  1.00  0.00    -0.000 C 
BRANCH  28  29
ATOM     29  C   UNL     1     -14.464   6.721 -20.323  1.00  0.00    -0.003 C 
ATOM     30  C   UNL     1     -15.053   5.562 -19.519  1.00  0.00     0.004 C 
ENDBRANCH  28  29
ENDBRANCH  27  28
ENDBRANCH  26  27
ENDBRANCH  25  26
ENDBRANCH  24  25
ENDBRANCH  23  24
ENDBRANCH  22  23
ENDBRANCH  21  22
ENDBRANCH  20  21
ENDBRANCH  19  20
ENDBRANCH  18  19
ENDBRANCH  17  18
ENDBRANCH   1  17
TORSDOF 26
ENDMDL
MODEL 6
REMARK VINA RESULT:    24.799      2.687     10.362
REMARK INTER + INTRA:          61.170
REMARK INTER:                  61.699
REMARK INTRA:                  -0.529
REMARK UNBOUND:                -1.324
REMARK SMILES CCCCCCCCCCCCCCCCCCCCCCCCCCCC(=O)[O-]
REMARK SMILES IDX 15 1 16 2 17 3 18 4 19 5 20 6 21 7 22 8 23 9 24 10 25 11
REMARK SMILES IDX 26 12 27 13 28 14 29 15 30 16 14 17 13 18 12 19 11 20 10 21
REMARK SMILES IDX 9 22 8 23 7 24 6 25 5 26 4 27 3 28 2 29 1 30
REMARK H PARENT
REMARK Flexibility Score: inf
ROOT
ATOM      1  C   UNL     1     -12.959   1.634 -18.255  1.00  0.00     0.000 C 
ENDROOT
BRANCH   1   2
ATOM      2  C   UNL     1     -12.696   3.114 -17.930  1.00  0.00     0.000 C 
BRANCH   2   3
ATOM      3  C   UNL     1     -11.554   3.295 -16.908  1.00  0.00     0.000 C 
BRANCH   3   4
ATOM      4  C   UNL     1     -11.310   4.762 -16.512  1.00  0.00     0.000 C 
BRANCH   4   5
ATOM      5  C   UNL     1     -12.587   5.464 -16.021  1.00  0.00     0.000 C 
BRANCH   5   6
ATOM      6  C   UNL     1     -12.300   6.768 -15.254  1.00  0.00     0.000 C 
BRANCH   6   7
ATOM      7  C   UNL     1     -13.515   7.693 -15.035  1.00  0.00     0.000 C 
BRANCH   7   8
ATOM      8  C   UNL     1     -14.071   8.368 -16.302  1.00  0.00     0.000 C 
BRANCH   8   9
ATOM      9  C   UNL     1     -15.140   9.431 -15.998  1.00  0.00     0.000 C 
BRANCH   9  10
ATOM     10  C   UNL     1     -16.384   9.306 -16.895  1.00  0.00     0.000 C 
BRANCH  10  11
ATOM     11  C   UNL     1     -16.246   8.374 -18.114  1.00  0.00     0.000 C 
BRANCH  11  12
ATOM     12  C   UNL     1     -14.846   8.355 -18.758  1.00  0.00     0.006 C 
BRANCH  12  13
ATOM     13  C   UNL     1     -14.861   7.973 -20.251  1.00  0.00     0.053 C 
BRANCH  13  14
ATOM     14  C   UNL     1     -15.111   6.504 -20.424  1.00  0.00     0.041 C 
ATOM     15  O   UNL     1     -14.945   5.709 -19.461  1.00  0.00    -0.550 OA
ATOM     16  O   UNL     1     -15.533   6.013 -21.652  1.00  0.00    -0.550 OA
ENDBRANCH  13  14
ENDBRANCH  12  13
ENDBRANCH  11  12
ENDBRANCH  10  11
ENDBRANCH   9  10
ENDBRANCH   8   9
ENDBRANCH   7   8
ENDBRANCH   6   7
ENDBRANCH   5   6
ENDBRANCH   4   5
ENDBRANCH   3   4
ENDBRANCH   2   3
ENDBRANCH   1   2
BRANCH   1  17
ATOM     17  C   UNL     1     -12.363   0.685 -17.202  1.00  0.00     0.000 C 
BRANCH  17  18
ATOM     18  C   UNL     1     -11.702  -0.555 -17.828  1.00  0.00     0.000 C 
BRANCH  18  19
ATOM     19  C   UNL     1     -12.452  -1.851 -17.482  1.00  0.00     0.000 C 
BRANCH  19  20
ATOM     20  C   UNL     1     -13.497  -1.641 -16.374  1.00  0.00     0.000 C 
BRANCH  20  21
ATOM     21  C   UNL     1     -14.496  -2.806 -16.327  1.00  0.00     0.000 C 
BRANCH  21  22
ATOM     22  C   UNL     1     -14.323  -3.690 -15.078  1.00  0.00    -0.000 C 
BRANCH  22  23
ATOM     23  C   UNL     1     -14.617  -2.984 -13.741  1.00  0.00    -0.000 C 
BRANCH  23  24
ATOM     24  C   UNL     1     -14.422  -3.864 -12.493  1.00  0.00    -0.000 C 
BRANCH  24  25
ATOM     25  C   UNL     1     -15.226  -3.377 -11.267  1.00  0.00    -0.000 C 
BRANCH  25  26
ATOM     26  C   UNL     1     -14.314  -3.003 -10.086  1.00  0.00    -0.000 C 
BRANCH  26  27
ATOM     27  C   UNL     1     -14.074  -1.488  -9.978  1.00  0.00    -0.000 C 
BRANCH  27  28
ATOM     28  C   UNL     1     -15.145  -0.660 -10.709  1.00  0.00    -0.000 C 
BRANCH  28  29
ATOM     29  C   UNL     1     -14.651   0.745 -11.083  1.00  0.00    -0.003 C 
ATOM     30  C   UNL     1     -13.258   1.045 -10.532  1.00  0.00     0.004 C 
ENDBRANCH  28  29
ENDBRANCH  27  28
ENDBRANCH  26  27
ENDBRANCH  25  26
ENDBRANCH  24  25
ENDBRANCH  23  24
ENDBRANCH  22  23
ENDBRANCH  21  22
ENDBRANCH  20  21
ENDBRANCH  19  20
ENDBRANCH  18  19
ENDBRANCH  17  18
ENDBRANCH   1  17
TORSDOF 26
ENDMDL
MODEL 7
REMARK VINA RESULT:    24.897      0.711      2.770
REMARK INTER + INTRA:          61.417
REMARK INTER:                  62.936
REMARK INTRA:                  -1.519
REMARK UNBOUND:                -1.324
REMARK SMILES CCCCCCCCCCCCCCCCCCCCCCCCCCCC(=O)[O-]
REMARK SMILES IDX 15 1 16 2 17 3 18 4 19 5 20 6 21 7 22 8 23 9 24 10 25 11
REMARK SMILES IDX 26 12 27 13 28 14 29 15 30 16 14 17 13 18 12 19 11 20 10 21
REMARK SMILES IDX 9 22 8 23 7 24 6 25 5 26 4 27 3 28 2 29 1 30
REMARK H PARENT
REMARK Flexibility Score: inf
ROOT
ATOM      1  C   UNL     1     -12.768   1.278 -17.494  1.00  0.00     0.000 C 
ENDROOT
BRANCH   1   2
ATOM      2  C   UNL     1     -12.092   0.268 -18.437  1.00  0.00     0.000 C 
BRANCH   2   3
ATOM      3  C   UNL     1     -11.497  -0.935 -17.675  1.00  0.00     0.000 C 
BRANCH   3   4
ATOM      4  C   UNL     1     -12.482  -2.108 -17.515  1.00  0.00     0.000 C 
BRANCH   4   5
ATOM      5  C   UNL     1     -13.209  -2.093 -16.160  1.00  0.00     0.000 C 
BRANCH   5   6
ATOM      6  C   UNL     1     -14.695  -2.475 -16.270  1.00  0.00     0.000 C 
BRANCH   6   7
ATOM      7  C   UNL     1     -15.145  -3.662 -15.392  1.00  0.00     0.000 C 
BRANCH   7   8
ATOM      8  C   UNL     1     -14.012  -4.453 -14.716  1.00  0.00     0.000 C 
BRANCH   8   9
ATOM      9  C   UNL     1     -13.764  -4.025 -13.259  1.00  0.00     0.000 C 
BRANCH   9  10
ATOM     10  C   UNL     1     -15.052  -3.602 -12.530  1.00  0.00     0.000 C 
BRANCH  10  11
ATOM     11  C   UNL     1     -15.004  -3.657 -10.991  1.00  0.00     0.000 C 
BRANCH  11  12
ATOM     12  C   UNL     1     -14.397  -2.410 -10.318  1.00  0.00     0.006 C 
BRANCH  12  13
ATOM     13  C   UNL     1     -15.249  -1.138 -10.497  1.00  0.00     0.053 C 
BRANCH  13  14
ATOM     14  C   UNL     1     -14.376   0.071 -10.658  1.00  0.00     0.041 C 
ATOM     15  O   UNL     1     -13.348   0.217  -9.945  1.00  0.00    -0.550 OA
ATOM     16  O   UNL     1     -14.698   1.037 -11.602  1.00  0.00    -0.550 OA
ENDBRANCH  13  14
ENDBRANCH  12  13
ENDBRANCH  11  12
ENDBRANCH  10  11
ENDBRANCH   9  10
ENDBRANCH   8   9
ENDBRANCH   7   8
ENDBRANCH   6   7
ENDBRANCH   5   6
ENDBRANCH   4   5
ENDBRANCH   3   4
ENDBRANCH   2   3
ENDBRANCH   1   2
BRANCH   1  17
ATOM     17  C   UNL     1     -12.516   2.735 -17.915  1.00  0.00     0.000 C 
BRANCH  17  18
ATOM     18  C   UNL     1     -11.741   3.534 -16.853  1.00  0.00     0.000 C 
BRANCH  18  19
ATOM     19  C   UNL     1     -12.486   4.807 -16.423  1.00  0.00     0.000 C 
BRANCH  19  20
ATOM     20  C   UNL     1     -11.523   5.955 -16.076  1.00  0.00     0.000 C 
BRANCH  20  21
ATOM     21  C   UNL     1     -12.257   7.304 -16.051  1.00  0.00     0.000 C 
BRANCH  21  22
ATOM     22  C   UNL     1     -13.414   7.334 -15.036  1.00  0.00    -0.000 C 
BRANCH  22  23
ATOM     23  C   UNL     1     -14.390   8.514 -15.204  1.00  0.00    -0.000 C 
BRANCH  23  24
ATOM     24  C   UNL     1     -14.366   9.176 -16.593  1.00  0.00    -0.000 C 
BRANCH  24  25
ATOM     25  C   UNL     1     -14.844   8.243 -17.727  1.00  0.00    -0.000 C 
BRANCH  25  26
ATOM     26  C   UNL     1     -13.989   8.386 -18.997  1.00  0.00    -0.000 C 
BRANCH  26  27
ATOM     27  C   UNL     1     -14.716   7.899 -20.261  1.00  0.00    -0.000 C 
BRANCH  27  28
ATOM     28  C   UNL     1     -15.401   6.535 -20.067  1.00  0.00    -0.000 C 
BRANCH  28  29
ATOM     29  C   UNL     1     -14.445   5.469 -19.511  1.00  0.00    -0.003 C 
ATOM     30  C   UNL     1     -15.162   4.421 -18.660  1.00  0.00     0.004 C 
ENDBRANCH  28  29
ENDBRANCH  27  28
ENDBRANCH  26  27
ENDBRANCH  25  26
ENDBRANCH  24  25
ENDBRANCH  23  24
ENDBRANCH  22  23
ENDBRANCH  21  22
ENDBRANCH  20  21
ENDBRANCH  19  20
ENDBRANCH  18  19
ENDBRANCH  17  18
ENDBRANCH   1  17
TORSDOF 26
ENDMDL
MODEL 8
REMARK VINA RESULT:    24.950      2.238      9.967
REMARK INTER + INTRA:          61.551
REMARK INTER:                  62.669
REMARK INTRA:                  -1.119
REMARK UNBOUND:                -1.324
REMARK SMILES CCCCCCCCCCCCCCCCCCCCCCCCCCCC(=O)[O-]
REMARK SMILES IDX 15 1 16 2 17 3 18 4 19 5 20 6 21 7 22 8 23 9 24 10 25 11
REMARK SMILES IDX 26 12 27 13 28 14 29 15 30 16 14 17 13 18 12 19 11 20 10 21
REMARK SMILES IDX 9 22 8 23 7 24 6 25 5 26 4 27 3 28 2 29 1 30
REMARK H PARENT
REMARK Flexibility Score: inf
ROOT
ATOM      1  C   UNL     1     -12.849   1.566 -17.154  1.00  0.00     0.000 C 
ENDROOT
BRANCH   1   2
ATOM      2  C   UNL     1     -12.135   2.816 -17.698  1.00  0.00     0.000 C 
BRANCH   2   3
ATOM      3  C   UNL     1     -12.905   3.468 -18.865  1.00  0.00     0.000 C 
BRANCH   3   4
ATOM      4  C   UNL     1     -14.407   3.656 -18.581  1.00  0.00     0.000 C 
BRANCH   4   5
ATOM      5  C   UNL     1     -14.843   5.129 -18.644  1.00  0.00     0.000 C 
BRANCH   5   6
ATOM      6  C   UNL     1     -14.962   5.661 -20.083  1.00  0.00     0.000 C 
BRANCH   6   7
ATOM      7  C   UNL     1     -15.488   7.106 -20.219  1.00  0.00     0.000 C 
BRANCH   7   8
ATOM      8  C   UNL     1     -14.443   8.214 -20.000  1.00  0.00     0.000 C 
BRANCH   8   9
ATOM      9  C   UNL     1     -14.237   8.563 -18.516  1.00  0.00     0.000 C 
BRANCH   9  10
ATOM     10  C   UNL     1     -12.770   8.875 -18.171  1.00  0.00     0.000 C 
BRANCH  10  11
ATOM     11  C   UNL     1     -12.356   8.633 -16.706  1.00  0.00     0.000 C 
BRANCH  11  12
ATOM     12  C   UNL     1     -12.493   7.175 -16.228  1.00  0.00     0.006 C 
BRANCH  12  13
ATOM     13  C   UNL     1     -13.682   6.949 -15.275  1.00  0.00     0.053 C 
BRANCH  13  14
ATOM     14  C   UNL     1     -14.186   8.252 -14.731  1.00  0.00     0.041 C 
ATOM     15  O   UNL     1     -14.826   9.048 -15.469  1.00  0.00    -0.550 OA
ATOM     16  O   UNL     1     -13.952   8.587 -13.404  1.00  0.00    -0.550 OA
ENDBRANCH  13  14
ENDBRANCH  12  13
ENDBRANCH  11  12
ENDBRANCH  10  11
ENDBRANCH   9  10
ENDBRANCH   8   9
ENDBRANCH   7   8
ENDBRANCH   6   7
ENDBRANCH   5   6
ENDBRANCH   4   5
ENDBRANCH   3   4
ENDBRANCH   2   3
ENDBRANCH   1   2
BRANCH   1  17
ATOM     17  C   UNL     1     -11.874   0.418 -16.847  1.00  0.00     0.000 C 
BRANCH  17  18
ATOM     18  C   UNL     1     -11.826  -0.634 -17.968  1.00  0.00     0.000 C 
BRANCH  18  19
ATOM     19  C   UNL     1     -12.541  -1.937 -17.575  1.00  0.00     0.000 C 
BRANCH  19  20
ATOM     20  C   UNL     1     -13.561  -1.722 -16.445  1.00  0.00     0.000 C 
BRANCH  20  21
ATOM     21  C   UNL     1     -14.377  -2.997 -16.187  1.00  0.00     0.000 C 
BRANCH  21  22
ATOM     22  C   UNL     1     -14.720  -3.194 -14.699  1.00  0.00    -0.000 C 
BRANCH  22  23
ATOM     23  C   UNL     1     -13.947  -4.330 -14.002  1.00  0.00    -0.000 C 
BRANCH  23  24
ATOM     24  C   UNL     1     -14.089  -4.359 -12.469  1.00  0.00    -0.000 C 
BRANCH  24  25
ATOM     25  C   UNL     1     -15.015  -3.254 -11.917  1.00  0.00    -0.000 C 
BRANCH  25  26
ATOM     26  C   UNL     1     -14.744  -2.957 -10.432  1.00  0.00    -0.000 C 
BRANCH  26  27
ATOM     27  C   UNL     1     -14.276  -1.512 -10.191  1.00  0.00    -0.000 C 
BRANCH  27  28
ATOM     28  C   UNL     1     -15.182  -0.471 -10.871  1.00  0.00    -0.000 C 
BRANCH  28  29
ATOM     29  C   UNL     1     -14.454   0.854 -11.146  1.00  0.00    -0.003 C 
ATOM     30  C   UNL     1     -13.273   1.083 -10.204  1.00  0.00     0.004 C 
ENDBRANCH  28  29
ENDBRANCH  27  28
ENDBRANCH  26  27
ENDBRANCH  25  26
ENDBRANCH  24  25
ENDBRANCH  23  24
ENDBRANCH  22  23
ENDBRANCH  21  22
ENDBRANCH  20  21
ENDBRANCH  19  20
ENDBRANCH  18  19
ENDBRANCH  17  18
ENDBRANCH   1  17
TORSDOF 26
ENDMDL
MODEL 9
REMARK VINA RESULT:    26.057      2.304      9.834
REMARK INTER + INTRA:          64.338
REMARK INTER:                  65.063
REMARK INTRA:                  -0.725
REMARK UNBOUND:                -1.324
REMARK SMILES CCCCCCCCCCCCCCCCCCCCCCCCCCCC(=O)[O-]
REMARK SMILES IDX 15 1 16 2 17 3 18 4 19 5 20 6 21 7 22 8 23 9 24 10 25 11
REMARK SMILES IDX 26 12 27 13 28 14 29 15 30 16 14 17 13 18 12 19 11 20 10 21
REMARK SMILES IDX 9 22 8 23 7 24 6 25 5 26 4 27 3 28 2 29 1 30
REMARK H PARENT
REMARK Flexibility Score: inf
ROOT
ATOM      1  C   UNL     1     -12.299  -1.788 -17.957  1.00  0.00     0.000 C 
ENDROOT
BRANCH   1   2
ATOM      2  C   UNL     1     -11.622  -0.446 -18.282  1.00  0.00     0.000 C 
BRANCH   2   3
ATOM      3  C   UNL     1     -11.732   0.561 -17.118  1.00  0.00     0.000 C 
BRANCH   3   4
ATOM      4  C   UNL     1     -12.866   1.587 -17.298  1.00  0.00     0.000 C 
BRANCH   4   5
ATOM      5  C   UNL     1     -12.416   2.840 -18.066  1.00  0.00     0.000 C 
BRANCH   5   6
ATOM      6  C   UNL     1     -13.394   4.020 -17.918  1.00  0.00     0.000 C 
BRANCH   6   7
ATOM      7  C   UNL     1     -14.346   4.251 -19.111  1.00  0.00     0.000 C 
BRANCH   7   8
ATOM      8  C   UNL     1     -15.196   5.532 -19.042  1.00  0.00     0.000 C 
BRANCH   8   9
ATOM      9  C   UNL     1     -15.080   6.400 -20.307  1.00  0.00     0.000 C 
BRANCH   9  10
ATOM     10  C   UNL     1     -14.581   7.826 -20.014  1.00  0.00     0.000 C 
BRANCH  10  11
ATOM     11  C   UNL     1     -14.858   8.359 -18.595  1.00  0.00     0.000 C 
BRANCH  11  12
ATOM     12  C   UNL     1     -13.601   8.599 -17.737  1.00  0.00     0.006 C 
BRANCH  12  13
ATOM     13  C   UNL     1     -13.596   7.804 -16.417  1.00  0.00     0.053 C 
BRANCH  13  14
ATOM     14  C   UNL     1     -14.405   8.506 -15.368  1.00  0.00     0.041 C 
ATOM     15  O   UNL     1     -15.375   9.241 -15.694  1.00  0.00    -0.550 OA
ATOM     16  O   UNL     1     -14.089   8.345 -14.025  1.00  0.00    -0.550 OA
ENDBRANCH  13  14
ENDBRANCH  12  13
ENDBRANCH  11  12
ENDBRANCH  10  11
ENDBRANCH   9  10
ENDBRANCH   8   9
ENDBRANCH   7   8
ENDBRANCH   6   7
ENDBRANCH   5   6
ENDBRANCH   4   5
ENDBRANCH   3   4
ENDBRANCH   2   3
ENDBRANCH   1   2
BRANCH   1  17
ATOM     17  C   UNL     1     -13.649  -1.609 -17.243  1.00  0.00     0.000 C 
BRANCH  17  18
ATOM     18  C   UNL     1     -13.644  -2.180 -15.815  1.00  0.00     0.000 C 
BRANCH  18  19
ATOM     19  C   UNL     1     -14.745  -3.231 -15.604  1.00  0.00     0.000 C 
BRANCH  19  20
ATOM     20  C   UNL     1     -14.335  -4.307 -14.585  1.00  0.00     0.000 C 
BRANCH  20  21
ATOM     21  C   UNL     1     -14.093  -3.693 -13.199  1.00  0.00     0.000 C 
BRANCH  21  22
ATOM     22  C   UNL     1     -14.892  -4.397 -12.087  1.00  0.00    -0.000 C 
BRANCH  22  23
ATOM     23  C   UNL     1     -15.247  -3.506 -10.883  1.00  0.00    -0.000 C 
BRANCH  23  24
ATOM     24  C   UNL     1     -14.602  -2.108 -10.904  1.00  0.00    -0.000 C 
BRANCH  24  25
ATOM     25  C   UNL     1     -14.340  -1.531  -9.496  1.00  0.00    -0.000 C 
BRANCH  25  26
ATOM     26  C   UNL     1     -13.045  -0.702  -9.439  1.00  0.00    -0.000 C 
BRANCH  26  27
ATOM     27  C   UNL     1     -13.263   0.768  -9.831  1.00  0.00    -0.000 C 
BRANCH  27  28
ATOM     28  C   UNL     1     -13.415   0.965 -11.349  1.00  0.00    -0.000 C 
BRANCH  28  29
ATOM     29  C   UNL     1     -14.798   1.509 -11.738  1.00  0.00    -0.003 C 
ATOM     30  C   UNL     1     -15.933   0.837 -10.966  1.00  0.00     0.004 C 
ENDBRANCH  28  29
ENDBRANCH  27  28
ENDBRANCH  26  27
ENDBRANCH  25  26
ENDBRANCH  24  25
ENDBRANCH  23  24
ENDBRANCH  22  23
ENDBRANCH  21  22
ENDBRANCH  20  21
ENDBRANCH  19  20
ENDBRANCH  18  19
ENDBRANCH  17  18
ENDBRANCH   1  17
TORSDOF 26
ENDMDL
