MODEL 1
REMARK VINA RESULT:    -4.093      0.000      0.000
REMARK INTER + INTRA:          -4.475
REMARK INTER:                  -4.452
REMARK INTRA:                  -0.023
REMARK UNBOUND:                -0.023
REMARK SMILES CC1(C)[C@H]2CC=C(CO)[C@@H]1C2
REMARK SMILES IDX 8 1 7 2 1 3 2 4 4 5 3 6 10 7 5 8 11 9 6 10 9 11
REMARK H PARENT 9 12
REMARK Flexibility Score: inf
ROOT
ATOM      1  C   UNL     1      11.015  10.511  11.662  1.00  0.00     0.187 C 
ENDROOT
BRANCH   1   2
ATOM      2  C   UNL     1      10.535   9.687  12.821  1.00  0.00    -0.045 C 
ATOM      3  C   UNL     1       7.640  10.268  15.370  1.00  0.00     0.012 C 
ATOM      4  C   UNL     1       8.564   9.515  14.379  1.00  0.00    -0.026 C 
ATOM      5  C   UNL     1       9.525   8.532  15.104  1.00  0.00    -0.000 C 
ATOM      6  C   UNL     1       7.691   8.977  13.210  1.00  0.00     0.012 C 
ATOM      7  C   UNL     1       9.841  10.325  14.034  1.00  0.00     0.023 C 
ATOM      8  C   UNL     1      10.179   7.547  14.074  1.00  0.00     0.031 C 
ATOM      9  C   UNL     1      10.525   9.696  15.263  1.00  0.00     0.013 C 
ATOM     10  C   UNL     1      10.718   8.334  12.861  1.00  0.00    -0.025 C 
ENDBRANCH   1   2
BRANCH   1  11
ATOM     11  O   UNL     1      11.459   9.665  10.639  1.00  0.00    -0.392 OA
ATOM     12  H   UNL     1      11.628   8.785  11.063  1.00  0.00     0.211 HD
ENDBRANCH   1  11
TORSDOF 2
ENDMDL
MODEL 2
REMARK VINA RESULT:    -4.074      2.058      3.555
REMARK INTER + INTRA:          -4.454
REMARK INTER:                  -4.406
REMARK INTRA:                  -0.048
REMARK UNBOUND:                -0.023
REMARK SMILES CC1(C)[C@H]2CC=C(CO)[C@@H]1C2
REMARK SMILES IDX 8 1 7 2 1 3 2 4 4 5 3 6 10 7 5 8 11 9 6 10 9 11
REMARK H PARENT 9 12
REMARK Flexibility Score: inf
ROOT
ATOM      1  C   UNL     1      10.863   9.157  16.634  1.00  0.00     0.187 C 
ENDROOT
BRANCH   1   2
ATOM      2  C   UNL     1      10.074   9.347  15.372  1.00  0.00    -0.045 C 
ATOM      3  C   UNL     1      11.140  10.587  11.831  1.00  0.00     0.012 C 
ATOM      4  C   UNL     1      10.438   9.721  12.908  1.00  0.00    -0.026 C 
ATOM      5  C   UNL     1       8.907   9.979  12.963  1.00  0.00    -0.000 C 
ATOM      6  C   UNL     1      10.943   8.258  12.763  1.00  0.00     0.012 C 
ATOM      7  C   UNL     1      10.482  10.381  14.312  1.00  0.00     0.023 C 
ATOM      8  C   UNL     1       8.193   8.856  13.792  1.00  0.00     0.031 C 
ATOM      9  C   UNL     1       9.179  11.125  13.958  1.00  0.00     0.013 C 
ATOM     10  C   UNL     1       8.942   8.625  15.121  1.00  0.00    -0.025 C 
ENDBRANCH   1   2
BRANCH   1  11
ATOM     11  O   UNL     1      11.943  10.048  16.649  1.00  0.00    -0.392 OA
ATOM     12  H   UNL     1      12.357   9.963  17.547  1.00  0.00     0.211 HD
ENDBRANCH   1  11
TORSDOF 2
ENDMDL
MODEL 3
REMARK VINA RESULT:    -4.035      1.140      1.201
REMARK INTER + INTRA:          -4.412
REMARK INTER:                  -4.368
REMARK INTRA:                  -0.043
REMARK UNBOUND:                -0.023
REMARK SMILES CC1(C)[C@H]2CC=C(CO)[C@@H]1C2
REMARK SMILES IDX 8 1 7 2 1 3 2 4 4 5 3 6 10 7 5 8 11 9 6 10 9 11
REMARK H PARENT 9 12
REMARK Flexibility Score: inf
ROOT
ATOM      1  C   UNL     1      10.881   9.519  12.071  1.00  0.00     0.187 C 
ENDROOT
BRANCH   1   2
ATOM      2  C   UNL     1      10.407   8.704  13.238  1.00  0.00    -0.045 C 
ATOM      3  C   UNL     1       7.588   9.352  15.855  1.00  0.00     0.012 C 
ATOM      4  C   UNL     1       8.469   8.578  14.841  1.00  0.00    -0.026 C 
ATOM      5  C   UNL     1       9.420   7.568  15.541  1.00  0.00    -0.000 C 
ATOM      6  C   UNL     1       7.555   8.067  13.692  1.00  0.00     0.012 C 
ATOM      7  C   UNL     1       9.758   9.356  14.468  1.00  0.00     0.023 C 
ATOM      8  C   UNL     1      10.023   6.570  14.493  1.00  0.00     0.031 C 
ATOM      9  C   UNL     1      10.453   8.704  15.680  1.00  0.00     0.013 C 
ATOM     10  C   UNL     1      10.555   7.346  13.271  1.00  0.00    -0.025 C 
ENDBRANCH   1   2
BRANCH   1  11
ATOM     11  O   UNL     1      11.614  10.618  12.534  1.00  0.00    -0.392 OA
ATOM     12  H   UNL     1      12.213  10.271  13.245  1.00  0.00     0.211 HD
ENDBRANCH   1  11
TORSDOF 2
ENDMDL
MODEL 4
REMARK VINA RESULT:    -3.880      1.378      2.534
REMARK INTER + INTRA:          -4.244
REMARK INTER:                  -4.214
REMARK INTRA:                  -0.030
REMARK UNBOUND:                -0.023
REMARK SMILES CC1(C)[C@H]2CC=C(CO)[C@@H]1C2
REMARK SMILES IDX 8 1 7 2 1 3 2 4 4 5 3 6 10 7 5 8 11 9 6 10 9 11
REMARK H PARENT 9 12
REMARK Flexibility Score: inf
ROOT
ATOM      1  C   UNL     1      10.229  10.452  12.609  1.00  0.00     0.187 C 
ENDROOT
BRANCH   1   2
ATOM      2  C   UNL     1       9.807   9.502  13.692  1.00  0.00    -0.045 C 
ATOM      3  C   UNL     1       7.892   6.108  13.537  1.00  0.00     0.012 C 
ATOM      4  C   UNL     1       8.958   7.148  13.968  1.00  0.00    -0.026 C 
ATOM      5  C   UNL     1       8.733   7.652  15.420  1.00  0.00    -0.000 C 
ATOM      6  C   UNL     1      10.359   6.600  13.577  1.00  0.00     0.012 C 
ATOM      7  C   UNL     1       8.583   8.590  13.534  1.00  0.00     0.023 C 
ATOM      8  C   UNL     1      10.004   8.411  15.938  1.00  0.00     0.031 C 
ATOM      9  C   UNL     1       7.799   8.739  14.852  1.00  0.00     0.013 C 
ATOM     10  C   UNL     1      10.480   9.426  14.878  1.00  0.00    -0.025 C 
ENDBRANCH   1   2
BRANCH   1  11
ATOM     11  O   UNL     1      11.619  10.392  12.449  1.00  0.00    -0.392 OA
ATOM     12  H   UNL     1      12.006  10.518  13.354  1.00  0.00     0.211 HD
ENDBRANCH   1  11
TORSDOF 2
ENDMDL
MODEL 5
REMARK VINA RESULT:    -3.819      4.371      5.663
REMARK INTER + INTRA:          -4.177
REMARK INTER:                  -4.154
REMARK INTRA:                  -0.023
REMARK UNBOUND:                -0.023
REMARK SMILES CC1(C)[C@H]2CC=C(CO)[C@@H]1C2
REMARK SMILES IDX 8 1 7 2 1 3 2 4 4 5 3 6 10 7 5 8 11 9 6 10 9 11
REMARK H PARENT 9 12
REMARK Flexibility Score: inf
ROOT
ATOM      1  C   UNL     1       7.854   2.804  15.752  1.00  0.00     0.187 C 
ENDROOT
BRANCH   1   2
ATOM      2  C   UNL     1       8.132   4.166  15.186  1.00  0.00    -0.045 C 
ATOM      3  C   UNL     1       5.927   7.378  15.006  1.00  0.00     0.012 C 
ATOM      4  C   UNL     1       7.185   6.499  15.223  1.00  0.00    -0.026 C 
ATOM      5  C   UNL     1       8.235   6.688  14.094  1.00  0.00    -0.000 C 
ATOM      6  C   UNL     1       7.641   6.658  16.701  1.00  0.00     0.012 C 
ATOM      7  C   UNL     1       7.006   5.066  14.656  1.00  0.00     0.023 C 
ATOM      8  C   UNL     1       9.613   6.074  14.522  1.00  0.00     0.031 C 
ATOM      9  C   UNL     1       7.514   5.584  13.297  1.00  0.00     0.013 C 
ATOM     10  C   UNL     1       9.403   4.656  15.093  1.00  0.00    -0.025 C 
ENDBRANCH   1   2
BRANCH   1  11
ATOM     11  O   UNL     1       8.907   1.939  15.428  1.00  0.00    -0.392 OA
ATOM     12  H   UNL     1       8.550   1.315  14.745  1.00  0.00     0.211 HD
ENDBRANCH   1  11
TORSDOF 2
ENDMDL
MODEL 6
REMARK VINA RESULT:    -3.791      2.210      3.413
REMARK INTER + INTRA:          -4.147
REMARK INTER:                  -4.089
REMARK INTRA:                  -0.058
REMARK UNBOUND:                -0.023
REMARK SMILES CC1(C)[C@H]2CC=C(CO)[C@@H]1C2
REMARK SMILES IDX 8 1 7 2 1 3 2 4 4 5 3 6 10 7 5 8 11 9 6 10 9 11
REMARK H PARENT 9 12
REMARK Flexibility Score: inf
ROOT
ATOM      1  C   UNL     1       9.396   5.966  14.700  1.00  0.00     0.187 C 
ENDROOT
BRANCH   1   2
ATOM      2  C   UNL     1       9.560   7.363  14.177  1.00  0.00    -0.045 C 
ATOM      3  C   UNL     1       8.547  10.813  15.689  1.00  0.00     0.012 C 
ATOM      4  C   UNL     1       9.416   9.748  14.972  1.00  0.00    -0.026 C 
ATOM      5  C   UNL     1       9.530  10.014  13.446  1.00  0.00    -0.000 C 
ATOM      6  C   UNL     1      10.721   9.550  15.794  1.00  0.00     0.012 C 
ATOM      7  C   UNL     1       8.597   8.492  14.574  1.00  0.00     0.023 C 
ATOM      8  C   UNL     1      10.681   9.149  12.825  1.00  0.00     0.031 C 
ATOM      9  C   UNL     1       8.238   9.195  13.250  1.00  0.00     0.013 C 
ATOM     10  C   UNL     1      10.558   7.688  13.303  1.00  0.00    -0.025 C 
ENDBRANCH   1   2
BRANCH   1  11
ATOM     11  O   UNL     1      10.111   5.827  15.896  1.00  0.00    -0.392 OA
ATOM     12  H   UNL     1       9.550   5.260  16.487  1.00  0.00     0.211 HD
ENDBRANCH   1  11
TORSDOF 2
ENDMDL
MODEL 7
REMARK VINA RESULT:    -3.767      1.612      3.042
REMARK INTER + INTRA:          -4.120
REMARK INTER:                  -4.069
REMARK INTRA:                  -0.052
REMARK UNBOUND:                -0.023
REMARK SMILES CC1(C)[C@H]2CC=C(CO)[C@@H]1C2
REMARK SMILES IDX 8 1 7 2 1 3 2 4 4 5 3 6 10 7 5 8 11 9 6 10 9 11
REMARK H PARENT 9 12
REMARK Flexibility Score: inf
ROOT
ATOM      1  C   UNL     1       7.327  10.376  12.200  1.00  0.00     0.187 C 
ENDROOT
BRANCH   1   2
ATOM      2  C   UNL     1       8.368   9.946  13.192  1.00  0.00    -0.045 C 
ATOM      3  C   UNL     1      10.372   6.618  13.544  1.00  0.00     0.012 C 
ATOM      4  C   UNL     1      10.097   8.144  13.515  1.00  0.00    -0.026 C 
ATOM      5  C   UNL     1      10.147   8.776  14.933  1.00  0.00    -0.000 C 
ATOM      6  C   UNL     1      10.960   8.774  12.386  1.00  0.00     0.012 C 
ATOM      7  C   UNL     1       8.580   8.468  13.552  1.00  0.00     0.023 C 
ATOM      8  C   UNL     1      10.221  10.339  14.832  1.00  0.00     0.031 C 
ATOM      9  C   UNL     1       8.651   8.436  15.091  1.00  0.00     0.013 C 
ATOM     10  C   UNL     1       9.156  10.854  13.841  1.00  0.00    -0.025 C 
ENDBRANCH   1   2
BRANCH   1  11
ATOM     11  O   UNL     1       7.941  10.667  10.976  1.00  0.00    -0.392 OA
ATOM     12  H   UNL     1       8.804  10.179  10.977  1.00  0.00     0.211 HD
ENDBRANCH   1  11
TORSDOF 2
ENDMDL
MODEL 8
REMARK VINA RESULT:    -3.623      2.394      3.580
REMARK INTER + INTRA:          -3.964
REMARK INTER:                  -3.940
REMARK INTRA:                  -0.023
REMARK UNBOUND:                -0.023
REMARK SMILES CC1(C)[C@H]2CC=C(CO)[C@@H]1C2
REMARK SMILES IDX 8 1 7 2 1 3 2 4 4 5 3 6 10 7 5 8 11 9 6 10 9 11
REMARK H PARENT 9 12
REMARK Flexibility Score: inf
ROOT
ATOM      1  C   UNL     1      11.301   9.273  17.313  1.00  0.00     0.187 C 
ENDROOT
BRANCH   1   2
ATOM      2  C   UNL     1      10.523   9.009  16.057  1.00  0.00    -0.045 C 
ATOM      3  C   UNL     1       7.466   6.688  15.361  1.00  0.00     0.012 C 
ATOM      4  C   UNL     1       8.361   7.953  15.314  1.00  0.00    -0.026 C 
ATOM      5  C   UNL     1       9.015   8.158  13.920  1.00  0.00    -0.000 C 
ATOM      6  C   UNL     1       7.571   9.133  15.947  1.00  0.00     0.012 C 
ATOM      7  C   UNL     1       9.801   7.674  15.820  1.00  0.00     0.023 C 
ATOM      8  C   UNL     1       9.609   9.604  13.802  1.00  0.00     0.031 C 
ATOM      9  C   UNL     1      10.182   7.263  14.384  1.00  0.00     0.013 C 
ATOM     10  C   UNL     1      10.445   9.935  15.056  1.00  0.00    -0.025 C 
ENDBRANCH   1   2
BRANCH   1  11
ATOM     11  O   UNL     1      12.364  10.139  17.031  1.00  0.00    -0.392 OA
ATOM     12  H   UNL     1      11.979  10.886  16.504  1.00  0.00     0.211 HD
ENDBRANCH   1  11
TORSDOF 2
ENDMDL
MODEL 9
REMARK VINA RESULT:    -3.609      1.184      2.649
REMARK INTER + INTRA:          -3.948
REMARK INTER:                  -3.915
REMARK INTRA:                  -0.033
REMARK UNBOUND:                -0.023
REMARK SMILES CC1(C)[C@H]2CC=C(CO)[C@@H]1C2
REMARK SMILES IDX 8 1 7 2 1 3 2 4 4 5 3 6 10 7 5 8 11 9 6 10 9 11
REMARK H PARENT 9 12
REMARK Flexibility Score: inf
ROOT
ATOM      1  C   UNL     1      10.983   9.373  12.120  1.00  0.00     0.187 C 
ENDROOT
BRANCH   1   2
ATOM      2  C   UNL     1       9.951   9.322  13.208  1.00  0.00    -0.045 C 
ATOM      3  C   UNL     1       9.848   7.341  16.566  1.00  0.00     0.012 C 
ATOM      4  C   UNL     1       9.694   8.531  15.585  1.00  0.00    -0.026 C 
ATOM      5  C   UNL     1       8.204   8.851  15.280  1.00  0.00    -0.000 C 
ATOM      6  C   UNL     1      10.621   9.682  16.066  1.00  0.00     0.012 C 
ATOM      7  C   UNL     1       9.780   8.084  14.101  1.00  0.00     0.023 C 
ATOM      8  C   UNL     1       8.078  10.252  14.587  1.00  0.00     0.031 C 
ATOM      9  C   UNL     1       8.262   7.821  14.134  1.00  0.00     0.013 C 
ATOM     10  C   UNL     1       9.099  10.365  13.436  1.00  0.00    -0.025 C 
ENDBRANCH   1   2
BRANCH   1  11
ATOM     11  O   UNL     1      11.704  10.570  12.214  1.00  0.00    -0.392 OA
ATOM     12  H   UNL     1      12.652  10.310  12.349  1.00  0.00     0.211 HD
ENDBRANCH   1  11
TORSDOF 2
ENDMDL
