MODEL 1
REMARK VINA RESULT:    -4.219      0.000      0.000
REMARK INTER + INTRA:          -4.935
REMARK INTER:                  -4.836
REMARK INTRA:                  -0.099
REMARK UNBOUND:                -0.099
REMARK SMILES COc1cc(C(=O)[O-])ccc1O
REMARK SMILES IDX 5 1 9 2 4 3 10 4 3 5 11 6 6 7 7 8 8 9 2 10 1 11 12 12
REMARK H PARENT 12 13
REMARK Flexibility Score: inf
ROOT
ATOM      1  C   UNL     1      76.167  15.501  44.558  1.00  0.00     0.001 A 
ATOM      2  C   UNL     1      75.216  15.610  45.585  1.00  0.00     0.014 A 
ATOM      3  C   UNL     1      75.822  15.924  43.261  1.00  0.00     0.060 A 
ATOM      4  C   UNL     1      73.947  16.129  45.322  1.00  0.00     0.051 A 
ATOM      5  C   UNL     1      74.542  16.449  42.989  1.00  0.00     0.161 A 
ATOM      6  C   UNL     1      73.605  16.548  44.034  1.00  0.00     0.157 A 
ENDROOT
BRANCH   1   7
ATOM      7  C   UNL     1      77.510  14.950  44.842  1.00  0.00     0.072 C 
ATOM      8  O   UNL     1      77.641  13.882  45.498  1.00  0.00    -0.545 OA
ATOM      9  O   UNL     1      78.651  15.604  44.390  1.00  0.00    -0.545 OA
ENDBRANCH   1   7
BRANCH   5  10
ATOM     10  O   UNL     1      74.172  16.878  41.705  1.00  0.00    -0.493 OA
ATOM     11  C   UNL     1      74.510  18.143  41.145  1.00  0.00     0.278 C 
ENDBRANCH   5  10
BRANCH   6  12
ATOM     12  O   UNL     1      72.328  17.061  43.810  1.00  0.00    -0.504 OA
ATOM     13  H   UNL     1      71.971  17.861  44.319  1.00  0.00     0.293 HD
ENDBRANCH   6  12
TORSDOF 3
ENDMDL
MODEL 2
REMARK VINA RESULT:    -4.150     10.161     11.394
REMARK INTER + INTRA:          -4.856
REMARK INTER:                  -4.776
REMARK INTRA:                  -0.080
REMARK UNBOUND:                -0.099
REMARK SMILES COc1cc(C(=O)[O-])ccc1O
REMARK SMILES IDX 5 1 9 2 4 3 10 4 3 5 11 6 6 7 7 8 8 9 2 10 1 11 12 12
REMARK H PARENT 12 13
REMARK Flexibility Score: inf
ROOT
ATOM      1  C   UNL     1      83.341  24.586  43.404  1.00  0.00     0.001 A 
ATOM      2  C   UNL     1      84.471  23.761  43.503  1.00  0.00     0.014 A 
ATOM      3  C   UNL     1      82.243  24.152  42.637  1.00  0.00     0.060 A 
ATOM      4  C   UNL     1      84.507  22.528  42.848  1.00  0.00     0.051 A 
ATOM      5  C   UNL     1      82.274  22.908  41.974  1.00  0.00     0.161 A 
ATOM      6  C   UNL     1      83.418  22.098  42.087  1.00  0.00     0.157 A 
ENDROOT
BRANCH   1   7
ATOM      7  C   UNL     1      83.308  25.891  44.100  1.00  0.00     0.072 C 
ATOM      8  O   UNL     1      82.811  26.905  43.539  1.00  0.00    -0.545 OA
ATOM      9  O   UNL     1      83.825  26.019  45.384  1.00  0.00    -0.545 OA
ENDBRANCH   1   7
BRANCH   5  10
ATOM     10  O   UNL     1      81.194  22.450  41.202  1.00  0.00    -0.493 OA
ATOM     11  C   UNL     1      79.825  22.732  41.476  1.00  0.00     0.278 C 
ENDBRANCH   5  10
BRANCH   6  12
ATOM     12  O   UNL     1      83.491  20.860  41.448  1.00  0.00    -0.504 OA
ATOM     13  H   UNL     1      84.063  20.103  41.802  1.00  0.00     0.293 HD
ENDBRANCH   6  12
TORSDOF 3
ENDMDL
MODEL 3
REMARK VINA RESULT:    -4.012      1.118      2.814
REMARK INTER + INTRA:          -4.697
REMARK INTER:                  -4.603
REMARK INTRA:                  -0.094
REMARK UNBOUND:                -0.099
REMARK SMILES COc1cc(C(=O)[O-])ccc1O
REMARK SMILES IDX 5 1 9 2 4 3 10 4 3 5 11 6 6 7 7 8 8 9 2 10 1 11 12 12
REMARK H PARENT 12 13
REMARK Flexibility Score: inf
ROOT
ATOM      1  C   UNL     1      76.152  15.511  44.606  1.00  0.00     0.001 A 
ATOM      2  C   UNL     1      75.818  16.080  43.368  1.00  0.00     0.014 A 
ATOM      3  C   UNL     1      75.175  15.455  45.618  1.00  0.00     0.060 A 
ATOM      4  C   UNL     1      74.536  16.586  43.145  1.00  0.00     0.051 A 
ATOM      5  C   UNL     1      73.879  15.964  45.398  1.00  0.00     0.161 A 
ATOM      6  C   UNL     1      73.567  16.531  44.149  1.00  0.00     0.157 A 
ENDROOT
BRANCH   1   7
ATOM      7  C   UNL     1      77.512  14.977  44.838  1.00  0.00     0.072 C 
ATOM      8  O   UNL     1      77.680  13.902  45.475  1.00  0.00    -0.545 OA
ATOM      9  O   UNL     1      78.627  15.654  44.356  1.00  0.00    -0.545 OA
ENDBRANCH   1   7
BRANCH   5  10
ATOM     10  O   UNL     1      72.885  15.923  46.389  1.00  0.00    -0.493 OA
ATOM     11  C   UNL     1      72.962  16.598  47.641  1.00  0.00     0.278 C 
ENDBRANCH   5  10
BRANCH   6  12
ATOM     12  O   UNL     1      72.297  17.046  43.888  1.00  0.00    -0.504 OA
ATOM     13  H   UNL     1      71.500  16.448  43.704  1.00  0.00     0.293 HD
ENDBRANCH   6  12
TORSDOF 3
ENDMDL
MODEL 4
REMARK VINA RESULT:    -4.002     11.788     12.755
REMARK INTER + INTRA:          -4.686
REMARK INTER:                  -4.592
REMARK INTRA:                  -0.094
REMARK UNBOUND:                -0.099
REMARK SMILES COc1cc(C(=O)[O-])ccc1O
REMARK SMILES IDX 5 1 9 2 4 3 10 4 3 5 11 6 6 7 7 8 8 9 2 10 1 11 12 12
REMARK H PARENT 12 13
REMARK Flexibility Score: inf
ROOT
ATOM      1  C   UNL     1      83.128  25.482  44.292  1.00  0.00     0.001 A 
ATOM      2  C   UNL     1      82.707  26.632  43.606  1.00  0.00     0.014 A 
ATOM      3  C   UNL     1      82.831  25.356  45.662  1.00  0.00     0.060 A 
ATOM      4  C   UNL     1      82.005  27.636  44.275  1.00  0.00     0.051 A 
ATOM      5  C   UNL     1      82.122  26.367  46.342  1.00  0.00     0.161 A 
ATOM      6  C   UNL     1      81.710  27.511  45.634  1.00  0.00     0.157 A 
ENDROOT
BRANCH   1   7
ATOM      7  C   UNL     1      83.873  24.421  43.579  1.00  0.00     0.072 C 
ATOM      8  O   UNL     1      85.130  24.356  43.653  1.00  0.00    -0.545 OA
ATOM      9  O   UNL     1      83.196  23.476  42.814  1.00  0.00    -0.545 OA
ENDBRANCH   1   7
BRANCH   5  10
ATOM     10  O   UNL     1      81.813  26.268  47.708  1.00  0.00    -0.493 OA
ATOM     11  C   UNL     1      80.857  25.367  48.258  1.00  0.00     0.278 C 
ENDBRANCH   5  10
BRANCH   6  12
ATOM     12  O   UNL     1      81.006  28.535  46.268  1.00  0.00    -0.504 OA
ATOM     13  H   UNL     1      80.007  28.654  46.153  1.00  0.00     0.293 HD
ENDBRANCH   6  12
TORSDOF 3
ENDMDL
MODEL 5
REMARK VINA RESULT:    -3.959     10.352     11.457
REMARK INTER + INTRA:          -4.636
REMARK INTER:                  -4.550
REMARK INTRA:                  -0.087
REMARK UNBOUND:                -0.099
REMARK SMILES COc1cc(C(=O)[O-])ccc1O
REMARK SMILES IDX 5 1 9 2 4 3 10 4 3 5 11 6 6 7 7 8 8 9 2 10 1 11 12 12
REMARK H PARENT 12 13
REMARK Flexibility Score: inf
ROOT
ATOM      1  C   UNL     1      83.242  23.121  42.662  1.00  0.00     0.001 A 
ATOM      2  C   UNL     1      84.489  23.389  43.248  1.00  0.00     0.014 A 
ATOM      3  C   UNL     1      82.125  23.881  43.057  1.00  0.00     0.060 A 
ATOM      4  C   UNL     1      84.618  24.393  44.210  1.00  0.00     0.051 A 
ATOM      5  C   UNL     1      82.249  24.896  44.028  1.00  0.00     0.161 A 
ATOM      6  C   UNL     1      83.509  25.146  44.602  1.00  0.00     0.157 A 
ENDROOT
BRANCH   1   7
ATOM      7  C   UNL     1      83.111  22.056  41.644  1.00  0.00     0.072 C 
ATOM      8  O   UNL     1      82.373  22.219  40.635  1.00  0.00    -0.545 OA
ATOM      9  O   UNL     1      83.801  20.857  41.784  1.00  0.00    -0.545 OA
ENDBRANCH   1   7
BRANCH   5  10
ATOM     10  O   UNL     1      81.152  25.668  44.441  1.00  0.00    -0.493 OA
ATOM     11  C   UNL     1      80.292  25.337  45.527  1.00  0.00     0.278 C 
ENDBRANCH   5  10
BRANCH   6  12
ATOM     12  O   UNL     1      83.677  26.141  45.565  1.00  0.00    -0.504 OA
ATOM     13  H   UNL     1      82.979  26.328  46.275  1.00  0.00     0.293 HD
ENDBRANCH   6  12
TORSDOF 3
ENDMDL
MODEL 6
REMARK VINA RESULT:    -3.915     11.637     12.568
REMARK INTER + INTRA:          -4.586
REMARK INTER:                  -4.489
REMARK INTRA:                  -0.097
REMARK UNBOUND:                -0.099
REMARK SMILES COc1cc(C(=O)[O-])ccc1O
REMARK SMILES IDX 5 1 9 2 4 3 10 4 3 5 11 6 6 7 7 8 8 9 2 10 1 11 12 12
REMARK H PARENT 12 13
REMARK Flexibility Score: inf
ROOT
ATOM      1  C   UNL     1      81.668  25.595  46.042  1.00  0.00     0.001 A 
ATOM      2  C   UNL     1      82.882  26.213  46.378  1.00  0.00     0.014 A 
ATOM      3  C   UNL     1      80.690  25.421  47.040  1.00  0.00     0.060 A 
ATOM      4  C   UNL     1      83.116  26.647  47.685  1.00  0.00     0.051 A 
ATOM      5  C   UNL     1      80.922  25.857  48.360  1.00  0.00     0.161 A 
ATOM      6  C   UNL     1      82.147  26.473  48.675  1.00  0.00     0.157 A 
ENDROOT
BRANCH   1   7
ATOM      7  C   UNL     1      81.424  25.136  44.657  1.00  0.00     0.072 C 
ATOM      8  O   UNL     1      82.173  24.272  44.125  1.00  0.00    -0.545 OA
ATOM      9  O   UNL     1      80.364  25.652  43.919  1.00  0.00    -0.545 OA
ENDBRANCH   1   7
BRANCH   5  10
ATOM     10  O   UNL     1      79.966  25.696  49.375  1.00  0.00    -0.493 OA
ATOM     11  C   UNL     1      79.787  24.506  50.138  1.00  0.00     0.278 C 
ENDBRANCH   5  10
BRANCH   6  12
ATOM     12  O   UNL     1      82.417  26.921  49.968  1.00  0.00    -0.504 OA
ATOM     13  H   UNL     1      83.358  27.132  50.280  1.00  0.00     0.293 HD
ENDBRANCH   6  12
TORSDOF 3
ENDMDL
MODEL 7
REMARK VINA RESULT:    -3.886      2.249      3.001
REMARK INTER + INTRA:          -4.552
REMARK INTER:                  -4.458
REMARK INTRA:                  -0.094
REMARK UNBOUND:                -0.099
REMARK SMILES COc1cc(C(=O)[O-])ccc1O
REMARK SMILES IDX 5 1 9 2 4 3 10 4 3 5 11 6 6 7 7 8 8 9 2 10 1 11 12 12
REMARK H PARENT 12 13
REMARK Flexibility Score: inf
ROOT
ATOM      1  C   UNL     1      75.712  17.221  43.577  1.00  0.00     0.001 A 
ATOM      2  C   UNL     1      75.180  16.017  43.090  1.00  0.00     0.014 A 
ATOM      3  C   UNL     1      75.560  18.394  42.815  1.00  0.00     0.060 A 
ATOM      4  C   UNL     1      74.511  15.985  41.864  1.00  0.00     0.051 A 
ATOM      5  C   UNL     1      74.885  18.367  41.577  1.00  0.00     0.161 A 
ATOM      6  C   UNL     1      74.361  17.149  41.107  1.00  0.00     0.157 A 
ENDROOT
BRANCH   1   7
ATOM      7  C   UNL     1      76.420  17.250  44.876  1.00  0.00     0.072 C 
ATOM      8  O   UNL     1      77.675  17.140  44.927  1.00  0.00    -0.545 OA
ATOM      9  O   UNL     1      75.711  17.399  46.063  1.00  0.00    -0.545 OA
ENDBRANCH   1   7
BRANCH   5  10
ATOM     10  O   UNL     1      74.719  19.521  40.795  1.00  0.00    -0.493 OA
ATOM     11  C   UNL     1      73.671  20.471  40.966  1.00  0.00     0.278 C 
ENDBRANCH   5  10
BRANCH   6  12
ATOM     12  O   UNL     1      73.686  17.077  39.889  1.00  0.00    -0.504 OA
ATOM     13  H   UNL     1      72.873  17.646  39.688  1.00  0.00     0.293 HD
ENDBRANCH   6  12
TORSDOF 3
ENDMDL
MODEL 8
REMARK VINA RESULT:    -3.882      2.096      5.027
REMARK INTER + INTRA:          -4.549
REMARK INTER:                  -4.456
REMARK INTRA:                  -0.093
REMARK UNBOUND:                -0.099
REMARK SMILES COc1cc(C(=O)[O-])ccc1O
REMARK SMILES IDX 5 1 9 2 4 3 10 4 3 5 11 6 6 7 7 8 8 9 2 10 1 11 12 12
REMARK H PARENT 12 13
REMARK Flexibility Score: inf
ROOT
ATOM      1  C   UNL     1      75.826  15.835  45.210  1.00  0.00     0.001 A 
ATOM      2  C   UNL     1      76.392  14.662  44.687  1.00  0.00     0.014 A 
ATOM      3  C   UNL     1      76.676  16.836  45.720  1.00  0.00     0.060 A 
ATOM      4  C   UNL     1      77.778  14.491  44.676  1.00  0.00     0.051 A 
ATOM      5  C   UNL     1      78.075  16.667  45.711  1.00  0.00     0.161 A 
ATOM      6  C   UNL     1      78.620  15.483  45.182  1.00  0.00     0.157 A 
ENDROOT
BRANCH   1   7
ATOM      7  C   UNL     1      74.358  16.013  45.221  1.00  0.00     0.072 C 
ATOM      8  O   UNL     1      73.698  15.850  46.283  1.00  0.00    -0.545 OA
ATOM      9  O   UNL     1      73.681  16.362  44.058  1.00  0.00    -0.545 OA
ENDBRANCH   1   7
BRANCH   5  10
ATOM     10  O   UNL     1      78.946  17.647  46.213  1.00  0.00    -0.493 OA
ATOM     11  C   UNL     1      79.071  17.990  47.590  1.00  0.00     0.278 C 
ENDBRANCH   5  10
BRANCH   6  12
ATOM     12  O   UNL     1      79.999  15.275  45.152  1.00  0.00    -0.504 OA
ATOM     13  H   UNL     1      80.637  15.799  45.740  1.00  0.00     0.293 HD
ENDBRANCH   6  12
TORSDOF 3
ENDMDL
MODEL 9
REMARK VINA RESULT:    -3.829      1.794      2.690
REMARK INTER + INTRA:          -4.487
REMARK INTER:                  -4.390
REMARK INTRA:                  -0.097
REMARK UNBOUND:                -0.099
REMARK SMILES COc1cc(C(=O)[O-])ccc1O
REMARK SMILES IDX 5 1 9 2 4 3 10 4 3 5 11 6 6 7 7 8 8 9 2 10 1 11 12 12
REMARK H PARENT 12 13
REMARK Flexibility Score: inf
ROOT
ATOM      1  C   UNL     1      75.945  16.383  43.660  1.00  0.00     0.001 A 
ATOM      2  C   UNL     1      75.227  15.634  42.716  1.00  0.00     0.014 A 
ATOM      3  C   UNL     1      75.884  17.788  43.608  1.00  0.00     0.060 A 
ATOM      4  C   UNL     1      74.465  16.275  41.737  1.00  0.00     0.051 A 
ATOM      5  C   UNL     1      75.116  18.440  42.622  1.00  0.00     0.161 A 
ATOM      6  C   UNL     1      74.405  17.669  41.685  1.00  0.00     0.157 A 
ENDROOT
BRANCH   1   7
ATOM      7  C   UNL     1      76.752  15.699  44.695  1.00  0.00     0.072 C 
ATOM      8  O   UNL     1      77.939  16.056  44.924  1.00  0.00    -0.545 OA
ATOM      9  O   UNL     1      76.212  14.651  45.432  1.00  0.00    -0.545 OA
ENDBRANCH   1   7
BRANCH   5  10
ATOM     10  O   UNL     1      75.037  19.840  42.546  1.00  0.00    -0.493 OA
ATOM     11  C   UNL     1      74.130  20.642  43.296  1.00  0.00     0.278 C 
ENDBRANCH   5  10
BRANCH   6  12
ATOM     12  O   UNL     1      73.632  18.273  40.693  1.00  0.00    -0.504 OA
ATOM     13  H   UNL     1      72.652  18.052  40.563  1.00  0.00     0.293 HD
ENDBRANCH   6  12
TORSDOF 3
ENDMDL
