MODEL 1
REMARK VINA RESULT:    -6.526      0.000      0.000
REMARK INTER + INTRA:         -10.630
REMARK INTER:                  -9.579
REMARK INTRA:                  -1.051
REMARK UNBOUND:                -1.051
REMARK SMILES Cc1cc2c(C(C)C)c(O)c(O)c(C=O)c2c(O)c1-c1c(C)cc2c(C(C)C)c(O)c(O)c(C=O)c2c1O
REMARK SMILES IDX 1 1 2 2 3 3 4 4 16 5 13 6 11 7 9 8 5 9 17 10 19 11 20 12
REMARK SMILES IDX 37 13 21 14 36 15 23 16 22 17 24 18 33 19 25 20 31 21 29 22
REMARK SMILES IDX 38 23 34 25 35 26 26 27 27 28 28 29 32 30 30 32 18 34 6 36
REMARK SMILES IDX 7 37 8 38 14 39 15 40 10 41 12 43
REMARK H PARENT 38 24 32 31 30 33 18 35 10 42 12 44
REMARK Flexibility Score: inf
ROOT
ATOM      1  C   UNL     1     -99.553  86.551 202.393  1.00  0.00     0.045 C 
ATOM      2  C   UNL     1    -100.947  86.844 202.892  1.00  0.00    -0.039 A 
ATOM      3  C   UNL     1    -101.888  87.388 202.015  1.00  0.00     0.013 A 
ATOM      4  C   UNL     1    -103.200  87.710 202.431  1.00  0.00    -0.006 A 
ATOM      5  C   UNL     1    -103.593  87.391 203.765  1.00  0.00     0.039 A 
ATOM      6  C   UNL     1    -104.923  87.691 204.182  1.00  0.00     0.072 A 
ATOM      7  C   UNL     1    -105.874  88.118 203.239  1.00  0.00     0.169 A 
ATOM      8  C   UNL     1    -105.499  88.340 201.902  1.00  0.00     0.162 A 
ATOM      9  C   UNL     1    -104.137  88.300 201.528  1.00  0.00     0.008 A 
ATOM     10  C   UNL     1    -102.658  86.742 204.626  1.00  0.00     0.132 A 
ATOM     11  C   UNL     1    -101.332  86.516 204.202  1.00  0.00     0.031 A 
ENDROOT
BRANCH  11  12
ATOM     12  C   UNL     1    -100.347  85.896 205.127  1.00  0.00     0.031 A 
ATOM     13  C   UNL     1     -99.456  86.703 205.865  1.00  0.00     0.132 A 
ATOM     14  C   UNL     1    -100.308  84.501 205.266  1.00  0.00    -0.039 A 
ATOM     15  C   UNL     1     -98.536  86.112 206.783  1.00  0.00     0.039 A 
ATOM     16  C   UNL     1     -99.344  83.918 206.089  1.00  0.00     0.013 A 
ATOM     17  C   UNL     1    -101.269  83.618 204.507  1.00  0.00     0.045 C 
ATOM     18  C   UNL     1     -98.416  84.687 206.820  1.00  0.00    -0.006 A 
ATOM     19  C   UNL     1     -97.716  86.897 207.649  1.00  0.00     0.072 A 
ATOM     20  C   UNL     1     -97.381  84.071 207.591  1.00  0.00     0.008 A 
ATOM     21  C   UNL     1     -96.785  86.266 208.497  1.00  0.00     0.169 A 
ATOM     22  C   UNL     1     -96.605  84.880 208.452  1.00  0.00     0.162 A 
BRANCH  13  23
ATOM     23  O   UNL     1     -99.464  88.088 205.662  1.00  0.00    -0.507 OA
ATOM     24  H   UNL     1     -98.985  88.750 206.260  1.00  0.00     0.293 HD
ENDBRANCH  13  23
BRANCH  19  25
ATOM     25  C   UNL     1     -97.870  88.364 207.748  1.00  0.00     0.264 C 
ATOM     26  O   UNL     1     -96.996  89.134 207.267  1.00  0.00    -0.298 OA
ENDBRANCH  19  25
BRANCH  20  27
ATOM     27  C   UNL     1     -97.047  82.566 207.542  1.00  0.00     0.017 C 
ATOM     28  C   UNL     1     -95.683  82.296 206.894  1.00  0.00     0.012 C 
ATOM     29  C   UNL     1     -97.240  81.828 208.882  1.00  0.00     0.012 C 
ENDBRANCH  20  27
BRANCH  21  30
ATOM     30  O   UNL     1     -96.028  86.993 209.425  1.00  0.00    -0.504 OA
ATOM     31  H   UNL     1     -95.534  87.848 209.209  1.00  0.00     0.293 HD
ENDBRANCH  21  30
BRANCH  22  32
ATOM     32  O   UNL     1     -95.654  84.291 209.291  1.00  0.00    -0.504 OA
ATOM     33  H   UNL     1     -94.707  84.637 209.386  1.00  0.00     0.293 HD
ENDBRANCH  22  32
ENDBRANCH  11  12
BRANCH  10  34
ATOM     34  O   UNL     1    -103.060  86.276 205.884  1.00  0.00    -0.507 OA
ATOM     35  H   UNL     1    -103.267  86.878 206.670  1.00  0.00     0.293 HD
ENDBRANCH  10  34
BRANCH   9  36
ATOM     36  C   UNL     1    -103.709  88.844 200.153  1.00  0.00     0.017 C 
ATOM     37  C   UNL     1    -104.425  88.099 199.022  1.00  0.00     0.012 C 
ATOM     38  C   UNL     1    -103.869  90.369 200.009  1.00  0.00     0.012 C 
ENDBRANCH   9  36
BRANCH   6  39
ATOM     39  C   UNL     1    -105.329  87.654 205.608  1.00  0.00     0.264 C 
ATOM     40  O   UNL     1    -104.995  88.572 206.404  1.00  0.00    -0.298 OA
ENDBRANCH   6  39
BRANCH   8  41
ATOM     41  O   UNL     1    -106.466  88.590 200.924  1.00  0.00    -0.504 OA
ATOM     42  H   UNL     1    -107.449  88.710 201.117  1.00  0.00     0.293 HD
ENDBRANCH   8  41
BRANCH   7  43
ATOM     43  O   UNL     1    -107.183  88.368 203.667  1.00  0.00    -0.504 OA
ATOM     44  H   UNL     1    -107.531  88.144 204.589  1.00  0.00     0.293 HD
ENDBRANCH   7  43
TORSDOF 11
ENDMDL
MODEL 2
REMARK VINA RESULT:    -6.480      1.675      3.034
REMARK INTER + INTRA:         -10.563
REMARK INTER:                 -10.019
REMARK INTRA:                  -0.544
REMARK UNBOUND:                -1.051
REMARK SMILES Cc1cc2c(C(C)C)c(O)c(O)c(C=O)c2c(O)c1-c1c(C)cc2c(C(C)C)c(O)c(O)c(C=O)c2c1O
REMARK SMILES IDX 1 1 2 2 3 3 4 4 16 5 13 6 11 7 9 8 5 9 17 10 19 11 20 12
REMARK SMILES IDX 37 13 21 14 36 15 23 16 22 17 24 18 33 19 25 20 31 21 29 22
REMARK SMILES IDX 38 23 34 25 35 26 26 27 27 28 28 29 32 30 30 32 18 34 6 36
REMARK SMILES IDX 7 37 8 38 14 39 15 40 10 41 12 43
REMARK H PARENT 38 24 32 31 30 33 18 35 10 42 12 44
REMARK Flexibility Score: inf
ROOT
ATOM      1  C   UNL     1     -99.429  87.364 202.448  1.00  0.00     0.045 C 
ATOM      2  C   UNL     1    -100.870  87.213 202.871  1.00  0.00    -0.039 A 
ATOM      3  C   UNL     1    -101.885  87.515 201.961  1.00  0.00     0.013 A 
ATOM      4  C   UNL     1    -103.252  87.422 202.307  1.00  0.00    -0.006 A 
ATOM      5  C   UNL     1    -103.599  86.924 203.598  1.00  0.00     0.039 A 
ATOM      6  C   UNL     1    -104.977  86.802 203.942  1.00  0.00     0.072 A 
ATOM      7  C   UNL     1    -105.965  86.995 202.960  1.00  0.00     0.169 A 
ATOM      8  C   UNL     1    -105.606  87.395 201.661  1.00  0.00     0.162 A 
ATOM      9  C   UNL     1    -104.275  87.771 201.373  1.00  0.00     0.008 A 
ATOM     10  C   UNL     1    -102.558  86.519 204.487  1.00  0.00     0.132 A 
ATOM     11  C   UNL     1    -101.205  86.710 204.138  1.00  0.00     0.031 A 
ENDROOT
BRANCH  11  12
ATOM     12  C   UNL     1    -100.128  86.345 205.096  1.00  0.00     0.031 A 
ATOM     13  C   UNL     1     -99.865  84.991 205.390  1.00  0.00     0.132 A 
ATOM     14  C   UNL     1     -99.371  87.355 205.708  1.00  0.00    -0.039 A 
ATOM     15  C   UNL     1     -98.806  84.637 206.282  1.00  0.00     0.039 A 
ATOM     16  C   UNL     1     -98.403  87.013 206.652  1.00  0.00     0.013 A 
ATOM     17  C   UNL     1     -99.617  88.810 205.389  1.00  0.00     0.045 C 
ATOM     18  C   UNL     1     -98.130  85.675 206.996  1.00  0.00    -0.006 A 
ATOM     19  C   UNL     1     -98.417  83.281 206.498  1.00  0.00     0.072 A 
ATOM     20  C   UNL     1     -97.194  85.346 208.028  1.00  0.00     0.008 A 
ATOM     21  C   UNL     1     -97.403  82.982 207.429  1.00  0.00     0.169 A 
ATOM     22  C   UNL     1     -96.819  83.995 208.196  1.00  0.00     0.162 A 
BRANCH  13  23
ATOM     23  O   UNL     1    -100.675  84.000 204.824  1.00  0.00    -0.507 OA
ATOM     24  H   UNL     1    -100.329  83.111 204.485  1.00  0.00     0.293 HD
ENDBRANCH  13  23
BRANCH  19  25
ATOM     25  C   UNL     1     -98.991  82.170 205.709  1.00  0.00     0.264 C 
ATOM     26  O   UNL     1     -99.211  81.051 206.244  1.00  0.00    -0.298 OA
ENDBRANCH  19  25
BRANCH  20  27
ATOM     27  C   UNL     1     -96.563  86.381 208.982  1.00  0.00     0.017 C 
ATOM     28  C   UNL     1     -95.324  87.050 208.374  1.00  0.00     0.012 C 
ATOM     29  C   UNL     1     -97.566  87.388 209.581  1.00  0.00     0.012 C 
ENDBRANCH  20  27
BRANCH  21  30
ATOM     30  O   UNL     1     -96.931  81.675 207.604  1.00  0.00    -0.504 OA
ATOM     31  H   UNL     1     -96.076  81.320 207.198  1.00  0.00     0.293 HD
ENDBRANCH  21  30
BRANCH  22  32
ATOM     32  O   UNL     1     -95.832  83.657 209.129  1.00  0.00    -0.504 OA
ATOM     33  H   UNL     1     -95.481  84.305 209.824  1.00  0.00     0.293 HD
ENDBRANCH  22  32
ENDBRANCH  11  12
BRANCH  10  34
ATOM     34  O   UNL     1    -102.868  85.882 205.695  1.00  0.00    -0.507 OA
ATOM     35  H   UNL     1    -102.188  85.401 206.271  1.00  0.00     0.293 HD
ENDBRANCH  10  34
BRANCH   9  36
ATOM     36  C   UNL     1    -103.958  88.497 200.053  1.00  0.00     0.017 C 
ATOM     37  C   UNL     1    -104.467  87.695 198.851  1.00  0.00     0.012 C 
ATOM     38  C   UNL     1    -104.459  89.953 200.007  1.00  0.00     0.012 C 
ENDBRANCH   9  36
BRANCH   6  39
ATOM     39  C   UNL     1    -105.423  86.565 205.337  1.00  0.00     0.264 C 
ATOM     40  O   UNL     1    -105.764  85.416 205.725  1.00  0.00    -0.298 OA
ENDBRANCH   6  39
BRANCH   8  41
ATOM     41  O   UNL     1    -106.556  87.416 200.636  1.00  0.00    -0.504 OA
ATOM     42  H   UNL     1    -106.337  87.575 199.663  1.00  0.00     0.293 HD
ENDBRANCH   8  41
BRANCH   7  43
ATOM     43  O   UNL     1    -107.309  86.832 203.316  1.00  0.00    -0.504 OA
ATOM     44  H   UNL     1    -107.701  87.119 204.201  1.00  0.00     0.293 HD
ENDBRANCH   7  43
TORSDOF 11
ENDMDL
MODEL 3
REMARK VINA RESULT:    -6.326      1.675      9.105
REMARK INTER + INTRA:         -10.336
REMARK INTER:                  -9.514
REMARK INTRA:                  -0.822
REMARK UNBOUND:                -1.051
REMARK SMILES Cc1cc2c(C(C)C)c(O)c(O)c(C=O)c2c(O)c1-c1c(C)cc2c(C(C)C)c(O)c(O)c(C=O)c2c1O
REMARK SMILES IDX 1 1 2 2 3 3 4 4 16 5 13 6 11 7 9 8 5 9 17 10 19 11 20 12
REMARK SMILES IDX 37 13 21 14 36 15 23 16 22 17 24 18 33 19 25 20 31 21 29 22
REMARK SMILES IDX 38 23 34 25 35 26 26 27 27 28 28 29 32 30 30 32 18 34 6 36
REMARK SMILES IDX 7 37 8 38 14 39 15 40 10 41 12 43
REMARK H PARENT 38 24 32 31 30 33 18 35 10 42 12 44
REMARK Flexibility Score: inf
ROOT
ATOM      1  C   UNL     1    -100.522  89.623 205.189  1.00  0.00     0.045 C 
ATOM      2  C   UNL     1    -100.016  88.237 205.508  1.00  0.00    -0.039 A 
ATOM      3  C   UNL     1     -99.019  88.079 206.473  1.00  0.00     0.013 A 
ATOM      4  C   UNL     1     -98.485  86.810 206.795  1.00  0.00    -0.006 A 
ATOM      5  C   UNL     1     -99.044  85.654 206.173  1.00  0.00     0.039 A 
ATOM      6  C   UNL     1     -98.526  84.370 206.514  1.00  0.00     0.072 A 
ATOM      7  C   UNL     1     -97.615  84.241 207.577  1.00  0.00     0.169 A 
ATOM      8  C   UNL     1     -97.140  85.382 208.249  1.00  0.00     0.162 A 
ATOM      9  C   UNL     1     -97.439  86.672 207.758  1.00  0.00     0.008 A 
ATOM     10  C   UNL     1    -100.133  85.814 205.264  1.00  0.00     0.132 A 
ATOM     11  C   UNL     1    -100.579  87.103 204.903  1.00  0.00     0.031 A 
ENDROOT
BRANCH  11  12
ATOM     12  C   UNL     1    -101.672  87.262 203.907  1.00  0.00     0.031 A 
ATOM     13  C   UNL     1    -103.003  86.949 204.253  1.00  0.00     0.132 A 
ATOM     14  C   UNL     1    -101.373  87.728 202.619  1.00  0.00    -0.039 A 
ATOM     15  C   UNL     1    -104.058  87.137 203.310  1.00  0.00     0.039 A 
ATOM     16  C   UNL     1    -102.390  87.820 201.668  1.00  0.00     0.013 A 
ATOM     17  C   UNL     1     -99.961  88.095 202.233  1.00  0.00     0.045 C 
ATOM     18  C   UNL     1    -103.727  87.487 201.964  1.00  0.00    -0.006 A 
ATOM     19  C   UNL     1    -105.431  86.965 203.662  1.00  0.00     0.072 A 
ATOM     20  C   UNL     1    -104.741  87.505 200.954  1.00  0.00     0.008 A 
ATOM     21  C   UNL     1    -106.431  87.110 202.680  1.00  0.00     0.169 A 
ATOM     22  C   UNL     1    -106.089  87.352 201.346  1.00  0.00     0.162 A 
BRANCH  13  23
ATOM     23  O   UNL     1    -103.271  86.420 205.521  1.00  0.00    -0.507 OA
ATOM     24  H   UNL     1    -102.899  85.541 205.858  1.00  0.00     0.293 HD
ENDBRANCH  13  23
BRANCH  19  25
ATOM     25  C   UNL     1    -105.852  86.719 205.057  1.00  0.00     0.264 C 
ATOM     26  O   UNL     1    -106.215  85.570 205.424  1.00  0.00    -0.298 OA
ENDBRANCH  19  25
BRANCH  20  27
ATOM     27  C   UNL     1    -104.456  87.677 199.448  1.00  0.00     0.017 C 
ATOM     28  C   UNL     1    -104.953  86.481 198.624  1.00  0.00     0.012 C 
ATOM     29  C   UNL     1    -104.893  89.037 198.868  1.00  0.00     0.012 C 
ENDBRANCH  20  27
BRANCH  21  30
ATOM     30  O   UNL     1    -107.792  87.038 203.003  1.00  0.00    -0.504 OA
ATOM     31  H   UNL     1    -108.434  87.815 202.931  1.00  0.00     0.293 HD
ENDBRANCH  21  30
BRANCH  22  32
ATOM     32  O   UNL     1    -107.108  87.465 200.393  1.00  0.00    -0.504 OA
ATOM     33  H   UNL     1    -106.969  87.280 199.408  1.00  0.00     0.293 HD
ENDBRANCH  22  32
ENDBRANCH  11  12
BRANCH  10  34
ATOM     34  O   UNL     1    -100.804  84.694 204.760  1.00  0.00    -0.507 OA
ATOM     35  H   UNL     1    -101.646  84.309 205.167  1.00  0.00     0.293 HD
ENDBRANCH  10  34
BRANCH   9  36
ATOM     36  C   UNL     1     -96.671  87.890 208.303  1.00  0.00     0.017 C 
ATOM     37  C   UNL     1     -95.724  88.461 207.242  1.00  0.00     0.012 C 
ATOM     38  C   UNL     1     -97.578  88.987 208.892  1.00  0.00     0.012 C 
ENDBRANCH   9  36
BRANCH   6  39
ATOM     39  C   UNL     1     -98.847  83.156 205.724  1.00  0.00     0.264 C 
ATOM     40  O   UNL     1     -99.569  82.241 206.200  1.00  0.00    -0.298 OA
ENDBRANCH   6  39
BRANCH   8  41
ATOM     41  O   UNL     1     -96.379  85.255 209.414  1.00  0.00    -0.504 OA
ATOM     42  H   UNL     1     -96.424  84.462 210.037  1.00  0.00     0.293 HD
ENDBRANCH   8  41
BRANCH   7  43
ATOM     43  O   UNL     1     -97.152  82.964 207.916  1.00  0.00    -0.504 OA
ATOM     44  H   UNL     1     -97.732  82.138 207.941  1.00  0.00     0.293 HD
ENDBRANCH   7  43
TORSDOF 11
ENDMDL
MODEL 4
REMARK VINA RESULT:    -6.218      0.932      9.226
REMARK INTER + INTRA:         -10.177
REMARK INTER:                  -9.443
REMARK INTRA:                  -0.735
REMARK UNBOUND:                -1.051
REMARK SMILES Cc1cc2c(C(C)C)c(O)c(O)c(C=O)c2c(O)c1-c1c(C)cc2c(C(C)C)c(O)c(O)c(C=O)c2c1O
REMARK SMILES IDX 1 1 2 2 3 3 4 4 16 5 13 6 11 7 9 8 5 9 17 10 19 11 20 12
REMARK SMILES IDX 37 13 21 14 36 15 23 16 22 17 24 18 33 19 25 20 31 21 29 22
REMARK SMILES IDX 38 23 34 25 35 26 26 27 27 28 28 29 32 30 30 32 18 34 6 36
REMARK SMILES IDX 7 37 8 38 14 39 15 40 10 41 12 43
REMARK H PARENT 38 24 32 31 30 33 18 35 10 42 12 44
REMARK Flexibility Score: inf
ROOT
ATOM      1  C   UNL     1    -100.358  83.577 204.430  1.00  0.00     0.045 C 
ATOM      2  C   UNL     1     -99.630  84.446 205.427  1.00  0.00    -0.039 A 
ATOM      3  C   UNL     1     -98.627  83.884 206.219  1.00  0.00     0.013 A 
ATOM      4  C   UNL     1     -97.930  84.638 207.190  1.00  0.00    -0.006 A 
ATOM      5  C   UNL     1     -98.206  86.034 207.301  1.00  0.00     0.039 A 
ATOM      6  C   UNL     1     -97.487  86.804 208.261  1.00  0.00     0.072 A 
ATOM      7  C   UNL     1     -96.401  86.233 208.948  1.00  0.00     0.169 A 
ATOM      8  C   UNL     1     -96.076  84.878 208.761  1.00  0.00     0.162 A 
ATOM      9  C   UNL     1     -96.932  84.036 208.016  1.00  0.00     0.008 A 
ATOM     10  C   UNL     1     -99.159  86.623 206.418  1.00  0.00     0.132 A 
ATOM     11  C   UNL     1     -99.897  85.820 205.522  1.00  0.00     0.031 A 
ENDROOT
BRANCH  11  12
ATOM     12  C   UNL     1    -100.933  86.434 204.651  1.00  0.00     0.031 A 
ATOM     13  C   UNL     1    -102.303  86.260 204.940  1.00  0.00     0.132 A 
ATOM     14  C   UNL     1    -100.544  87.190 203.536  1.00  0.00    -0.039 A 
ATOM     15  C   UNL     1    -103.299  86.880 204.126  1.00  0.00     0.039 A 
ATOM     16  C   UNL     1    -101.518  87.715 202.685  1.00  0.00     0.013 A 
ATOM     17  C   UNL     1     -99.084  87.413 203.220  1.00  0.00     0.045 C 
ATOM     18  C   UNL     1    -102.895  87.538 202.923  1.00  0.00    -0.006 A 
ATOM     19  C   UNL     1    -104.686  86.844 204.463  1.00  0.00     0.072 A 
ATOM     20  C   UNL     1    -103.878  88.008 201.995  1.00  0.00     0.008 A 
ATOM     21  C   UNL     1    -105.634  87.425 203.598  1.00  0.00     0.169 A 
ATOM     22  C   UNL     1    -105.238  87.976 202.375  1.00  0.00     0.162 A 
BRANCH  13  23
ATOM     23  O   UNL     1    -102.674  85.445 206.016  1.00  0.00    -0.507 OA
ATOM     24  H   UNL     1    -102.262  84.541 206.209  1.00  0.00     0.293 HD
ENDBRANCH  13  23
BRANCH  19  25
ATOM     25  C   UNL     1    -105.161  86.285 205.747  1.00  0.00     0.264 C 
ATOM     26  O   UNL     1    -105.764  85.180 205.780  1.00  0.00    -0.298 OA
ENDBRANCH  19  25
BRANCH  20  27
ATOM     27  C   UNL     1    -103.548  88.551 200.589  1.00  0.00     0.017 C 
ATOM     28  C   UNL     1    -104.383  87.872 199.496  1.00  0.00     0.012 C 
ATOM     29  C   UNL     1    -103.545  90.089 200.485  1.00  0.00     0.012 C 
ENDBRANCH  20  27
BRANCH  21  30
ATOM     30  O   UNL     1    -106.991  87.491 203.935  1.00  0.00    -0.504 OA
ATOM     31  H   UNL     1    -107.406  87.005 204.718  1.00  0.00     0.293 HD
ENDBRANCH  21  30
BRANCH  22  32
ATOM     32  O   UNL     1    -106.210  88.521 201.529  1.00  0.00    -0.504 OA
ATOM     33  H   UNL     1    -106.793  89.307 201.788  1.00  0.00     0.293 HD
ENDBRANCH  22  32
ENDBRANCH  11  12
BRANCH  10  34
ATOM     34  O   UNL     1     -99.338  88.012 206.395  1.00  0.00    -0.507 OA
ATOM     35  H   UNL     1     -99.830  88.506 205.662  1.00  0.00     0.293 HD
ENDBRANCH  10  34
BRANCH   9  36
ATOM     36  C   UNL     1     -96.739  82.510 208.077  1.00  0.00     0.017 C 
ATOM     37  C   UNL     1     -95.604  82.063 207.149  1.00  0.00     0.012 C 
ATOM     38  C   UNL     1     -96.544  81.963 209.503  1.00  0.00     0.012 C 
ENDBRANCH   9  36
BRANCH   6  39
ATOM     39  C   UNL     1     -97.899  88.179 208.636  1.00  0.00     0.264 C 
ATOM     40  O   UNL     1     -97.218  89.180 208.290  1.00  0.00    -0.298 OA
ENDBRANCH   6  39
BRANCH   8  41
ATOM     41  O   UNL     1     -94.898  84.349 209.297  1.00  0.00    -0.504 OA
ATOM     42  H   UNL     1     -94.433  83.526 208.941  1.00  0.00     0.293 HD
ENDBRANCH   8  41
BRANCH   7  43
ATOM     43  O   UNL     1     -95.688  87.023 209.856  1.00  0.00    -0.504 OA
ATOM     44  H   UNL     1     -96.117  87.608 210.560  1.00  0.00     0.293 HD
ENDBRANCH   7  43
TORSDOF 11
ENDMDL
MODEL 5
REMARK VINA RESULT:    -6.079      2.026      3.711
REMARK INTER + INTRA:          -9.974
REMARK INTER:                  -8.675
REMARK INTRA:                  -1.298
REMARK UNBOUND:                -1.051
REMARK SMILES Cc1cc2c(C(C)C)c(O)c(O)c(C=O)c2c(O)c1-c1c(C)cc2c(C(C)C)c(O)c(O)c(C=O)c2c1O
REMARK SMILES IDX 1 1 2 2 3 3 4 4 16 5 13 6 11 7 9 8 5 9 17 10 19 11 20 12
REMARK SMILES IDX 37 13 21 14 36 15 23 16 22 17 24 18 33 19 25 20 31 21 29 22
REMARK SMILES IDX 38 23 34 25 35 26 26 27 27 28 28 29 32 30 30 32 18 34 6 36
REMARK SMILES IDX 7 37 8 38 14 39 15 40 10 41 12 43
REMARK H PARENT 38 24 32 31 30 33 18 35 10 42 12 44
REMARK Flexibility Score: inf
ROOT
ATOM      1  C   UNL     1     -99.531  87.508 202.562  1.00  0.00     0.045 C 
ATOM      2  C   UNL     1    -100.803  88.150 203.059  1.00  0.00    -0.039 A 
ATOM      3  C   UNL     1    -101.940  88.133 202.248  1.00  0.00     0.013 A 
ATOM      4  C   UNL     1    -103.151  88.743 202.646  1.00  0.00    -0.006 A 
ATOM      5  C   UNL     1    -103.233  89.318 203.949  1.00  0.00     0.039 A 
ATOM      6  C   UNL     1    -104.461  89.911 204.365  1.00  0.00     0.072 A 
ATOM      7  C   UNL     1    -105.615  89.762 203.575  1.00  0.00     0.169 A 
ATOM      8  C   UNL     1    -105.545  89.110 202.331  1.00  0.00     0.162 A 
ATOM      9  C   UNL     1    -104.293  88.747 201.787  1.00  0.00     0.008 A 
ATOM     10  C   UNL     1    -102.099  89.241 204.812  1.00  0.00     0.132 A 
ATOM     11  C   UNL     1    -100.881  88.703 204.347  1.00  0.00     0.031 A 
ENDROOT
BRANCH  11  12
ATOM     12  C   UNL     1     -99.687  88.685 205.232  1.00  0.00     0.031 A 
ATOM     13  C   UNL     1     -99.369  87.530 205.977  1.00  0.00     0.132 A 
ATOM     14  C   UNL     1     -98.873  89.824 205.322  1.00  0.00    -0.039 A 
ATOM     15  C   UNL     1     -98.201  87.499 206.799  1.00  0.00     0.039 A 
ATOM     16  C   UNL     1     -97.788  89.826 206.199  1.00  0.00     0.013 A 
ATOM     17  C   UNL     1     -99.179  91.062 204.515  1.00  0.00     0.045 C 
ATOM     18  C   UNL     1     -97.454  88.705 206.983  1.00  0.00    -0.006 A 
ATOM     19  C   UNL     1     -97.768  86.309 207.458  1.00  0.00     0.072 A 
ATOM     20  C   UNL     1     -96.390  88.753 207.939  1.00  0.00     0.008 A 
ATOM     21  C   UNL     1     -96.639  86.345 208.301  1.00  0.00     0.169 A 
ATOM     22  C   UNL     1     -95.978  87.550 208.554  1.00  0.00     0.162 A 
BRANCH  13  23
ATOM     23  O   UNL     1    -100.229  86.428 205.927  1.00  0.00    -0.507 OA
ATOM     24  H   UNL     1     -99.916  85.468 205.860  1.00  0.00     0.293 HD
ENDBRANCH  13  23
BRANCH  19  25
ATOM     25  C   UNL     1     -98.421  85.005 207.219  1.00  0.00     0.264 C 
ATOM     26  O   UNL     1     -97.731  83.970 207.017  1.00  0.00    -0.298 OA
ENDBRANCH  19  25
BRANCH  20  27
ATOM     27  C   UNL     1     -95.659  90.047 208.351  1.00  0.00     0.017 C 
ATOM     28  C   UNL     1     -94.938  90.707 207.169  1.00  0.00     0.012 C 
ATOM     29  C   UNL     1     -96.521  91.034 209.164  1.00  0.00     0.012 C 
ENDBRANCH  20  27
BRANCH  21  30
ATOM     30  O   UNL     1     -96.129  85.182 208.893  1.00  0.00    -0.504 OA
ATOM     31  H   UNL     1     -95.245  84.760 208.646  1.00  0.00     0.293 HD
ENDBRANCH  21  30
BRANCH  22  32
ATOM     32  O   UNL     1     -94.876  87.552 209.416  1.00  0.00    -0.504 OA
ATOM     33  H   UNL     1     -93.948  87.260 209.133  1.00  0.00     0.293 HD
ENDBRANCH  22  32
ENDBRANCH  11  12
BRANCH  10  34
ATOM     34  O   UNL     1    -102.197  89.654 206.147  1.00  0.00    -0.507 OA
ATOM     35  H   UNL     1    -101.524  90.257 206.603  1.00  0.00     0.293 HD
ENDBRANCH  10  34
BRANCH   9  36
ATOM     36  C   UNL     1    -104.200  88.324 200.309  1.00  0.00     0.017 C 
ATOM     37  C   UNL     1    -105.063  87.088 200.038  1.00  0.00     0.012 C 
ATOM     38  C   UNL     1    -104.517  89.457 199.316  1.00  0.00     0.012 C 
ENDBRANCH   9  36
BRANCH   6  39
ATOM     39  C   UNL     1    -104.553  90.767 205.572  1.00  0.00     0.264 C 
ATOM     40  O   UNL     1    -105.044  90.329 206.646  1.00  0.00    -0.298 OA
ENDBRANCH   6  39
BRANCH   8  41
ATOM     41  O   UNL     1    -106.710  88.800 201.624  1.00  0.00    -0.504 OA
ATOM     42  H   UNL     1    -106.737  88.606 200.634  1.00  0.00     0.293 HD
ENDBRANCH   8  41
BRANCH   7  43
ATOM     43  O   UNL     1    -106.816  90.322 204.025  1.00  0.00    -0.504 OA
ATOM     44  H   UNL     1    -107.446  90.858 203.445  1.00  0.00     0.293 HD
ENDBRANCH   7  43
TORSDOF 11
ENDMDL
MODEL 6
REMARK VINA RESULT:    -6.027      1.566      9.077
REMARK INTER + INTRA:          -9.897
REMARK INTER:                  -9.376
REMARK INTRA:                  -0.521
REMARK UNBOUND:                -1.051
REMARK SMILES Cc1cc2c(C(C)C)c(O)c(O)c(C=O)c2c(O)c1-c1c(C)cc2c(C(C)C)c(O)c(O)c(C=O)c2c1O
REMARK SMILES IDX 1 1 2 2 3 3 4 4 16 5 13 6 11 7 9 8 5 9 17 10 19 11 20 12
REMARK SMILES IDX 37 13 21 14 36 15 23 16 22 17 24 18 33 19 25 20 31 21 29 22
REMARK SMILES IDX 38 23 34 25 35 26 26 27 27 28 28 29 32 30 30 32 18 34 6 36
REMARK SMILES IDX 7 37 8 38 14 39 15 40 10 41 12 43
REMARK H PARENT 38 24 32 31 30 33 18 35 10 42 12 44
REMARK Flexibility Score: inf
ROOT
ATOM      1  C   UNL     1    -101.543  82.910 204.893  1.00  0.00     0.045 C 
ATOM      2  C   UNL     1    -100.522  83.744 205.628  1.00  0.00    -0.039 A 
ATOM      3  C   UNL     1     -99.356  83.138 206.100  1.00  0.00     0.013 A 
ATOM      4  C   UNL     1     -98.378  83.859 206.821  1.00  0.00    -0.006 A 
ATOM      5  C   UNL     1     -98.553  85.265 206.996  1.00  0.00     0.039 A 
ATOM      6  C   UNL     1     -97.556  86.002 207.699  1.00  0.00     0.072 A 
ATOM      7  C   UNL     1     -96.341  85.383 208.047  1.00  0.00     0.169 A 
ATOM      8  C   UNL     1     -96.139  84.016 207.785  1.00  0.00     0.162 A 
ATOM      9  C   UNL     1     -97.208  83.214 207.328  1.00  0.00     0.008 A 
ATOM     10  C   UNL     1     -99.697  85.896 206.422  1.00  0.00     0.132 A 
ATOM     11  C   UNL     1    -100.694  85.128 205.785  1.00  0.00     0.031 A 
ENDROOT
BRANCH  11  12
ATOM     12  C   UNL     1    -101.913  85.787 205.246  1.00  0.00     0.031 A 
ATOM     13  C   UNL     1    -101.825  86.651 204.135  1.00  0.00     0.132 A 
ATOM     14  C   UNL     1    -103.157  85.543 205.848  1.00  0.00    -0.039 A 
ATOM     15  C   UNL     1    -103.000  87.255 203.593  1.00  0.00     0.039 A 
ATOM     16  C   UNL     1    -104.290  86.209 205.379  1.00  0.00     0.013 A 
ATOM     17  C   UNL     1    -103.281  84.602 207.021  1.00  0.00     0.045 C 
ATOM     18  C   UNL     1    -104.239  87.104 204.292  1.00  0.00    -0.006 A 
ATOM     19  C   UNL     1    -102.973  88.023 202.390  1.00  0.00     0.072 A 
ATOM     20  C   UNL     1    -105.393  87.842 203.879  1.00  0.00     0.008 A 
ATOM     21  C   UNL     1    -104.151  88.643 201.927  1.00  0.00     0.169 A 
ATOM     22  C   UNL     1    -105.332  88.572 202.671  1.00  0.00     0.162 A 
BRANCH  13  23
ATOM     23  O   UNL     1    -100.567  86.936 203.592  1.00  0.00    -0.507 OA
ATOM     24  H   UNL     1     -99.702  86.894 204.115  1.00  0.00     0.293 HD
ENDBRANCH  13  23
BRANCH  19  25
ATOM     25  C   UNL     1    -101.756  88.123 201.557  1.00  0.00     0.264 C 
ATOM     26  O   UNL     1    -101.096  89.195 201.514  1.00  0.00    -0.298 OA
ENDBRANCH  19  25
BRANCH  20  27
ATOM     27  C   UNL     1    -106.712  87.899 204.676  1.00  0.00     0.017 C 
ATOM     28  C   UNL     1    -107.034  89.318 205.163  1.00  0.00     0.012 C 
ATOM     29  C   UNL     1    -107.904  87.209 203.984  1.00  0.00     0.012 C 
ENDBRANCH  20  27
BRANCH  21  30
ATOM     30  O   UNL     1    -104.187  89.328 200.706  1.00  0.00    -0.504 OA
ATOM     31  H   UNL     1    -103.379  89.488 200.120  1.00  0.00     0.293 HD
ENDBRANCH  21  30
BRANCH  22  32
ATOM     32  O   UNL     1    -106.476  89.222 202.193  1.00  0.00    -0.504 OA
ATOM     33  H   UNL     1    -107.396  88.798 202.193  1.00  0.00     0.293 HD
ENDBRANCH  22  32
ENDBRANCH  11  12
BRANCH  10  34
ATOM     34  O   UNL     1     -99.818  87.291 206.439  1.00  0.00    -0.507 OA
ATOM     35  H   UNL     1     -99.544  87.872 207.221  1.00  0.00     0.293 HD
ENDBRANCH  10  34
BRANCH   9  36
ATOM     36  C   UNL     1     -97.068  81.680 207.343  1.00  0.00     0.017 C 
ATOM     37  C   UNL     1     -95.880  81.230 206.487  1.00  0.00     0.012 C 
ATOM     38  C   UNL     1     -97.000  81.075 208.757  1.00  0.00     0.012 C 
ENDBRANCH   9  36
BRANCH   6  39
ATOM     39  C   UNL     1     -97.785  87.391 208.166  1.00  0.00     0.264 C 
ATOM     40  O   UNL     1     -97.188  88.364 207.633  1.00  0.00    -0.298 OA
ENDBRANCH   6  39
BRANCH   8  41
ATOM     41  O   UNL     1     -94.880  83.437 207.961  1.00  0.00    -0.504 OA
ATOM     42  H   UNL     1     -94.672  82.466 207.779  1.00  0.00     0.293 HD
ENDBRANCH   8  41
BRANCH   7  43
ATOM     43  O   UNL     1     -95.364  86.140 208.703  1.00  0.00    -0.504 OA
ATOM     44  H   UNL     1     -94.546  85.748 209.149  1.00  0.00     0.293 HD
ENDBRANCH   7  43
TORSDOF 11
ENDMDL
MODEL 7
REMARK VINA RESULT:    -5.938      1.774      3.100
REMARK INTER + INTRA:          -9.766
REMARK INTER:                  -9.428
REMARK INTRA:                  -0.338
REMARK UNBOUND:                -1.051
REMARK SMILES Cc1cc2c(C(C)C)c(O)c(O)c(C=O)c2c(O)c1-c1c(C)cc2c(C(C)C)c(O)c(O)c(C=O)c2c1O
REMARK SMILES IDX 1 1 2 2 3 3 4 4 16 5 13 6 11 7 9 8 5 9 17 10 19 11 20 12
REMARK SMILES IDX 37 13 21 14 36 15 23 16 22 17 24 18 33 19 25 20 31 21 29 22
REMARK SMILES IDX 38 23 34 25 35 26 26 27 27 28 28 29 32 30 30 32 18 34 6 36
REMARK SMILES IDX 7 37 8 38 14 39 15 40 10 41 12 43
REMARK H PARENT 38 24 32 31 30 33 18 35 10 42 12 44
REMARK Flexibility Score: inf
ROOT
ATOM      1  C   UNL     1    -102.609  84.710 206.558  1.00  0.00     0.045 C 
ATOM      2  C   UNL     1    -102.215  85.618 205.418  1.00  0.00    -0.039 A 
ATOM      3  C   UNL     1    -103.211  86.238 204.661  1.00  0.00     0.013 A 
ATOM      4  C   UNL     1    -102.905  87.075 203.565  1.00  0.00    -0.006 A 
ATOM      5  C   UNL     1    -101.535  87.359 203.281  1.00  0.00     0.039 A 
ATOM      6  C   UNL     1    -101.222  88.224 202.192  1.00  0.00     0.072 A 
ATOM      7  C   UNL     1    -102.249  88.926 201.536  1.00  0.00     0.169 A 
ATOM      8  C   UNL     1    -103.593  88.711 201.887  1.00  0.00     0.162 A 
ATOM      9  C   UNL     1    -103.939  87.671 202.779  1.00  0.00     0.008 A 
ATOM     10  C   UNL     1    -100.525  86.805 204.122  1.00  0.00     0.132 A 
ATOM     11  C   UNL     1    -100.866  85.903 205.153  1.00  0.00     0.031 A 
ENDROOT
BRANCH  11  12
ATOM     12  C   UNL     1     -99.802  85.281 205.984  1.00  0.00     0.031 A 
ATOM     13  C   UNL     1     -98.986  86.080 206.812  1.00  0.00     0.132 A 
ATOM     14  C   UNL     1     -99.612  83.892 205.942  1.00  0.00    -0.039 A 
ATOM     15  C   UNL     1     -97.988  85.480 207.639  1.00  0.00     0.039 A 
ATOM     16  C   UNL     1     -98.574  83.317 206.676  1.00  0.00     0.013 A 
ATOM     17  C   UNL     1    -100.490  83.014 205.084  1.00  0.00     0.045 C 
ATOM     18  C   UNL     1     -97.718  84.083 207.491  1.00  0.00    -0.006 A 
ATOM     19  C   UNL     1     -97.237  86.233 208.591  1.00  0.00     0.072 A 
ATOM     20  C   UNL     1     -96.606  83.490 208.169  1.00  0.00     0.008 A 
ATOM     21  C   UNL     1     -96.226  85.604 209.344  1.00  0.00     0.169 A 
ATOM     22  C   UNL     1     -95.902  84.263 209.120  1.00  0.00     0.162 A 
BRANCH  13  23
ATOM     23  O   UNL     1     -99.144  87.471 206.788  1.00  0.00    -0.507 OA
ATOM     24  H   UNL     1     -98.379  88.128 206.870  1.00  0.00     0.293 HD
ENDBRANCH  13  23
BRANCH  19  25
ATOM     25  C   UNL     1     -97.543  87.651 208.879  1.00  0.00     0.264 C 
ATOM     26  O   UNL     1     -96.738  88.560 208.546  1.00  0.00    -0.298 OA
ENDBRANCH  19  25
BRANCH  20  27
ATOM     27  C   UNL     1     -96.116  82.048 207.925  1.00  0.00     0.017 C 
ATOM     28  C   UNL     1     -97.190  81.006 208.262  1.00  0.00     0.012 C 
ATOM     29  C   UNL     1     -95.462  81.823 206.547  1.00  0.00     0.012 C 
ENDBRANCH  20  27
BRANCH  21  30
ATOM     30  O   UNL     1     -95.530  86.285 210.351  1.00  0.00    -0.504 OA
ATOM     31  H   UNL     1     -94.560  86.123 210.579  1.00  0.00     0.293 HD
ENDBRANCH  21  30
BRANCH  22  32
ATOM     32  O   UNL     1     -94.875  83.677 209.869  1.00  0.00    -0.504 OA
ATOM     33  H   UNL     1     -94.456  84.120 210.677  1.00  0.00     0.293 HD
ENDBRANCH  22  32
ENDBRANCH  11  12
BRANCH  10  34
ATOM     34  O   UNL     1     -99.187  87.188 203.968  1.00  0.00    -0.507 OA
ATOM     35  H   UNL     1     -98.454  86.965 204.629  1.00  0.00     0.293 HD
ENDBRANCH  10  34
BRANCH   9  36
ATOM     36  C   UNL     1    -105.411  87.243 202.915  1.00  0.00     0.017 C 
ATOM     37  C   UNL     1    -106.224  88.304 203.665  1.00  0.00     0.012 C 
ATOM     38  C   UNL     1    -106.078  86.870 201.577  1.00  0.00     0.012 C 
ENDBRANCH   9  36
BRANCH   6  39
ATOM     39  C   UNL     1     -99.845  88.349 201.657  1.00  0.00     0.264 C 
ATOM     40  O   UNL     1     -99.159  89.387 201.857  1.00  0.00    -0.298 OA
ENDBRANCH   6  39
BRANCH   8  41
ATOM     41  O   UNL     1    -104.603  89.528 201.370  1.00  0.00    -0.504 OA
ATOM     42  H   UNL     1    -105.176  90.142 201.930  1.00  0.00     0.293 HD
ENDBRANCH   8  41
BRANCH   7  43
ATOM     43  O   UNL     1    -101.910  89.799 200.496  1.00  0.00    -0.504 OA
ATOM     44  H   UNL     1    -101.680  90.774 200.625  1.00  0.00     0.293 HD
ENDBRANCH   7  43
TORSDOF 11
ENDMDL
MODEL 8
REMARK VINA RESULT:    -5.701      4.481      8.938
REMARK INTER + INTRA:          -9.419
REMARK INTER:                 -10.480
REMARK INTRA:                   1.061
REMARK UNBOUND:                -1.051
REMARK SMILES Cc1cc2c(C(C)C)c(O)c(O)c(C=O)c2c(O)c1-c1c(C)cc2c(C(C)C)c(O)c(O)c(C=O)c2c1O
REMARK SMILES IDX 1 1 2 2 3 3 4 4 16 5 13 6 11 7 9 8 5 9 17 10 19 11 20 12
REMARK SMILES IDX 37 13 21 14 36 15 23 16 22 17 24 18 33 19 25 20 31 21 29 22
REMARK SMILES IDX 38 23 34 25 35 26 26 27 27 28 28 29 32 30 30 32 18 34 6 36
REMARK SMILES IDX 7 37 8 38 14 39 15 40 10 41 12 43
REMARK H PARENT 38 24 32 31 30 33 18 35 10 42 12 44
REMARK Flexibility Score: inf
ROOT
ATOM      1  C   UNL     1     -99.319  81.031 206.150  1.00  0.00     0.045 C 
ATOM      2  C   UNL     1     -98.486  82.102 206.812  1.00  0.00    -0.039 A 
ATOM      3  C   UNL     1     -98.801  83.445 206.595  1.00  0.00     0.013 A 
ATOM      4  C   UNL     1     -98.042  84.492 207.164  1.00  0.00    -0.006 A 
ATOM      5  C   UNL     1     -96.975  84.161 208.051  1.00  0.00     0.039 A 
ATOM      6  C   UNL     1     -96.223  85.215 208.648  1.00  0.00     0.072 A 
ATOM      7  C   UNL     1     -96.648  86.547 208.507  1.00  0.00     0.169 A 
ATOM      8  C   UNL     1     -97.761  86.857 207.704  1.00  0.00     0.162 A 
ATOM      9  C   UNL     1     -98.358  85.861 206.901  1.00  0.00     0.008 A 
ATOM     10  C   UNL     1     -96.723  82.788 208.350  1.00  0.00     0.132 A 
ATOM     11  C   UNL     1     -97.446  81.769 207.694  1.00  0.00     0.031 A 
ENDROOT
BRANCH  11  12
ATOM     12  C   UNL     1     -97.134  80.341 207.964  1.00  0.00     0.031 A 
ATOM     13  C   UNL     1     -97.593  79.721 209.144  1.00  0.00     0.132 A 
ATOM     14  C   UNL     1     -96.379  79.609 207.035  1.00  0.00    -0.039 A 
ATOM     15  C   UNL     1     -97.326  78.339 209.387  1.00  0.00     0.039 A 
ATOM     16  C   UNL     1     -96.036  78.286 207.318  1.00  0.00     0.013 A 
ATOM     17  C   UNL     1     -95.898  80.243 205.753  1.00  0.00     0.045 C 
ATOM     18  C   UNL     1     -96.449  77.640 208.500  1.00  0.00    -0.006 A 
ATOM     19  C   UNL     1     -97.889  77.640 210.497  1.00  0.00     0.072 A 
ATOM     20  C   UNL     1     -96.017  76.312 208.813  1.00  0.00     0.008 A 
ATOM     21  C   UNL     1     -97.550  76.291 210.721  1.00  0.00     0.169 A 
ATOM     22  C   UNL     1     -96.613  75.647 209.907  1.00  0.00     0.162 A 
BRANCH  13  23
ATOM     23  O   UNL     1     -98.286  80.485 210.091  1.00  0.00    -0.507 OA
ATOM     24  H   UNL     1     -98.758  80.095 210.896  1.00  0.00     0.293 HD
ENDBRANCH  13  23
BRANCH  19  25
ATOM     25  C   UNL     1     -98.893  78.266 211.384  1.00  0.00     0.264 C 
ATOM     26  O   UNL     1     -98.650  78.434 212.608  1.00  0.00    -0.298 OA
ENDBRANCH  19  25
BRANCH  20  27
ATOM     27  C   UNL     1     -94.927  75.552 208.030  1.00  0.00     0.017 C 
ATOM     28  C   UNL     1     -94.953  74.045 208.317  1.00  0.00     0.012 C 
ATOM     29  C   UNL     1     -94.876  75.883 206.525  1.00  0.00     0.012 C 
ENDBRANCH  20  27
BRANCH  21  30
ATOM     30  O   UNL     1     -98.149  75.545 211.745  1.00  0.00    -0.504 OA
ATOM     31  H   UNL     1     -98.594  75.950 212.556  1.00  0.00     0.293 HD
ENDBRANCH  21  30
BRANCH  22  32
ATOM     32  O   UNL     1     -96.282  74.314 210.176  1.00  0.00    -0.504 OA
ATOM     33  H   UNL     1     -95.680  73.761 209.579  1.00  0.00     0.293 HD
ENDBRANCH  22  32
ENDBRANCH  11  12
BRANCH  10  34
ATOM     34  O   UNL     1     -95.790  82.438 209.333  1.00  0.00    -0.507 OA
ATOM     35  H   UNL     1     -95.083  83.067 209.692  1.00  0.00     0.293 HD
ENDBRANCH  10  34
BRANCH   9  36
ATOM     36  C   UNL     1     -99.359  86.267 205.804  1.00  0.00     0.017 C 
ATOM     37  C   UNL     1     -98.630  86.717 204.535  1.00  0.00     0.012 C 
ATOM     38  C   UNL     1    -100.412  85.187 205.491  1.00  0.00     0.012 C 
ENDBRANCH   9  36
BRANCH   6  39
ATOM     39  C   UNL     1     -94.939  84.967 209.349  1.00  0.00     0.264 C 
ATOM     40  O   UNL     1     -94.875  84.959 210.607  1.00  0.00    -0.298 OA
ENDBRANCH   6  39
BRANCH   8  41
ATOM     41  O   UNL     1     -98.297  88.147 207.700  1.00  0.00    -0.504 OA
ATOM     42  H   UNL     1     -97.831  88.954 207.310  1.00  0.00     0.293 HD
ENDBRANCH   8  41
BRANCH   7  43
ATOM     43  O   UNL     1     -95.913  87.559 209.135  1.00  0.00    -0.504 OA
ATOM     44  H   UNL     1     -95.272  88.176 208.657  1.00  0.00     0.293 HD
ENDBRANCH   7  43
TORSDOF 11
ENDMDL
MODEL 9
REMARK VINA RESULT:    -5.618      1.616      9.179
REMARK INTER + INTRA:          -9.297
REMARK INTER:                  -8.387
REMARK INTRA:                  -0.910
REMARK UNBOUND:                -1.051
REMARK SMILES Cc1cc2c(C(C)C)c(O)c(O)c(C=O)c2c(O)c1-c1c(C)cc2c(C(C)C)c(O)c(O)c(C=O)c2c1O
REMARK SMILES IDX 1 1 2 2 3 3 4 4 16 5 13 6 11 7 9 8 5 9 17 10 19 11 20 12
REMARK SMILES IDX 37 13 21 14 36 15 23 16 22 17 24 18 33 19 25 20 31 21 29 22
REMARK SMILES IDX 38 23 34 25 35 26 26 27 27 28 28 29 32 30 30 32 18 34 6 36
REMARK SMILES IDX 7 37 8 38 14 39 15 40 10 41 12 43
REMARK H PARENT 38 24 32 31 30 33 18 35 10 42 12 44
REMARK Flexibility Score: inf
ROOT
ATOM      1  C   UNL     1    -101.476  84.979 205.310  1.00  0.00     0.045 C 
ATOM      2  C   UNL     1    -100.425  86.048 205.489  1.00  0.00    -0.039 A 
ATOM      3  C   UNL     1     -99.312  85.784 206.290  1.00  0.00     0.013 A 
ATOM      4  C   UNL     1     -98.309  86.753 206.519  1.00  0.00    -0.006 A 
ATOM      5  C   UNL     1     -98.401  88.006 205.843  1.00  0.00     0.039 A 
ATOM      6  C   UNL     1     -97.377  88.977 206.050  1.00  0.00     0.072 A 
ATOM      7  C   UNL     1     -96.214  88.630 206.759  1.00  0.00     0.169 A 
ATOM      8  C   UNL     1     -96.091  87.357 207.343  1.00  0.00     0.162 A 
ATOM      9  C   UNL     1     -97.196  86.477 207.371  1.00  0.00     0.008 A 
ATOM     10  C   UNL     1     -99.487  88.231 204.946  1.00  0.00     0.132 A 
ATOM     11  C   UNL     1    -100.514  87.273 204.811  1.00  0.00     0.031 A 
ENDROOT
BRANCH  11  12
ATOM     12  C   UNL     1    -101.675  87.543 203.923  1.00  0.00     0.031 A 
ATOM     13  C   UNL     1    -102.777  88.285 204.396  1.00  0.00     0.132 A 
ATOM     14  C   UNL     1    -101.670  87.057 202.607  1.00  0.00    -0.039 A 
ATOM     15  C   UNL     1    -103.876  88.578 203.532  1.00  0.00     0.039 A 
ATOM     16  C   UNL     1    -102.785  87.260 201.794  1.00  0.00     0.013 A 
ATOM     17  C   UNL     1    -100.490  86.283 202.070  1.00  0.00     0.045 C 
ATOM     18  C   UNL     1    -103.919  87.970 202.238  1.00  0.00    -0.006 A 
ATOM     19  C   UNL     1    -104.944  89.440 203.926  1.00  0.00     0.072 A 
ATOM     20  C   UNL     1    -105.087  88.095 201.422  1.00  0.00     0.008 A 
ATOM     21  C   UNL     1    -106.032  89.653 203.057  1.00  0.00     0.169 A 
ATOM     22  C   UNL     1    -106.112  88.974 201.837  1.00  0.00     0.162 A 
BRANCH  13  23
ATOM     23  O   UNL     1    -102.795  88.703 205.732  1.00  0.00    -0.507 OA
ATOM     24  H   UNL     1    -103.618  89.058 206.202  1.00  0.00     0.293 HD
ENDBRANCH  13  23
BRANCH  19  25
ATOM     25  C   UNL     1    -104.907  90.193 205.198  1.00  0.00     0.264 C 
ATOM     26  O   UNL     1    -105.645  89.858 206.162  1.00  0.00    -0.298 OA
ENDBRANCH  19  25
BRANCH  20  27
ATOM     27  C   UNL     1    -105.308  87.320 200.106  1.00  0.00     0.017 C 
ATOM     28  C   UNL     1    -106.473  86.327 200.207  1.00  0.00     0.012 C 
ATOM     29  C   UNL     1    -105.374  88.209 198.848  1.00  0.00     0.012 C 
ENDBRANCH  20  27
BRANCH  21  30
ATOM     30  O   UNL     1    -107.052  90.561 203.368  1.00  0.00    -0.504 OA
ATOM     31  H   UNL     1    -107.814  90.363 204.002  1.00  0.00     0.293 HD
ENDBRANCH  21  30
BRANCH  22  32
ATOM     32  O   UNL     1    -107.219  89.191 201.010  1.00  0.00    -0.504 OA
ATOM     33  H   UNL     1    -107.971  88.521 200.902  1.00  0.00     0.293 HD
ENDBRANCH  22  32
ENDBRANCH  11  12
BRANCH  10  34
ATOM     34  O   UNL     1     -99.521  89.383 204.151  1.00  0.00    -0.507 OA
ATOM     35  H   UNL     1     -98.736  89.720 203.609  1.00  0.00     0.293 HD
ENDBRANCH  10  34
BRANCH   9  36
ATOM     36  C   UNL     1     -97.153  85.230 208.273  1.00  0.00     0.017 C 
ATOM     37  C   UNL     1     -96.714  83.994 207.480  1.00  0.00     0.012 C 
ATOM     38  C   UNL     1     -96.302  85.410 209.544  1.00  0.00     0.012 C 
ENDBRANCH   9  36
BRANCH   6  39
ATOM     39  C   UNL     1     -97.531  90.388 205.619  1.00  0.00     0.264 C 
ATOM     40  O   UNL     1     -96.753  90.898 204.770  1.00  0.00    -0.298 OA
ENDBRANCH   6  39
BRANCH   8  41
ATOM     41  O   UNL     1     -94.875  86.940 207.893  1.00  0.00    -0.504 OA
ATOM     42  H   UNL     1     -93.991  86.981 207.407  1.00  0.00     0.293 HD
ENDBRANCH   8  41
BRANCH   7  43
ATOM     43  O   UNL     1     -95.208  89.591 206.915  1.00  0.00    -0.504 OA
ATOM     44  H   UNL     1     -94.246  89.456 206.637  1.00  0.00     0.293 HD
ENDBRANCH   7  43
TORSDOF 11
ENDMDL
