MODEL 1
REMARK VINA RESULT:    14.995      0.000      0.000
REMARK INTER + INTRA:          28.874
REMARK INTER:                  29.021
REMARK INTRA:                  -0.148
REMARK UNBOUND:                -0.148
REMARK SMILES CCCCCCCCCCCCCCCCCC(=O)[O-]
REMARK SMILES IDX 10 1 11 2 12 3 13 4 14 5 15 6 16 7 17 8 18 9 19 10 20 11
REMARK SMILES IDX 9 12 8 13 7 14 6 15 5 16 4 17 3 18 2 19 1 20
REMARK H PARENT
REMARK Flexibility Score: inf
ROOT
ATOM      1  C   UNL     1      -6.119 -10.666  23.801  1.00  0.00     0.000 C 
ENDROOT
BRANCH   1   2
ATOM      2  C   UNL     1      -6.570 -12.138  23.787  1.00  0.00     0.000 C 
BRANCH   2   3
ATOM      3  C   UNL     1      -6.508 -12.798  25.174  1.00  0.00     0.000 C 
BRANCH   3   4
ATOM      4  C   UNL     1      -5.435 -13.899  25.267  1.00  0.00     0.000 C 
BRANCH   4   5
ATOM      5  C   UNL     1      -5.105 -14.374  26.696  1.00  0.00     0.000 C 
BRANCH   5   6
ATOM      6  C   UNL     1      -5.025 -15.902  26.879  1.00  0.00     0.000 C 
BRANCH   6   7
ATOM      7  C   UNL     1      -4.571 -16.682  25.633  1.00  0.00     0.006 C 
BRANCH   7   8
ATOM      8  C   UNL     1      -5.357 -17.984  25.427  1.00  0.00     0.053 C 
BRANCH   8   9
ATOM      9  C   UNL     1      -5.523 -18.268  23.968  1.00  0.00     0.041 C 
ATOM     10  O   UNL     1      -4.693 -17.818  23.136  1.00  0.00    -0.550 OA
ATOM     11  O   UNL     1      -6.623 -18.989  23.521  1.00  0.00    -0.550 OA
ENDBRANCH   8   9
ENDBRANCH   7   8
ENDBRANCH   6   7
ENDBRANCH   5   6
ENDBRANCH   4   5
ENDBRANCH   3   4
ENDBRANCH   2   3
ENDBRANCH   1   2
BRANCH   1  12
ATOM     12  C   UNL     1      -6.055 -10.016  25.196  1.00  0.00     0.000 C 
BRANCH  12  13
ATOM     13  C   UNL     1      -5.173  -8.754  25.227  1.00  0.00    -0.000 C 
BRANCH  13  14
ATOM     14  C   UNL     1      -3.785  -8.988  24.610  1.00  0.00    -0.000 C 
BRANCH  14  15
ATOM     15  C   UNL     1      -3.182  -7.706  24.016  1.00  0.00    -0.000 C 
BRANCH  15  16
ATOM     16  C   UNL     1      -1.665  -7.851  23.822  1.00  0.00    -0.000 C 
BRANCH  16  17
ATOM     17  C   UNL     1      -1.087  -9.090  24.528  1.00  0.00    -0.000 C 
BRANCH  17  18
ATOM     18  C   UNL     1      -0.816  -8.919  26.036  1.00  0.00    -0.000 C 
BRANCH  18  19
ATOM     19  C   UNL     1       0.395  -8.034  26.382  1.00  0.00    -0.003 C 
ATOM     20  C   UNL     1       0.606  -6.897  25.381  1.00  0.00     0.004 C 
ENDBRANCH  18  19
ENDBRANCH  17  18
ENDBRANCH  16  17
ENDBRANCH  15  16
ENDBRANCH  14  15
ENDBRANCH  13  14
ENDBRANCH  12  13
ENDBRANCH   1  12
TORSDOF 16
ENDMDL
MODEL 2
REMARK VINA RESULT:    15.659      1.591      2.805
REMARK INTER + INTRA:          30.158
REMARK INTER:                  31.108
REMARK INTRA:                  -0.949
REMARK UNBOUND:                -0.148
REMARK SMILES CCCCCCCCCCCCCCCCCC(=O)[O-]
REMARK SMILES IDX 10 1 11 2 12 3 13 4 14 5 15 6 16 7 17 8 18 9 19 10 20 11
REMARK SMILES IDX 9 12 8 13 7 14 6 15 5 16 4 17 3 18 2 19 1 20
REMARK H PARENT
REMARK Flexibility Score: inf
ROOT
ATOM      1  C   UNL     1      -6.059 -10.595  24.120  1.00  0.00     0.000 C 
ENDROOT
BRANCH   1   2
ATOM      2  C   UNL     1      -6.537 -12.042  23.902  1.00  0.00     0.000 C 
BRANCH   2   3
ATOM      3  C   UNL     1      -6.406 -12.913  25.162  1.00  0.00     0.000 C 
BRANCH   3   4
ATOM      4  C   UNL     1      -5.191 -13.858  25.113  1.00  0.00     0.000 C 
BRANCH   4   5
ATOM      5  C   UNL     1      -4.922 -14.648  26.409  1.00  0.00     0.000 C 
BRANCH   5   6
ATOM      6  C   UNL     1      -5.613 -16.022  26.498  1.00  0.00     0.000 C 
BRANCH   6   7
ATOM      7  C   UNL     1      -4.692 -17.229  26.247  1.00  0.00     0.006 C 
BRANCH   7   8
ATOM      8  C   UNL     1      -5.426 -18.412  25.601  1.00  0.00     0.053 C 
BRANCH   8   9
ATOM      9  C   UNL     1      -5.478 -18.244  24.115  1.00  0.00     0.041 C 
ATOM     10  O   UNL     1      -6.482 -18.639  23.467  1.00  0.00    -0.550 OA
ATOM     11  O   UNL     1      -4.397 -17.692  23.440  1.00  0.00    -0.550 OA
ENDBRANCH   8   9
ENDBRANCH   7   8
ENDBRANCH   6   7
ENDBRANCH   5   6
ENDBRANCH   4   5
ENDBRANCH   3   4
ENDBRANCH   2   3
ENDBRANCH   1   2
BRANCH   1  12
ATOM     12  C   UNL     1      -5.918 -10.168  25.593  1.00  0.00     0.000 C 
BRANCH  12  13
ATOM     13  C   UNL     1      -5.178  -8.829  25.759  1.00  0.00    -0.000 C 
BRANCH  13  14
ATOM     14  C   UNL     1      -4.258  -8.510  24.570  1.00  0.00    -0.000 C 
BRANCH  14  15
ATOM     15  C   UNL     1      -2.809  -8.955  24.812  1.00  0.00    -0.000 C 
BRANCH  15  16
ATOM     16  C   UNL     1      -1.899  -8.520  23.653  1.00  0.00    -0.000 C 
BRANCH  16  17
ATOM     17  C   UNL     1      -2.451  -7.308  22.881  1.00  0.00    -0.000 C 
BRANCH  17  18
ATOM     18  C   UNL     1      -2.265  -7.365  21.352  1.00  0.00    -0.000 C 
BRANCH  18  19
ATOM     19  C   UNL     1      -3.484  -6.904  20.532  1.00  0.00    -0.003 C 
ATOM     20  C   UNL     1      -3.434  -7.373  19.078  1.00  0.00     0.004 C 
ENDBRANCH  18  19
ENDBRANCH  17  18
ENDBRANCH  16  17
ENDBRANCH  15  16
ENDBRANCH  14  15
ENDBRANCH  13  14
ENDBRANCH  12  13
ENDBRANCH   1  12
TORSDOF 16
ENDMDL
MODEL 3
REMARK VINA RESULT:    16.010      3.875      8.793
REMARK INTER + INTRA:          30.838
REMARK INTER:                  31.872
REMARK INTRA:                  -1.034
REMARK UNBOUND:                -0.148
REMARK SMILES CCCCCCCCCCCCCCCCCC(=O)[O-]
REMARK SMILES IDX 10 1 11 2 12 3 13 4 14 5 15 6 16 7 17 8 18 9 19 10 20 11
REMARK SMILES IDX 9 12 8 13 7 14 6 15 5 16 4 17 3 18 2 19 1 20
REMARK H PARENT
REMARK Flexibility Score: inf
ROOT
ATOM      1  C   UNL     1      -6.539 -12.332  23.823  1.00  0.00     0.000 C 
ENDROOT
BRANCH   1   2
ATOM      2  C   UNL     1      -5.865 -10.959  23.652  1.00  0.00     0.000 C 
BRANCH   2   3
ATOM      3  C   UNL     1      -5.976 -10.074  24.904  1.00  0.00     0.000 C 
BRANCH   3   4
ATOM      4  C   UNL     1      -5.196  -8.753  24.776  1.00  0.00     0.000 C 
BRANCH   4   5
ATOM      5  C   UNL     1      -3.677  -8.862  25.019  1.00  0.00     0.000 C 
BRANCH   5   6
ATOM      6  C   UNL     1      -2.797  -8.026  24.070  1.00  0.00     0.000 C 
BRANCH   6   7
ATOM      7  C   UNL     1      -1.303  -8.397  24.075  1.00  0.00     0.006 C 
BRANCH   7   8
ATOM      8  C   UNL     1      -0.892  -9.190  25.323  1.00  0.00     0.053 C 
BRANCH   8   9
ATOM      9  C   UNL     1       0.056  -8.391  26.159  1.00  0.00     0.041 C 
ATOM     10  O   UNL     1       0.188  -7.155  25.961  1.00  0.00    -0.550 OA
ATOM     11  O   UNL     1       0.830  -9.021  27.125  1.00  0.00    -0.550 OA
ENDBRANCH   8   9
ENDBRANCH   7   8
ENDBRANCH   6   7
ENDBRANCH   5   6
ENDBRANCH   4   5
ENDBRANCH   3   4
ENDBRANCH   2   3
ENDBRANCH   1   2
BRANCH   1  12
ATOM     12  C   UNL     1      -6.376 -12.971  25.215  1.00  0.00     0.000 C 
BRANCH  12  13
ATOM     13  C   UNL     1      -5.292 -14.063  25.248  1.00  0.00    -0.000 C 
BRANCH  13  14
ATOM     14  C   UNL     1      -5.060 -14.624  26.660  1.00  0.00    -0.000 C 
BRANCH  14  15
ATOM     15  C   UNL     1      -4.585 -16.084  26.641  1.00  0.00    -0.000 C 
BRANCH  15  16
ATOM     16  C   UNL     1      -5.767 -17.045  26.446  1.00  0.00    -0.000 C 
BRANCH  16  17
ATOM     17  C   UNL     1      -5.353 -18.384  25.809  1.00  0.00    -0.000 C 
BRANCH  17  18
ATOM     18  C   UNL     1      -5.806 -18.584  24.349  1.00  0.00    -0.000 C 
BRANCH  18  19
ATOM     19  C   UNL     1      -5.400 -17.457  23.383  1.00  0.00    -0.003 C 
ATOM     20  C   UNL     1      -4.182 -17.815  22.531  1.00  0.00     0.004 C 
ENDBRANCH  18  19
ENDBRANCH  17  18
ENDBRANCH  16  17
ENDBRANCH  15  16
ENDBRANCH  14  15
ENDBRANCH  13  14
ENDBRANCH  12  13
ENDBRANCH   1  12
TORSDOF 16
ENDMDL
MODEL 4
REMARK VINA RESULT:    17.065      4.361      8.291
REMARK INTER + INTRA:          32.879
REMARK INTER:                  33.512
REMARK INTRA:                  -0.633
REMARK UNBOUND:                -0.148
REMARK SMILES CCCCCCCCCCCCCCCCCC(=O)[O-]
REMARK SMILES IDX 10 1 11 2 12 3 13 4 14 5 15 6 16 7 17 8 18 9 19 10 20 11
REMARK SMILES IDX 9 12 8 13 7 14 6 15 5 16 4 17 3 18 2 19 1 20
REMARK H PARENT
REMARK Flexibility Score: inf
ROOT
ATOM      1  C   UNL     1      -7.378 -13.048  22.819  1.00  0.00     0.000 C 
ENDROOT
BRANCH   1   2
ATOM      2  C   UNL     1      -6.417 -12.024  23.450  1.00  0.00     0.000 C 
BRANCH   2   3
ATOM      3  C   UNL     1      -6.554 -11.936  24.979  1.00  0.00     0.000 C 
BRANCH   3   4
ATOM      4  C   UNL     1      -6.505 -13.313  25.665  1.00  0.00     0.000 C 
BRANCH   4   5
ATOM      5  C   UNL     1      -5.090 -13.883  25.891  1.00  0.00     0.000 C 
BRANCH   5   6
ATOM      6  C   UNL     1      -5.039 -15.263  26.577  1.00  0.00     0.000 C 
BRANCH   6   7
ATOM      7  C   UNL     1      -4.405 -16.383  25.733  1.00  0.00     0.006 C 
BRANCH   7   8
ATOM      8  C   UNL     1      -5.291 -17.633  25.643  1.00  0.00     0.053 C 
BRANCH   8   9
ATOM      9  C   UNL     1      -5.352 -18.128  24.233  1.00  0.00     0.041 C 
ATOM     10  O   UNL     1      -4.583 -17.648  23.359  1.00  0.00    -0.550 OA
ATOM     11  O   UNL     1      -6.291 -19.086  23.872  1.00  0.00    -0.550 OA
ENDBRANCH   8   9
ENDBRANCH   7   8
ENDBRANCH   6   7
ENDBRANCH   5   6
ENDBRANCH   4   5
ENDBRANCH   3   4
ENDBRANCH   2   3
ENDBRANCH   1   2
BRANCH   1  12
ATOM     12  C   UNL     1      -8.017 -12.610  21.488  1.00  0.00     0.000 C 
BRANCH  12  13
ATOM     13  C   UNL     1      -9.146 -13.551  21.029  1.00  0.00    -0.000 C 
BRANCH  13  14
ATOM     14  C   UNL     1      -8.744 -14.412  19.822  1.00  0.00    -0.000 C 
BRANCH  14  15
ATOM     15  C   UNL     1      -8.866 -13.654  18.492  1.00  0.00    -0.000 C 
BRANCH  15  16
ATOM     16  C   UNL     1      -9.602 -14.501  17.442  1.00  0.00    -0.000 C 
BRANCH  16  17
ATOM     17  C   UNL     1      -9.130 -15.966  17.417  1.00  0.00    -0.000 C 
BRANCH  17  18
ATOM     18  C   UNL     1     -10.049 -16.964  18.151  1.00  0.00    -0.000 C 
BRANCH  18  19
ATOM     19  C   UNL     1      -9.839 -18.440  17.772  1.00  0.00    -0.003 C 
ATOM     20  C   UNL     1      -8.634 -18.654  16.856  1.00  0.00     0.004 C 
ENDBRANCH  18  19
ENDBRANCH  17  18
ENDBRANCH  16  17
ENDBRANCH  15  16
ENDBRANCH  14  15
ENDBRANCH  13  14
ENDBRANCH  12  13
ENDBRANCH   1  12
TORSDOF 16
ENDMDL
MODEL 5
REMARK VINA RESULT:    17.324      5.554     10.222
REMARK INTER + INTRA:          33.381
REMARK INTER:                  33.958
REMARK INTRA:                  -0.577
REMARK UNBOUND:                -0.148
REMARK SMILES CCCCCCCCCCCCCCCCCC(=O)[O-]
REMARK SMILES IDX 10 1 11 2 12 3 13 4 14 5 15 6 16 7 17 8 18 9 19 10 20 11
REMARK SMILES IDX 9 12 8 13 7 14 6 15 5 16 4 17 3 18 2 19 1 20
REMARK H PARENT
REMARK Flexibility Score: inf
ROOT
ATOM      1  C   UNL     1      -7.163 -12.283  23.420  1.00  0.00     0.000 C 
ENDROOT
BRANCH   1   2
ATOM      2  C   UNL     1      -6.000 -11.280  23.521  1.00  0.00     0.000 C 
BRANCH   2   3
ATOM      3  C   UNL     1      -6.145 -10.310  24.705  1.00  0.00     0.000 C 
BRANCH   3   4
ATOM      4  C   UNL     1      -5.362  -8.999  24.505  1.00  0.00     0.000 C 
BRANCH   4   5
ATOM      5  C   UNL     1      -3.907  -9.021  25.017  1.00  0.00     0.000 C 
BRANCH   5   6
ATOM      6  C   UNL     1      -2.899  -8.222  24.168  1.00  0.00     0.000 C 
BRANCH   6   7
ATOM      7  C   UNL     1      -1.428  -8.639  24.346  1.00  0.00     0.006 C 
BRANCH   7   8
ATOM      8  C   UNL     1      -1.087  -9.013  25.794  1.00  0.00     0.053 C 
BRANCH   8   9
ATOM      9  C   UNL     1       0.181  -8.344  26.221  1.00  0.00     0.041 C 
ATOM     10  O   UNL     1       1.026  -8.970  26.912  1.00  0.00    -0.550 OA
ATOM     11  O   UNL     1       0.409  -7.014  25.893  1.00  0.00    -0.550 OA
ENDBRANCH   8   9
ENDBRANCH   7   8
ENDBRANCH   6   7
ENDBRANCH   5   6
ENDBRANCH   4   5
ENDBRANCH   3   4
ENDBRANCH   2   3
ENDBRANCH   1   2
BRANCH   1  12
ATOM     12  C   UNL     1      -7.950 -12.240  22.097  1.00  0.00     0.000 C 
BRANCH  12  13
ATOM     13  C   UNL     1      -8.119 -13.629  21.456  1.00  0.00    -0.000 C 
BRANCH  13  14
ATOM     14  C   UNL     1      -8.980 -13.592  20.184  1.00  0.00    -0.000 C 
BRANCH  14  15
ATOM     15  C   UNL     1      -8.188 -13.980  18.927  1.00  0.00    -0.000 C 
BRANCH  15  16
ATOM     16  C   UNL     1      -9.133 -14.391  17.787  1.00  0.00    -0.000 C 
BRANCH  16  17
ATOM     17  C   UNL     1     -10.035 -15.582  18.156  1.00  0.00    -0.000 C 
BRANCH  17  18
ATOM     18  C   UNL     1      -9.309 -16.936  18.295  1.00  0.00    -0.000 C 
BRANCH  18  19
ATOM     19  C   UNL     1      -9.977 -18.109  17.557  1.00  0.00    -0.003 C 
ATOM     20  C   UNL     1      -8.972 -19.145  17.053  1.00  0.00     0.004 C 
ENDBRANCH  18  19
ENDBRANCH  17  18
ENDBRANCH  16  17
ENDBRANCH  15  16
ENDBRANCH  14  15
ENDBRANCH  13  14
ENDBRANCH  12  13
ENDBRANCH   1  12
TORSDOF 16
ENDMDL
MODEL 6
REMARK VINA RESULT:    17.533      4.322      5.397
REMARK INTER + INTRA:          33.784
REMARK INTER:                  34.358
REMARK INTRA:                  -0.574
REMARK UNBOUND:                -0.148
REMARK SMILES CCCCCCCCCCCCCCCCCC(=O)[O-]
REMARK SMILES IDX 10 1 11 2 12 3 13 4 14 5 15 6 16 7 17 8 18 9 19 10 20 11
REMARK SMILES IDX 9 12 8 13 7 14 6 15 5 16 4 17 3 18 2 19 1 20
REMARK H PARENT
REMARK Flexibility Score: inf
ROOT
ATOM      1  C   UNL     1      -7.077 -12.346  23.570  1.00  0.00     0.000 C 
ENDROOT
BRANCH   1   2
ATOM      2  C   UNL     1      -7.170 -13.206  22.296  1.00  0.00     0.000 C 
BRANCH   2   3
ATOM      3  C   UNL     1      -8.368 -12.833  21.407  1.00  0.00     0.000 C 
BRANCH   3   4
ATOM      4  C   UNL     1      -8.699 -13.915  20.363  1.00  0.00     0.000 C 
BRANCH   4   5
ATOM      5  C   UNL     1      -8.536 -13.480  18.893  1.00  0.00     0.000 C 
BRANCH   5   6
ATOM      6  C   UNL     1      -9.368 -14.282  17.873  1.00  0.00     0.000 C 
BRANCH   6   7
ATOM      7  C   UNL     1      -8.871 -15.715  17.615  1.00  0.00     0.006 C 
BRANCH   7   8
ATOM      8  C   UNL     1      -9.781 -16.781  18.240  1.00  0.00     0.053 C 
BRANCH   8   9
ATOM      9  C   UNL     1      -9.519 -18.118  17.621  1.00  0.00     0.041 C 
ATOM     10  O   UNL     1     -10.410 -19.007  17.631  1.00  0.00    -0.550 OA
ATOM     11  O   UNL     1      -8.272 -18.398  17.075  1.00  0.00    -0.550 OA
ENDBRANCH   8   9
ENDBRANCH   7   8
ENDBRANCH   6   7
ENDBRANCH   5   6
ENDBRANCH   4   5
ENDBRANCH   3   4
ENDBRANCH   2   3
ENDBRANCH   1   2
BRANCH   1  12
ATOM     12  C   UNL     1      -6.027 -11.221  23.524  1.00  0.00     0.000 C 
BRANCH  12  13
ATOM     13  C   UNL     1      -5.958 -10.414  24.832  1.00  0.00    -0.000 C 
BRANCH  13  14
ATOM     14  C   UNL     1      -5.371  -9.008  24.629  1.00  0.00    -0.000 C 
BRANCH  14  15
ATOM     15  C   UNL     1      -3.880  -8.935  24.988  1.00  0.00    -0.000 C 
BRANCH  15  16
ATOM     16  C   UNL     1      -3.100  -8.133  23.935  1.00  0.00    -0.000 C 
BRANCH  16  17
ATOM     17  C   UNL     1      -1.580  -8.365  24.010  1.00  0.00    -0.000 C 
BRANCH  17  18
ATOM     18  C   UNL     1      -1.088  -9.078  25.286  1.00  0.00    -0.000 C 
BRANCH  18  19
ATOM     19  C   UNL     1      -0.238  -8.209  26.229  1.00  0.00    -0.003 C 
ATOM     20  C   UNL     1       0.769  -9.022  27.042  1.00  0.00     0.004 C 
ENDBRANCH  18  19
ENDBRANCH  17  18
ENDBRANCH  16  17
ENDBRANCH  15  16
ENDBRANCH  14  15
ENDBRANCH  13  14
ENDBRANCH  12  13
ENDBRANCH   1  12
TORSDOF 16
ENDMDL
