MODEL 1
REMARK VINA RESULT:    -4.248      0.000      0.000
REMARK INTER + INTRA:          -5.212
REMARK INTER:                  -5.117
REMARK INTRA:                  -0.095
REMARK UNBOUND:                -0.095
REMARK SMILES OCCc1ccc(O)c(O)c1
REMARK SMILES IDX 3 1 4 2 5 3 6 4 7 5 11 6 9 7 8 8 10 10 2 12 1 13
REMARK H PARENT 8 9 10 11 1 14
REMARK Flexibility Score: inf
ROOT
ATOM      1  C   UNL     1      75.905  40.255  17.947  1.00  0.00     0.064 C 
ENDROOT
BRANCH   1   2
ATOM      2  C   UNL     1      75.287  40.042  19.304  1.00  0.00    -0.042 A 
ATOM      3  C   UNL     1      75.302  41.071  20.257  1.00  0.00     0.008 A 
ATOM      4  C   UNL     1      74.753  40.866  21.525  1.00  0.00     0.050 A 
ATOM      5  C   UNL     1      74.191  39.626  21.859  1.00  0.00     0.157 A 
ATOM      6  C   UNL     1      74.733  38.797  19.643  1.00  0.00     0.054 A 
ATOM      7  C   UNL     1      74.183  38.589  20.917  1.00  0.00     0.157 A 
BRANCH   5   8
ATOM      8  O   UNL     1      73.643  39.416  23.123  1.00  0.00    -0.504 OA
ATOM      9  H   UNL     1      74.103  38.828  23.809  1.00  0.00     0.293 HD
ENDBRANCH   5   8
BRANCH   7  10
ATOM     10  O   UNL     1      73.628  37.355  21.253  1.00  0.00    -0.504 OA
ATOM     11  H   UNL     1      72.658  37.138  21.054  1.00  0.00     0.293 HD
ENDBRANCH   7  10
ENDBRANCH   1   2
BRANCH   1  12
ATOM     12  C   UNL     1      76.641  41.597  17.876  1.00  0.00     0.161 C 
BRANCH  12  13
ATOM     13  O   UNL     1      78.030  41.408  17.875  1.00  0.00    -0.396 OA
ATOM     14  H   UNL     1      78.232  40.786  17.128  1.00  0.00     0.210 HD
ENDBRANCH  12  13
ENDBRANCH   1  12
TORSDOF 5
ENDMDL
MODEL 2
REMARK VINA RESULT:    -4.153      2.190      2.940
REMARK INTER + INTRA:          -5.099
REMARK INTER:                  -5.018
REMARK INTRA:                  -0.081
REMARK UNBOUND:                -0.095
REMARK SMILES OCCc1ccc(O)c(O)c1
REMARK SMILES IDX 3 1 4 2 5 3 6 4 7 5 11 6 9 7 8 8 10 10 2 12 1 13
REMARK H PARENT 8 9 10 11 1 14
REMARK Flexibility Score: inf
ROOT
ATOM      1  C   UNL     1      74.801  38.490  18.329  1.00  0.00     0.064 C 
ENDROOT
BRANCH   1   2
ATOM      2  C   UNL     1      74.841  39.330  19.578  1.00  0.00    -0.042 A 
ATOM      3  C   UNL     1      75.403  40.616  19.547  1.00  0.00     0.008 A 
ATOM      4  C   UNL     1      75.465  41.386  20.712  1.00  0.00     0.050 A 
ATOM      5  C   UNL     1      74.976  40.876  21.922  1.00  0.00     0.157 A 
ATOM      6  C   UNL     1      74.362  38.817  20.794  1.00  0.00     0.054 A 
ATOM      7  C   UNL     1      74.426  39.588  21.964  1.00  0.00     0.157 A 
BRANCH   5   8
ATOM      8  O   UNL     1      75.038  41.640  23.087  1.00  0.00    -0.504 OA
ATOM      9  H   UNL     1      74.318  42.317  23.314  1.00  0.00     0.293 HD
ENDBRANCH   5   8
BRANCH   7  10
ATOM     10  O   UNL     1      73.945  39.081  23.171  1.00  0.00    -0.504 OA
ATOM     11  H   UNL     1      73.799  38.088  23.308  1.00  0.00     0.293 HD
ENDBRANCH   7  10
ENDBRANCH   1   2
BRANCH   1  12
ATOM     12  C   UNL     1      73.363  38.111  17.960  1.00  0.00     0.161 C 
BRANCH  12  13
ATOM     13  O   UNL     1      73.203  36.719  17.927  1.00  0.00    -0.396 OA
ATOM     14  H   UNL     1      72.470  36.502  18.559  1.00  0.00     0.210 HD
ENDBRANCH  12  13
ENDBRANCH   1  12
TORSDOF 5
ENDMDL
MODEL 3
REMARK VINA RESULT:    -4.010      5.938      7.600
REMARK INTER + INTRA:          -4.925
REMARK INTER:                  -4.827
REMARK INTRA:                  -0.098
REMARK UNBOUND:                -0.095
REMARK SMILES OCCc1ccc(O)c(O)c1
REMARK SMILES IDX 3 1 4 2 5 3 6 4 7 5 11 6 9 7 8 8 10 10 2 12 1 13
REMARK H PARENT 8 9 10 11 1 14
REMARK Flexibility Score: inf
ROOT
ATOM      1  C   UNL     1      70.187  40.027  20.883  1.00  0.00     0.064 C 
ENDROOT
BRANCH   1   2
ATOM      2  C   UNL     1      69.291  38.897  20.447  1.00  0.00    -0.042 A 
ATOM      3  C   UNL     1      69.845  37.693  19.986  1.00  0.00     0.008 A 
ATOM      4  C   UNL     1      69.015  36.654  19.556  1.00  0.00     0.050 A 
ATOM      5  C   UNL     1      67.622  36.811  19.573  1.00  0.00     0.157 A 
ATOM      6  C   UNL     1      67.895  39.055  20.453  1.00  0.00     0.054 A 
ATOM      7  C   UNL     1      67.061  38.014  20.020  1.00  0.00     0.157 A 
BRANCH   5   8
ATOM      8  O   UNL     1      66.790  35.777  19.144  1.00  0.00    -0.504 OA
ATOM      9  H   UNL     1      65.781  35.862  19.177  1.00  0.00     0.293 HD
ENDBRANCH   5   8
BRANCH   7  10
ATOM     10  O   UNL     1      65.676  38.169  20.031  1.00  0.00    -0.504 OA
ATOM     11  H   UNL     1      65.158  38.367  19.183  1.00  0.00     0.293 HD
ENDBRANCH   7  10
ENDBRANCH   1   2
BRANCH   1  12
ATOM     12  C   UNL     1      69.663  40.690  22.161  1.00  0.00     0.161 C 
BRANCH  12  13
ATOM     13  O   UNL     1      70.081  39.986  23.299  1.00  0.00    -0.396 OA
ATOM     14  H   UNL     1      70.114  39.027  23.043  1.00  0.00     0.210 HD
ENDBRANCH  12  13
ENDBRANCH   1  12
TORSDOF 5
ENDMDL
MODEL 4
REMARK VINA RESULT:    -3.948      2.946      4.511
REMARK INTER + INTRA:          -4.851
REMARK INTER:                  -4.795
REMARK INTRA:                  -0.056
REMARK UNBOUND:                -0.095
REMARK SMILES OCCc1ccc(O)c(O)c1
REMARK SMILES IDX 3 1 4 2 5 3 6 4 7 5 11 6 9 7 8 8 10 10 2 12 1 13
REMARK H PARENT 8 9 10 11 1 14
REMARK Flexibility Score: inf
ROOT
ATOM      1  C   UNL     1      72.155  37.004  18.492  1.00  0.00     0.064 C 
ENDROOT
BRANCH   1   2
ATOM      2  C   UNL     1      72.770  37.791  19.619  1.00  0.00    -0.042 A 
ATOM      3  C   UNL     1      74.153  38.034  19.640  1.00  0.00     0.008 A 
ATOM      4  C   UNL     1      74.728  38.741  20.699  1.00  0.00     0.050 A 
ATOM      5  C   UNL     1      73.931  39.205  21.754  1.00  0.00     0.157 A 
ATOM      6  C   UNL     1      71.975  38.248  20.682  1.00  0.00     0.054 A 
ATOM      7  C   UNL     1      72.552  38.956  21.747  1.00  0.00     0.157 A 
BRANCH   5   8
ATOM      8  O   UNL     1      74.501  39.909  22.813  1.00  0.00    -0.504 OA
ATOM      9  H   UNL     1      75.270  40.554  22.668  1.00  0.00     0.293 HD
ENDBRANCH   5   8
BRANCH   7  10
ATOM     10  O   UNL     1      71.762  39.414  22.800  1.00  0.00    -0.504 OA
ATOM     11  H   UNL     1      71.164  40.226  22.701  1.00  0.00     0.293 HD
ENDBRANCH   7  10
ENDBRANCH   1   2
BRANCH   1  12
ATOM     12  C   UNL     1      71.476  35.731  19.008  1.00  0.00     0.161 C 
BRANCH  12  13
ATOM     13  O   UNL     1      71.785  34.633  18.194  1.00  0.00    -0.396 OA
ATOM     14  H   UNL     1      70.995  34.032  18.214  1.00  0.00     0.210 HD
ENDBRANCH  12  13
ENDBRANCH   1  12
TORSDOF 5
ENDMDL
MODEL 5
REMARK VINA RESULT:    -3.923      5.789      7.247
REMARK INTER + INTRA:          -4.821
REMARK INTER:                  -4.735
REMARK INTRA:                  -0.086
REMARK UNBOUND:                -0.095
REMARK SMILES OCCc1ccc(O)c(O)c1
REMARK SMILES IDX 3 1 4 2 5 3 6 4 7 5 11 6 9 7 8 8 10 10 2 12 1 13
REMARK H PARENT 8 9 10 11 1 14
REMARK Flexibility Score: inf
ROOT
ATOM      1  C   UNL     1      71.036  36.713  19.553  1.00  0.00     0.064 C 
ENDROOT
BRANCH   1   2
ATOM      2  C   UNL     1      69.589  37.106  19.692  1.00  0.00    -0.042 A 
ATOM      3  C   UNL     1      68.596  36.406  18.991  1.00  0.00     0.008 A 
ATOM      4  C   UNL     1      67.255  36.787  19.099  1.00  0.00     0.050 A 
ATOM      5  C   UNL     1      66.895  37.878  19.901  1.00  0.00     0.157 A 
ATOM      6  C   UNL     1      69.227  38.206  20.487  1.00  0.00     0.054 A 
ATOM      7  C   UNL     1      67.882  38.590  20.595  1.00  0.00     0.157 A 
BRANCH   5   8
ATOM      8  O   UNL     1      65.559  38.263  20.011  1.00  0.00    -0.504 OA
ATOM      9  H   UNL     1      65.240  39.167  19.683  1.00  0.00     0.293 HD
ENDBRANCH   5   8
BRANCH   7  10
ATOM     10  O   UNL     1      67.520  39.678  21.388  1.00  0.00    -0.504 OA
ATOM     11  H   UNL     1      66.700  39.652  21.982  1.00  0.00     0.293 HD
ENDBRANCH   7  10
ENDBRANCH   1   2
BRANCH   1  12
ATOM     12  C   UNL     1      71.953  37.691  20.295  1.00  0.00     0.161 C 
BRANCH  12  13
ATOM     13  O   UNL     1      72.832  37.007  21.145  1.00  0.00    -0.396 OA
ATOM     14  H   UNL     1      73.751  37.263  20.870  1.00  0.00     0.210 HD
ENDBRANCH  12  13
ENDBRANCH   1  12
TORSDOF 5
ENDMDL
MODEL 6
REMARK VINA RESULT:    -3.910      5.704      7.268
REMARK INTER + INTRA:          -4.805
REMARK INTER:                  -4.729
REMARK INTRA:                  -0.076
REMARK UNBOUND:                -0.095
REMARK SMILES OCCc1ccc(O)c(O)c1
REMARK SMILES IDX 3 1 4 2 5 3 6 4 7 5 11 6 9 7 8 8 10 10 2 12 1 13
REMARK H PARENT 8 9 10 11 1 14
REMARK Flexibility Score: inf
ROOT
ATOM      1  C   UNL     1      70.241  39.733  21.345  1.00  0.00     0.064 C 
ENDROOT
BRANCH   1   2
ATOM      2  C   UNL     1      69.337  38.718  20.697  1.00  0.00    -0.042 A 
ATOM      3  C   UNL     1      69.881  37.592  20.059  1.00  0.00     0.008 A 
ATOM      4  C   UNL     1      69.045  36.663  19.434  1.00  0.00     0.050 A 
ATOM      5  C   UNL     1      67.657  36.853  19.431  1.00  0.00     0.157 A 
ATOM      6  C   UNL     1      67.946  38.912  20.684  1.00  0.00     0.054 A 
ATOM      7  C   UNL     1      67.106  37.980  20.055  1.00  0.00     0.157 A 
BRANCH   5   8
ATOM      8  O   UNL     1      66.819  35.930  18.808  1.00  0.00    -0.504 OA
ATOM      9  H   UNL     1      66.165  35.365  19.339  1.00  0.00     0.293 HD
ENDBRANCH   5   8
BRANCH   7  10
ATOM     10  O   UNL     1      65.725  38.170  20.046  1.00  0.00    -0.504 OA
ATOM     11  H   UNL     1      65.312  39.049  19.758  1.00  0.00     0.293 HD
ENDBRANCH   7  10
ENDBRANCH   1   2
BRANCH   1  12
ATOM     12  C   UNL     1      71.662  39.185  21.514  1.00  0.00     0.161 C 
BRANCH  12  13
ATOM     13  O   UNL     1      72.187  39.531  22.767  1.00  0.00    -0.396 OA
ATOM     14  H   UNL     1      71.901  38.822  23.400  1.00  0.00     0.210 HD
ENDBRANCH  12  13
ENDBRANCH   1  12
TORSDOF 5
ENDMDL
MODEL 7
REMARK VINA RESULT:    -3.857      4.867      6.837
REMARK INTER + INTRA:          -4.741
REMARK INTER:                  -4.680
REMARK INTRA:                  -0.061
REMARK UNBOUND:                -0.095
REMARK SMILES OCCc1ccc(O)c(O)c1
REMARK SMILES IDX 3 1 4 2 5 3 6 4 7 5 11 6 9 7 8 8 10 10 2 12 1 13
REMARK H PARENT 8 9 10 11 1 14
REMARK Flexibility Score: inf
ROOT
ATOM      1  C   UNL     1      68.077  38.788  19.568  1.00  0.00     0.064 C 
ENDROOT
BRANCH   1   2
ATOM      2  C   UNL     1      69.304  39.029  20.407  1.00  0.00    -0.042 A 
ATOM      3  C   UNL     1      70.540  38.484  20.026  1.00  0.00     0.008 A 
ATOM      4  C   UNL     1      71.673  38.685  20.818  1.00  0.00     0.050 A 
ATOM      5  C   UNL     1      71.583  39.425  22.005  1.00  0.00     0.157 A 
ATOM      6  C   UNL     1      69.213  39.762  21.602  1.00  0.00     0.054 A 
ATOM      7  C   UNL     1      70.351  39.962  22.399  1.00  0.00     0.157 A 
BRANCH   5   8
ATOM      8  O   UNL     1      72.711  39.627  22.799  1.00  0.00    -0.504 OA
ATOM      9  H   UNL     1      72.855  39.107  23.657  1.00  0.00     0.293 HD
ENDBRANCH   5   8
BRANCH   7  10
ATOM     10  O   UNL     1      70.262  40.693  23.583  1.00  0.00    -0.504 OA
ATOM     11  H   UNL     1      69.480  40.582  24.217  1.00  0.00     0.293 HD
ENDBRANCH   7  10
ENDBRANCH   1   2
BRANCH   1  12
ATOM     12  C   UNL     1      67.083  37.870  20.287  1.00  0.00     0.161 C 
BRANCH  12  13
ATOM     13  O   UNL     1      65.762  38.217  19.973  1.00  0.00    -0.396 OA
ATOM     14  H   UNL     1      65.639  39.159  20.263  1.00  0.00     0.210 HD
ENDBRANCH  12  13
ENDBRANCH   1  12
TORSDOF 5
ENDMDL
MODEL 8
REMARK VINA RESULT:    -3.852      5.984      7.278
REMARK INTER + INTRA:          -4.736
REMARK INTER:                  -4.651
REMARK INTRA:                  -0.084
REMARK UNBOUND:                -0.095
REMARK SMILES OCCc1ccc(O)c(O)c1
REMARK SMILES IDX 3 1 4 2 5 3 6 4 7 5 11 6 9 7 8 8 10 10 2 12 1 13
REMARK H PARENT 8 9 10 11 1 14
REMARK Flexibility Score: inf
ROOT
ATOM      1  C   UNL     1      71.031  36.682  19.739  1.00  0.00     0.064 C 
ENDROOT
BRANCH   1   2
ATOM      2  C   UNL     1      69.583  37.095  19.754  1.00  0.00    -0.042 A 
ATOM      3  C   UNL     1      69.135  38.069  20.660  1.00  0.00     0.008 A 
ATOM      4  C   UNL     1      67.787  38.434  20.692  1.00  0.00     0.050 A 
ATOM      5  C   UNL     1      66.869  37.823  19.827  1.00  0.00     0.157 A 
ATOM      6  C   UNL     1      68.660  36.477  18.895  1.00  0.00     0.054 A 
ATOM      7  C   UNL     1      67.306  36.841  18.928  1.00  0.00     0.157 A 
BRANCH   5   8
ATOM      8  O   UNL     1      65.523  38.183  19.857  1.00  0.00    -0.504 OA
ATOM      9  H   UNL     1      64.908  38.002  19.071  1.00  0.00     0.293 HD
ENDBRANCH   5   8
BRANCH   7  10
ATOM     10  O   UNL     1      66.390  36.232  18.072  1.00  0.00    -0.504 OA
ATOM     11  H   UNL     1      65.393  36.273  18.245  1.00  0.00     0.293 HD
ENDBRANCH   7  10
ENDBRANCH   1   2
BRANCH   1  12
ATOM     12  C   UNL     1      71.921  37.750  20.384  1.00  0.00     0.161 C 
BRANCH  12  13
ATOM     13  O   UNL     1      72.872  37.166  21.231  1.00  0.00    -0.396 OA
ATOM     14  H   UNL     1      72.377  36.827  22.023  1.00  0.00     0.210 HD
ENDBRANCH  12  13
ENDBRANCH   1  12
TORSDOF 5
ENDMDL
MODEL 9
REMARK VINA RESULT:    -3.814      2.684      3.936
REMARK INTER + INTRA:          -4.690
REMARK INTER:                  -4.639
REMARK INTRA:                  -0.051
REMARK UNBOUND:                -0.095
REMARK SMILES OCCc1ccc(O)c(O)c1
REMARK SMILES IDX 3 1 4 2 5 3 6 4 7 5 11 6 9 7 8 8 10 10 2 12 1 13
REMARK H PARENT 8 9 10 11 1 14
REMARK Flexibility Score: inf
ROOT
ATOM      1  C   UNL     1      74.793  40.093  21.939  1.00  0.00     0.064 C 
ENDROOT
BRANCH   1   2
ATOM      2  C   UNL     1      74.262  39.161  20.881  1.00  0.00    -0.042 A 
ATOM      3  C   UNL     1      74.766  39.219  19.572  1.00  0.00     0.008 A 
ATOM      4  C   UNL     1      74.255  38.373  18.583  1.00  0.00     0.050 A 
ATOM      5  C   UNL     1      73.230  37.468  18.889  1.00  0.00     0.157 A 
ATOM      6  C   UNL     1      73.228  38.261  21.183  1.00  0.00     0.054 A 
ATOM      7  C   UNL     1      72.714  37.413  20.190  1.00  0.00     0.157 A 
BRANCH   5   8
ATOM      8  O   UNL     1      72.717  36.624  17.906  1.00  0.00    -0.504 OA
ATOM      9  H   UNL     1      71.769  36.269  17.954  1.00  0.00     0.293 HD
ENDBRANCH   5   8
BRANCH   7  10
ATOM     10  O   UNL     1      71.690  36.516  20.490  1.00  0.00    -0.504 OA
ATOM     11  H   UNL     1      70.717  36.799  20.483  1.00  0.00     0.293 HD
ENDBRANCH   7  10
ENDBRANCH   1   2
BRANCH   1  12
ATOM     12  C   UNL     1      74.074  41.446  21.900  1.00  0.00     0.161 C 
BRANCH  12  13
ATOM     13  O   UNL     1      74.219  42.125  23.117  1.00  0.00    -0.396 OA
ATOM     14  H   UNL     1      73.315  42.449  23.371  1.00  0.00     0.210 HD
ENDBRANCH  12  13
ENDBRANCH   1  12
TORSDOF 5
ENDMDL
