MODEL 1
REMARK VINA RESULT:    -5.588      0.000      0.000
REMARK INTER + INTRA:          -6.140
REMARK INTER:                  -6.078
REMARK INTRA:                  -0.062
REMARK UNBOUND:                -0.062
REMARK SMILES COc1cc2ccc(=O)oc2cc1O
REMARK SMILES IDX 3 1 13 2 12 3 11 4 5 5 4 6 6 7 7 8 8 9 9 10 10 11 2 12 1 13
REMARK SMILES IDX 14 14
REMARK H PARENT 14 15
REMARK Flexibility Score: inf
ROOT
ATOM      1  C   UNL     1     -35.947  -7.323 -14.358  1.00  0.00     0.161 A 
ATOM      2  C   UNL     1     -36.198  -7.709 -15.684  1.00  0.00     0.161 A 
ATOM      3  C   UNL     1     -36.395  -6.740 -16.678  1.00  0.00     0.098 A 
ATOM      4  C   UNL     1     -36.344  -5.382 -16.357  1.00  0.00     0.142 A 
ATOM      5  C   UNL     1     -36.092  -4.985 -15.027  1.00  0.00     0.022 A 
ATOM      6  C   UNL     1     -35.894  -5.952 -14.033  1.00  0.00     0.062 A 
ATOM      7  C   UNL     1     -36.047  -3.617 -14.737  1.00  0.00     0.019 A 
ATOM      8  C   UNL     1     -36.250  -2.693 -15.761  1.00  0.00     0.094 A 
ATOM      9  C   UNL     1     -36.496  -3.160 -17.056  1.00  0.00     0.336 A 
ATOM     10  O   UNL     1     -36.681  -2.342 -17.995  1.00  0.00    -0.246 OA
ATOM     11  O   UNL     1     -36.533  -4.466 -17.306  1.00  0.00    -0.423 OA
ENDROOT
BRANCH   1  12
ATOM     12  O   UNL     1     -35.754  -8.327 -13.395  1.00  0.00    -0.493 OA
ATOM     13  C   UNL     1     -34.540  -8.539 -12.682  1.00  0.00     0.278 C 
ENDBRANCH   1  12
BRANCH   2  14
ATOM     14  O   UNL     1     -36.250  -9.064 -16.007  1.00  0.00    -0.504 OA
ATOM     15  H   UNL     1     -36.094  -9.782 -15.309  1.00  0.00     0.293 HD
ENDBRANCH   2  14
TORSDOF 2
ENDMDL
MODEL 2
REMARK VINA RESULT:    -5.567      3.536      5.457
REMARK INTER + INTRA:          -6.116
REMARK INTER:                  -6.061
REMARK INTRA:                  -0.055
REMARK UNBOUND:                -0.062
REMARK SMILES COc1cc2ccc(=O)oc2cc1O
REMARK SMILES IDX 3 1 13 2 12 3 11 4 5 5 4 6 6 7 7 8 8 9 9 10 10 11 2 12 1 13
REMARK SMILES IDX 14 14
REMARK H PARENT 14 15
REMARK Flexibility Score: inf
ROOT
ATOM      1  C   UNL     1     -33.102  -3.506 -19.378  1.00  0.00     0.161 A 
ATOM      2  C   UNL     1     -33.746  -4.373 -20.275  1.00  0.00     0.161 A 
ATOM      3  C   UNL     1     -34.871  -5.105 -19.867  1.00  0.00     0.098 A 
ATOM      4  C   UNL     1     -35.360  -4.978 -18.565  1.00  0.00     0.142 A 
ATOM      5  C   UNL     1     -34.719  -4.107 -17.658  1.00  0.00     0.022 A 
ATOM      6  C   UNL     1     -33.596  -3.375 -18.064  1.00  0.00     0.062 A 
ATOM      7  C   UNL     1     -35.233  -4.001 -16.361  1.00  0.00     0.019 A 
ATOM      8  C   UNL     1     -36.354  -4.750 -16.005  1.00  0.00     0.094 A 
ATOM      9  C   UNL     1     -36.936  -5.592 -16.958  1.00  0.00     0.336 A 
ATOM     10  O   UNL     1     -37.949  -6.277 -16.656  1.00  0.00    -0.246 OA
ATOM     11  O   UNL     1     -36.428  -5.675 -18.185  1.00  0.00    -0.423 OA
ENDROOT
BRANCH   1  12
ATOM     12  O   UNL     1     -31.980  -2.792 -19.829  1.00  0.00    -0.493 OA
ATOM     13  C   UNL     1     -30.730  -2.740 -19.148  1.00  0.00     0.278 C 
ENDBRANCH   1  12
BRANCH   2  14
ATOM     14  O   UNL     1     -33.259  -4.503 -21.574  1.00  0.00    -0.504 OA
ATOM     15  H   UNL     1     -33.679  -4.005 -22.350  1.00  0.00     0.293 HD
ENDBRANCH   2  14
TORSDOF 2
ENDMDL
MODEL 3
REMARK VINA RESULT:    -5.527      1.646      1.867
REMARK INTER + INTRA:          -6.073
REMARK INTER:                  -6.010
REMARK INTRA:                  -0.064
REMARK UNBOUND:                -0.062
REMARK SMILES COc1cc2ccc(=O)oc2cc1O
REMARK SMILES IDX 3 1 13 2 12 3 11 4 5 5 4 6 6 7 7 8 8 9 9 10 10 11 2 12 1 13
REMARK SMILES IDX 14 14
REMARK H PARENT 14 15
REMARK Flexibility Score: inf
ROOT
ATOM      1  C   UNL     1     -37.563  -7.610 -14.539  1.00  0.00     0.161 A 
ATOM      2  C   UNL     1     -36.686  -7.823 -15.615  1.00  0.00     0.161 A 
ATOM      3  C   UNL     1     -36.127  -6.733 -16.297  1.00  0.00     0.098 A 
ATOM      4  C   UNL     1     -36.437  -5.427 -15.913  1.00  0.00     0.142 A 
ATOM      5  C   UNL     1     -37.317  -5.204 -14.833  1.00  0.00     0.022 A 
ATOM      6  C   UNL     1     -37.877  -6.292 -14.150  1.00  0.00     0.062 A 
ATOM      7  C   UNL     1     -37.609  -3.885 -14.472  1.00  0.00     0.019 A 
ATOM      8  C   UNL     1     -37.026  -2.836 -15.182  1.00  0.00     0.094 A 
ATOM      9  C   UNL     1     -36.164  -3.132 -16.242  1.00  0.00     0.336 A 
ATOM     10  O   UNL     1     -35.627  -2.200 -16.896  1.00  0.00    -0.246 OA
ATOM     11  O   UNL     1     -35.902  -4.396 -16.565  1.00  0.00    -0.423 OA
ENDROOT
BRANCH   1  12
ATOM     12  O   UNL     1     -38.100  -8.731 -13.884  1.00  0.00    -0.493 OA
ATOM     13  C   UNL     1     -39.466  -9.125 -13.949  1.00  0.00     0.278 C 
ENDBRANCH   1  12
BRANCH   2  14
ATOM     14  O   UNL     1     -36.375  -9.125 -16.000  1.00  0.00    -0.504 OA
ATOM     15  H   UNL     1     -36.177  -9.848 -15.318  1.00  0.00     0.293 HD
ENDBRANCH   2  14
TORSDOF 2
ENDMDL
MODEL 4
REMARK VINA RESULT:    -5.421      2.491      4.823
REMARK INTER + INTRA:          -5.958
REMARK INTER:                  -5.893
REMARK INTRA:                  -0.065
REMARK UNBOUND:                -0.062
REMARK SMILES COc1cc2ccc(=O)oc2cc1O
REMARK SMILES IDX 3 1 13 2 12 3 11 4 5 5 4 6 6 7 7 8 8 9 9 10 10 11 2 12 1 13
REMARK SMILES IDX 14 14
REMARK H PARENT 14 15
REMARK Flexibility Score: inf
ROOT
ATOM      1  C   UNL     1     -36.378  -4.565 -15.726  1.00  0.00     0.161 A 
ATOM      2  C   UNL     1     -36.197  -5.735 -16.481  1.00  0.00     0.161 A 
ATOM      3  C   UNL     1     -36.947  -6.885 -16.193  1.00  0.00     0.098 A 
ATOM      4  C   UNL     1     -37.879  -6.876 -15.154  1.00  0.00     0.142 A 
ATOM      5  C   UNL     1     -38.067  -5.703 -14.391  1.00  0.00     0.022 A 
ATOM      6  C   UNL     1     -37.319  -4.554 -14.677  1.00  0.00     0.062 A 
ATOM      7  C   UNL     1     -39.008  -5.726 -13.356  1.00  0.00     0.019 A 
ATOM      8  C   UNL     1     -39.729  -6.895 -13.111  1.00  0.00     0.094 A 
ATOM      9  C   UNL     1     -39.488  -8.018 -13.908  1.00  0.00     0.336 A 
ATOM     10  O   UNL     1     -40.128  -9.083 -13.702  1.00  0.00    -0.246 OA
ATOM     11  O   UNL     1     -38.588  -7.971 -14.886  1.00  0.00    -0.423 OA
ENDROOT
BRANCH   1  12
ATOM     12  O   UNL     1     -35.606  -3.437 -16.050  1.00  0.00    -0.493 OA
ATOM     13  C   UNL     1     -36.094  -2.302 -16.757  1.00  0.00     0.278 C 
ENDBRANCH   1  12
BRANCH   2  14
ATOM     14  O   UNL     1     -35.267  -5.747 -17.518  1.00  0.00    -0.504 OA
ATOM     15  H   UNL     1     -34.939  -6.615 -17.927  1.00  0.00     0.293 HD
ENDBRANCH   2  14
TORSDOF 2
ENDMDL
MODEL 5
REMARK VINA RESULT:    -5.418      3.857      4.606
REMARK INTER + INTRA:          -5.955
REMARK INTER:                  -5.893
REMARK INTRA:                  -0.063
REMARK UNBOUND:                -0.062
REMARK SMILES COc1cc2ccc(=O)oc2cc1O
REMARK SMILES IDX 3 1 13 2 12 3 11 4 5 5 4 6 6 7 7 8 8 9 9 10 10 11 2 12 1 13
REMARK SMILES IDX 14 14
REMARK H PARENT 14 15
REMARK Flexibility Score: inf
ROOT
ATOM      1  C   UNL     1     -38.165  -7.489 -14.791  1.00  0.00     0.161 A 
ATOM      2  C   UNL     1     -39.401  -7.934 -14.294  1.00  0.00     0.161 A 
ATOM      3  C   UNL     1     -40.083  -7.188 -13.322  1.00  0.00     0.098 A 
ATOM      4  C   UNL     1     -39.539  -5.996 -12.840  1.00  0.00     0.142 A 
ATOM      5  C   UNL     1     -38.298  -5.541 -13.334  1.00  0.00     0.022 A 
ATOM      6  C   UNL     1     -37.615  -6.286 -14.305  1.00  0.00     0.062 A 
ATOM      7  C   UNL     1     -37.779  -4.343 -12.831  1.00  0.00     0.019 A 
ATOM      8  C   UNL     1     -38.496  -3.638 -11.865  1.00  0.00     0.094 A 
ATOM      9  C   UNL     1     -39.719  -4.150 -11.422  1.00  0.00     0.336 A 
ATOM     10  O   UNL     1     -40.382  -3.529 -10.551  1.00  0.00    -0.246 OA
ATOM     11  O   UNL     1     -40.191  -5.292 -11.917  1.00  0.00    -0.423 OA
ENDROOT
BRANCH   1  12
ATOM     12  O   UNL     1     -37.518  -8.268 -15.764  1.00  0.00    -0.493 OA
ATOM     13  C   UNL     1     -36.287  -8.954 -15.560  1.00  0.00     0.278 C 
ENDBRANCH   1  12
BRANCH   2  14
ATOM     14  O   UNL     1     -39.946  -9.124 -14.773  1.00  0.00    -0.504 OA
ATOM     15  H   UNL     1     -40.878  -9.424 -14.512  1.00  0.00     0.293 HD
ENDBRANCH   2  14
TORSDOF 2
ENDMDL
MODEL 6
REMARK VINA RESULT:    -5.405      2.388      5.235
REMARK INTER + INTRA:          -5.941
REMARK INTER:                  -5.878
REMARK INTRA:                  -0.063
REMARK UNBOUND:                -0.062
REMARK SMILES COc1cc2ccc(=O)oc2cc1O
REMARK SMILES IDX 3 1 13 2 12 3 11 4 5 5 4 6 6 7 7 8 8 9 9 10 10 11 2 12 1 13
REMARK SMILES IDX 14 14
REMARK H PARENT 14 15
REMARK Flexibility Score: inf
ROOT
ATOM      1  C   UNL     1     -36.581  -5.124 -17.704  1.00  0.00     0.161 A 
ATOM      2  C   UNL     1     -37.930  -4.810 -17.469  1.00  0.00     0.161 A 
ATOM      3  C   UNL     1     -38.694  -5.588 -16.587  1.00  0.00     0.098 A 
ATOM      4  C   UNL     1     -38.121  -6.682 -15.936  1.00  0.00     0.142 A 
ATOM      5  C   UNL     1     -36.766  -7.004 -16.166  1.00  0.00     0.022 A 
ATOM      6  C   UNL     1     -36.002  -6.228 -17.047  1.00  0.00     0.062 A 
ATOM      7  C   UNL     1     -36.221  -8.106 -15.499  1.00  0.00     0.019 A 
ATOM      8  C   UNL     1     -37.023  -8.847 -14.631  1.00  0.00     0.094 A 
ATOM      9  C   UNL     1     -38.357  -8.469 -14.453  1.00  0.00     0.336 A 
ATOM     10  O   UNL     1     -39.098  -9.125 -13.674  1.00  0.00    -0.246 OA
ATOM     11  O   UNL     1     -38.852  -7.416 -15.100  1.00  0.00    -0.423 OA
ENDROOT
BRANCH   1  12
ATOM     12  O   UNL     1     -35.854  -4.318 -18.595  1.00  0.00    -0.493 OA
ATOM     13  C   UNL     1     -34.772  -3.473 -18.217  1.00  0.00     0.278 C 
ENDBRANCH   1  12
BRANCH   2  14
ATOM     14  O   UNL     1     -38.504  -3.720 -18.119  1.00  0.00    -0.504 OA
ATOM     15  H   UNL     1     -38.008  -2.842 -18.224  1.00  0.00     0.293 HD
ENDBRANCH   2  14
TORSDOF 2
ENDMDL
MODEL 7
REMARK VINA RESULT:    -5.343      1.244      5.026
REMARK INTER + INTRA:          -5.873
REMARK INTER:                  -5.816
REMARK INTRA:                  -0.057
REMARK UNBOUND:                -0.062
REMARK SMILES COc1cc2ccc(=O)oc2cc1O
REMARK SMILES IDX 3 1 13 2 12 3 11 4 5 5 4 6 6 7 7 8 8 9 9 10 10 11 2 12 1 13
REMARK SMILES IDX 14 14
REMARK H PARENT 14 15
REMARK Flexibility Score: inf
ROOT
ATOM      1  C   UNL     1     -36.107  -3.110 -16.788  1.00  0.00     0.161 A 
ATOM      2  C   UNL     1     -36.065  -3.924 -17.931  1.00  0.00     0.161 A 
ATOM      3  C   UNL     1     -36.043  -5.321 -17.804  1.00  0.00     0.098 A 
ATOM      4  C   UNL     1     -36.061  -5.914 -16.540  1.00  0.00     0.142 A 
ATOM      5  C   UNL     1     -36.104  -5.103 -15.386  1.00  0.00     0.022 A 
ATOM      6  C   UNL     1     -36.126  -3.707 -15.511  1.00  0.00     0.062 A 
ATOM      7  C   UNL     1     -36.122  -5.726 -14.134  1.00  0.00     0.019 A 
ATOM      8  C   UNL     1     -36.098  -7.118 -14.061  1.00  0.00     0.094 A 
ATOM      9  C   UNL     1     -36.056  -7.857 -15.248  1.00  0.00     0.336 A 
ATOM     10  O   UNL     1     -36.035  -9.116 -15.204  1.00  0.00    -0.246 OA
ATOM     11  O   UNL     1     -36.040  -7.240 -16.426  1.00  0.00    -0.423 OA
ENDROOT
BRANCH   1  12
ATOM     12  O   UNL     1     -36.128  -1.717 -16.962  1.00  0.00    -0.493 OA
ATOM     13  C   UNL     1     -37.312  -0.925 -16.980  1.00  0.00     0.278 C 
ENDBRANCH   1  12
BRANCH   2  14
ATOM     14  O   UNL     1     -36.045  -3.336 -19.193  1.00  0.00    -0.504 OA
ATOM     15  H   UNL     1     -35.995  -2.330 -19.310  1.00  0.00     0.293 HD
ENDBRANCH   2  14
TORSDOF 2
ENDMDL
MODEL 8
REMARK VINA RESULT:    -5.270      3.828      5.085
REMARK INTER + INTRA:          -5.794
REMARK INTER:                  -5.738
REMARK INTRA:                  -0.056
REMARK UNBOUND:                -0.062
REMARK SMILES COc1cc2ccc(=O)oc2cc1O
REMARK SMILES IDX 3 1 13 2 12 3 11 4 5 5 4 6 6 7 7 8 8 9 9 10 10 11 2 12 1 13
REMARK SMILES IDX 14 14
REMARK H PARENT 14 15
REMARK Flexibility Score: inf
ROOT
ATOM      1  C   UNL     1     -35.685  -4.405 -17.767  1.00  0.00     0.161 A 
ATOM      2  C   UNL     1     -36.064  -4.401 -19.118  1.00  0.00     0.161 A 
ATOM      3  C   UNL     1     -35.164  -3.970 -20.104  1.00  0.00     0.098 A 
ATOM      4  C   UNL     1     -33.883  -3.543 -19.750  1.00  0.00     0.142 A 
ATOM      5  C   UNL     1     -33.494  -3.545 -18.393  1.00  0.00     0.022 A 
ATOM      6  C   UNL     1     -34.392  -3.975 -17.407  1.00  0.00     0.062 A 
ATOM      7  C   UNL     1     -32.204  -3.111 -18.069  1.00  0.00     0.019 A 
ATOM      8  C   UNL     1     -31.346  -2.693 -19.087  1.00  0.00     0.094 A 
ATOM      9  C   UNL     1     -31.802  -2.718 -20.409  1.00  0.00     0.336 A 
ATOM     10  O   UNL     1     -31.043  -2.345 -21.342  1.00  0.00    -0.246 OA
ATOM     11  O   UNL     1     -33.033  -3.136 -20.690  1.00  0.00    -0.423 OA
ENDROOT
BRANCH   1  12
ATOM     12  O   UNL     1     -36.618  -4.845 -16.814  1.00  0.00    -0.493 OA
ATOM     13  C   UNL     1     -36.366  -5.857 -15.845  1.00  0.00     0.278 C 
ENDBRANCH   1  12
BRANCH   2  14
ATOM     14  O   UNL     1     -37.342  -4.826 -19.475  1.00  0.00    -0.504 OA
ATOM     15  H   UNL     1     -37.639  -5.786 -19.342  1.00  0.00     0.293 HD
ENDBRANCH   2  14
TORSDOF 2
ENDMDL
MODEL 9
REMARK VINA RESULT:    -5.232      2.296      5.132
REMARK INTER + INTRA:          -5.753
REMARK INTER:                  -5.687
REMARK INTRA:                  -0.065
REMARK UNBOUND:                -0.062
REMARK SMILES COc1cc2ccc(=O)oc2cc1O
REMARK SMILES IDX 3 1 13 2 12 3 11 4 5 5 4 6 6 7 7 8 8 9 9 10 10 11 2 12 1 13
REMARK SMILES IDX 14 14
REMARK H PARENT 14 15
REMARK Flexibility Score: inf
ROOT
ATOM      1  C   UNL     1     -35.706  -4.795 -16.443  1.00  0.00     0.161 A 
ATOM      2  C   UNL     1     -36.341  -4.074 -15.418  1.00  0.00     0.161 A 
ATOM      3  C   UNL     1     -37.303  -4.695 -14.608  1.00  0.00     0.098 A 
ATOM      4  C   UNL     1     -37.638  -6.034 -14.813  1.00  0.00     0.142 A 
ATOM      5  C   UNL     1     -37.005  -6.766 -15.840  1.00  0.00     0.022 A 
ATOM      6  C   UNL     1     -36.044  -6.148 -16.650  1.00  0.00     0.062 A 
ATOM      7  C   UNL     1     -37.362  -8.106 -16.021  1.00  0.00     0.019 A 
ATOM      8  C   UNL     1     -38.325  -8.677 -15.188  1.00  0.00     0.094 A 
ATOM      9  C   UNL     1     -38.910  -7.890 -14.191  1.00  0.00     0.336 A 
ATOM     10  O   UNL     1     -39.780  -8.387 -13.429  1.00  0.00    -0.246 OA
ATOM     11  O   UNL     1     -38.552  -6.618 -14.040  1.00  0.00    -0.423 OA
ENDROOT
BRANCH   1  12
ATOM     12  O   UNL     1     -34.749  -4.134 -17.229  1.00  0.00    -0.493 OA
ATOM     13  C   UNL     1     -34.989  -3.636 -18.542  1.00  0.00     0.278 C 
ENDBRANCH   1  12
BRANCH   2  14
ATOM     14  O   UNL     1     -36.009  -2.737 -15.212  1.00  0.00    -0.504 OA
ATOM     15  H   UNL     1     -36.332  -2.007 -15.836  1.00  0.00     0.293 HD
ENDBRANCH   2  14
TORSDOF 2
ENDMDL
