MODEL 1
REMARK VINA RESULT:    -5.068      0.000      0.000
REMARK INTER + INTRA:          -5.444
REMARK INTER:                  -5.364
REMARK INTRA:                  -0.079
REMARK UNBOUND:                -0.079
REMARK SMILES CC1=C[C@@H]2C(=C(C)CC[C@@H]2C(C)C)CC1
REMARK SMILES IDX 1 1 2 2 3 3 4 4 10 5 9 6 8 7 6 8 5 9 14 10 15 11 7 12 11 13
REMARK SMILES IDX 12 14 13 15
REMARK H PARENT
REMARK Flexibility Score: inf
ROOT
ATOM      1  C   UNL     1      30.537   8.665  30.387  1.00  0.00     0.039 C 
ATOM      2  C   UNL     1      30.811   8.355  31.833  1.00  0.00    -0.076 C 
ATOM      3  C   UNL     1      31.337   9.311  32.624  1.00  0.00    -0.020 C 
ATOM      4  C   UNL     1      31.683   9.087  34.081  1.00  0.00     0.041 C 
ATOM      5  C   UNL     1      31.101  10.170  35.030  1.00  0.00     0.003 C 
ATOM      6  C   UNL     1      31.790   9.932  36.392  1.00  0.00     0.009 C 
ATOM      7  C   UNL     1      31.456   8.545  36.965  1.00  0.00     0.031 C 
ATOM      8  C   UNL     1      31.401   7.425  35.932  1.00  0.00    -0.073 C 
ATOM      9  C   UNL     1      31.390   7.682  34.590  1.00  0.00    -0.064 C 
ATOM     10  C   UNL     1      31.310   6.584  33.548  1.00  0.00     0.036 C 
ATOM     11  C   UNL     1      30.394   7.020  32.404  1.00  0.00     0.035 C 
ATOM     12  C   UNL     1      31.244   6.023  36.471  1.00  0.00     0.039 C 
ENDROOT
BRANCH   5  13
ATOM     13  C   UNL     1      29.527  10.193  35.138  1.00  0.00    -0.013 C 
ATOM     14  C   UNL     1      28.856  10.764  33.874  1.00  0.00     0.007 C 
ATOM     15  C   UNL     1      29.047  11.011  36.353  1.00  0.00     0.007 C 
ENDBRANCH   5  13
TORSDOF 1
ENDMDL
MODEL 2
REMARK VINA RESULT:    -5.006      1.387      2.955
REMARK INTER + INTRA:          -5.378
REMARK INTER:                  -5.290
REMARK INTRA:                  -0.088
REMARK UNBOUND:                -0.079
REMARK SMILES CC1=C[C@@H]2C(=C(C)CC[C@@H]2C(C)C)CC1
REMARK SMILES IDX 1 1 2 2 3 3 4 4 10 5 9 6 8 7 6 8 5 9 14 10 15 11 7 12 11 13
REMARK SMILES IDX 12 14 13 15
REMARK H PARENT
REMARK Flexibility Score: inf
ROOT
ATOM      1  C   UNL     1      31.740  12.198  31.513  1.00  0.00     0.039 C 
ATOM      2  C   UNL     1      31.423  10.756  31.801  1.00  0.00    -0.076 C 
ATOM      3  C   UNL     1      31.968  10.164  32.882  1.00  0.00    -0.020 C 
ATOM      4  C   UNL     1      31.740   8.710  33.237  1.00  0.00     0.041 C 
ATOM      5  C   UNL     1      31.298   8.494  34.711  1.00  0.00     0.003 C 
ATOM      6  C   UNL     1      31.399   6.970  34.947  1.00  0.00     0.009 C 
ATOM      7  C   UNL     1      30.448   6.186  34.027  1.00  0.00     0.031 C 
ATOM      8  C   UNL     1      30.340   6.732  32.608  1.00  0.00    -0.073 C 
ATOM      9  C   UNL     1      30.840   7.957  32.267  1.00  0.00    -0.064 C 
ATOM     10  C   UNL     1      30.719   8.528  30.867  1.00  0.00     0.036 C 
ATOM     11  C   UNL     1      30.417  10.025  30.942  1.00  0.00     0.035 C 
ATOM     12  C   UNL     1      29.551   5.898  31.628  1.00  0.00     0.039 C 
ENDROOT
BRANCH   5  13
ATOM     13  C   UNL     1      29.879   9.075  35.078  1.00  0.00    -0.013 C 
ATOM     14  C   UNL     1      29.899  10.603  35.277  1.00  0.00     0.007 C 
ATOM     15  C   UNL     1      29.306   8.428  36.354  1.00  0.00     0.007 C 
ENDBRANCH   5  13
TORSDOF 1
ENDMDL
MODEL 3
REMARK VINA RESULT:    -4.691      1.287      5.030
REMARK INTER + INTRA:          -5.045
REMARK INTER:                  -4.954
REMARK INTRA:                  -0.091
REMARK UNBOUND:                -0.079
REMARK SMILES CC1=C[C@@H]2C(=C(C)CC[C@@H]2C(C)C)CC1
REMARK SMILES IDX 1 1 2 2 3 3 4 4 10 5 9 6 8 7 6 8 5 9 14 10 15 11 7 12 11 13
REMARK SMILES IDX 12 14 13 15
REMARK H PARENT
REMARK Flexibility Score: inf
ROOT
ATOM      1  C   UNL     1      31.695   8.857  37.138  1.00  0.00     0.039 C 
ATOM      2  C   UNL     1      30.965   9.487  35.984  1.00  0.00    -0.076 C 
ATOM      3  C   UNL     1      31.660   9.873  34.896  1.00  0.00    -0.020 C 
ATOM      4  C   UNL     1      31.023  10.549  33.699  1.00  0.00     0.041 C 
ATOM      5  C   UNL     1      31.396   9.889  32.343  1.00  0.00     0.003 C 
ATOM      6  C   UNL     1      30.899  10.873  31.261  1.00  0.00     0.009 C 
ATOM      7  C   UNL     1      29.373  11.056  31.316  1.00  0.00     0.031 C 
ATOM      8  C   UNL     1      28.787  11.110  32.722  1.00  0.00    -0.073 C 
ATOM      9  C   UNL     1      29.520  10.763  33.822  1.00  0.00    -0.064 C 
ATOM     10  C   UNL     1      28.948  10.785  35.226  1.00  0.00     0.036 C 
ATOM     11  C   UNL     1      29.457   9.577  36.013  1.00  0.00     0.035 C 
ATOM     12  C   UNL     1      27.321  11.457  32.825  1.00  0.00     0.039 C 
ENDROOT
BRANCH   5  13
ATOM     13  C   UNL     1      30.849   8.425  32.136  1.00  0.00    -0.013 C 
ATOM     14  C   UNL     1      31.649   7.376  32.931  1.00  0.00     0.007 C 
ATOM     15  C   UNL     1      30.856   8.015  30.650  1.00  0.00     0.007 C 
ENDBRANCH   5  13
TORSDOF 1
ENDMDL
MODEL 4
REMARK VINA RESULT:    -4.623      5.595      9.798
REMARK INTER + INTRA:          -4.973
REMARK INTER:                  -4.906
REMARK INTRA:                  -0.066
REMARK UNBOUND:                -0.079
REMARK SMILES CC1=C[C@@H]2C(=C(C)CC[C@@H]2C(C)C)CC1
REMARK SMILES IDX 1 1 2 2 3 3 4 4 10 5 9 6 8 7 6 8 5 9 14 10 15 11 7 12 11 13
REMARK SMILES IDX 12 14 13 15
REMARK H PARENT
REMARK Flexibility Score: inf
ROOT
ATOM      1  C   UNL     1      30.127   8.366  29.460  1.00  0.00     0.039 C 
ATOM      2  C   UNL     1      29.982   8.233  27.968  1.00  0.00    -0.076 C 
ATOM      3  C   UNL     1      29.078   8.996  27.323  1.00  0.00    -0.020 C 
ATOM      4  C   UNL     1      28.831   8.910  25.831  1.00  0.00     0.041 C 
ATOM      5  C   UNL     1      28.867  10.289  25.117  1.00  0.00     0.003 C 
ATOM      6  C   UNL     1      28.319  10.026  23.697  1.00  0.00     0.009 C 
ATOM      7  C   UNL     1      29.206   9.043  22.916  1.00  0.00     0.031 C 
ATOM      8  C   UNL     1      29.762   7.890  23.743  1.00  0.00    -0.073 C 
ATOM      9  C   UNL     1      29.690   7.882  25.108  1.00  0.00    -0.064 C 
ATOM     10  C   UNL     1      30.260   6.757  25.950  1.00  0.00     0.036 C 
ATOM     11  C   UNL     1      30.922   7.331  27.203  1.00  0.00     0.035 C 
ATOM     12  C   UNL     1      30.498   6.813  22.983  1.00  0.00     0.039 C 
ENDROOT
BRANCH   5  13
ATOM     13  C   UNL     1      30.274  11.002  25.106  1.00  0.00    -0.013 C 
ATOM     14  C   UNL     1      30.509  11.863  26.361  1.00  0.00     0.007 C 
ATOM     15  C   UNL     1      30.453  11.898  23.864  1.00  0.00     0.007 C 
ENDBRANCH   5  13
TORSDOF 1
ENDMDL
MODEL 5
REMARK VINA RESULT:    -4.570      1.884      4.971
REMARK INTER + INTRA:          -4.916
REMARK INTER:                  -4.844
REMARK INTRA:                  -0.072
REMARK UNBOUND:                -0.079
REMARK SMILES CC1=C[C@@H]2C(=C(C)CC[C@@H]2C(C)C)CC1
REMARK SMILES IDX 1 1 2 2 3 3 4 4 10 5 9 6 8 7 6 8 5 9 14 10 15 11 7 12 11 13
REMARK SMILES IDX 12 14 13 15
REMARK H PARENT
REMARK Flexibility Score: inf
ROOT
ATOM      1  C   UNL     1      30.458   8.545  40.019  1.00  0.00     0.039 C 
ATOM      2  C   UNL     1      30.805   8.656  38.559  1.00  0.00    -0.076 C 
ATOM      3  C   UNL     1      30.902   7.535  37.818  1.00  0.00    -0.020 C 
ATOM      4  C   UNL     1      31.281   7.539  36.351  1.00  0.00     0.041 C 
ATOM      5  C   UNL     1      30.305   6.726  35.457  1.00  0.00     0.003 C 
ATOM      6  C   UNL     1      31.007   6.613  34.085  1.00  0.00     0.009 C 
ATOM      7  C   UNL     1      31.230   7.992  33.444  1.00  0.00     0.031 C 
ATOM      8  C   UNL     1      31.635   9.091  34.420  1.00  0.00    -0.073 C 
ATOM      9  C   UNL     1      31.549   8.921  35.773  1.00  0.00    -0.064 C 
ATOM     10  C   UNL     1      31.923  10.011  36.759  1.00  0.00     0.036 C 
ATOM     11  C   UNL     1      30.931  10.020  37.922  1.00  0.00     0.035 C 
ATOM     12  C   UNL     1      32.027  10.417  33.812  1.00  0.00     0.039 C 
ENDROOT
BRANCH   5  13
ATOM     13  C   UNL     1      28.846   7.315  35.349  1.00  0.00    -0.013 C 
ATOM     14  C   UNL     1      28.034   7.124  36.644  1.00  0.00     0.007 C 
ATOM     15  C   UNL     1      28.056   6.681  34.186  1.00  0.00     0.007 C 
ENDBRANCH   5  13
TORSDOF 1
ENDMDL
MODEL 6
REMARK VINA RESULT:    -4.563      1.462      2.337
REMARK INTER + INTRA:          -4.909
REMARK INTER:                  -4.836
REMARK INTRA:                  -0.073
REMARK UNBOUND:                -0.079
REMARK SMILES CC1=C[C@@H]2C(=C(C)CC[C@@H]2C(C)C)CC1
REMARK SMILES IDX 1 1 2 2 3 3 4 4 10 5 9 6 8 7 6 8 5 9 14 10 15 11 7 12 11 13
REMARK SMILES IDX 12 14 13 15
REMARK H PARENT
REMARK Flexibility Score: inf
ROOT
ATOM      1  C   UNL     1      29.487  10.144  28.480  1.00  0.00     0.039 C 
ATOM      2  C   UNL     1      30.055   9.638  29.778  1.00  0.00    -0.076 C 
ATOM      3  C   UNL     1      30.502  10.522  30.691  1.00  0.00    -0.020 C 
ATOM      4  C   UNL     1      31.124  10.112  32.010  1.00  0.00     0.041 C 
ATOM      5  C   UNL     1      30.502  10.832  33.238  1.00  0.00     0.003 C 
ATOM      6  C   UNL     1      31.442  10.506  34.420  1.00  0.00     0.009 C 
ATOM      7  C   UNL     1      31.494   8.996  34.708  1.00  0.00     0.031 C 
ATOM      8  C   UNL     1      31.495   8.111  33.467  1.00  0.00    -0.073 C 
ATOM      9  C   UNL     1      31.209   8.608  32.226  1.00  0.00    -0.064 C 
ATOM     10  C   UNL     1      31.178   7.738  30.985  1.00  0.00     0.036 C 
ATOM     11  C   UNL     1      30.016   8.159  30.085  1.00  0.00     0.035 C 
ATOM     12  C   UNL     1      31.714   6.635  33.697  1.00  0.00     0.039 C 
ENDROOT
BRANCH   5  13
ATOM     13  C   UNL     1      28.997  10.468  33.538  1.00  0.00    -0.013 C 
ATOM     14  C   UNL     1      28.009  11.332  32.731  1.00  0.00     0.007 C 
ATOM     15  C   UNL     1      28.658  10.615  35.035  1.00  0.00     0.007 C 
ENDBRANCH   5  13
TORSDOF 1
ENDMDL
MODEL 7
REMARK VINA RESULT:    -4.522      5.068      8.065
REMARK INTER + INTRA:          -4.866
REMARK INTER:                  -4.780
REMARK INTRA:                  -0.086
REMARK UNBOUND:                -0.079
REMARK SMILES CC1=C[C@@H]2C(=C(C)CC[C@@H]2C(C)C)CC1
REMARK SMILES IDX 1 1 2 2 3 3 4 4 10 5 9 6 8 7 6 8 5 9 14 10 15 11 7 12 11 13
REMARK SMILES IDX 12 14 13 15
REMARK H PARENT
REMARK Flexibility Score: inf
ROOT
ATOM      1  C   UNL     1      28.336  12.016  30.484  1.00  0.00     0.039 C 
ATOM      2  C   UNL     1      28.895  10.906  29.637  1.00  0.00    -0.076 C 
ATOM      3  C   UNL     1      28.394  10.704  28.402  1.00  0.00    -0.020 C 
ATOM      4  C   UNL     1      28.864   9.592  27.487  1.00  0.00     0.041 C 
ATOM      5  C   UNL     1      29.233  10.079  26.059  1.00  0.00     0.003 C 
ATOM      6  C   UNL     1      29.401   8.792  25.220  1.00  0.00     0.009 C 
ATOM      7  C   UNL     1      30.544   7.911  25.751  1.00  0.00     0.031 C 
ATOM      8  C   UNL     1      30.648   7.850  27.271  1.00  0.00    -0.073 C 
ATOM      9  C   UNL     1      29.954   8.708  28.076  1.00  0.00    -0.064 C 
ATOM     10  C   UNL     1      30.065   8.680  29.589  1.00  0.00     0.036 C 
ATOM     11  C   UNL     1      30.077  10.108  30.134  1.00  0.00     0.035 C 
ATOM     12  C   UNL     1      31.646   6.866  27.835  1.00  0.00     0.039 C 
ENDROOT
BRANCH   5  13
ATOM     13  C   UNL     1      30.490  11.029  25.978  1.00  0.00    -0.013 C 
ATOM     14  C   UNL     1      30.184  12.458  26.465  1.00  0.00     0.007 C 
ATOM     15  C   UNL     1      31.052  11.115  24.545  1.00  0.00     0.007 C 
ENDBRANCH   5  13
TORSDOF 1
ENDMDL
MODEL 8
REMARK VINA RESULT:    -4.479      5.004      8.181
REMARK INTER + INTRA:          -4.821
REMARK INTER:                  -4.745
REMARK INTRA:                  -0.076
REMARK UNBOUND:                -0.079
REMARK SMILES CC1=C[C@@H]2C(=C(C)CC[C@@H]2C(C)C)CC1
REMARK SMILES IDX 1 1 2 2 3 3 4 4 10 5 9 6 8 7 6 8 5 9 14 10 15 11 7 12 11 13
REMARK SMILES IDX 12 14 13 15
REMARK H PARENT
REMARK Flexibility Score: inf
ROOT
ATOM      1  C   UNL     1      28.615  14.102  27.760  1.00  0.00     0.039 C 
ATOM      2  C   UNL     1      28.903  12.648  28.020  1.00  0.00    -0.076 C 
ATOM      3  C   UNL     1      28.373  11.716  27.204  1.00  0.00    -0.020 C 
ATOM      4  C   UNL     1      28.573  10.227  27.403  1.00  0.00     0.041 C 
ATOM      5  C   UNL     1      29.051   9.489  26.123  1.00  0.00     0.003 C 
ATOM      6  C   UNL     1      28.917   7.984  26.446  1.00  0.00     0.009 C 
ATOM      7  C   UNL     1      29.819   7.570  27.619  1.00  0.00     0.031 C 
ATOM      8  C   UNL     1      29.901   8.588  28.751  1.00  0.00    -0.073 C 
ATOM      9  C   UNL     1      29.425   9.862  28.611  1.00  0.00    -0.064 C 
ATOM     10  C   UNL     1      29.521  10.896  29.716  1.00  0.00     0.036 C 
ATOM     11  C   UNL     1      29.864  12.261  29.120  1.00  0.00     0.035 C 
ATOM     12  C   UNL     1      30.640   8.151  29.993  1.00  0.00     0.039 C 
ENDROOT
BRANCH   5  13
ATOM     13  C   UNL     1      30.495   9.880  25.623  1.00  0.00    -0.013 C 
ATOM     14  C   UNL     1      30.542  11.283  24.990  1.00  0.00     0.007 C 
ATOM     15  C   UNL     1      31.040   8.867  24.597  1.00  0.00     0.007 C 
ENDBRANCH   5  13
TORSDOF 1
ENDMDL
