MODEL 1
REMARK VINA RESULT:    -9.613      0.000      0.000
REMARK INTER + INTRA:         -14.692
REMARK INTER:                 -13.828
REMARK INTRA:                  -0.864
REMARK UNBOUND:                -0.864
REMARK SMILES O=c1c(O[C@H]2O[C@@H](CO)[C@@H](O)[C@H](O)[C@@H]2O)c(-c2ccc(O)cc2)oc2cc(O)cc(O)c12
REMARK SMILES IDX 4 1 3 2 16 3 24 4 2 5 25 6 1 7 32 8 26 9 30 10 27 11 29 12
REMARK SMILES IDX 17 13 18 14 19 15 20 16 23 17 22 18 21 19 31 21 28 23 5 25
REMARK SMILES IDX 14 26 6 27 12 28 7 29 10 30 15 31 13 33 8 35 9 36 11 38
REMARK H PARENT 21 20 31 22 28 24 15 32 13 34 9 37 11 39
REMARK Flexibility Score: inf
ROOT
ATOM      1  O   UNL     1     133.151 134.144 113.170  1.00  0.00    -0.454 OA
ENDROOT
BRANCH   1   2
ATOM      2  C   UNL     1     134.396 134.261 113.812  1.00  0.00     0.214 A 
ATOM      3  C   UNL     1     134.430 134.473 115.202  1.00  0.00     0.180 A 
ATOM      4  O   UNL     1     135.595 134.609 115.825  1.00  0.00    -0.452 OA
ATOM      5  C   UNL     1     135.617 134.181 113.113  1.00  0.00     0.239 A 
ATOM      6  C   UNL     1     136.765 134.561 115.204  1.00  0.00     0.146 A 
ATOM      7  O   UNL     1     135.606 133.881 111.892  1.00  0.00    -0.285 OA
ATOM      8  C   UNL     1     136.839 134.381 113.800  1.00  0.00     0.111 A 
ATOM      9  C   UNL     1     137.930 134.682 115.968  1.00  0.00     0.094 A 
ATOM     10  C   UNL     1     138.125 134.381 113.181  1.00  0.00     0.134 A 
ATOM     11  C   UNL     1     139.184 134.616 115.359  1.00  0.00     0.123 A 
ATOM     12  C   UNL     1     139.274 134.462 113.977  1.00  0.00     0.093 A 
BRANCH   3  13
ATOM     13  C   UNL     1     133.195 134.595 116.008  1.00  0.00     0.021 A 
ATOM     14  C   UNL     1     133.101 133.916 117.234  1.00  0.00     0.016 A 
ATOM     15  C   UNL     1     131.943 134.016 118.012  1.00  0.00     0.047 A 
ATOM     16  C   UNL     1     130.860 134.783 117.566  1.00  0.00     0.115 A 
ATOM     17  C   UNL     1     132.094 135.345 115.557  1.00  0.00     0.016 A 
ATOM     18  C   UNL     1     130.938 135.444 116.337  1.00  0.00     0.047 A 
BRANCH  16  19
ATOM     19  O   UNL     1     129.702 134.891 118.333  1.00  0.00    -0.508 OA
ATOM     20  H   UNL     1     129.389 135.783 118.698  1.00  0.00     0.293 HD
ENDBRANCH  16  19
ENDBRANCH   3  13
BRANCH  10  21
ATOM     21  O   UNL     1     138.325 134.332 111.798  1.00  0.00    -0.507 OA
ATOM     22  H   UNL     1     137.649 134.628 111.110  1.00  0.00     0.293 HD
ENDBRANCH  10  21
BRANCH  11  23
ATOM     23  O   UNL     1     140.348 134.713 116.117  1.00  0.00    -0.508 OA
ATOM     24  H   UNL     1     140.378 135.252 116.975  1.00  0.00     0.293 HD
ENDBRANCH  11  23
ENDBRANCH   1   2
BRANCH   1  25
ATOM     25  C   UNL     1     132.343 132.965 113.154  1.00  0.00     0.339 C 
ATOM     26  C   UNL     1     132.803 132.028 112.021  1.00  0.00     0.214 C 
ATOM     27  O   UNL     1     130.955 133.272 113.085  1.00  0.00    -0.332 OA
ATOM     28  C   UNL     1     132.435 132.616 110.649  1.00  0.00     0.180 C 
ATOM     29  C   UNL     1     130.521 133.825 111.846  1.00  0.00     0.179 C 
ATOM     30  C   UNL     1     130.947 132.997 110.601  1.00  0.00     0.177 C 
BRANCH  26  31
ATOM     31  O   UNL     1     132.286 130.729 112.192  1.00  0.00    -0.384 OA
ATOM     32  H   UNL     1     131.695 130.731 112.990  1.00  0.00     0.211 HD
ENDBRANCH  26  31
BRANCH  28  33
ATOM     33  O   UNL     1     132.775 131.732 109.609  1.00  0.00    -0.387 OA
ATOM     34  H   UNL     1     133.360 132.216 108.971  1.00  0.00     0.211 HD
ENDBRANCH  28  33
BRANCH  29  35
ATOM     35  C   UNL     1     130.750 135.354 111.762  1.00  0.00     0.191 C 
BRANCH  35  36
ATOM     36  O   UNL     1     131.872 135.688 110.993  1.00  0.00    -0.394 OA
ATOM     37  H   UNL     1     131.849 136.669 110.846  1.00  0.00     0.210 HD
ENDBRANCH  35  36
ENDBRANCH  29  35
BRANCH  30  38
ATOM     38  O   UNL     1     130.679 133.698 109.413  1.00  0.00    -0.387 OA
ATOM     39  H   UNL     1     130.258 134.557 109.674  1.00  0.00     0.211 HD
ENDBRANCH  30  38
ENDBRANCH   1  25
TORSDOF 11
ENDMDL
MODEL 2
REMARK VINA RESULT:    -9.581      4.332      9.763
REMARK INTER + INTRA:         -14.645
REMARK INTER:                 -13.472
REMARK INTRA:                  -1.173
REMARK UNBOUND:                -0.864
REMARK SMILES O=c1c(O[C@H]2O[C@@H](CO)[C@@H](O)[C@H](O)[C@@H]2O)c(-c2ccc(O)cc2)oc2cc(O)cc(O)c12
REMARK SMILES IDX 4 1 3 2 16 3 24 4 2 5 25 6 1 7 32 8 26 9 30 10 27 11 29 12
REMARK SMILES IDX 17 13 18 14 19 15 20 16 23 17 22 18 21 19 31 21 28 23 5 25
REMARK SMILES IDX 14 26 6 27 12 28 7 29 10 30 15 31 13 33 8 35 9 36 11 38
REMARK H PARENT 21 20 31 22 28 24 15 32 13 34 9 37 11 39
REMARK Flexibility Score: inf
ROOT
ATOM      1  O   UNL     1     129.152 134.185 111.873  1.00  0.00    -0.454 OA
ENDROOT
BRANCH   1   2
ATOM      2  C   UNL     1     127.762 134.351 111.753  1.00  0.00     0.214 A 
ATOM      3  C   UNL     1     127.162 134.190 110.491  1.00  0.00     0.180 A 
ATOM      4  O   UNL     1     125.853 134.364 110.351  1.00  0.00    -0.452 OA
ATOM      5  C   UNL     1     126.942 134.680 112.851  1.00  0.00     0.239 A 
ATOM      6  C   UNL     1     125.048 134.694 111.352  1.00  0.00     0.146 A 
ATOM      7  O   UNL     1     127.446 134.716 114.003  1.00  0.00    -0.285 OA
ATOM      8  C   UNL     1     125.559 134.908 112.657  1.00  0.00     0.111 A 
ATOM      9  C   UNL     1     123.680 134.817 111.095  1.00  0.00     0.094 A 
ATOM     10  C   UNL     1     124.652 135.303 113.686  1.00  0.00     0.134 A 
ATOM     11  C   UNL     1     122.794 135.142 112.123  1.00  0.00     0.123 A 
ATOM     12  C   UNL     1     123.281 135.378 113.407  1.00  0.00     0.093 A 
BRANCH   3  13
ATOM     13  C   UNL     1     127.951 133.870 109.281  1.00  0.00     0.021 A 
ATOM     14  C   UNL     1     128.744 132.711 109.261  1.00  0.00     0.016 A 
ATOM     15  C   UNL     1     129.500 132.390 108.129  1.00  0.00     0.047 A 
ATOM     16  C   UNL     1     129.483 133.231 107.009  1.00  0.00     0.115 A 
ATOM     17  C   UNL     1     127.958 134.722 108.162  1.00  0.00     0.016 A 
ATOM     18  C   UNL     1     128.714 134.398 107.031  1.00  0.00     0.047 A 
BRANCH  16  19
ATOM     19  O   UNL     1     130.231 132.921 105.875  1.00  0.00    -0.508 OA
ATOM     20  H   UNL     1     130.795 132.080 105.827  1.00  0.00     0.293 HD
ENDBRANCH  16  19
ENDBRANCH   3  13
BRANCH  10  21
ATOM     21  O   UNL     1     125.046 135.659 114.979  1.00  0.00    -0.507 OA
ATOM     22  H   UNL     1     125.863 135.298 115.450  1.00  0.00     0.293 HD
ENDBRANCH  10  21
BRANCH  11  23
ATOM     23  O   UNL     1     121.427 135.243 111.877  1.00  0.00    -0.508 OA
ATOM     24  H   UNL     1     121.012 134.871 111.030  1.00  0.00     0.293 HD
ENDBRANCH  11  23
ENDBRANCH   1   2
BRANCH   1  25
ATOM     25  C   UNL     1     130.121 135.224 111.712  1.00  0.00     0.339 C 
ATOM     26  C   UNL     1     131.285 134.726 110.833  1.00  0.00     0.214 C 
ATOM     27  O   UNL     1     130.558 135.742 112.963  1.00  0.00    -0.332 OA
ATOM     28  C   UNL     1     132.133 133.693 111.592  1.00  0.00     0.180 C 
ATOM     29  C   UNL     1     131.354 134.850 113.740  1.00  0.00     0.179 C 
ATOM     30  C   UNL     1     132.555 134.238 112.966  1.00  0.00     0.177 C 
BRANCH  26  31
ATOM     31  O   UNL     1     132.063 135.802 110.361  1.00  0.00    -0.384 OA
ATOM     32  H   UNL     1     131.450 136.515 110.046  1.00  0.00     0.211 HD
ENDBRANCH  26  31
BRANCH  28  33
ATOM     33  O   UNL     1     133.247 133.293 110.832  1.00  0.00    -0.387 OA
ATOM     34  H   UNL     1     133.084 132.370 110.508  1.00  0.00     0.211 HD
ENDBRANCH  28  33
BRANCH  29  35
ATOM     35  C   UNL     1     130.501 133.862 114.572  1.00  0.00     0.191 C 
BRANCH  35  36
ATOM     36  O   UNL     1     129.814 134.493 115.617  1.00  0.00    -0.394 OA
ATOM     37  H   UNL     1     129.212 133.818 116.025  1.00  0.00     0.210 HD
ENDBRANCH  35  36
ENDBRANCH  29  35
BRANCH  30  38
ATOM     38  O   UNL     1     133.167 133.215 113.710  1.00  0.00    -0.387 OA
ATOM     39  H   UNL     1     134.142 133.398 113.702  1.00  0.00     0.211 HD
ENDBRANCH  30  38
ENDBRANCH   1  25
TORSDOF 11
ENDMDL
MODEL 3
REMARK VINA RESULT:    -9.464      5.538      9.763
REMARK INTER + INTRA:         -14.477
REMARK INTER:                 -13.404
REMARK INTRA:                  -1.074
REMARK UNBOUND:                -0.864
REMARK SMILES O=c1c(O[C@H]2O[C@@H](CO)[C@@H](O)[C@H](O)[C@@H]2O)c(-c2ccc(O)cc2)oc2cc(O)cc(O)c12
REMARK SMILES IDX 4 1 3 2 16 3 24 4 2 5 25 6 1 7 32 8 26 9 30 10 27 11 29 12
REMARK SMILES IDX 17 13 18 14 19 15 20 16 23 17 22 18 21 19 31 21 28 23 5 25
REMARK SMILES IDX 14 26 6 27 12 28 7 29 10 30 15 31 13 33 8 35 9 36 11 38
REMARK H PARENT 21 20 31 22 28 24 15 32 13 34 9 37 11 39
REMARK Flexibility Score: inf
ROOT
ATOM      1  O   UNL     1     126.936 135.093 111.135  1.00  0.00    -0.454 OA
ENDROOT
BRANCH   1   2
ATOM      2  C   UNL     1     125.937 135.056 112.123  1.00  0.00     0.214 A 
ATOM      3  C   UNL     1     126.314 134.883 113.467  1.00  0.00     0.180 A 
ATOM      4  O   UNL     1     125.385 134.823 114.414  1.00  0.00    -0.452 OA
ATOM      5  C   UNL     1     124.567 135.181 111.818  1.00  0.00     0.239 A 
ATOM      6  C   UNL     1     124.085 134.915 114.170  1.00  0.00     0.146 A 
ATOM      7  O   UNL     1     124.224 135.449 110.639  1.00  0.00    -0.285 OA
ATOM      8  C   UNL     1     123.601 135.062 112.846  1.00  0.00     0.111 A 
ATOM      9  C   UNL     1     123.199 134.874 115.251  1.00  0.00     0.094 A 
ATOM     10  C   UNL     1     122.190 135.112 112.640  1.00  0.00     0.134 A 
ATOM     11  C   UNL     1     121.824 134.988 115.042  1.00  0.00     0.123 A 
ATOM     12  C   UNL     1     121.330 135.111 113.745  1.00  0.00     0.093 A 
BRANCH   3  13
ATOM     13  C   UNL     1     127.727 134.718 113.872  1.00  0.00     0.021 A 
ATOM     14  C   UNL     1     128.083 133.656 114.721  1.00  0.00     0.016 A 
ATOM     15  C   UNL     1     129.412 133.482 115.118  1.00  0.00     0.047 A 
ATOM     16  C   UNL     1     130.400 134.376 114.684  1.00  0.00     0.115 A 
ATOM     17  C   UNL     1     128.721 135.623 113.458  1.00  0.00     0.016 A 
ATOM     18  C   UNL     1     130.049 135.446 113.856  1.00  0.00     0.047 A 
BRANCH  16  19
ATOM     19  O   UNL     1     131.728 134.211 115.071  1.00  0.00    -0.508 OA
ATOM     20  H   UNL     1     132.045 133.363 115.526  1.00  0.00     0.293 HD
ENDBRANCH  16  19
ENDBRANCH   3  13
BRANCH  10  21
ATOM     21  O   UNL     1     121.586 135.136 111.379  1.00  0.00    -0.507 OA
ATOM     22  H   UNL     1     121.035 134.383 110.992  1.00  0.00     0.293 HD
ENDBRANCH  10  21
BRANCH  11  23
ATOM     23  O   UNL     1     120.939 134.971 116.116  1.00  0.00    -0.508 OA
ATOM     24  H   UNL     1     120.299 134.199 116.263  1.00  0.00     0.293 HD
ENDBRANCH  11  23
ENDBRANCH   1   2
BRANCH   1  25
ATOM     25  C   UNL     1     127.290 134.001 110.283  1.00  0.00     0.339 C 
ATOM     26  C   UNL     1     128.823 133.869 110.207  1.00  0.00     0.214 C 
ATOM     27  O   UNL     1     126.683 134.107 109.000  1.00  0.00    -0.332 OA
ATOM     28  C   UNL     1     129.428 135.032 109.405  1.00  0.00     0.180 C 
ATOM     29  C   UNL     1     127.181 135.163 108.184  1.00  0.00     0.179 C 
ATOM     30  C   UNL     1     128.729 135.176 108.044  1.00  0.00     0.177 C 
BRANCH  26  31
ATOM     31  O   UNL     1     129.202 132.616 109.685  1.00  0.00    -0.384 OA
ATOM     32  H   UNL     1     129.574 132.069 110.425  1.00  0.00     0.211 HD
ENDBRANCH  26  31
BRANCH  28  33
ATOM     33  O   UNL     1     130.818 134.879 109.258  1.00  0.00    -0.387 OA
ATOM     34  H   UNL     1     131.138 135.562 108.613  1.00  0.00     0.211 HD
ENDBRANCH  28  33
BRANCH  29  35
ATOM     35  C   UNL     1     126.510 136.523 108.492  1.00  0.00     0.191 C 
BRANCH  35  36
ATOM     36  O   UNL     1     126.128 137.210 107.332  1.00  0.00    -0.394 OA
ATOM     37  H   UNL     1     126.446 136.678 106.556  1.00  0.00     0.210 HD
ENDBRANCH  35  36
ENDBRANCH  29  35
BRANCH  30  38
ATOM     38  O   UNL     1     129.169 136.352 107.412  1.00  0.00    -0.387 OA
ATOM     39  H   UNL     1     130.158 136.369 107.492  1.00  0.00     0.211 HD
ENDBRANCH  30  38
ENDBRANCH   1  25
TORSDOF 11
ENDMDL
MODEL 4
REMARK VINA RESULT:    -9.287      4.048      9.269
REMARK INTER + INTRA:         -14.223
REMARK INTER:                 -13.367
REMARK INTRA:                  -0.856
REMARK UNBOUND:                -0.864
REMARK SMILES O=c1c(O[C@H]2O[C@@H](CO)[C@@H](O)[C@H](O)[C@@H]2O)c(-c2ccc(O)cc2)oc2cc(O)cc(O)c12
REMARK SMILES IDX 4 1 3 2 16 3 24 4 2 5 25 6 1 7 32 8 26 9 30 10 27 11 29 12
REMARK SMILES IDX 17 13 18 14 19 15 20 16 23 17 22 18 21 19 31 21 28 23 5 25
REMARK SMILES IDX 14 26 6 27 12 28 7 29 10 30 15 31 13 33 8 35 9 36 11 38
REMARK H PARENT 21 20 31 22 28 24 15 32 13 34 9 37 11 39
REMARK Flexibility Score: inf
ROOT
ATOM      1  O   UNL     1     129.580 134.106 112.071  1.00  0.00    -0.454 OA
ENDROOT
BRANCH   1   2
ATOM      2  C   UNL     1     128.207 134.270 112.321  1.00  0.00     0.214 A 
ATOM      3  C   UNL     1     127.339 134.500 111.239  1.00  0.00     0.180 A 
ATOM      4  O   UNL     1     126.041 134.680 111.455  1.00  0.00    -0.452 OA
ATOM      5  C   UNL     1     127.664 134.218 113.621  1.00  0.00     0.239 A 
ATOM      6  C   UNL     1     125.491 134.660 112.661  1.00  0.00     0.146 A 
ATOM      7  O   UNL     1     128.408 133.902 114.584  1.00  0.00    -0.285 OA
ATOM      8  C   UNL     1     126.284 134.465 113.820  1.00  0.00     0.111 A 
ATOM      9  C   UNL     1     124.108 134.827 112.765  1.00  0.00     0.094 A 
ATOM     10  C   UNL     1     125.643 134.496 115.095  1.00  0.00     0.134 A 
ATOM     11  C   UNL     1     123.484 134.792 114.013  1.00  0.00     0.123 A 
ATOM     12  C   UNL     1     124.250 134.623 115.165  1.00  0.00     0.093 A 
BRANCH   3  13
ATOM     13  C   UNL     1     127.829 134.595 109.846  1.00  0.00     0.021 A 
ATOM     14  C   UNL     1     127.816 135.839 109.192  1.00  0.00     0.016 A 
ATOM     15  C   UNL     1     128.272 135.952 107.875  1.00  0.00     0.047 A 
ATOM     16  C   UNL     1     128.733 134.820 107.191  1.00  0.00     0.115 A 
ATOM     17  C   UNL     1     128.272 133.460 109.143  1.00  0.00     0.016 A 
ATOM     18  C   UNL     1     128.728 133.576 107.827  1.00  0.00     0.047 A 
BRANCH  16  19
ATOM     19  O   UNL     1     129.192 134.921 105.879  1.00  0.00    -0.508 OA
ATOM     20  H   UNL     1     129.802 135.675 105.588  1.00  0.00     0.293 HD
ENDBRANCH  16  19
ENDBRANCH   3  13
BRANCH  10  21
ATOM     21  O   UNL     1     126.327 134.436 116.313  1.00  0.00    -0.507 OA
ATOM     22  H   UNL     1     126.886 135.184 116.695  1.00  0.00     0.293 HD
ENDBRANCH  10  21
BRANCH  11  23
ATOM     23  O   UNL     1     122.103 134.935 114.121  1.00  0.00    -0.508 OA
ATOM     24  H   UNL     1     121.659 135.140 115.009  1.00  0.00     0.293 HD
ENDBRANCH  11  23
ENDBRANCH   1   2
BRANCH   1  25
ATOM     25  C   UNL     1     130.632 134.548 112.933  1.00  0.00     0.339 C 
ATOM     26  C   UNL     1     131.587 135.479 112.162  1.00  0.00     0.214 C 
ATOM     27  O   UNL     1     131.305 133.459 113.554  1.00  0.00    -0.332 OA
ATOM     28  C   UNL     1     132.408 134.682 111.136  1.00  0.00     0.180 C 
ATOM     29  C   UNL     1     132.094 132.660 112.676  1.00  0.00     0.179 C 
ATOM     30  C   UNL     1     133.088 133.475 111.803  1.00  0.00     0.177 C 
BRANCH  26  31
ATOM     31  O   UNL     1     132.410 136.208 113.044  1.00  0.00    -0.384 OA
ATOM     32  H   UNL     1     132.563 135.657 113.855  1.00  0.00     0.211 HD
ENDBRANCH  26  31
BRANCH  28  33
ATOM     33  O   UNL     1     133.344 135.505 110.484  1.00  0.00    -0.387 OA
ATOM     34  H   UNL     1     132.895 135.927 109.707  1.00  0.00     0.211 HD
ENDBRANCH  28  33
BRANCH  29  35
ATOM     35  C   UNL     1     131.261 131.582 111.941  1.00  0.00     0.191 C 
BRANCH  35  36
ATOM     36  O   UNL     1     131.045 131.896 110.593  1.00  0.00    -0.394 OA
ATOM     37  H   UNL     1     130.749 132.842 110.554  1.00  0.00     0.210 HD
ENDBRANCH  35  36
ENDBRANCH  29  35
BRANCH  30  38
ATOM     38  O   UNL     1     133.676 132.664 110.817  1.00  0.00    -0.387 OA
ATOM     39  H   UNL     1     134.528 133.101 110.556  1.00  0.00     0.211 HD
ENDBRANCH  30  38
ENDBRANCH   1  25
TORSDOF 11
ENDMDL
MODEL 5
REMARK VINA RESULT:    -9.282      4.759     10.027
REMARK INTER + INTRA:         -14.216
REMARK INTER:                 -13.413
REMARK INTRA:                  -0.803
REMARK UNBOUND:                -0.864
REMARK SMILES O=c1c(O[C@H]2O[C@@H](CO)[C@@H](O)[C@H](O)[C@@H]2O)c(-c2ccc(O)cc2)oc2cc(O)cc(O)c12
REMARK SMILES IDX 4 1 3 2 16 3 24 4 2 5 25 6 1 7 32 8 26 9 30 10 27 11 29 12
REMARK SMILES IDX 17 13 18 14 19 15 20 16 23 17 22 18 21 19 31 21 28 23 5 25
REMARK SMILES IDX 14 26 6 27 12 28 7 29 10 30 15 31 13 33 8 35 9 36 11 38
REMARK H PARENT 21 20 31 22 28 24 15 32 13 34 9 37 11 39
REMARK Flexibility Score: inf
ROOT
ATOM      1  O   UNL     1     128.608 134.573 112.052  1.00  0.00    -0.454 OA
ENDROOT
BRANCH   1   2
ATOM      2  C   UNL     1     127.207 134.685 112.088  1.00  0.00     0.214 A 
ATOM      3  C   UNL     1     126.508 134.885 110.884  1.00  0.00     0.180 A 
ATOM      4  O   UNL     1     125.187 135.015 110.897  1.00  0.00    -0.452 OA
ATOM      5  C   UNL     1     126.473 134.610 113.288  1.00  0.00     0.239 A 
ATOM      6  C   UNL     1     124.459 134.972 112.005  1.00  0.00     0.146 A 
ATOM      7  O   UNL     1     127.072 134.319 114.355  1.00  0.00    -0.285 OA
ATOM      8  C   UNL     1     125.071 134.804 113.273  1.00  0.00     0.111 A 
ATOM      9  C   UNL     1     123.070 135.086 111.895  1.00  0.00     0.094 A 
ATOM     10  C   UNL     1     124.241 134.808 114.434  1.00  0.00     0.134 A 
ATOM     11  C   UNL     1     122.264 135.025 113.032  1.00  0.00     0.123 A 
ATOM     12  C   UNL     1     122.850 134.883 114.289  1.00  0.00     0.093 A 
BRANCH   3  13
ATOM     13  C   UNL     1     127.202 135.001 109.582  1.00  0.00     0.021 A 
ATOM     14  C   UNL     1     127.404 136.273 109.019  1.00  0.00     0.016 A 
ATOM     15  C   UNL     1     128.056 136.406 107.789  1.00  0.00     0.047 A 
ATOM     16  C   UNL     1     128.500 135.270 107.100  1.00  0.00     0.115 A 
ATOM     17  C   UNL     1     127.631 133.865 108.874  1.00  0.00     0.016 A 
ATOM     18  C   UNL     1     128.283 134.001 107.645  1.00  0.00     0.047 A 
BRANCH  16  19
ATOM     19  O   UNL     1     129.152 135.392 105.875  1.00  0.00    -0.508 OA
ATOM     20  H   UNL     1     128.669 135.229 104.999  1.00  0.00     0.293 HD
ENDBRANCH  16  19
ENDBRANCH   3  13
BRANCH  10  21
ATOM     21  O   UNL     1     124.731 134.770 115.743  1.00  0.00    -0.507 OA
ATOM     22  H   UNL     1     124.719 133.954 116.336  1.00  0.00     0.293 HD
ENDBRANCH  10  21
BRANCH  11  23
ATOM     23  O   UNL     1     120.879 135.116 112.927  1.00  0.00    -0.508 OA
ATOM     24  H   UNL     1     120.382 135.963 113.176  1.00  0.00     0.293 HD
ENDBRANCH  11  23
ENDBRANCH   1   2
BRANCH   1  25
ATOM     25  C   UNL     1     129.417 134.040 113.103  1.00  0.00     0.339 C 
ATOM     26  C   UNL     1     130.113 135.185 113.863  1.00  0.00     0.214 C 
ATOM     27  O   UNL     1     130.332 133.060 112.625  1.00  0.00    -0.332 OA
ATOM     28  C   UNL     1     131.205 135.827 112.992  1.00  0.00     0.180 C 
ATOM     29  C   UNL     1     131.382 133.565 111.806  1.00  0.00     0.179 C 
ATOM     30  C   UNL     1     132.157 134.757 112.435  1.00  0.00     0.177 C 
BRANCH  26  31
ATOM     31  O   UNL     1     130.619 134.742 115.101  1.00  0.00    -0.384 OA
ATOM     32  H   UNL     1     131.182 135.464 115.484  1.00  0.00     0.211 HD
ENDBRANCH  26  31
BRANCH  28  33
ATOM     33  O   UNL     1     131.905 136.819 113.704  1.00  0.00    -0.387 OA
ATOM     34  H   UNL     1     132.625 137.168 113.119  1.00  0.00     0.211 HD
ENDBRANCH  28  33
BRANCH  29  35
ATOM     35  C   UNL     1     130.958 133.729 110.326  1.00  0.00     0.191 C 
BRANCH  35  36
ATOM     36  O   UNL     1     130.668 135.058 109.994  1.00  0.00    -0.394 OA
ATOM     37  H   UNL     1     131.466 135.601 110.224  1.00  0.00     0.210 HD
ENDBRANCH  35  36
ENDBRANCH  29  35
BRANCH  30  38
ATOM     38  O   UNL     1     133.028 135.342 111.500  1.00  0.00    -0.387 OA
ATOM     39  H   UNL     1     132.807 134.949 110.616  1.00  0.00     0.211 HD
ENDBRANCH  30  38
ENDBRANCH   1  25
TORSDOF 11
ENDMDL
MODEL 6
REMARK VINA RESULT:    -9.164      4.008      6.529
REMARK INTER + INTRA:         -14.046
REMARK INTER:                 -12.929
REMARK INTRA:                  -1.117
REMARK UNBOUND:                -0.864
REMARK SMILES O=c1c(O[C@H]2O[C@@H](CO)[C@@H](O)[C@H](O)[C@@H]2O)c(-c2ccc(O)cc2)oc2cc(O)cc(O)c12
REMARK SMILES IDX 4 1 3 2 16 3 24 4 2 5 25 6 1 7 32 8 26 9 30 10 27 11 29 12
REMARK SMILES IDX 17 13 18 14 19 15 20 16 23 17 22 18 21 19 31 21 28 23 5 25
REMARK SMILES IDX 14 26 6 27 12 28 7 29 10 30 15 31 13 33 8 35 9 36 11 38
REMARK H PARENT 21 20 31 22 28 24 15 32 13 34 9 37 11 39
REMARK Flexibility Score: inf
ROOT
ATOM      1  O   UNL     1     128.426 135.080 110.502  1.00  0.00    -0.454 OA
ENDROOT
BRANCH   1   2
ATOM      2  C   UNL     1     129.021 135.108 111.775  1.00  0.00     0.214 A 
ATOM      3  C   UNL     1     128.195 135.120 112.914  1.00  0.00     0.180 A 
ATOM      4  O   UNL     1     128.736 135.170 114.126  1.00  0.00    -0.452 OA
ATOM      5  C   UNL     1     130.418 135.132 111.957  1.00  0.00     0.239 A 
ATOM      6  C   UNL     1     130.043 135.214 114.342  1.00  0.00     0.146 A 
ATOM      7  O   UNL     1     131.168 135.008 110.955  1.00  0.00    -0.285 OA
ATOM      8  C   UNL     1     130.960 135.236 113.260  1.00  0.00     0.111 A 
ATOM      9  C   UNL     1     130.501 135.229 115.662  1.00  0.00     0.094 A 
ATOM     10  C   UNL     1     132.354 135.327 113.553  1.00  0.00     0.134 A 
ATOM     11  C   UNL     1     131.869 135.254 115.936  1.00  0.00     0.123 A 
ATOM     12  C   UNL     1     132.783 135.298 114.885  1.00  0.00     0.093 A 
BRANCH   3  13
ATOM     13  C   UNL     1     126.719 135.123 112.814  1.00  0.00     0.021 A 
ATOM     14  C   UNL     1     126.077 136.152 112.103  1.00  0.00     0.016 A 
ATOM     15  C   UNL     1     124.683 136.176 111.997  1.00  0.00     0.047 A 
ATOM     16  C   UNL     1     123.913 135.181 112.612  1.00  0.00     0.115 A 
ATOM     17  C   UNL     1     125.937 134.141 113.447  1.00  0.00     0.016 A 
ATOM     18  C   UNL     1     124.543 134.167 113.339  1.00  0.00     0.047 A 
BRANCH  16  19
ATOM     19  O   UNL     1     122.523 135.194 112.512  1.00  0.00    -0.508 OA
ATOM     20  H   UNL     1     122.055 135.035 111.627  1.00  0.00     0.293 HD
ENDBRANCH  16  19
ENDBRANCH   3  13
BRANCH  10  21
ATOM     21  O   UNL     1     133.347 135.476 112.580  1.00  0.00    -0.507 OA
ATOM     22  H   UNL     1     133.489 136.309 112.028  1.00  0.00     0.293 HD
ENDBRANCH  10  21
BRANCH  11  23
ATOM     23  O   UNL     1     132.331 135.245 117.249  1.00  0.00    -0.508 OA
ATOM     24  H   UNL     1     133.297 135.032 117.470  1.00  0.00     0.293 HD
ENDBRANCH  11  23
ENDBRANCH   1   2
BRANCH   1  25
ATOM     25  C   UNL     1     127.923 133.908 109.856  1.00  0.00     0.339 C 
ATOM     26  C   UNL     1     129.006 133.308 108.939  1.00  0.00     0.214 C 
ATOM     27  O   UNL     1     126.701 134.159 109.173  1.00  0.00    -0.332 OA
ATOM     28  C   UNL     1     129.234 134.206 107.712  1.00  0.00     0.180 C 
ATOM     29  C   UNL     1     126.815 134.987 108.019  1.00  0.00     0.179 C 
ATOM     30  C   UNL     1     127.902 134.519 107.011  1.00  0.00     0.177 C 
BRANCH  26  31
ATOM     31  O   UNL     1     128.689 131.986 108.571  1.00  0.00    -0.384 OA
ATOM     32  H   UNL     1     127.706 131.924 108.448  1.00  0.00     0.211 HD
ENDBRANCH  26  31
BRANCH  28  33
ATOM     33  O   UNL     1     130.160 133.629 106.824  1.00  0.00    -0.387 OA
ATOM     34  H   UNL     1     129.912 133.896 105.902  1.00  0.00     0.211 HD
ENDBRANCH  28  33
BRANCH  29  35
ATOM     35  C   UNL     1     126.804 136.496 108.363  1.00  0.00     0.191 C 
BRANCH  35  36
ATOM     36  O   UNL     1     126.035 137.247 107.465  1.00  0.00    -0.394 OA
ATOM     37  H   UNL     1     126.486 137.205 106.582  1.00  0.00     0.210 HD
ENDBRANCH  35  36
ENDBRANCH  29  35
BRANCH  30  38
ATOM     38  O   UNL     1     128.112 135.484 106.011  1.00  0.00    -0.387 OA
ATOM     39  H   UNL     1     127.832 136.357 106.391  1.00  0.00     0.211 HD
ENDBRANCH  30  38
ENDBRANCH   1  25
TORSDOF 11
ENDMDL
MODEL 7
REMARK VINA RESULT:    -8.992      3.767      7.146
REMARK INTER + INTRA:         -13.799
REMARK INTER:                 -12.855
REMARK INTRA:                  -0.944
REMARK UNBOUND:                -0.864
REMARK SMILES O=c1c(O[C@H]2O[C@@H](CO)[C@@H](O)[C@H](O)[C@@H]2O)c(-c2ccc(O)cc2)oc2cc(O)cc(O)c12
REMARK SMILES IDX 4 1 3 2 16 3 24 4 2 5 25 6 1 7 32 8 26 9 30 10 27 11 29 12
REMARK SMILES IDX 17 13 18 14 19 15 20 16 23 17 22 18 21 19 31 21 28 23 5 25
REMARK SMILES IDX 14 26 6 27 12 28 7 29 10 30 15 31 13 33 8 35 9 36 11 38
REMARK H PARENT 21 20 31 22 28 24 15 32 13 34 9 37 11 39
REMARK Flexibility Score: inf
ROOT
ATOM      1  O   UNL     1     128.174 134.967 111.868  1.00  0.00    -0.454 OA
ENDROOT
BRANCH   1   2
ATOM      2  C   UNL     1     129.563 134.934 112.078  1.00  0.00     0.214 A 
ATOM      3  C   UNL     1     130.403 134.538 111.022  1.00  0.00     0.180 A 
ATOM      4  O   UNL     1     131.717 134.478 111.206  1.00  0.00    -0.452 OA
ATOM      5  C   UNL     1     130.149 135.278 113.313  1.00  0.00     0.239 A 
ATOM      6  C   UNL     1     132.309 134.772 112.355  1.00  0.00     0.146 A 
ATOM      7  O   UNL     1     129.423 135.741 114.228  1.00  0.00    -0.285 OA
ATOM      8  C   UNL     1     131.548 135.154 113.490  1.00  0.00     0.111 A 
ATOM      9  C   UNL     1     133.703 134.707 112.423  1.00  0.00     0.094 A 
ATOM     10  C   UNL     1     132.236 135.417 114.712  1.00  0.00     0.134 A 
ATOM     11  C   UNL     1     134.369 135.029 113.607  1.00  0.00     0.123 A 
ATOM     12  C   UNL     1     133.636 135.384 114.738  1.00  0.00     0.093 A 
BRANCH   3  13
ATOM     13  C   UNL     1     129.870 134.136 109.702  1.00  0.00     0.021 A 
ATOM     14  C   UNL     1     129.599 132.781 109.450  1.00  0.00     0.016 A 
ATOM     15  C   UNL     1     129.096 132.378 108.209  1.00  0.00     0.047 A 
ATOM     16  C   UNL     1     128.872 133.323 107.200  1.00  0.00     0.115 A 
ATOM     17  C   UNL     1     129.663 135.075 108.676  1.00  0.00     0.016 A 
ATOM     18  C   UNL     1     129.160 134.670 107.436  1.00  0.00     0.047 A 
BRANCH  16  19
ATOM     19  O   UNL     1     128.369 132.933 105.960  1.00  0.00    -0.508 OA
ATOM     20  H   UNL     1     128.149 133.612 105.241  1.00  0.00     0.293 HD
ENDBRANCH  16  19
ENDBRANCH   3  13
BRANCH  10  21
ATOM     21  O   UNL     1     131.596 135.685 115.926  1.00  0.00    -0.507 OA
ATOM     22  H   UNL     1     130.818 136.318 116.036  1.00  0.00     0.293 HD
ENDBRANCH  10  21
BRANCH  11  23
ATOM     23  O   UNL     1     135.759 134.988 113.673  1.00  0.00    -0.508 OA
ATOM     24  H   UNL     1     136.241 134.685 114.512  1.00  0.00     0.293 HD
ENDBRANCH  11  23
ENDBRANCH   1   2
BRANCH   1  25
ATOM     25  C   UNL     1     127.245 135.742 112.631  1.00  0.00     0.339 C 
ATOM     26  C   UNL     1     126.330 134.810 113.448  1.00  0.00     0.214 C 
ATOM     27  O   UNL     1     126.517 136.654 111.816  1.00  0.00    -0.332 OA
ATOM     28  C   UNL     1     125.353 134.066 112.524  1.00  0.00     0.180 C 
ATOM     29  C   UNL     1     125.584 136.052 110.924  1.00  0.00     0.179 C 
ATOM     30  C   UNL     1     124.610 135.052 111.608  1.00  0.00     0.177 C 
BRANCH  26  31
ATOM     31  O   UNL     1     125.658 135.518 114.464  1.00  0.00    -0.384 OA
ATOM     32  H   UNL     1     124.993 134.910 114.880  1.00  0.00     0.211 HD
ENDBRANCH  26  31
BRANCH  28  33
ATOM     33  O   UNL     1     124.456 133.275 113.265  1.00  0.00    -0.387 OA
ATOM     34  H   UNL     1     124.964 132.522 113.663  1.00  0.00     0.211 HD
ENDBRANCH  28  33
BRANCH  29  35
ATOM     35  C   UNL     1     126.242 135.573 109.607  1.00  0.00     0.191 C 
BRANCH  35  36
ATOM     36  O   UNL     1     126.329 134.177 109.526  1.00  0.00    -0.394 OA
ATOM     37  H   UNL     1     125.738 133.803 110.229  1.00  0.00     0.210 HD
ENDBRANCH  35  36
ENDBRANCH  29  35
BRANCH  30  38
ATOM     38  O   UNL     1     123.866 134.338 110.654  1.00  0.00    -0.387 OA
ATOM     39  H   UNL     1     124.436 133.586 110.349  1.00  0.00     0.211 HD
ENDBRANCH  30  38
ENDBRANCH   1  25
TORSDOF 11
ENDMDL
MODEL 8
REMARK VINA RESULT:    -8.933      3.818      5.687
REMARK INTER + INTRA:         -13.713
REMARK INTER:                 -13.560
REMARK INTRA:                  -0.153
REMARK UNBOUND:                -0.864
REMARK SMILES O=c1c(O[C@H]2O[C@@H](CO)[C@@H](O)[C@H](O)[C@@H]2O)c(-c2ccc(O)cc2)oc2cc(O)cc(O)c12
REMARK SMILES IDX 4 1 3 2 16 3 24 4 2 5 25 6 1 7 32 8 26 9 30 10 27 11 29 12
REMARK SMILES IDX 17 13 18 14 19 15 20 16 23 17 22 18 21 19 31 21 28 23 5 25
REMARK SMILES IDX 14 26 6 27 12 28 7 29 10 30 15 31 13 33 8 35 9 36 11 38
REMARK H PARENT 21 20 31 22 28 24 15 32 13 34 9 37 11 39
REMARK Flexibility Score: inf
ROOT
ATOM      1  O   UNL     1     128.407 135.165 111.102  1.00  0.00    -0.454 OA
ENDROOT
BRANCH   1   2
ATOM      2  C   UNL     1     129.463 134.930 111.999  1.00  0.00     0.214 A 
ATOM      3  C   UNL     1     129.164 134.635 113.342  1.00  0.00     0.180 A 
ATOM      4  O   UNL     1     130.146 134.432 114.211  1.00  0.00    -0.452 OA
ATOM      5  C   UNL     1     130.815 134.984 111.607  1.00  0.00     0.239 A 
ATOM      6  C   UNL     1     131.431 134.493 113.891  1.00  0.00     0.146 A 
ATOM      7  O   UNL     1     131.095 135.135 110.390  1.00  0.00    -0.285 OA
ATOM      8  C   UNL     1     131.838 134.813 112.570  1.00  0.00     0.111 A 
ATOM      9  C   UNL     1     132.380 134.227 114.882  1.00  0.00     0.094 A 
ATOM     10  C   UNL     1     133.235 134.908 112.294  1.00  0.00     0.134 A 
ATOM     11  C   UNL     1     133.742 134.260 114.584  1.00  0.00     0.123 A 
ATOM     12  C   UNL     1     134.161 134.594 113.297  1.00  0.00     0.093 A 
BRANCH   3  13
ATOM     13  C   UNL     1     127.773 134.584 113.844  1.00  0.00     0.021 A 
ATOM     14  C   UNL     1     127.415 133.606 114.788  1.00  0.00     0.016 A 
ATOM     15  C   UNL     1     126.106 133.537 115.274  1.00  0.00     0.047 A 
ATOM     16  C   UNL     1     125.135 134.435 114.812  1.00  0.00     0.115 A 
ATOM     17  C   UNL     1     126.786 135.466 113.368  1.00  0.00     0.016 A 
ATOM     18  C   UNL     1     125.479 135.396 113.857  1.00  0.00     0.047 A 
BRANCH  16  19
ATOM     19  O   UNL     1     123.828 134.377 115.292  1.00  0.00    -0.508 OA
ATOM     20  H   UNL     1     123.054 134.770 114.768  1.00  0.00     0.293 HD
ENDBRANCH  16  19
ENDBRANCH   3  13
BRANCH  10  21
ATOM     21  O   UNL     1     133.761 135.329 111.069  1.00  0.00    -0.507 OA
ATOM     22  H   UNL     1     134.157 136.242 110.898  1.00  0.00     0.293 HD
ENDBRANCH  10  21
BRANCH  11  23
ATOM     23  O   UNL     1     134.691 133.973 115.562  1.00  0.00    -0.508 OA
ATOM     24  H   UNL     1     135.675 134.173 115.421  1.00  0.00     0.293 HD
ENDBRANCH  11  23
ENDBRANCH   1   2
BRANCH   1  25
ATOM     25  C   UNL     1     127.953 134.244 110.107  1.00  0.00     0.339 C 
ATOM     26  C   UNL     1     128.646 134.538 108.763  1.00  0.00     0.214 C 
ATOM     27  O   UNL     1     126.534 134.228 110.004  1.00  0.00    -0.332 OA
ATOM     28  C   UNL     1     128.122 135.852 108.161  1.00  0.00     0.180 C 
ATOM     29  C   UNL     1     125.957 135.409 109.455  1.00  0.00     0.179 C 
ATOM     30  C   UNL     1     126.586 135.851 108.103  1.00  0.00     0.177 C 
BRANCH  26  31
ATOM     31  O   UNL     1     128.506 133.457 107.870  1.00  0.00    -0.384 OA
ATOM     32  H   UNL     1     128.978 133.686 107.027  1.00  0.00     0.211 HD
ENDBRANCH  26  31
BRANCH  28  33
ATOM     33  O   UNL     1     128.684 136.090 106.893  1.00  0.00    -0.387 OA
ATOM     34  H   UNL     1     127.973 135.973 106.213  1.00  0.00     0.211 HD
ENDBRANCH  28  33
BRANCH  29  35
ATOM     35  C   UNL     1     125.757 136.522 110.512  1.00  0.00     0.191 C 
BRANCH  35  36
ATOM     36  O   UNL     1     126.542 137.654 110.257  1.00  0.00    -0.394 OA
ATOM     37  H   UNL     1     126.332 138.324 110.958  1.00  0.00     0.210 HD
ENDBRANCH  35  36
ENDBRANCH  29  35
BRANCH  30  38
ATOM     38  O   UNL     1     126.128 137.124 107.725  1.00  0.00    -0.387 OA
ATOM     39  H   UNL     1     126.932 137.690 107.591  1.00  0.00     0.211 HD
ENDBRANCH  30  38
ENDBRANCH   1  25
TORSDOF 11
ENDMDL
MODEL 9
REMARK VINA RESULT:    -8.776      3.865      8.175
REMARK INTER + INTRA:         -13.488
REMARK INTER:                 -12.156
REMARK INTRA:                  -1.332
REMARK UNBOUND:                -0.864
REMARK SMILES O=c1c(O[C@H]2O[C@@H](CO)[C@@H](O)[C@H](O)[C@@H]2O)c(-c2ccc(O)cc2)oc2cc(O)cc(O)c12
REMARK SMILES IDX 4 1 3 2 16 3 24 4 2 5 25 6 1 7 32 8 26 9 30 10 27 11 29 12
REMARK SMILES IDX 17 13 18 14 19 15 20 16 23 17 22 18 21 19 31 21 28 23 5 25
REMARK SMILES IDX 14 26 6 27 12 28 7 29 10 30 15 31 13 33 8 35 9 36 11 38
REMARK H PARENT 21 20 31 22 28 24 15 32 13 34 9 37 11 39
REMARK Flexibility Score: inf
ROOT
ATOM      1  O   UNL     1     129.580 134.433 112.600  1.00  0.00    -0.454 OA
ENDROOT
BRANCH   1   2
ATOM      2  C   UNL     1     128.200 134.546 112.840  1.00  0.00     0.214 A 
ATOM      3  C   UNL     1     127.737 134.556 114.168  1.00  0.00     0.180 A 
ATOM      4  O   UNL     1     126.435 134.639 114.417  1.00  0.00    -0.452 OA
ATOM      5  C   UNL     1     127.257 134.643 111.797  1.00  0.00     0.239 A 
ATOM      6  C   UNL     1     125.513 134.712 113.467  1.00  0.00     0.146 A 
ATOM      7  O   UNL     1     127.662 134.749 110.612  1.00  0.00    -0.285 OA
ATOM      8  C   UNL     1     125.874 134.679 112.097  1.00  0.00     0.111 A 
ATOM      9  C   UNL     1     124.173 134.832 113.847  1.00  0.00     0.094 A 
ATOM     10  C   UNL     1     124.834 134.717 111.119  1.00  0.00     0.134 A 
ATOM     11  C   UNL     1     123.171 134.932 112.882  1.00  0.00     0.123 A 
ATOM     12  C   UNL     1     123.505 134.879 111.530  1.00  0.00     0.093 A 
BRANCH   3  13
ATOM     13  C   UNL     1     128.656 134.432 115.321  1.00  0.00     0.021 A 
ATOM     14  C   UNL     1     128.319 133.576 116.383  1.00  0.00     0.016 A 
ATOM     15  C   UNL     1     129.171 133.445 117.484  1.00  0.00     0.047 A 
ATOM     16  C   UNL     1     130.363 134.179 117.543  1.00  0.00     0.115 A 
ATOM     17  C   UNL     1     129.843 135.182 115.399  1.00  0.00     0.016 A 
ATOM     18  C   UNL     1     130.694 135.048 116.500  1.00  0.00     0.047 A 
BRANCH  16  19
ATOM     19  O   UNL     1     131.221 134.055 118.634  1.00  0.00    -0.508 OA
ATOM     20  H   UNL     1     131.264 134.764 119.357  1.00  0.00     0.293 HD
ENDBRANCH  16  19
ENDBRANCH   3  13
BRANCH  10  21
ATOM     21  O   UNL     1     125.050 134.573 109.745  1.00  0.00    -0.507 OA
ATOM     22  H   UNL     1     125.957 134.462 109.315  1.00  0.00     0.293 HD
ENDBRANCH  10  21
BRANCH  11  23
ATOM     23  O   UNL     1     121.837 135.075 113.254  1.00  0.00    -0.508 OA
ATOM     24  H   UNL     1     121.575 135.509 114.132  1.00  0.00     0.293 HD
ENDBRANCH  11  23
ENDBRANCH   1   2
BRANCH   1  25
ATOM     25  C   UNL     1     130.245 133.243 112.169  1.00  0.00     0.339 C 
ATOM     26  C   UNL     1     131.380 132.891 113.148  1.00  0.00     0.214 C 
ATOM     27  O   UNL     1     130.690 133.341 110.821  1.00  0.00    -0.332 OA
ATOM     28  C   UNL     1     132.536 133.897 113.021  1.00  0.00     0.180 C 
ATOM     29  C   UNL     1     131.763 134.254 110.606  1.00  0.00     0.179 C 
ATOM     30  C   UNL     1     132.975 134.039 111.555  1.00  0.00     0.177 C 
BRANCH  26  31
ATOM     31  O   UNL     1     131.816 131.563 112.968  1.00  0.00    -0.384 OA
ATOM     32  H   UNL     1     131.231 130.968 113.505  1.00  0.00     0.211 HD
ENDBRANCH  26  31
BRANCH  28  33
ATOM     33  O   UNL     1     133.615 133.539 113.850  1.00  0.00    -0.387 OA
ATOM     34  H   UNL     1     133.755 134.269 114.506  1.00  0.00     0.211 HD
ENDBRANCH  28  33
BRANCH  29  35
ATOM     35  C   UNL     1     131.278 135.714 110.435  1.00  0.00     0.191 C 
BRANCH  35  36
ATOM     36  O   UNL     1     130.042 135.797 109.782  1.00  0.00    -0.394 OA
ATOM     37  H   UNL     1     129.359 135.416 110.393  1.00  0.00     0.210 HD
ENDBRANCH  35  36
ENDBRANCH  29  35
BRANCH  30  38
ATOM     38  O   UNL     1     133.899 135.092 111.440  1.00  0.00    -0.387 OA
ATOM     39  H   UNL     1     133.551 135.705 110.741  1.00  0.00     0.211 HD
ENDBRANCH  30  38
ENDBRANCH   1  25
TORSDOF 11
ENDMDL
