MODEL 1
REMARK VINA RESULT:    -5.426      0.000      0.000
REMARK INTER + INTRA:          -5.584
REMARK INTER:                  -5.584
REMARK INTRA:                   0.000
REMARK UNBOUND:                 0.000
REMARK SMILES O=c1ccc2cc(O)ccc2o1
REMARK SMILES IDX 9 1 10 2 11 3 5 4 4 5 3 6 2 7 1 8 12 9 6 10 7 11 8 12
REMARK H PARENT 8 13
REMARK Flexibility Score: inf
ROOT
ATOM      1  C   UNL     1      18.057  14.602  22.555  1.00  0.00     0.050 A 
ATOM      2  C   UNL     1      19.182  14.976  21.815  1.00  0.00     0.052 A 
ATOM      3  C   UNL     1      19.713  14.105  20.856  1.00  0.00     0.138 A 
ATOM      4  C   UNL     1      19.106  12.848  20.640  1.00  0.00     0.021 A 
ATOM      5  C   UNL     1      19.659  12.000  19.675  1.00  0.00     0.019 A 
ATOM      6  C   UNL     1      20.782  12.415  18.961  1.00  0.00     0.094 A 
ATOM      7  C   UNL     1      21.328  13.676  19.229  1.00  0.00     0.336 A 
ATOM      8  O   UNL     1      22.342  14.068  18.594  1.00  0.00    -0.246 OA
ATOM      9  O   UNL     1      20.783  14.463  20.151  1.00  0.00    -0.423 OA
ATOM     10  C   UNL     1      17.979  12.477  21.385  1.00  0.00     0.058 A 
ATOM     11  C   UNL     1      17.453  13.356  22.344  1.00  0.00     0.116 A 
ENDROOT
BRANCH  11  12
ATOM     12  O   UNL     1      16.333  13.002  23.093  1.00  0.00    -0.508 OA
ATOM     13  H   UNL     1      15.665  13.696  23.407  1.00  0.00     0.293 HD
ENDBRANCH  11  12
TORSDOF 1
ENDMDL
MODEL 2
REMARK VINA RESULT:    -5.236      0.855      4.765
REMARK INTER + INTRA:          -5.389
REMARK INTER:                  -5.389
REMARK INTRA:                   0.000
REMARK UNBOUND:                 0.000
REMARK SMILES O=c1ccc2cc(O)ccc2o1
REMARK SMILES IDX 9 1 10 2 11 3 5 4 4 5 3 6 2 7 1 8 12 9 6 10 7 11 8 12
REMARK H PARENT 8 13
REMARK Flexibility Score: inf
ROOT
ATOM      1  C   UNL     1      20.593  12.223  18.982  1.00  0.00     0.050 A 
ATOM      2  C   UNL     1      19.541  11.891  19.842  1.00  0.00     0.052 A 
ATOM      3  C   UNL     1      19.053  12.837  20.750  1.00  0.00     0.138 A 
ATOM      4  C   UNL     1      19.627  14.127  20.795  1.00  0.00     0.021 A 
ATOM      5  C   UNL     1      19.118  15.051  21.713  1.00  0.00     0.019 A 
ATOM      6  C   UNL     1      18.068  14.676  22.550  1.00  0.00     0.094 A 
ATOM      7  C   UNL     1      17.549  13.380  22.449  1.00  0.00     0.336 A 
ATOM      8  O   UNL     1      16.601  13.023  23.197  1.00  0.00    -0.246 OA
ATOM      9  O   UNL     1      18.051  12.521  21.567  1.00  0.00    -0.423 OA
ATOM     10  C   UNL     1      20.682  14.455  19.932  1.00  0.00     0.058 A 
ATOM     11  C   UNL     1      21.165  13.501  19.024  1.00  0.00     0.116 A 
ENDROOT
BRANCH  11  12
ATOM     12  O   UNL     1      22.213  13.811  18.159  1.00  0.00    -0.508 OA
ATOM     13  H   UNL     1      22.142  14.571  17.492  1.00  0.00     0.293 HD
ENDBRANCH  11  12
TORSDOF 1
ENDMDL
MODEL 3
REMARK VINA RESULT:    -5.143      1.293      4.379
REMARK INTER + INTRA:          -5.294
REMARK INTER:                  -5.294
REMARK INTRA:                   0.000
REMARK UNBOUND:                 0.000
REMARK SMILES O=c1ccc2cc(O)ccc2o1
REMARK SMILES IDX 9 1 10 2 11 3 5 4 4 5 3 6 2 7 1 8 12 9 6 10 7 11 8 12
REMARK H PARENT 8 13
REMARK Flexibility Score: inf
ROOT
ATOM      1  C   UNL     1      20.383  14.885  19.633  1.00  0.00     0.050 A 
ATOM      2  C   UNL     1      19.531  15.298  20.662  1.00  0.00     0.052 A 
ATOM      3  C   UNL     1      18.859  14.348  21.440  1.00  0.00     0.138 A 
ATOM      4  C   UNL     1      19.044  12.972  21.181  1.00  0.00     0.021 A 
ATOM      5  C   UNL     1      18.360  12.047  21.975  1.00  0.00     0.019 A 
ATOM      6  C   UNL     1      17.521  12.504  22.990  1.00  0.00     0.094 A 
ATOM      7  C   UNL     1      17.386  13.884  23.189  1.00  0.00     0.336 A 
ATOM      8  O   UNL     1      16.633  14.316  24.101  1.00  0.00    -0.246 OA
ATOM      9  O   UNL     1      18.049  14.742  22.420  1.00  0.00    -0.423 OA
ATOM     10  C   UNL     1      19.899  12.563  20.148  1.00  0.00     0.058 A 
ATOM     11  C   UNL     1      20.569  13.521  19.373  1.00  0.00     0.116 A 
ENDROOT
BRANCH  11  12
ATOM     12  O   UNL     1      21.422  13.131  18.343  1.00  0.00    -0.508 OA
ATOM     13  H   UNL     1      21.064  12.735  17.481  1.00  0.00     0.293 HD
ENDBRANCH  11  12
TORSDOF 1
ENDMDL
MODEL 4
REMARK VINA RESULT:    -5.140      2.538      3.184
REMARK INTER + INTRA:          -5.290
REMARK INTER:                  -5.290
REMARK INTRA:                   0.000
REMARK UNBOUND:                 0.000
REMARK SMILES O=c1ccc2cc(O)ccc2o1
REMARK SMILES IDX 9 1 10 2 11 3 5 4 4 5 3 6 2 7 1 8 12 9 6 10 7 11 8 12
REMARK H PARENT 8 13
REMARK Flexibility Score: inf
ROOT
ATOM      1  C   UNL     1      20.820  14.763  22.078  1.00  0.00     0.050 A 
ATOM      2  C   UNL     1      22.019  14.064  21.910  1.00  0.00     0.052 A 
ATOM      3  C   UNL     1      22.410  13.637  20.636  1.00  0.00     0.138 A 
ATOM      4  C   UNL     1      21.588  13.915  19.522  1.00  0.00     0.021 A 
ATOM      5  C   UNL     1      22.005  13.475  18.261  1.00  0.00     0.019 A 
ATOM      6  C   UNL     1      23.209  12.782  18.142  1.00  0.00     0.094 A 
ATOM      7  C   UNL     1      23.972  12.544  19.291  1.00  0.00     0.336 A 
ATOM      8  O   UNL     1      25.061  11.919  19.203  1.00  0.00    -0.246 OA
ATOM      9  O   UNL     1      23.553  12.973  20.478  1.00  0.00    -0.423 OA
ATOM     10  C   UNL     1      20.386  14.615  19.695  1.00  0.00     0.058 A 
ATOM     11  C   UNL     1      20.002  15.040  20.976  1.00  0.00     0.116 A 
ENDROOT
BRANCH  11  12
ATOM     12  O   UNL     1      18.811  15.737  21.164  1.00  0.00    -0.508 OA
ATOM     13  H   UNL     1      17.911  15.308  20.979  1.00  0.00     0.293 HD
ENDBRANCH  11  12
TORSDOF 1
ENDMDL
MODEL 5
REMARK VINA RESULT:    -4.936      1.304      2.124
REMARK INTER + INTRA:          -5.081
REMARK INTER:                  -5.081
REMARK INTRA:                   0.000
REMARK UNBOUND:                 0.000
REMARK SMILES O=c1ccc2cc(O)ccc2o1
REMARK SMILES IDX 9 1 10 2 11 3 5 4 4 5 3 6 2 7 1 8 12 9 6 10 7 11 8 12
REMARK H PARENT 8 13
REMARK Flexibility Score: inf
ROOT
ATOM      1  C   UNL     1      17.462  12.992  22.071  1.00  0.00     0.050 A 
ATOM      2  C   UNL     1      18.114  12.264  21.071  1.00  0.00     0.052 A 
ATOM      3  C   UNL     1      19.231  12.806  20.424  1.00  0.00     0.138 A 
ATOM      4  C   UNL     1      19.695  14.089  20.786  1.00  0.00     0.021 A 
ATOM      5  C   UNL     1      20.813  14.604  20.122  1.00  0.00     0.019 A 
ATOM      6  C   UNL     1      21.432  13.843  19.131  1.00  0.00     0.094 A 
ATOM      7  C   UNL     1      20.915  12.578  18.827  1.00  0.00     0.336 A 
ATOM      8  O   UNL     1      21.460  11.875  17.935  1.00  0.00    -0.246 OA
ATOM      9  O   UNL     1      19.851  12.111  19.473  1.00  0.00    -0.423 OA
ATOM     10  C   UNL     1      19.038  14.816  21.788  1.00  0.00     0.058 A 
ATOM     11  C   UNL     1      17.920  14.266  22.432  1.00  0.00     0.116 A 
ENDROOT
BRANCH  11  12
ATOM     12  O   UNL     1      17.255  14.975  23.431  1.00  0.00    -0.508 OA
ATOM     13  H   UNL     1      17.559  15.899  23.715  1.00  0.00     0.293 HD
ENDBRANCH  11  12
TORSDOF 1
ENDMDL
MODEL 6
REMARK VINA RESULT:    -4.852      1.915      4.968
REMARK INTER + INTRA:          -4.994
REMARK INTER:                  -4.994
REMARK INTRA:                   0.000
REMARK UNBOUND:                 0.000
REMARK SMILES O=c1ccc2cc(O)ccc2o1
REMARK SMILES IDX 9 1 10 2 11 3 5 4 4 5 3 6 2 7 1 8 12 9 6 10 7 11 8 12
REMARK H PARENT 8 13
REMARK Flexibility Score: inf
ROOT
ATOM      1  C   UNL     1      23.514  13.055  18.398  1.00  0.00     0.050 A 
ATOM      2  C   UNL     1      22.996  13.457  19.633  1.00  0.00     0.052 A 
ATOM      3  C   UNL     1      21.705  13.072  20.012  1.00  0.00     0.138 A 
ATOM      4  C   UNL     1      20.928  12.276  19.141  1.00  0.00     0.021 A 
ATOM      5  C   UNL     1      19.642  11.906  19.546  1.00  0.00     0.019 A 
ATOM      6  C   UNL     1      19.167  12.330  20.787  1.00  0.00     0.094 A 
ATOM      7  C   UNL     1      19.994  13.117  21.597  1.00  0.00     0.336 A 
ATOM      8  O   UNL     1      19.583  13.510  22.721  1.00  0.00    -0.246 OA
ATOM      9  O   UNL     1      21.214  13.454  21.188  1.00  0.00    -0.423 OA
ATOM     10  C   UNL     1      21.451  11.875  17.904  1.00  0.00     0.058 A 
ATOM     11  C   UNL     1      22.747  12.266  17.532  1.00  0.00     0.116 A 
ENDROOT
BRANCH  11  12
ATOM     12  O   UNL     1      23.281  11.876  16.306  1.00  0.00    -0.508 OA
ATOM     13  H   UNL     1      23.659  12.554  15.654  1.00  0.00     0.293 HD
ENDBRANCH  11  12
TORSDOF 1
ENDMDL
MODEL 7
REMARK VINA RESULT:    -4.791      2.380      2.964
REMARK INTER + INTRA:          -4.931
REMARK INTER:                  -4.931
REMARK INTRA:                   0.000
REMARK UNBOUND:                 0.000
REMARK SMILES O=c1ccc2cc(O)ccc2o1
REMARK SMILES IDX 9 1 10 2 11 3 5 4 4 5 3 6 2 7 1 8 12 9 6 10 7 11 8 12
REMARK H PARENT 8 13
REMARK Flexibility Score: inf
ROOT
ATOM      1  C   UNL     1      19.500  15.371  20.511  1.00  0.00     0.050 A 
ATOM      2  C   UNL     1      20.159  14.874  19.382  1.00  0.00     0.052 A 
ATOM      3  C   UNL     1      21.342  14.142  19.526  1.00  0.00     0.138 A 
ATOM      4  C   UNL     1      21.868  13.907  20.815  1.00  0.00     0.021 A 
ATOM      5  C   UNL     1      23.053  13.172  20.927  1.00  0.00     0.019 A 
ATOM      6  C   UNL     1      23.675  12.696  19.774  1.00  0.00     0.094 A 
ATOM      7  C   UNL     1      23.095  12.968  18.529  1.00  0.00     0.336 A 
ATOM      8  O   UNL     1      23.642  12.547  17.476  1.00  0.00    -0.246 OA
ATOM      9  O   UNL     1      21.968  13.669  18.450  1.00  0.00    -0.423 OA
ATOM     10  C   UNL     1      21.205  14.407  21.944  1.00  0.00     0.058 A 
ATOM     11  C   UNL     1      20.019  15.140  21.792  1.00  0.00     0.116 A 
ENDROOT
BRANCH  11  12
ATOM     12  O   UNL     1      19.348  15.644  22.903  1.00  0.00    -0.508 OA
ATOM     13  H   UNL     1      19.651  16.494  23.365  1.00  0.00     0.293 HD
ENDBRANCH  11  12
TORSDOF 1
ENDMDL
MODEL 8
REMARK VINA RESULT:    -4.735      1.601      4.494
REMARK INTER + INTRA:          -4.873
REMARK INTER:                  -4.873
REMARK INTRA:                   0.000
REMARK UNBOUND:                 0.000
REMARK SMILES O=c1ccc2cc(O)ccc2o1
REMARK SMILES IDX 9 1 10 2 11 3 5 4 4 5 3 6 2 7 1 8 12 9 6 10 7 11 8 12
REMARK H PARENT 8 13
REMARK Flexibility Score: inf
ROOT
ATOM      1  C   UNL     1      22.294  13.762  20.542  1.00  0.00     0.050 A 
ATOM      2  C   UNL     1      21.682  13.446  21.759  1.00  0.00     0.052 A 
ATOM      3  C   UNL     1      20.301  13.227  21.813  1.00  0.00     0.138 A 
ATOM      4  C   UNL     1      19.529  13.327  20.635  1.00  0.00     0.021 A 
ATOM      5  C   UNL     1      18.151  13.104  20.720  1.00  0.00     0.019 A 
ATOM      6  C   UNL     1      17.584  12.791  21.954  1.00  0.00     0.094 A 
ATOM      7  C   UNL     1      18.412  12.708  23.080  1.00  0.00     0.336 A 
ATOM      8  O   UNL     1      17.918  12.427  24.204  1.00  0.00    -0.246 OA
ATOM      9  O   UNL     1      19.719  12.926  22.972  1.00  0.00    -0.423 OA
ATOM     10  C   UNL     1      20.147  13.646  19.417  1.00  0.00     0.058 A 
ATOM     11  C   UNL     1      21.532  13.863  19.371  1.00  0.00     0.116 A 
ENDROOT
BRANCH  11  12
ATOM     12  O   UNL     1      22.162  14.179  18.170  1.00  0.00    -0.508 OA
ATOM     13  H   UNL     1      23.087  14.593  18.149  1.00  0.00     0.293 HD
ENDBRANCH  11  12
TORSDOF 1
ENDMDL
MODEL 9
REMARK VINA RESULT:    -4.669      2.248      4.785
REMARK INTER + INTRA:          -4.806
REMARK INTER:                  -4.806
REMARK INTRA:                   0.000
REMARK UNBOUND:                 0.000
REMARK SMILES O=c1ccc2cc(O)ccc2o1
REMARK SMILES IDX 9 1 10 2 11 3 5 4 4 5 3 6 2 7 1 8 12 9 6 10 7 11 8 12
REMARK H PARENT 8 13
REMARK Flexibility Score: inf
ROOT
ATOM      1  C   UNL     1      22.844  13.517  20.038  1.00  0.00     0.050 A 
ATOM      2  C   UNL     1      22.579  13.722  21.396  1.00  0.00     0.052 A 
ATOM      3  C   UNL     1      21.351  14.260  21.798  1.00  0.00     0.138 A 
ATOM      4  C   UNL     1      20.382  14.595  20.827  1.00  0.00     0.021 A 
ATOM      5  C   UNL     1      19.165  15.132  21.258  1.00  0.00     0.019 A 
ATOM      6  C   UNL     1      18.945  15.318  22.623  1.00  0.00     0.094 A 
ATOM      7  C   UNL     1      19.952  14.961  23.527  1.00  0.00     0.336 A 
ATOM      8  O   UNL     1      19.771  15.122  24.763  1.00  0.00    -0.246 OA
ATOM      9  O   UNL     1      21.100  14.453  23.090  1.00  0.00    -0.423 OA
ATOM     10  C   UNL     1      20.653  14.390  19.467  1.00  0.00     0.058 A 
ATOM     11  C   UNL     1      21.886  13.849  19.072  1.00  0.00     0.116 A 
ENDROOT
BRANCH  11  12
ATOM     12  O   UNL     1      22.170  13.638  17.725  1.00  0.00    -0.508 OA
ATOM     13  H   UNL     1      22.305  12.705  17.352  1.00  0.00     0.293 HD
ENDBRANCH  11  12
TORSDOF 1
ENDMDL
