MODEL 1
REMARK VINA RESULT:     6.843      0.000      0.000
REMARK INTER + INTRA:           9.517
REMARK INTER:                   9.643
REMARK INTRA:                  -0.126
REMARK UNBOUND:                -0.126
REMARK SMILES COc1c(O[C@H]2O[C@H](C(=O)[O-])[C@@H](O)[C@H](O)[C@H]2O)cc(O)c2c(=O)cc(-c3ccccc3)oc12
REMARK SMILES IDX 5 1 6 2 8 3 12 4 7 5 14 6 16 7 9 8 10 9 11 10 13 11 15 13
REMARK SMILES IDX 17 15 4 17 3 18 18 19 33 20 19 21 21 22 32 23 22 24 25 25
REMARK SMILES IDX 24 26 23 27 2 28 1 29 20 30 26 32 27 33 31 34 28 35 30 36
REMARK SMILES IDX 29 37
REMARK H PARENT 13 12 15 14 17 16 20 31
REMARK Flexibility Score: inf
ROOT
ATOM      1  O   UNL     1     134.975  54.460  28.197  1.00  0.00    -0.458 OA
ENDROOT
BRANCH   1   2
ATOM      2  C   UNL     1     133.879  54.584  29.117  1.00  0.00     0.339 C 
ATOM      3  C   UNL     1     135.072  53.449  30.796  1.00  0.00     0.199 C 
ATOM      4  C   UNL     1     135.228  54.725  31.659  1.00  0.00     0.180 C 
ATOM      5  O   UNL     1     133.878  53.494  30.028  1.00  0.00    -0.328 OA
ATOM      6  C   UNL     1     135.177  55.979  30.773  1.00  0.00     0.181 C 
ATOM      7  C   UNL     1     133.924  55.927  29.885  1.00  0.00     0.214 C 
BRANCH   3   8
ATOM      8  C   UNL     1     135.016  52.240  31.682  1.00  0.00     0.073 C 
ATOM      9  O   UNL     1     134.521  51.162  31.255  1.00  0.00    -0.547 OA
ATOM     10  O   UNL     1     135.534  52.293  32.970  1.00  0.00    -0.547 OA
ENDBRANCH   3   8
BRANCH   4  11
ATOM     11  O   UNL     1     136.423  54.695  32.401  1.00  0.00    -0.387 OA
ATOM     12  H   UNL     1     136.179  54.618  33.361  1.00  0.00     0.211 HD
ENDBRANCH   4  11
BRANCH   6  13
ATOM     13  O   UNL     1     135.142  57.123  31.587  1.00  0.00    -0.387 OA
ATOM     14  H   UNL     1     135.379  56.831  32.505  1.00  0.00     0.211 HD
ENDBRANCH   6  13
BRANCH   7  15
ATOM     15  O   UNL     1     133.933  57.013  28.998  1.00  0.00    -0.384 OA
ATOM     16  H   UNL     1     134.419  56.716  28.185  1.00  0.00     0.211 HD
ENDBRANCH   7  15
ENDBRANCH   1   2
BRANCH   1  17
ATOM     17  C   UNL     1     135.231  53.351  27.373  1.00  0.00     0.172 A 
ATOM     18  C   UNL     1     134.964  53.472  26.005  1.00  0.00     0.205 A 
ATOM     19  C   UNL     1     135.752  52.156  27.883  1.00  0.00     0.097 A 
ATOM     20  C   UNL     1     135.149  52.353  25.154  1.00  0.00     0.188 A 
ATOM     21  C   UNL     1     136.002  51.063  27.055  1.00  0.00     0.134 A 
ATOM     22  C   UNL     1     135.650  51.127  25.679  1.00  0.00     0.111 A 
ATOM     23  O   UNL     1     134.845  52.446  23.861  1.00  0.00    -0.452 OA
ATOM     24  C   UNL     1     135.733  50.029  24.789  1.00  0.00     0.197 A 
ATOM     25  C   UNL     1     134.970  51.446  22.995  1.00  0.00     0.138 A 
ATOM     26  C   UNL     1     135.418  50.200  23.444  1.00  0.00     0.100 A 
ATOM     27  O   UNL     1     136.044  48.875  25.180  1.00  0.00    -0.289 OA
BRANCH  18  28
ATOM     28  O   UNL     1     134.505  54.727  25.565  1.00  0.00    -0.490 OA
ATOM     29  C   UNL     1     133.951  55.029  24.289  1.00  0.00     0.278 C 
ENDBRANCH  18  28
BRANCH  21  30
ATOM     30  O   UNL     1     136.626  49.961  27.650  1.00  0.00    -0.507 OA
ATOM     31  H   UNL     1     137.622  49.805  27.673  1.00  0.00     0.293 HD
ENDBRANCH  21  30
BRANCH  25  32
ATOM     32  C   UNL     1     134.599  51.665  21.577  1.00  0.00     0.017 A 
ATOM     33  C   UNL     1     134.284  52.950  21.090  1.00  0.00     0.012 A 
ATOM     34  C   UNL     1     134.549  50.573  20.692  1.00  0.00     0.012 A 
ATOM     35  C   UNL     1     133.944  53.134  19.746  1.00  0.00     0.001 A 
ATOM     36  C   UNL     1     134.210  50.762  19.349  1.00  0.00     0.001 A 
ATOM     37  C   UNL     1     133.910  52.043  18.876  1.00  0.00     0.000 A 
ENDBRANCH  25  32
ENDBRANCH   1  17
TORSDOF 9
ENDMDL
