MODEL 1
REMARK VINA RESULT:    -5.745      0.000      0.000
REMARK INTER + INTRA:          -8.578
REMARK INTER:                  -7.089
REMARK INTRA:                  -1.489
REMARK UNBOUND:                -1.489
REMARK SMILES CC(C)=CCC[C@H](C)c1ccc(C)cc1
REMARK SMILES IDX 6 1 7 2 8 3 9 4 13 5 12 6 11 7 14 8 10 9 15 10 5 11 4 12
REMARK SMILES IDX 2 13 1 14 3 15
REMARK H PARENT
REMARK Flexibility Score: inf
ROOT
ATOM      1  C   UNL     1       5.690   3.930  19.282  1.00  0.00     0.012 C 
ENDROOT
BRANCH   1   2
ATOM      2  C   UNL     1       7.060   4.364  19.857  1.00  0.00     0.016 C 
ATOM      3  C   UNL     1       6.975   4.548  21.379  1.00  0.00     0.013 C 
BRANCH   2   4
ATOM      4  C   UNL     1       7.585   5.627  19.196  1.00  0.00    -0.045 A 
ATOM      5  C   UNL     1       9.053   9.243  17.346  1.00  0.00     0.044 C 
ATOM      6  C   UNL     1       8.560   7.992  18.012  1.00  0.00    -0.051 A 
ATOM      7  C   UNL     1       9.217   6.771  17.796  1.00  0.00     0.004 A 
ATOM      8  C   UNL     1       7.401   8.021  18.801  1.00  0.00     0.004 A 
ATOM      9  C   UNL     1       8.738   5.600  18.389  1.00  0.00     0.004 A 
ATOM     10  C   UNL     1       6.922   6.850  19.393  1.00  0.00     0.004 A 
ENDBRANCH   2   4
ENDBRANCH   1   2
BRANCH   1  11
ATOM     11  C   UNL     1       5.658   3.865  17.745  1.00  0.00     0.028 C 
BRANCH  11  12
ATOM     12  C   UNL     1       4.674   4.846  17.152  1.00  0.00    -0.028 C 
ATOM     13  C   UNL     1       4.977   5.758  16.203  1.00  0.00    -0.080 C 
ATOM     14  C   UNL     1       6.352   5.848  15.586  1.00  0.00     0.039 C 
ATOM     15  C   UNL     1       3.892   6.696  15.738  1.00  0.00     0.039 C 
ENDBRANCH  11  12
ENDBRANCH   1  11
TORSDOF 4
ENDMDL
MODEL 2
REMARK VINA RESULT:    -5.621      2.144      3.329
REMARK INTER + INTRA:          -8.425
REMARK INTER:                  -7.839
REMARK INTRA:                  -0.586
REMARK UNBOUND:                -1.489
REMARK SMILES CC(C)=CCC[C@H](C)c1ccc(C)cc1
REMARK SMILES IDX 6 1 7 2 8 3 9 4 13 5 12 6 11 7 14 8 10 9 15 10 5 11 4 12
REMARK SMILES IDX 2 13 1 14 3 15
REMARK H PARENT
REMARK Flexibility Score: inf
ROOT
ATOM      1  C   UNL     1       5.263   3.905  18.051  1.00  0.00     0.012 C 
ENDROOT
BRANCH   1   2
ATOM      2  C   UNL     1       6.585   4.139  18.822  1.00  0.00     0.016 C 
ATOM      3  C   UNL     1       6.350   4.063  20.337  1.00  0.00     0.013 C 
BRANCH   2   4
ATOM      4  C   UNL     1       7.240   5.459  18.450  1.00  0.00    -0.045 A 
ATOM      5  C   UNL     1       9.083   9.229  17.430  1.00  0.00     0.044 C 
ATOM      6  C   UNL     1       8.464   7.915  17.805  1.00  0.00    -0.051 A 
ATOM      7  C   UNL     1       8.843   6.740  17.139  1.00  0.00     0.004 A 
ATOM      8  C   UNL     1       7.454   7.861  18.776  1.00  0.00     0.004 A 
ATOM      9  C   UNL     1       8.241   5.521  17.463  1.00  0.00     0.004 A 
ATOM     10  C   UNL     1       6.852   6.643  19.100  1.00  0.00     0.004 A 
ENDBRANCH   2   4
ENDBRANCH   1   2
BRANCH   1  11
ATOM     11  C   UNL     1       4.875   2.421  17.928  1.00  0.00     0.028 C 
BRANCH  11  12
ATOM     12  C   UNL     1       5.969   1.596  17.293  1.00  0.00    -0.028 C 
ATOM     13  C   UNL     1       5.999   0.245  17.273  1.00  0.00    -0.080 C 
ATOM     14  C   UNL     1       4.880  -0.591  17.849  1.00  0.00     0.039 C 
ATOM     15  C   UNL     1       7.180  -0.437  16.631  1.00  0.00     0.039 C 
ENDBRANCH  11  12
ENDBRANCH   1  11
TORSDOF 4
ENDMDL
MODEL 3
REMARK VINA RESULT:    -5.589      2.078      3.272
REMARK INTER + INTRA:          -8.384
REMARK INTER:                  -7.838
REMARK INTRA:                  -0.547
REMARK UNBOUND:                -1.489
REMARK SMILES CC(C)=CCC[C@H](C)c1ccc(C)cc1
REMARK SMILES IDX 6 1 7 2 8 3 9 4 13 5 12 6 11 7 14 8 10 9 15 10 5 11 4 12
REMARK SMILES IDX 2 13 1 14 3 15
REMARK H PARENT
REMARK Flexibility Score: inf
ROOT
ATOM      1  C   UNL     1       5.482   4.689  19.654  1.00  0.00     0.012 C 
ENDROOT
BRANCH   1   2
ATOM      2  C   UNL     1       6.826   5.345  19.255  1.00  0.00     0.016 C 
ATOM      3  C   UNL     1       8.008   4.540  19.811  1.00  0.00     0.013 C 
BRANCH   2   4
ATOM      4  C   UNL     1       6.911   6.794  19.703  1.00  0.00    -0.045 A 
ATOM      5  C   UNL     1       7.154  10.928  20.930  1.00  0.00     0.044 C 
ATOM      6  C   UNL     1       7.042   9.497  20.496  1.00  0.00    -0.051 A 
ATOM      7  C   UNL     1       6.651   8.509  21.412  1.00  0.00     0.004 A 
ATOM      8  C   UNL     1       7.391   9.125  19.190  1.00  0.00     0.004 A 
ATOM      9  C   UNL     1       6.579   7.171  21.018  1.00  0.00     0.004 A 
ATOM     10  C   UNL     1       7.320   7.787  18.795  1.00  0.00     0.004 A 
ENDBRANCH   2   4
ENDBRANCH   1   2
BRANCH   1  11
ATOM     11  C   UNL     1       4.748   4.021  18.478  1.00  0.00     0.028 C 
BRANCH  11  12
ATOM     12  C   UNL     1       5.034   2.540  18.394  1.00  0.00    -0.028 C 
ATOM     13  C   UNL     1       5.079   1.831  17.245  1.00  0.00    -0.080 C 
ATOM     14  C   UNL     1       4.898   2.481  15.893  1.00  0.00     0.039 C 
ATOM     15  C   UNL     1       5.340   0.349  17.326  1.00  0.00     0.039 C 
ENDBRANCH  11  12
ENDBRANCH   1  11
TORSDOF 4
ENDMDL
MODEL 4
REMARK VINA RESULT:    -5.581      1.121      4.497
REMARK INTER + INTRA:          -8.375
REMARK INTER:                  -7.324
REMARK INTRA:                  -1.051
REMARK UNBOUND:                -1.489
REMARK SMILES CC(C)=CCC[C@H](C)c1ccc(C)cc1
REMARK SMILES IDX 6 1 7 2 8 3 9 4 13 5 12 6 11 7 14 8 10 9 15 10 5 11 4 12
REMARK SMILES IDX 2 13 1 14 3 15
REMARK H PARENT
REMARK Flexibility Score: inf
ROOT
ATOM      1  C   UNL     1       9.331   5.740  17.917  1.00  0.00     0.012 C 
ENDROOT
BRANCH   1   2
ATOM      2  C   UNL     1       8.650   6.914  17.172  1.00  0.00     0.016 C 
ATOM      3  C   UNL     1       8.781   8.215  17.976  1.00  0.00     0.013 C 
BRANCH   2   4
ATOM      4  C   UNL     1       7.191   6.626  16.860  1.00  0.00    -0.045 A 
ATOM      5  C   UNL     1       3.032   5.842  15.997  1.00  0.00     0.044 C 
ATOM      6  C   UNL     1       4.476   6.138  16.278  1.00  0.00    -0.051 A 
ATOM      7  C   UNL     1       5.483   5.526  15.517  1.00  0.00     0.004 A 
ATOM      8  C   UNL     1       4.832   6.974  17.346  1.00  0.00     0.004 A 
ATOM      9  C   UNL     1       6.829   5.773  15.800  1.00  0.00     0.004 A 
ATOM     10  C   UNL     1       6.178   7.221  17.630  1.00  0.00     0.004 A 
ENDBRANCH   2   4
ENDBRANCH   1   2
BRANCH   1  11
ATOM     11  C   UNL     1       8.349   4.646  18.371  1.00  0.00     0.028 C 
BRANCH  11  12
ATOM     12  C   UNL     1       8.013   4.754  19.840  1.00  0.00    -0.028 C 
ATOM     13  C   UNL     1       6.788   4.537  20.365  1.00  0.00    -0.080 C 
ATOM     14  C   UNL     1       5.618   4.096  19.517  1.00  0.00     0.039 C 
ATOM     15  C   UNL     1       6.600   4.722  21.849  1.00  0.00     0.039 C 
ENDBRANCH  11  12
ENDBRANCH   1  11
TORSDOF 4
ENDMDL
MODEL 5
REMARK VINA RESULT:    -5.530      1.780      2.790
REMARK INTER + INTRA:          -8.312
REMARK INTER:                  -7.483
REMARK INTRA:                  -0.829
REMARK UNBOUND:                -1.489
REMARK SMILES CC(C)=CCC[C@H](C)c1ccc(C)cc1
REMARK SMILES IDX 6 1 7 2 8 3 9 4 13 5 12 6 11 7 14 8 10 9 15 10 5 11 4 12
REMARK SMILES IDX 2 13 1 14 3 15
REMARK H PARENT
REMARK Flexibility Score: inf
ROOT
ATOM      1  C   UNL     1       6.208   4.168  19.494  1.00  0.00     0.012 C 
ENDROOT
BRANCH   1   2
ATOM      2  C   UNL     1       6.989   5.171  18.610  1.00  0.00     0.016 C 
ATOM      3  C   UNL     1       8.419   4.674  18.361  1.00  0.00     0.013 C 
BRANCH   2   4
ATOM      4  C   UNL     1       7.006   6.568  19.207  1.00  0.00    -0.045 A 
ATOM      5  C   UNL     1       7.052  10.521  20.945  1.00  0.00     0.044 C 
ATOM      6  C   UNL     1       7.064   9.144  20.351  1.00  0.00    -0.051 A 
ATOM      7  C   UNL     1       7.459   8.953  19.018  1.00  0.00     0.004 A 
ATOM      8  C   UNL     1       6.617   8.047  21.100  1.00  0.00     0.004 A 
ATOM      9  C   UNL     1       7.438   7.676  18.453  1.00  0.00     0.004 A 
ATOM     10  C   UNL     1       6.594   6.769  20.535  1.00  0.00     0.004 A 
ENDBRANCH   2   4
ENDBRANCH   1   2
BRANCH   1  11
ATOM     11  C   UNL     1       4.824   3.797  18.933  1.00  0.00     0.028 C 
BRANCH  11  12
ATOM     12  C   UNL     1       4.781   3.871  17.425  1.00  0.00    -0.028 C 
ATOM     13  C   UNL     1       4.795   2.799  16.603  1.00  0.00    -0.080 C 
ATOM     14  C   UNL     1       4.795   1.384  17.130  1.00  0.00     0.039 C 
ATOM     15  C   UNL     1       4.786   3.036  15.114  1.00  0.00     0.039 C 
ENDBRANCH  11  12
ENDBRANCH   1  11
TORSDOF 4
ENDMDL
MODEL 6
REMARK VINA RESULT:    -5.522      1.492      2.217
REMARK INTER + INTRA:          -8.302
REMARK INTER:                  -7.113
REMARK INTRA:                  -1.189
REMARK UNBOUND:                -1.489
REMARK SMILES CC(C)=CCC[C@H](C)c1ccc(C)cc1
REMARK SMILES IDX 6 1 7 2 8 3 9 4 13 5 12 6 11 7 14 8 10 9 15 10 5 11 4 12
REMARK SMILES IDX 2 13 1 14 3 15
REMARK H PARENT
REMARK Flexibility Score: inf
ROOT
ATOM      1  C   UNL     1       5.899   4.278  19.825  1.00  0.00     0.012 C 
ENDROOT
BRANCH   1   2
ATOM      2  C   UNL     1       7.163   5.037  19.355  1.00  0.00     0.016 C 
ATOM      3  C   UNL     1       8.430   4.386  19.926  1.00  0.00     0.013 C 
BRANCH   2   4
ATOM      4  C   UNL     1       7.113   6.512  19.716  1.00  0.00    -0.045 A 
ATOM      5  C   UNL     1       6.967  10.694  20.788  1.00  0.00     0.044 C 
ATOM      6  C   UNL     1       7.045   9.240  20.427  1.00  0.00    -0.051 A 
ATOM      7  C   UNL     1       7.515   8.850  19.164  1.00  0.00     0.004 A 
ATOM      8  C   UNL     1       6.587   8.263  21.323  1.00  0.00     0.004 A 
ATOM      9  C   UNL     1       7.555   7.498  18.814  1.00  0.00     0.004 A 
ATOM     10  C   UNL     1       6.627   6.911  20.973  1.00  0.00     0.004 A 
ENDBRANCH   2   4
ENDBRANCH   1   2
BRANCH   1  11
ATOM     11  C   UNL     1       4.908   3.966  18.689  1.00  0.00     0.028 C 
BRANCH  11  12
ATOM     12  C   UNL     1       5.420   4.423  17.344  1.00  0.00    -0.028 C 
ATOM     13  C   UNL     1       5.063   5.576  16.737  1.00  0.00    -0.080 C 
ATOM     14  C   UNL     1       4.137   6.574  17.393  1.00  0.00     0.039 C 
ATOM     15  C   UNL     1       5.631   5.876  15.374  1.00  0.00     0.039 C 
ENDBRANCH  11  12
ENDBRANCH   1  11
TORSDOF 4
ENDMDL
MODEL 7
REMARK VINA RESULT:    -5.500      1.851      4.112
REMARK INTER + INTRA:          -8.275
REMARK INTER:                  -6.855
REMARK INTRA:                  -1.420
REMARK UNBOUND:                -1.489
REMARK SMILES CC(C)=CCC[C@H](C)c1ccc(C)cc1
REMARK SMILES IDX 6 1 7 2 8 3 9 4 13 5 12 6 11 7 14 8 10 9 15 10 5 11 4 12
REMARK SMILES IDX 2 13 1 14 3 15
REMARK H PARENT
REMARK Flexibility Score: inf
ROOT
ATOM      1  C   UNL     1       5.374   6.890  21.776  1.00  0.00     0.012 C 
ENDROOT
BRANCH   1   2
ATOM      2  C   UNL     1       5.458   5.466  21.174  1.00  0.00     0.016 C 
ATOM      3  C   UNL     1       6.573   4.657  21.850  1.00  0.00     0.013 C 
BRANCH   2   4
ATOM      4  C   UNL     1       5.657   5.492  19.668  1.00  0.00    -0.045 A 
ATOM      5  C   UNL     1       6.194   5.603  15.384  1.00  0.00     0.044 C 
ATOM      6  C   UNL     1       6.025   5.588  16.874  1.00  0.00    -0.051 A 
ATOM      7  C   UNL     1       6.874   4.806  17.673  1.00  0.00     0.004 A 
ATOM      8  C   UNL     1       4.978   6.301  17.475  1.00  0.00     0.004 A 
ATOM      9  C   UNL     1       6.696   4.764  19.058  1.00  0.00     0.004 A 
ATOM     10  C   UNL     1       4.799   6.258  18.860  1.00  0.00     0.004 A 
ENDBRANCH   2   4
ENDBRANCH   1   2
BRANCH   1  11
ATOM     11  C   UNL     1       6.711   7.650  21.752  1.00  0.00     0.028 C 
BRANCH  11  12
ATOM     12  C   UNL     1       6.577   9.023  21.138  1.00  0.00    -0.028 C 
ATOM     13  C   UNL     1       7.058   9.373  19.925  1.00  0.00    -0.080 C 
ATOM     14  C   UNL     1       7.744   8.379  19.017  1.00  0.00     0.039 C 
ATOM     15  C   UNL     1       6.877  10.797  19.465  1.00  0.00     0.039 C 
ENDBRANCH  11  12
ENDBRANCH   1  11
TORSDOF 4
ENDMDL
MODEL 8
REMARK VINA RESULT:    -5.450      1.585      4.829
REMARK INTER + INTRA:          -8.214
REMARK INTER:                  -7.056
REMARK INTRA:                  -1.158
REMARK UNBOUND:                -1.489
REMARK SMILES CC(C)=CCC[C@H](C)c1ccc(C)cc1
REMARK SMILES IDX 6 1 7 2 8 3 9 4 13 5 12 6 11 7 14 8 10 9 15 10 5 11 4 12
REMARK SMILES IDX 2 13 1 14 3 15
REMARK H PARENT
REMARK Flexibility Score: inf
ROOT
ATOM      1  C   UNL     1       8.239   8.024  17.937  1.00  0.00     0.012 C 
ENDROOT
BRANCH   1   2
ATOM      2  C   UNL     1       8.248   6.509  18.255  1.00  0.00     0.016 C 
ATOM      3  C   UNL     1       9.652   5.922  18.053  1.00  0.00     0.013 C 
BRANCH   2   4
ATOM      4  C   UNL     1       7.227   5.745  17.430  1.00  0.00    -0.045 A 
ATOM      5  C   UNL     1       4.337   3.594  15.047  1.00  0.00     0.044 C 
ATOM      6  C   UNL     1       5.363   4.324  15.862  1.00  0.00    -0.051 A 
ATOM      7  C   UNL     1       5.689   3.876  17.151  1.00  0.00     0.004 A 
ATOM      8  C   UNL     1       5.952   5.498  15.371  1.00  0.00     0.004 A 
ATOM      9  C   UNL     1       6.619   4.576  17.925  1.00  0.00     0.004 A 
ATOM     10  C   UNL     1       6.881   6.198  16.145  1.00  0.00     0.004 A 
ENDBRANCH   2   4
ENDBRANCH   1   2
BRANCH   1  11
ATOM     11  C   UNL     1       7.126   8.800  18.663  1.00  0.00     0.028 C 
BRANCH  11  12
ATOM     12  C   UNL     1       7.006   8.403  20.115  1.00  0.00    -0.028 C 
ATOM     13  C   UNL     1       5.954   7.743  20.646  1.00  0.00    -0.080 C 
ATOM     14  C   UNL     1       4.792   7.275  19.803  1.00  0.00     0.039 C 
ATOM     15  C   UNL     1       5.963   7.450  22.125  1.00  0.00     0.039 C 
ENDBRANCH  11  12
ENDBRANCH   1  11
TORSDOF 4
ENDMDL
MODEL 9
REMARK VINA RESULT:    -5.433      1.879      4.817
REMARK INTER + INTRA:          -8.193
REMARK INTER:                  -6.879
REMARK INTRA:                  -1.314
REMARK UNBOUND:                -1.489
REMARK SMILES CC(C)=CCC[C@H](C)c1ccc(C)cc1
REMARK SMILES IDX 6 1 7 2 8 3 9 4 13 5 12 6 11 7 14 8 10 9 15 10 5 11 4 12
REMARK SMILES IDX 2 13 1 14 3 15
REMARK H PARENT
REMARK Flexibility Score: inf
ROOT
ATOM      1  C   UNL     1       8.711   8.596  17.917  1.00  0.00     0.012 C 
ENDROOT
BRANCH   1   2
ATOM      2  C   UNL     1       7.420   9.347  18.326  1.00  0.00     0.016 C 
ATOM      3  C   UNL     1       7.756  10.735  18.887  1.00  0.00     0.013 C 
BRANCH   2   4
ATOM      4  C   UNL     1       6.589   8.556  19.322  1.00  0.00    -0.045 A 
ATOM      5  C   UNL     1       4.205   6.287  22.119  1.00  0.00     0.044 C 
ATOM      6  C   UNL     1       5.049   7.051  21.142  1.00  0.00    -0.051 A 
ATOM      7  C   UNL     1       6.214   7.703  21.572  1.00  0.00     0.004 A 
ATOM      8  C   UNL     1       4.645   7.174  19.805  1.00  0.00     0.004 A 
ATOM      9  C   UNL     1       6.981   8.443  20.670  1.00  0.00     0.004 A 
ATOM     10  C   UNL     1       5.411   7.915  18.901  1.00  0.00     0.004 A 
ENDBRANCH   2   4
ENDBRANCH   1   2
BRANCH   1  11
ATOM     11  C   UNL     1       8.450   7.209  17.303  1.00  0.00     0.028 C 
BRANCH  11  12
ATOM     12  C   UNL     1       8.779   6.090  18.262  1.00  0.00    -0.028 C 
ATOM     13  C   UNL     1       7.989   5.019  18.493  1.00  0.00    -0.080 C 
ATOM     14  C   UNL     1       6.692   4.803  17.748  1.00  0.00     0.039 C 
ATOM     15  C   UNL     1       8.437   4.001  19.510  1.00  0.00     0.039 C 
ENDBRANCH  11  12
ENDBRANCH   1  11
TORSDOF 4
ENDMDL
