MODEL 1
REMARK VINA RESULT:    -5.576      0.000      0.000
REMARK INTER + INTRA:          -8.098
REMARK INTER:                  -8.347
REMARK INTRA:                   0.248
REMARK UNBOUND:                 0.248
REMARK SMILES O=c1c(O[C@H]2O[C@@H](CO)[C@@H](O)[C@@H](O)[C@H]2O)c(-c2cc(O)c(O)c(O)c2)oc2cc(O)cc(O)c12
REMARK SMILES IDX 4 1 3 2 16 3 26 4 2 5 27 6 1 7 34 8 28 9 32 10 29 11 31 12
REMARK SMILES IDX 17 13 18 14 19 15 25 16 21 17 23 18 20 19 22 21 24 23 33 25
REMARK SMILES IDX 30 27 5 29 14 30 6 31 12 32 7 33 10 34 15 35 13 37 8 39 9 40
REMARK SMILES IDX 11 42
REMARK H PARENT 20 20 22 22 24 24 33 26 30 28 15 36 13 38 9 41 11 43
REMARK Flexibility Score: inf
ROOT
ATOM      1  O   UNL     1       4.106 -17.957   6.539  1.00  0.00    -0.454 OA
ENDROOT
BRANCH   1   2
ATOM      2  C   UNL     1       4.044 -16.555   6.642  1.00  0.00     0.214 A 
ATOM      3  C   UNL     1       4.370 -15.834   7.812  1.00  0.00     0.181 A 
ATOM      4  O   UNL     1       4.561 -14.518   7.738  1.00  0.00    -0.452 OA
ATOM      5  C   UNL     1       3.668 -15.833   5.504  1.00  0.00     0.239 A 
ATOM      6  C   UNL     1       4.365 -13.809   6.637  1.00  0.00     0.146 A 
ATOM      7  O   UNL     1       3.253 -16.476   4.500  1.00  0.00    -0.285 OA
ATOM      8  C   UNL     1       3.826 -14.421   5.470  1.00  0.00     0.111 A 
ATOM      9  C   UNL     1       4.695 -12.451   6.643  1.00  0.00     0.094 A 
ATOM     10  C   UNL     1       3.540 -13.594   4.344  1.00  0.00     0.134 A 
ATOM     11  C   UNL     1       4.494 -11.675   5.502  1.00  0.00     0.123 A 
ATOM     12  C   UNL     1       3.897 -12.242   4.374  1.00  0.00     0.093 A 
BRANCH   3  13
ATOM     13  C   UNL     1       4.463 -16.465   9.139  1.00  0.00     0.029 A 
ATOM     14  C   UNL     1       4.397 -15.688  10.308  1.00  0.00     0.062 A 
ATOM     15  C   UNL     1       4.548 -16.273  11.567  1.00  0.00     0.162 A 
ATOM     16  C   UNL     1       4.748 -17.841   9.251  1.00  0.00     0.062 A 
ATOM     17  C   UNL     1       4.802 -17.657  11.673  1.00  0.00     0.200 A 
ATOM     18  C   UNL     1       4.905 -18.436  10.510  1.00  0.00     0.162 A 
BRANCH  15  19
ATOM     19  O   UNL     1       4.464 -15.470  12.703  1.00  0.00    -0.504 OA
ATOM     20  H   UNL     1       5.272 -14.981  13.082  1.00  0.00     0.293 HD
ENDBRANCH  15  19
BRANCH  17  21
ATOM     21  O   UNL     1       4.951 -18.236  12.937  1.00  0.00    -0.502 OA
ATOM     22  H   UNL     1       4.548 -17.821  13.774  1.00  0.00     0.293 HD
ENDBRANCH  17  21
BRANCH  18  23
ATOM     23  O   UNL     1       5.164 -19.803  10.606  1.00  0.00    -0.504 OA
ATOM     24  H   UNL     1       5.938 -20.152  11.152  1.00  0.00     0.293 HD
ENDBRANCH  18  23
ENDBRANCH   3  13
BRANCH  10  25
ATOM     25  O   UNL     1       2.883 -14.033   3.192  1.00  0.00    -0.507 OA
ATOM     26  H   UNL     1       2.638 -14.993   2.993  1.00  0.00     0.293 HD
ENDBRANCH  10  25
BRANCH  11  27
ATOM     27  O   UNL     1       4.864 -10.331   5.483  1.00  0.00    -0.508 OA
ATOM     28  H   UNL     1       5.169  -9.850   6.323  1.00  0.00     0.293 HD
ENDBRANCH  11  27
ENDBRANCH   1   2
BRANCH   1  29
ATOM     29  C   UNL     1       2.987 -18.841   6.343  1.00  0.00     0.339 C 
ATOM     30  C   UNL     1       3.024 -20.120   7.184  1.00  0.00     0.214 C 
ATOM     31  O   UNL     1       2.875 -19.182   4.975  1.00  0.00    -0.332 OA
ATOM     32  C   UNL     1       4.298 -20.914   6.934  1.00  0.00     0.180 C 
ATOM     33  C   UNL     1       3.972 -19.922   4.456  1.00  0.00     0.179 C 
ATOM     34  C   UNL     1       4.688 -20.949   5.424  1.00  0.00     0.177 C 
BRANCH  30  35
ATOM     35  O   UNL     1       2.885 -19.842   8.554  1.00  0.00    -0.384 OA
ATOM     36  H   UNL     1       2.724 -18.866   8.639  1.00  0.00     0.211 HD
ENDBRANCH  30  35
BRANCH  32  37
ATOM     37  O   UNL     1       5.350 -20.435   7.743  1.00  0.00    -0.387 OA
ATOM     38  H   UNL     1       5.594 -21.175   8.359  1.00  0.00     0.211 HD
ENDBRANCH  32  37
BRANCH  33  39
ATOM     39  C   UNL     1       4.913 -18.978   3.681  1.00  0.00     0.191 C 
BRANCH  39  40
ATOM     40  O   UNL     1       5.803 -19.711   2.879  1.00  0.00    -0.394 OA
ATOM     41  H   UNL     1       5.799 -20.646   3.213  1.00  0.00     0.210 HD
ENDBRANCH  39  40
ENDBRANCH  33  39
BRANCH  34  42
ATOM     42  O   UNL     1       6.085 -20.961   5.255  1.00  0.00    -0.387 OA
ATOM     43  H   UNL     1       6.452 -21.700   5.807  1.00  0.00     0.211 HD
ENDBRANCH  34  42
ENDBRANCH   1  29
TORSDOF 13
ENDMDL
MODEL 2
REMARK VINA RESULT:    -3.030      7.662     14.111
REMARK INTER + INTRA:          -4.288
REMARK INTER:                  -3.972
REMARK INTRA:                  -0.316
REMARK UNBOUND:                 0.248
REMARK SMILES O=c1c(O[C@H]2O[C@@H](CO)[C@@H](O)[C@@H](O)[C@H]2O)c(-c2cc(O)c(O)c(O)c2)oc2cc(O)cc(O)c12
REMARK SMILES IDX 4 1 3 2 16 3 26 4 2 5 27 6 1 7 34 8 28 9 32 10 29 11 31 12
REMARK SMILES IDX 17 13 18 14 19 15 25 16 21 17 23 18 20 19 22 21 24 23 33 25
REMARK SMILES IDX 30 27 5 29 14 30 6 31 12 32 7 33 10 34 15 35 13 37 8 39 9 40
REMARK SMILES IDX 11 42
REMARK H PARENT 20 20 22 22 24 24 33 26 30 28 15 36 13 38 9 41 11 43
REMARK Flexibility Score: inf
ROOT
ATOM      1  O   UNL     1       5.980  -3.990   4.605  1.00  0.00    -0.454 OA
ENDROOT
BRANCH   1   2
ATOM      2  C   UNL     1       6.147  -5.359   4.889  1.00  0.00     0.214 A 
ATOM      3  C   UNL     1       7.328  -5.916   5.428  1.00  0.00     0.181 A 
ATOM      4  O   UNL     1       7.301  -7.150   5.928  1.00  0.00    -0.452 OA
ATOM      5  C   UNL     1       5.063  -6.211   4.652  1.00  0.00     0.239 A 
ATOM      6  C   UNL     1       6.243  -7.945   5.864  1.00  0.00     0.146 A 
ATOM      7  O   UNL     1       4.056  -5.742   4.054  1.00  0.00    -0.285 OA
ATOM      8  C   UNL     1       5.081  -7.544   5.146  1.00  0.00     0.111 A 
ATOM      9  C   UNL     1       6.290  -9.181   6.513  1.00  0.00     0.094 A 
ATOM     10  C   UNL     1       4.009  -8.476   5.021  1.00  0.00     0.134 A 
ATOM     11  C   UNL     1       5.196 -10.044   6.458  1.00  0.00     0.123 A 
ATOM     12  C   UNL     1       4.078  -9.699   5.696  1.00  0.00     0.093 A 
BRANCH   3  13
ATOM     13  C   UNL     1       8.620  -5.210   5.419  1.00  0.00     0.029 A 
ATOM     14  C   UNL     1       9.708  -5.699   6.161  1.00  0.00     0.062 A 
ATOM     15  C   UNL     1      10.916  -4.999   6.208  1.00  0.00     0.162 A 
ATOM     16  C   UNL     1       8.742  -3.964   4.770  1.00  0.00     0.062 A 
ATOM     17  C   UNL     1      11.043  -3.769   5.530  1.00  0.00     0.200 A 
ATOM     18  C   UNL     1       9.949  -3.254   4.815  1.00  0.00     0.162 A 
BRANCH  15  19
ATOM     19  O   UNL     1      11.976  -5.524   6.945  1.00  0.00    -0.504 OA
ATOM     20  H   UNL     1      12.034  -6.511   7.185  1.00  0.00     0.293 HD
ENDBRANCH  15  19
BRANCH  17  21
ATOM     21  O   UNL     1      12.254  -3.074   5.580  1.00  0.00    -0.502 OA
ATOM     22  H   UNL     1      12.616  -2.678   6.445  1.00  0.00     0.293 HD
ENDBRANCH  17  21
BRANCH  18  23
ATOM     23  O   UNL     1      10.063  -2.034   4.149  1.00  0.00    -0.504 OA
ATOM     24  H   UNL     1       9.349  -1.718   3.508  1.00  0.00     0.293 HD
ENDBRANCH  18  23
ENDBRANCH   3  13
BRANCH  10  25
ATOM     25  O   UNL     1       2.875  -8.270   4.232  1.00  0.00    -0.507 OA
ATOM     26  H   UNL     1       2.832  -7.666   3.424  1.00  0.00     0.293 HD
ENDBRANCH  10  25
BRANCH  11  27
ATOM     27  O   UNL     1       5.215 -11.260   7.141  1.00  0.00    -0.508 OA
ATOM     28  H   UNL     1       5.464 -11.315   8.123  1.00  0.00     0.293 HD
ENDBRANCH  11  27
ENDBRANCH   1   2
BRANCH   1  29
ATOM     29  C   UNL     1       4.853  -3.180   4.982  1.00  0.00     0.339 C 
ATOM     30  C   UNL     1       4.745  -1.845   4.240  1.00  0.00     0.214 C 
ATOM     31  O   UNL     1       4.874  -2.942   6.377  1.00  0.00    -0.332 OA
ATOM     32  C   UNL     1       6.003  -1.008   4.415  1.00  0.00     0.180 C 
ATOM     33  C   UNL     1       5.989  -2.186   6.832  1.00  0.00     0.179 C 
ATOM     34  C   UNL     1       6.552  -1.059   5.874  1.00  0.00     0.177 C 
BRANCH  30  35
ATOM     35  O   UNL     1       4.471  -2.033   2.875  1.00  0.00    -0.384 OA
ATOM     36  H   UNL     1       5.339  -2.206   2.425  1.00  0.00     0.211 HD
ENDBRANCH  30  35
BRANCH  32  37
ATOM     37  O   UNL     1       6.981  -1.375   3.467  1.00  0.00    -0.387 OA
ATOM     38  H   UNL     1       6.495  -1.767   2.695  1.00  0.00     0.211 HD
ENDBRANCH  32  37
BRANCH  33  39
ATOM     39  C   UNL     1       7.047  -3.133   7.431  1.00  0.00     0.191 C 
BRANCH  39  40
ATOM     40  O   UNL     1       6.436  -4.142   8.196  1.00  0.00    -0.394 OA
ATOM     41  H   UNL     1       5.870  -3.692   8.877  1.00  0.00     0.210 HD
ENDBRANCH  39  40
ENDBRANCH  33  39
BRANCH  34  42
ATOM     42  O   UNL     1       7.957  -0.989   5.897  1.00  0.00    -0.387 OA
ATOM     43  H   UNL     1       8.239  -0.841   6.837  1.00  0.00     0.211 HD
ENDBRANCH  34  42
ENDBRANCH   1  29
TORSDOF 13
ENDMDL
MODEL 3
REMARK VINA RESULT:    -2.956      0.946      5.554
REMARK INTER + INTRA:          -4.177
REMARK INTER:                  -4.145
REMARK INTRA:                  -0.033
REMARK UNBOUND:                 0.248
REMARK SMILES O=c1c(O[C@H]2O[C@@H](CO)[C@@H](O)[C@@H](O)[C@H]2O)c(-c2cc(O)c(O)c(O)c2)oc2cc(O)cc(O)c12
REMARK SMILES IDX 4 1 3 2 16 3 26 4 2 5 27 6 1 7 34 8 28 9 32 10 29 11 31 12
REMARK SMILES IDX 17 13 18 14 19 15 25 16 21 17 23 18 20 19 22 21 24 23 33 25
REMARK SMILES IDX 30 27 5 29 14 30 6 31 12 32 7 33 10 34 15 35 13 37 8 39 9 40
REMARK SMILES IDX 11 42
REMARK H PARENT 20 20 22 22 24 24 33 26 30 28 15 36 13 38 9 41 11 43
REMARK Flexibility Score: inf
ROOT
ATOM      1  O   UNL     1       4.240 -18.142   6.574  1.00  0.00    -0.454 OA
ENDROOT
BRANCH   1   2
ATOM      2  C   UNL     1       4.426 -17.296   7.684  1.00  0.00     0.214 A 
ATOM      3  C   UNL     1       4.211 -15.900   7.658  1.00  0.00     0.181 A 
ATOM      4  O   UNL     1       4.131 -15.229   8.805  1.00  0.00    -0.452 OA
ATOM      5  C   UNL     1       4.814 -17.883   8.893  1.00  0.00     0.239 A 
ATOM      6  C   UNL     1       4.341 -15.777   9.993  1.00  0.00     0.146 A 
ATOM      7  O   UNL     1       5.130 -19.104   8.889  1.00  0.00    -0.285 OA
ATOM      8  C   UNL     1       4.776 -17.128  10.098  1.00  0.00     0.111 A 
ATOM      9  C   UNL     1       4.128 -15.005  11.138  1.00  0.00     0.094 A 
ATOM     10  C   UNL     1       5.085 -17.640  11.392  1.00  0.00     0.134 A 
ATOM     11  C   UNL     1       4.348 -15.549  12.403  1.00  0.00     0.123 A 
ATOM     12  C   UNL     1       4.846 -16.849  12.520  1.00  0.00     0.093 A 
BRANCH   3  13
ATOM     13  C   UNL     1       4.120 -15.129   6.407  1.00  0.00     0.029 A 
ATOM     14  C   UNL     1       4.438 -13.761   6.384  1.00  0.00     0.062 A 
ATOM     15  C   UNL     1       4.293 -13.011   5.215  1.00  0.00     0.162 A 
ATOM     16  C   UNL     1       3.591 -15.725   5.245  1.00  0.00     0.062 A 
ATOM     17  C   UNL     1       3.792 -13.621   4.046  1.00  0.00     0.200 A 
ATOM     18  C   UNL     1       3.438 -14.980   4.069  1.00  0.00     0.162 A 
BRANCH  15  19
ATOM     19  O   UNL     1       4.629 -11.658   5.231  1.00  0.00    -0.504 OA
ATOM     20  H   UNL     1       4.715 -11.130   6.096  1.00  0.00     0.293 HD
ENDBRANCH  15  19
BRANCH  17  21
ATOM     21  O   UNL     1       3.649 -12.865   2.879  1.00  0.00    -0.502 OA
ATOM     22  H   UNL     1       3.258 -13.256   2.025  1.00  0.00     0.293 HD
ENDBRANCH  17  21
BRANCH  18  23
ATOM     23  O   UNL     1       2.934 -15.588   2.919  1.00  0.00    -0.504 OA
ATOM     24  H   UNL     1       2.969 -16.590   2.799  1.00  0.00     0.293 HD
ENDBRANCH  18  23
ENDBRANCH   3  13
BRANCH  10  25
ATOM     25  O   UNL     1       5.653 -18.894  11.627  1.00  0.00    -0.507 OA
ATOM     26  H   UNL     1       6.386 -19.084  12.296  1.00  0.00     0.293 HD
ENDBRANCH  10  25
BRANCH  11  27
ATOM     27  O   UNL     1       4.094 -14.803  13.552  1.00  0.00    -0.508 OA
ATOM     28  H   UNL     1       3.820 -13.827  13.503  1.00  0.00     0.293 HD
ENDBRANCH  11  27
ENDBRANCH   1   2
BRANCH   1  29
ATOM     29  C   UNL     1       3.039 -18.868   6.256  1.00  0.00     0.339 C 
ATOM     30  C   UNL     1       2.967 -20.279   6.847  1.00  0.00     0.214 C 
ATOM     31  O   UNL     1       2.875 -18.937   4.853  1.00  0.00    -0.332 OA
ATOM     32  C   UNL     1       4.155 -21.125   6.414  1.00  0.00     0.180 C 
ATOM     33  C   UNL     1       3.889 -19.665   4.172  1.00  0.00     0.179 C 
ATOM     34  C   UNL     1       4.518 -20.914   4.912  1.00  0.00     0.177 C 
BRANCH  30  35
ATOM     35  O   UNL     1       2.875 -20.248   8.249  1.00  0.00    -0.384 OA
ATOM     36  H   UNL     1       2.027 -19.784   8.475  1.00  0.00     0.211 HD
ENDBRANCH  30  35
BRANCH  32  37
ATOM     37  O   UNL     1       5.259 -20.903   7.263  1.00  0.00    -0.387 OA
ATOM     38  H   UNL     1       6.048 -20.766   6.675  1.00  0.00     0.211 HD
ENDBRANCH  32  37
BRANCH  33  39
ATOM     39  C   UNL     1       4.904 -18.683   3.554  1.00  0.00     0.191 C 
BRANCH  39  40
ATOM     40  O   UNL     1       5.919 -19.379   2.875  1.00  0.00    -0.394 OA
ATOM     41  H   UNL     1       6.782 -19.126   3.297  1.00  0.00     0.210 HD
ENDBRANCH  39  40
ENDBRANCH  33  39
BRANCH  34  42
ATOM     42  O   UNL     1       5.904 -21.022   4.700  1.00  0.00    -0.387 OA
ATOM     43  H   UNL     1       6.288 -20.107   4.724  1.00  0.00     0.211 HD
ENDBRANCH  34  42
ENDBRANCH   1  29
TORSDOF 13
ENDMDL
MODEL 4
REMARK VINA RESULT:    -2.658      7.898     14.244
REMARK INTER + INTRA:          -3.731
REMARK INTER:                  -4.911
REMARK INTRA:                   1.180
REMARK UNBOUND:                 0.248
REMARK SMILES O=c1c(O[C@H]2O[C@@H](CO)[C@@H](O)[C@@H](O)[C@H]2O)c(-c2cc(O)c(O)c(O)c2)oc2cc(O)cc(O)c12
REMARK SMILES IDX 4 1 3 2 16 3 26 4 2 5 27 6 1 7 34 8 28 9 32 10 29 11 31 12
REMARK SMILES IDX 17 13 18 14 19 15 25 16 21 17 23 18 20 19 22 21 24 23 33 25
REMARK SMILES IDX 30 27 5 29 14 30 6 31 12 32 7 33 10 34 15 35 13 37 8 39 9 40
REMARK SMILES IDX 11 42
REMARK H PARENT 20 20 22 22 24 24 33 26 30 28 15 36 13 38 9 41 11 43
REMARK Flexibility Score: inf
ROOT
ATOM      1  O   UNL     1       6.236  -3.730   6.621  1.00  0.00    -0.454 OA
ENDROOT
BRANCH   1   2
ATOM      2  C   UNL     1       6.386  -5.096   6.319  1.00  0.00     0.214 A 
ATOM      3  C   UNL     1       7.634  -5.743   6.177  1.00  0.00     0.181 A 
ATOM      4  O   UNL     1       7.686  -7.073   6.179  1.00  0.00    -0.452 OA
ATOM      5  C   UNL     1       5.224  -5.865   6.183  1.00  0.00     0.239 A 
ATOM      6  C   UNL     1       6.612  -7.850   6.204  1.00  0.00     0.146 A 
ATOM      7  O   UNL     1       4.112  -5.269   6.181  1.00  0.00    -0.285 OA
ATOM      8  C   UNL     1       5.309  -7.283   6.127  1.00  0.00     0.111 A 
ATOM      9  C   UNL     1       6.784  -9.233   6.307  1.00  0.00     0.094 A 
ATOM     10  C   UNL     1       4.191  -8.166   6.057  1.00  0.00     0.134 A 
ATOM     11  C   UNL     1       5.676 -10.078   6.329  1.00  0.00     0.123 A 
ATOM     12  C   UNL     1       4.394  -9.544   6.179  1.00  0.00     0.093 A 
BRANCH   3  13
ATOM     13  C   UNL     1       8.895  -5.009   5.977  1.00  0.00     0.029 A 
ATOM     14  C   UNL     1       8.931  -3.852   5.181  1.00  0.00     0.062 A 
ATOM     15  C   UNL     1      10.135  -3.188   4.936  1.00  0.00     0.162 A 
ATOM     16  C   UNL     1      10.105  -5.532   6.475  1.00  0.00     0.062 A 
ATOM     17  C   UNL     1      11.339  -3.699   5.464  1.00  0.00     0.200 A 
ATOM     18  C   UNL     1      11.318  -4.875   6.231  1.00  0.00     0.162 A 
BRANCH  15  19
ATOM     19  O   UNL     1      10.127  -2.037   4.151  1.00  0.00    -0.504 OA
ATOM     20  H   UNL     1       9.996  -1.110   4.548  1.00  0.00     0.293 HD
ENDBRANCH  15  19
BRANCH  17  21
ATOM     21  O   UNL     1      12.541  -3.030   5.216  1.00  0.00    -0.502 OA
ATOM     22  H   UNL     1      12.755  -2.620   4.309  1.00  0.00     0.293 HD
ENDBRANCH  17  21
BRANCH  18  23
ATOM     23  O   UNL     1      12.505  -5.391   6.750  1.00  0.00    -0.504 OA
ATOM     24  H   UNL     1      12.766  -5.238   7.713  1.00  0.00     0.293 HD
ENDBRANCH  18  23
ENDBRANCH   3  13
BRANCH  10  25
ATOM     25  O   UNL     1       2.875  -7.753   5.838  1.00  0.00    -0.507 OA
ATOM     26  H   UNL     1       2.314  -7.229   6.494  1.00  0.00     0.293 HD
ENDBRANCH  10  25
BRANCH  11  27
ATOM     27  O   UNL     1       5.835 -11.455   6.479  1.00  0.00    -0.508 OA
ATOM     28  H   UNL     1       6.213 -12.031   5.734  1.00  0.00     0.293 HD
ENDBRANCH  11  27
ENDBRANCH   1   2
BRANCH   1  29
ATOM     29  C   UNL     1       6.619  -2.630   5.776  1.00  0.00     0.339 C 
ATOM     30  C   UNL     1       6.988  -1.345   6.523  1.00  0.00     0.214 C 
ATOM     31  O   UNL     1       5.589  -2.354   4.847  1.00  0.00    -0.332 OA
ATOM     32  C   UNL     1       5.851  -0.875   7.418  1.00  0.00     0.180 C 
ATOM     33  C   UNL     1       4.369  -1.912   5.428  1.00  0.00     0.179 C 
ATOM     34  C   UNL     1       4.458  -1.018   6.731  1.00  0.00     0.177 C 
BRANCH  30  35
ATOM     35  O   UNL     1       8.165  -1.504   7.275  1.00  0.00    -0.384 OA
ATOM     36  H   UNL     1       8.744  -0.722   7.078  1.00  0.00     0.211 HD
ENDBRANCH  30  35
BRANCH  32  37
ATOM     37  O   UNL     1       5.897  -1.530   8.666  1.00  0.00    -0.387 OA
ATOM     38  H   UNL     1       6.629  -2.199   8.610  1.00  0.00     0.211 HD
ENDBRANCH  32  37
BRANCH  33  39
ATOM     39  C   UNL     1       3.375  -3.088   5.500  1.00  0.00     0.191 C 
BRANCH  39  40
ATOM     40  O   UNL     1       2.880  -3.399   4.223  1.00  0.00    -0.394 OA
ATOM     41  H   UNL     1       1.900  -3.540   4.313  1.00  0.00     0.210 HD
ENDBRANCH  39  40
ENDBRANCH  33  39
BRANCH  34  42
ATOM     42  O   UNL     1       3.454  -1.331   7.666  1.00  0.00    -0.387 OA
ATOM     43  H   UNL     1       3.150  -2.259   7.486  1.00  0.00     0.211 HD
ENDBRANCH  34  42
ENDBRANCH   1  29
TORSDOF 13
ENDMDL
