MODEL 1
REMARK VINA RESULT:    -3.771      0.000      0.000
REMARK INTER + INTRA:          -4.337
REMARK INTER:                  -4.102
REMARK INTRA:                  -0.236
REMARK UNBOUND:                -0.236
REMARK SMILES O=C([O-])c1ccccc1O
REMARK SMILES IDX 4 1 9 2 5 3 8 4 6 5 7 6 2 7 1 8 3 9 10 10
REMARK H PARENT 10 11
REMARK Flexibility Score: inf
ROOT
ATOM      1  C   UNL     1      -6.170 -11.408  15.289  1.00  0.00     0.039 A 
ATOM      2  C   UNL     1      -6.662 -10.357  16.098  1.00  0.00     0.124 A 
ATOM      3  C   UNL     1      -6.778 -11.644  14.040  1.00  0.00     0.014 A 
ATOM      4  C   UNL     1      -7.737  -9.572  15.649  1.00  0.00     0.047 A 
ATOM      5  C   UNL     1      -7.846 -10.856  13.606  1.00  0.00     0.001 A 
ATOM      6  C   UNL     1      -8.325  -9.821  14.409  1.00  0.00     0.004 A 
ENDROOT
BRANCH   1   7
ATOM      7  C   UNL     1      -5.035 -12.263  15.724  1.00  0.00     0.075 C 
ATOM      8  O   UNL     1      -5.129 -12.958  16.772  1.00  0.00    -0.545 OA
ATOM      9  O   UNL     1      -3.854 -12.316  14.995  1.00  0.00    -0.545 OA
ENDBRANCH   1   7
BRANCH   2  10
ATOM     10  O   UNL     1      -6.093 -10.086  17.341  1.00  0.00    -0.507 OA
ATOM     11  H   UNL     1      -6.559  -9.502  18.026  1.00  0.00     0.293 HD
ENDBRANCH   2  10
TORSDOF 2
ENDMDL
MODEL 2
REMARK VINA RESULT:    -3.075      2.627      3.833
REMARK INTER + INTRA:          -3.581
REMARK INTER:                  -3.421
REMARK INTRA:                  -0.159
REMARK UNBOUND:                -0.236
REMARK SMILES O=C([O-])c1ccccc1O
REMARK SMILES IDX 4 1 9 2 5 3 8 4 6 5 7 6 2 7 1 8 3 9 10 10
REMARK H PARENT 10 11
REMARK Flexibility Score: inf
ROOT
ATOM      1  C   UNL     1      -6.531  -9.675  16.042  1.00  0.00     0.039 A 
ATOM      2  C   UNL     1      -7.192 -10.207  14.909  1.00  0.00     0.124 A 
ATOM      3  C   UNL     1      -6.040 -10.563  17.020  1.00  0.00     0.014 A 
ATOM      4  C   UNL     1      -7.346 -11.597  14.778  1.00  0.00     0.047 A 
ATOM      5  C   UNL     1      -6.201 -11.943  16.876  1.00  0.00     0.001 A 
ATOM      6  C   UNL     1      -6.852 -12.459  15.757  1.00  0.00     0.004 A 
ENDROOT
BRANCH   1   7
ATOM      7  C   UNL     1      -6.346  -8.212  16.222  1.00  0.00     0.075 C 
ATOM      8  O   UNL     1      -6.435  -7.434  15.233  1.00  0.00    -0.545 OA
ATOM      9  O   UNL     1      -6.071  -7.670  17.471  1.00  0.00    -0.545 OA
ENDBRANCH   1   7
BRANCH   2  10
ATOM     10  O   UNL     1      -7.695  -9.368  13.916  1.00  0.00    -0.507 OA
ATOM     11  H   UNL     1      -8.664  -9.409  13.623  1.00  0.00     0.293 HD
ENDBRANCH   2  10
TORSDOF 2
ENDMDL
MODEL 3
REMARK VINA RESULT:    -3.065      2.263      3.464
REMARK INTER + INTRA:          -3.569
REMARK INTER:                  -3.320
REMARK INTRA:                  -0.249
REMARK UNBOUND:                -0.236
REMARK SMILES O=C([O-])c1ccccc1O
REMARK SMILES IDX 4 1 9 2 5 3 8 4 6 5 7 6 2 7 1 8 3 9 10 10
REMARK H PARENT 10 11
REMARK Flexibility Score: inf
ROOT
ATOM      1  C   UNL     1      -7.014 -10.329  15.390  1.00  0.00     0.039 A 
ATOM      2  C   UNL     1      -6.397 -10.169  16.653  1.00  0.00     0.124 A 
ATOM      3  C   UNL     1      -7.114 -11.624  14.843  1.00  0.00     0.014 A 
ATOM      4  C   UNL     1      -5.901 -11.290  17.337  1.00  0.00     0.047 A 
ATOM      5  C   UNL     1      -6.615 -12.730  15.535  1.00  0.00     0.001 A 
ATOM      6  C   UNL     1      -6.010 -12.564  16.779  1.00  0.00     0.004 A 
ENDROOT
BRANCH   1   7
ATOM      7  C   UNL     1      -7.553  -9.170  14.632  1.00  0.00     0.075 C 
ATOM      8  O   UNL     1      -8.632  -9.278  13.988  1.00  0.00    -0.545 OA
ATOM      9  O   UNL     1      -6.888  -7.951  14.613  1.00  0.00    -0.545 OA
ENDBRANCH   1   7
BRANCH   2  10
ATOM     10  O   UNL     1      -6.275  -8.907  17.234  1.00  0.00    -0.507 OA
ATOM     11  H   UNL     1      -6.949  -8.562  17.908  1.00  0.00     0.293 HD
ENDBRANCH   2  10
TORSDOF 2
ENDMDL
MODEL 4
REMARK VINA RESULT:    -3.022      2.260      4.025
REMARK INTER + INTRA:          -3.523
REMARK INTER:                  -3.278
REMARK INTRA:                  -0.245
REMARK UNBOUND:                -0.236
REMARK SMILES O=C([O-])c1ccccc1O
REMARK SMILES IDX 4 1 9 2 5 3 8 4 6 5 7 6 2 7 1 8 3 9 10 10
REMARK H PARENT 10 11
REMARK Flexibility Score: inf
ROOT
ATOM      1  C   UNL     1      -6.875 -10.178  15.364  1.00  0.00     0.039 A 
ATOM      2  C   UNL     1      -6.567 -11.349  14.633  1.00  0.00     0.124 A 
ATOM      3  C   UNL     1      -6.655 -10.170  16.756  1.00  0.00     0.014 A 
ATOM      4  C   UNL     1      -6.052 -12.474  15.297  1.00  0.00     0.047 A 
ATOM      5  C   UNL     1      -6.142 -11.296  17.404  1.00  0.00     0.001 A 
ATOM      6  C   UNL     1      -5.840 -12.446  16.676  1.00  0.00     0.004 A 
ENDROOT
BRANCH   1   7
ATOM      7  C   UNL     1      -7.422  -8.965  14.702  1.00  0.00     0.075 C 
ATOM      8  O   UNL     1      -8.493  -9.032  14.039  1.00  0.00    -0.545 OA
ATOM      9  O   UNL     1      -6.774  -7.740  14.796  1.00  0.00    -0.545 OA
ENDBRANCH   1   7
BRANCH   2  10
ATOM     10  O   UNL     1      -6.768 -11.404  13.254  1.00  0.00    -0.507 OA
ATOM     11  H   UNL     1      -6.581 -10.608  12.655  1.00  0.00     0.293 HD
ENDBRANCH   2  10
TORSDOF 2
ENDMDL
MODEL 5
REMARK VINA RESULT:    -2.720      0.983      2.151
REMARK INTER + INTRA:          -3.195
REMARK INTER:                  -2.940
REMARK INTRA:                  -0.255
REMARK UNBOUND:                -0.236
REMARK SMILES O=C([O-])c1ccccc1O
REMARK SMILES IDX 4 1 9 2 5 3 8 4 6 5 7 6 2 7 1 8 3 9 10 10
REMARK H PARENT 10 11
REMARK Flexibility Score: inf
ROOT
ATOM      1  C   UNL     1      -6.239 -11.445  15.337  1.00  0.00     0.039 A 
ATOM      2  C   UNL     1      -6.617 -11.468  13.974  1.00  0.00     0.124 A 
ATOM      3  C   UNL     1      -6.971 -10.636  16.229  1.00  0.00     0.014 A 
ATOM      4  C   UNL     1      -7.704 -10.695  13.535  1.00  0.00     0.047 A 
ATOM      5  C   UNL     1      -8.050  -9.872  15.779  1.00  0.00     0.001 A 
ATOM      6  C   UNL     1      -8.416  -9.902  14.434  1.00  0.00     0.004 A 
ENDROOT
BRANCH   1   7
ATOM      7  C   UNL     1      -5.095 -12.246  15.844  1.00  0.00     0.075 C 
ATOM      8  O   UNL     1      -5.216 -12.928  16.898  1.00  0.00    -0.545 OA
ATOM      9  O   UNL     1      -3.877 -12.263  15.177  1.00  0.00    -0.545 OA
ENDBRANCH   1   7
BRANCH   2  10
ATOM     10  O   UNL     1      -5.922 -12.253  13.053  1.00  0.00    -0.507 OA
ATOM     11  H   UNL     1      -5.071 -11.927  12.609  1.00  0.00     0.293 HD
ENDBRANCH   2  10
TORSDOF 2
ENDMDL
MODEL 6
REMARK VINA RESULT:    -2.250      1.632      3.306
REMARK INTER + INTRA:          -2.683
REMARK INTER:                  -2.478
REMARK INTRA:                  -0.205
REMARK UNBOUND:                -0.236
REMARK SMILES O=C([O-])c1ccccc1O
REMARK SMILES IDX 4 1 9 2 5 3 8 4 6 5 7 6 2 7 1 8 3 9 10 10
REMARK H PARENT 10 11
REMARK Flexibility Score: inf
ROOT
ATOM      1  C   UNL     1      -6.698  -9.442  15.664  1.00  0.00     0.039 A 
ATOM      2  C   UNL     1      -6.357 -10.638  16.341  1.00  0.00     0.124 A 
ATOM      3  C   UNL     1      -7.385  -9.531  14.437  1.00  0.00     0.014 A 
ATOM      4  C   UNL     1      -6.704 -11.880  15.786  1.00  0.00     0.047 A 
ATOM      5  C   UNL     1      -7.725 -10.774  13.897  1.00  0.00     0.001 A 
ATOM      6  C   UNL     1      -7.385 -11.946  14.570  1.00  0.00     0.004 A 
ENDROOT
BRANCH   1   7
ATOM      7  C   UNL     1      -6.350  -8.107  16.214  1.00  0.00     0.075 C 
ATOM      8  O   UNL     1      -6.289  -7.103  15.454  1.00  0.00    -0.545 OA
ATOM      9  O   UNL     1      -6.085  -7.933  17.567  1.00  0.00    -0.545 OA
ENDBRANCH   1   7
BRANCH   2  10
ATOM     10  O   UNL     1      -5.677 -10.600  17.557  1.00  0.00    -0.507 OA
ATOM     11  H   UNL     1      -6.073 -10.994  18.403  1.00  0.00     0.293 HD
ENDBRANCH   2  10
TORSDOF 2
ENDMDL
MODEL 7
REMARK VINA RESULT:    -1.719      1.779      2.476
REMARK INTER + INTRA:          -2.106
REMARK INTER:                  -1.891
REMARK INTRA:                  -0.215
REMARK UNBOUND:                -0.236
REMARK SMILES O=C([O-])c1ccccc1O
REMARK SMILES IDX 4 1 9 2 5 3 8 4 6 5 7 6 2 7 1 8 3 9 10 10
REMARK H PARENT 10 11
REMARK Flexibility Score: inf
ROOT
ATOM      1  C   UNL     1      -6.707 -10.450  15.509  1.00  0.00     0.039 A 
ATOM      2  C   UNL     1      -6.301 -10.034  16.799  1.00  0.00     0.124 A 
ATOM      3  C   UNL     1      -6.970  -9.469  14.532  1.00  0.00     0.014 A 
ATOM      4  C   UNL     1      -6.166  -8.666  17.083  1.00  0.00     0.047 A 
ATOM      5  C   UNL     1      -6.832  -8.112  14.829  1.00  0.00     0.001 A 
ATOM      6  C   UNL     1      -6.430  -7.710  16.102  1.00  0.00     0.004 A 
ENDROOT
BRANCH   1   7
ATOM      7  C   UNL     1      -6.863 -11.887  15.165  1.00  0.00     0.075 C 
ATOM      8  O   UNL     1      -6.786 -12.265  13.964  1.00  0.00    -0.545 OA
ATOM      9  O   UNL     1      -7.096 -12.841  16.147  1.00  0.00    -0.545 OA
ENDBRANCH   1   7
BRANCH   2  10
ATOM     10  O   UNL     1      -6.030 -10.969  17.798  1.00  0.00    -0.507 OA
ATOM     11  H   UNL     1      -6.351 -11.928  17.733  1.00  0.00     0.293 HD
ENDBRANCH   2  10
TORSDOF 2
ENDMDL
MODEL 8
REMARK VINA RESULT:    -1.643      1.944      2.779
REMARK INTER + INTRA:          -2.023
REMARK INTER:                  -1.795
REMARK INTRA:                  -0.228
REMARK UNBOUND:                -0.236
REMARK SMILES O=C([O-])c1ccccc1O
REMARK SMILES IDX 4 1 9 2 5 3 8 4 6 5 7 6 2 7 1 8 3 9 10 10
REMARK H PARENT 10 11
REMARK Flexibility Score: inf
ROOT
ATOM      1  C   UNL     1      -6.542 -10.670  15.907  1.00  0.00     0.039 A 
ATOM      2  C   UNL     1      -6.879 -10.046  14.682  1.00  0.00     0.124 A 
ATOM      3  C   UNL     1      -6.257  -9.860  17.024  1.00  0.00     0.014 A 
ATOM      4  C   UNL     1      -6.925  -8.645  14.599  1.00  0.00     0.047 A 
ATOM      5  C   UNL     1      -6.306  -8.467  16.927  1.00  0.00     0.001 A 
ATOM      6  C   UNL     1      -6.639  -7.861  15.717  1.00  0.00     0.004 A 
ENDROOT
BRANCH   1   7
ATOM      7  C   UNL     1      -6.482 -12.148  16.039  1.00  0.00     0.075 C 
ATOM      8  O   UNL     1      -7.269 -12.878  15.377  1.00  0.00    -0.545 OA
ATOM      9  O   UNL     1      -5.567 -12.757  16.888  1.00  0.00    -0.545 OA
ENDBRANCH   1   7
BRANCH   2  10
ATOM     10  O   UNL     1      -7.169 -10.806  13.549  1.00  0.00    -0.507 OA
ATOM     11  H   UNL     1      -6.608 -10.746  12.708  1.00  0.00     0.293 HD
ENDBRANCH   2  10
TORSDOF 2
ENDMDL
MODEL 9
REMARK VINA RESULT:    -1.472      1.995      2.794
REMARK INTER + INTRA:          -1.836
REMARK INTER:                  -1.631
REMARK INTRA:                  -0.205
REMARK UNBOUND:                -0.236
REMARK SMILES O=C([O-])c1ccccc1O
REMARK SMILES IDX 4 1 9 2 5 3 8 4 6 5 7 6 2 7 1 8 3 9 10 10
REMARK H PARENT 10 11
REMARK Flexibility Score: inf
ROOT
ATOM      1  C   UNL     1      -5.591 -11.631  14.693  1.00  0.00     0.039 A 
ATOM      2  C   UNL     1      -6.790 -10.955  14.364  1.00  0.00     0.124 A 
ATOM      3  C   UNL     1      -5.279 -11.836  16.052  1.00  0.00     0.014 A 
ATOM      4  C   UNL     1      -7.642 -10.505  15.385  1.00  0.00     0.047 A 
ATOM      5  C   UNL     1      -6.136 -11.382  17.057  1.00  0.00     0.001 A 
ATOM      6  C   UNL     1      -7.316 -10.718  16.724  1.00  0.00     0.004 A 
ENDROOT
BRANCH   1   7
ATOM      7  C   UNL     1      -4.660 -12.125  13.645  1.00  0.00     0.075 C 
ATOM      8  O   UNL     1      -3.453 -12.357  13.926  1.00  0.00    -0.545 OA
ATOM      9  O   UNL     1      -5.093 -12.339  12.343  1.00  0.00    -0.545 OA
ENDBRANCH   1   7
BRANCH   2  10
ATOM     10  O   UNL     1      -7.141 -10.729  13.034  1.00  0.00    -0.507 OA
ATOM     11  H   UNL     1      -7.965 -11.149  12.620  1.00  0.00     0.293 HD
ENDBRANCH   2  10
TORSDOF 2
ENDMDL
