MODEL 1
REMARK VINA RESULT:    -4.467      0.000      0.000
REMARK INTER + INTRA:          -7.501
REMARK INTER:                  -6.034
REMARK INTRA:                  -1.468
REMARK UNBOUND:                -1.468
REMARK SMILES CC(=O)CCC=C(C)CCC=C(C)C
REMARK SMILES IDX 7 1 6 2 8 3 9 4 10 5 11 6 13 7 12 8 14 9 5 10 4 11 2 12 3 13
REMARK SMILES IDX 1 14
REMARK H PARENT
REMARK Flexibility Score: inf
ROOT
ATOM      1  C   UNL     1     -12.768  14.390 -30.358  1.00  0.00    -0.077 C 
ATOM      2  C   UNL     1     -13.639  15.407 -30.549  1.00  0.00    -0.028 C 
ATOM      3  C   UNL     1     -11.644  14.587 -29.374  1.00  0.00     0.039 C 
ENDROOT
BRANCH   1   4
ATOM      4  C   UNL     1     -12.908  13.042 -31.039  1.00  0.00     0.034 C 
BRANCH   4   5
ATOM      5  C   UNL     1     -13.168  11.932 -30.012  1.00  0.00     0.032 C 
BRANCH   5   6
ATOM      6  C   UNL     1     -14.589  11.989 -29.504  1.00  0.00    -0.028 C 
ATOM      7  C   UNL     1     -16.404  12.347 -27.885  1.00  0.00     0.039 C 
ATOM      8  C   UNL     1     -14.940  12.298 -28.237  1.00  0.00    -0.080 C 
ATOM      9  C   UNL     1     -13.913  12.596 -27.170  1.00  0.00     0.039 C 
ENDBRANCH   5   6
ENDBRANCH   4   5
ENDBRANCH   1   4
BRANCH   2  10
ATOM     10  C   UNL     1     -14.833  15.367 -31.473  1.00  0.00     0.035 C 
BRANCH  10  11
ATOM     11  C   UNL     1     -16.130  14.978 -30.745  1.00  0.00     0.079 C 
BRANCH  11  12
ATOM     12  C   UNL     1     -17.144  14.306 -31.645  1.00  0.00     0.130 C 
ATOM     13  O   UNL     1     -17.366  14.747 -32.766  1.00  0.00    -0.300 OA
ATOM     14  C   UNL     1     -17.936  13.127 -31.157  1.00  0.00     0.087 C 
ENDBRANCH  11  12
ENDBRANCH  10  11
ENDBRANCH   2  10
TORSDOF 6
ENDMDL
MODEL 2
REMARK VINA RESULT:    -4.410      1.174      3.300
REMARK INTER + INTRA:          -7.424
REMARK INTER:                  -5.990
REMARK INTRA:                  -1.434
REMARK UNBOUND:                -1.468
REMARK SMILES CC(=O)CCC=C(C)CCC=C(C)C
REMARK SMILES IDX 7 1 6 2 8 3 9 4 10 5 11 6 13 7 12 8 14 9 5 10 4 11 2 12 3 13
REMARK SMILES IDX 1 14
REMARK H PARENT
REMARK Flexibility Score: inf
ROOT
ATOM      1  C   UNL     1     -16.267  12.072 -28.198  1.00  0.00    -0.077 C 
ATOM      2  C   UNL     1     -17.142  13.053 -28.518  1.00  0.00    -0.028 C 
ATOM      3  C   UNL     1     -15.970  11.825 -26.742  1.00  0.00     0.039 C 
ENDROOT
BRANCH   1   4
ATOM      4  C   UNL     1     -15.625  11.168 -29.233  1.00  0.00     0.034 C 
BRANCH   4   5
ATOM      5  C   UNL     1     -14.094  11.240 -29.151  1.00  0.00     0.032 C 
BRANCH   5   6
ATOM      6  C   UNL     1     -13.580  12.511 -29.785  1.00  0.00    -0.028 C 
ATOM      7  C   UNL     1     -12.471  14.702 -29.892  1.00  0.00     0.039 C 
ATOM      8  C   UNL     1     -12.959  13.507 -29.116  1.00  0.00    -0.080 C 
ATOM      9  C   UNL     1     -12.742  13.456 -27.622  1.00  0.00     0.039 C 
ENDBRANCH   5   6
ENDBRANCH   4   5
ENDBRANCH   1   4
BRANCH   2  10
ATOM     10  C   UNL     1     -17.572  13.411 -29.920  1.00  0.00     0.035 C 
BRANCH  10  11
ATOM     11  C   UNL     1     -16.619  14.417 -30.590  1.00  0.00     0.079 C 
BRANCH  11  12
ATOM     12  C   UNL     1     -16.587  14.298 -32.098  1.00  0.00     0.130 C 
ATOM     13  O   UNL     1     -17.508  14.742 -32.773  1.00  0.00    -0.300 OA
ATOM     14  C   UNL     1     -15.458  13.584 -32.784  1.00  0.00     0.087 C 
ENDBRANCH  11  12
ENDBRANCH  10  11
ENDBRANCH   2  10
TORSDOF 6
ENDMDL
MODEL 3
REMARK VINA RESULT:    -4.350      2.718      4.643
REMARK INTER + INTRA:          -7.343
REMARK INTER:                  -5.993
REMARK INTRA:                  -1.350
REMARK UNBOUND:                -1.468
REMARK SMILES CC(=O)CCC=C(C)CCC=C(C)C
REMARK SMILES IDX 7 1 6 2 8 3 9 4 10 5 11 6 13 7 12 8 14 9 5 10 4 11 2 12 3 13
REMARK SMILES IDX 1 14
REMARK H PARENT
REMARK Flexibility Score: inf
ROOT
ATOM      1  C   UNL     1     -12.686  14.928 -31.022  1.00  0.00    -0.077 C 
ATOM      2  C   UNL     1     -11.959  14.412 -30.005  1.00  0.00    -0.028 C 
ATOM      3  C   UNL     1     -12.265  14.612 -32.434  1.00  0.00     0.039 C 
ENDROOT
BRANCH   1   4
ATOM      4  C   UNL     1     -13.941  15.752 -30.806  1.00  0.00     0.034 C 
BRANCH   4   5
ATOM      5  C   UNL     1     -15.187  14.991 -31.278  1.00  0.00     0.032 C 
BRANCH   5   6
ATOM      6  C   UNL     1     -15.844  14.267 -30.128  1.00  0.00    -0.028 C 
ATOM      7  C   UNL     1     -16.417  12.366 -28.676  1.00  0.00     0.039 C 
ATOM      8  C   UNL     1     -15.728  12.942 -29.885  1.00  0.00    -0.080 C 
ATOM      9  C   UNL     1     -14.930  12.029 -30.786  1.00  0.00     0.039 C 
ENDBRANCH   5   6
ENDBRANCH   4   5
ENDBRANCH   1   4
BRANCH   2  10
ATOM     10  C   UNL     1     -12.257  14.606 -28.537  1.00  0.00     0.035 C 
BRANCH  10  11
ATOM     11  C   UNL     1     -12.643  13.292 -27.836  1.00  0.00     0.079 C 
BRANCH  11  12
ATOM     12  C   UNL     1     -12.239  13.250 -26.378  1.00  0.00     0.130 C 
ATOM     13  O   UNL     1     -12.383  14.237 -25.668  1.00  0.00    -0.300 OA
ATOM     14  C   UNL     1     -11.601  12.021 -25.799  1.00  0.00     0.087 C 
ENDBRANCH  11  12
ENDBRANCH  10  11
ENDBRANCH   2  10
TORSDOF 6
ENDMDL
MODEL 4
REMARK VINA RESULT:    -4.308      0.939      1.607
REMARK INTER + INTRA:          -7.287
REMARK INTER:                  -5.944
REMARK INTRA:                  -1.343
REMARK UNBOUND:                -1.468
REMARK SMILES CC(=O)CCC=C(C)CCC=C(C)C
REMARK SMILES IDX 7 1 6 2 8 3 9 4 10 5 11 6 13 7 12 8 14 9 5 10 4 11 2 12 3 13
REMARK SMILES IDX 1 14
REMARK H PARENT
REMARK Flexibility Score: inf
ROOT
ATOM      1  C   UNL     1     -12.482  14.482 -31.198  1.00  0.00    -0.077 C 
ATOM      2  C   UNL     1     -13.592  14.859 -31.874  1.00  0.00    -0.028 C 
ATOM      3  C   UNL     1     -11.419  13.714 -31.939  1.00  0.00     0.039 C 
ENDROOT
BRANCH   1   4
ATOM      4  C   UNL     1     -12.231  14.854 -29.749  1.00  0.00     0.034 C 
BRANCH   4   5
ATOM      5  C   UNL     1     -12.068  13.600 -28.880  1.00  0.00     0.032 C 
BRANCH   5   6
ATOM      6  C   UNL     1     -13.338  13.302 -28.119  1.00  0.00    -0.028 C 
ATOM      7  C   UNL     1     -15.460  12.171 -27.605  1.00  0.00     0.039 C 
ATOM      8  C   UNL     1     -14.255  12.379 -28.485  1.00  0.00    -0.080 C 
ATOM      9  C   UNL     1     -14.107  11.556 -29.743  1.00  0.00     0.039 C 
ENDBRANCH   5   6
ENDBRANCH   4   5
ENDBRANCH   1   4
BRANCH   2  10
ATOM     10  C   UNL     1     -14.736  15.654 -31.293  1.00  0.00     0.035 C 
BRANCH  10  11
ATOM     11  C   UNL     1     -15.802  14.761 -30.636  1.00  0.00     0.079 C 
BRANCH  11  12
ATOM     12  C   UNL     1     -16.810  14.209 -31.621  1.00  0.00     0.130 C 
ATOM     13  O   UNL     1     -16.831  14.613 -32.777  1.00  0.00    -0.300 OA
ATOM     14  C   UNL     1     -17.837  13.206 -31.181  1.00  0.00     0.087 C 
ENDBRANCH  11  12
ENDBRANCH  10  11
ENDBRANCH   2  10
TORSDOF 6
ENDMDL
MODEL 5
REMARK VINA RESULT:    -4.235      1.262      1.685
REMARK INTER + INTRA:          -7.188
REMARK INTER:                  -5.433
REMARK INTRA:                  -1.756
REMARK UNBOUND:                -1.468
REMARK SMILES CC(=O)CCC=C(C)CCC=C(C)C
REMARK SMILES IDX 7 1 6 2 8 3 9 4 10 5 11 6 13 7 12 8 14 9 5 10 4 11 2 12 3 13
REMARK SMILES IDX 1 14
REMARK H PARENT
REMARK Flexibility Score: inf
ROOT
ATOM      1  C   UNL     1     -12.873  13.666 -29.358  1.00  0.00    -0.077 C 
ATOM      2  C   UNL     1     -13.291  14.883 -29.773  1.00  0.00    -0.028 C 
ATOM      3  C   UNL     1     -12.349  13.532 -27.951  1.00  0.00     0.039 C 
ENDROOT
BRANCH   1   4
ATOM      4  C   UNL     1     -12.968  12.421 -30.218  1.00  0.00     0.034 C 
BRANCH   4   5
ATOM      5  C   UNL     1     -13.886  11.375 -29.571  1.00  0.00     0.032 C 
BRANCH   5   6
ATOM      6  C   UNL     1     -15.304  11.522 -30.068  1.00  0.00    -0.028 C 
ATOM      7  C   UNL     1     -17.689  12.113 -29.972  1.00  0.00     0.039 C 
ATOM      8  C   UNL     1     -16.333  11.993 -29.329  1.00  0.00    -0.080 C 
ATOM      9  C   UNL     1     -16.161  12.402 -27.884  1.00  0.00     0.039 C 
ENDBRANCH   5   6
ENDBRANCH   4   5
ENDBRANCH   1   4
BRANCH   2  10
ATOM     10  C   UNL     1     -13.867  15.186 -31.136  1.00  0.00     0.035 C 
BRANCH  10  11
ATOM     11  C   UNL     1     -15.405  15.160 -31.145  1.00  0.00     0.079 C 
BRANCH  11  12
ATOM     12  C   UNL     1     -15.985  14.437 -32.341  1.00  0.00     0.130 C 
ATOM     13  O   UNL     1     -17.162  14.587 -32.643  1.00  0.00    -0.300 OA
ATOM     14  C   UNL     1     -15.145  13.479 -33.135  1.00  0.00     0.087 C 
ENDBRANCH  11  12
ENDBRANCH  10  11
ENDBRANCH   2  10
TORSDOF 6
ENDMDL
MODEL 6
REMARK VINA RESULT:    -4.185      1.708      3.759
REMARK INTER + INTRA:          -7.120
REMARK INTER:                  -5.685
REMARK INTRA:                  -1.435
REMARK UNBOUND:                -1.468
REMARK SMILES CC(=O)CCC=C(C)CCC=C(C)C
REMARK SMILES IDX 7 1 6 2 8 3 9 4 10 5 11 6 13 7 12 8 14 9 5 10 4 11 2 12 3 13
REMARK SMILES IDX 1 14
REMARK H PARENT
REMARK Flexibility Score: inf
ROOT
ATOM      1  C   UNL     1     -12.943  12.810 -27.590  1.00  0.00    -0.077 C 
ATOM      2  C   UNL     1     -14.231  12.423 -27.449  1.00  0.00    -0.028 C 
ATOM      3  C   UNL     1     -12.241  13.406 -26.397  1.00  0.00     0.039 C 
ENDROOT
BRANCH   1   4
ATOM      4  C   UNL     1     -12.155  12.613 -28.871  1.00  0.00     0.034 C 
BRANCH   4   5
ATOM      5  C   UNL     1     -11.582  13.943 -29.374  1.00  0.00     0.032 C 
BRANCH   5   6
ATOM      6  C   UNL     1     -12.682  14.952 -29.605  1.00  0.00    -0.028 C 
ATOM      7  C   UNL     1     -14.300  16.287 -30.888  1.00  0.00     0.039 C 
ATOM      8  C   UNL     1     -13.177  15.286 -30.817  1.00  0.00    -0.080 C 
ATOM      9  C   UNL     1     -12.640  14.686 -32.096  1.00  0.00     0.039 C 
ENDBRANCH   5   6
ENDBRANCH   4   5
ENDBRANCH   1   4
BRANCH   2  10
ATOM     10  C   UNL     1     -15.070  11.784 -28.530  1.00  0.00     0.035 C 
BRANCH  10  11
ATOM     11  C   UNL     1     -15.779  12.822 -29.416  1.00  0.00     0.079 C 
BRANCH  11  12
ATOM     12  C   UNL     1     -15.530  12.618 -30.895  1.00  0.00     0.130 C 
ATOM     13  O   UNL     1     -14.655  11.850 -31.275  1.00  0.00    -0.300 OA
ATOM     14  C   UNL     1     -16.309  13.398 -31.914  1.00  0.00     0.087 C 
ENDBRANCH  11  12
ENDBRANCH  10  11
ENDBRANCH   2  10
TORSDOF 6
ENDMDL
MODEL 7
REMARK VINA RESULT:    -4.182      1.591      3.546
REMARK INTER + INTRA:          -7.117
REMARK INTER:                  -5.461
REMARK INTRA:                  -1.656
REMARK UNBOUND:                -1.468
REMARK SMILES CC(=O)CCC=C(C)CCC=C(C)C
REMARK SMILES IDX 7 1 6 2 8 3 9 4 10 5 11 6 13 7 12 8 14 9 5 10 4 11 2 12 3 13
REMARK SMILES IDX 1 14
REMARK H PARENT
REMARK Flexibility Score: inf
ROOT
ATOM      1  C   UNL     1     -13.345  12.532 -28.267  1.00  0.00    -0.077 C 
ATOM      2  C   UNL     1     -12.728  13.735 -28.231  1.00  0.00    -0.028 C 
ATOM      3  C   UNL     1     -13.909  11.979 -26.984  1.00  0.00     0.039 C 
ENDROOT
BRANCH   1   4
ATOM      4  C   UNL     1     -13.553  11.747 -29.548  1.00  0.00     0.034 C 
BRANCH   4   5
ATOM      5  C   UNL     1     -15.041  11.462 -29.783  1.00  0.00     0.032 C 
BRANCH   5   6
ATOM      6  C   UNL     1     -15.585  12.320 -30.900  1.00  0.00    -0.028 C 
ATOM      7  C   UNL     1     -16.808  14.184 -31.937  1.00  0.00     0.039 C 
ATOM      8  C   UNL     1     -16.368  13.407 -30.724  1.00  0.00    -0.080 C 
ATOM      9  C   UNL     1     -16.811  13.862 -29.354  1.00  0.00     0.039 C 
ENDBRANCH   5   6
ENDBRANCH   4   5
ENDBRANCH   1   4
BRANCH   2  10
ATOM     10  C   UNL     1     -12.134  14.443 -29.425  1.00  0.00     0.035 C 
BRANCH  10  11
ATOM     11  C   UNL     1     -13.172  15.283 -30.188  1.00  0.00     0.079 C 
BRANCH  11  12
ATOM     12  C   UNL     1     -13.123  15.078 -31.687  1.00  0.00     0.130 C 
ATOM     13  O   UNL     1     -13.790  15.787 -32.430  1.00  0.00    -0.300 OA
ATOM     14  C   UNL     1     -12.306  13.966 -32.279  1.00  0.00     0.087 C 
ENDBRANCH  11  12
ENDBRANCH  10  11
ENDBRANCH   2  10
TORSDOF 6
ENDMDL
MODEL 8
REMARK VINA RESULT:    -4.166      2.694      5.293
REMARK INTER + INTRA:          -7.095
REMARK INTER:                  -5.677
REMARK INTRA:                  -1.417
REMARK UNBOUND:                -1.468
REMARK SMILES CC(=O)CCC=C(C)CCC=C(C)C
REMARK SMILES IDX 7 1 6 2 8 3 9 4 10 5 11 6 13 7 12 8 14 9 5 10 4 11 2 12 3 13
REMARK SMILES IDX 1 14
REMARK H PARENT
REMARK Flexibility Score: inf
ROOT
ATOM      1  C   UNL     1     -16.262  13.177 -29.493  1.00  0.00    -0.077 C 
ATOM      2  C   UNL     1     -15.212  13.120 -28.642  1.00  0.00    -0.028 C 
ATOM      3  C   UNL     1     -17.518  13.870 -29.033  1.00  0.00     0.039 C 
ENDROOT
BRANCH   1   4
ATOM      4  C   UNL     1     -16.210  12.635 -30.908  1.00  0.00     0.034 C 
BRANCH   4   5
ATOM      5  C   UNL     1     -15.999  13.766 -31.923  1.00  0.00     0.032 C 
BRANCH   5   6
ATOM      6  C   UNL     1     -14.539  13.896 -32.290  1.00  0.00    -0.028 C 
ATOM      7  C   UNL     1     -12.275  14.852 -32.272  1.00  0.00     0.039 C 
ATOM      8  C   UNL     1     -13.719  14.872 -31.844  1.00  0.00    -0.080 C 
ATOM      9  C   UNL     1     -14.205  15.975 -30.934  1.00  0.00     0.039 C 
ENDBRANCH   5   6
ENDBRANCH   4   5
ENDBRANCH   1   4
BRANCH   2  10
ATOM     10  C   UNL     1     -13.875  12.490 -28.952  1.00  0.00     0.035 C 
BRANCH  10  11
ATOM     11  C   UNL     1     -12.692  13.369 -28.512  1.00  0.00     0.079 C 
BRANCH  11  12
ATOM     12  C   UNL     1     -12.399  13.281 -27.030  1.00  0.00     0.130 C 
ATOM     13  O   UNL     1     -12.330  14.299 -26.352  1.00  0.00    -0.300 OA
ATOM     14  C   UNL     1     -12.130  11.954 -26.382  1.00  0.00     0.087 C 
ENDBRANCH  11  12
ENDBRANCH  10  11
ENDBRANCH   2  10
TORSDOF 6
ENDMDL
MODEL 9
REMARK VINA RESULT:    -4.112      1.775      3.555
REMARK INTER + INTRA:          -7.022
REMARK INTER:                  -5.544
REMARK INTRA:                  -1.478
REMARK UNBOUND:                -1.468
REMARK SMILES CC(=O)CCC=C(C)CCC=C(C)C
REMARK SMILES IDX 7 1 6 2 8 3 9 4 10 5 11 6 13 7 12 8 14 9 5 10 4 11 2 12 3 13
REMARK SMILES IDX 1 14
REMARK H PARENT
REMARK Flexibility Score: inf
ROOT
ATOM      1  C   UNL     1     -14.757  15.213 -31.431  1.00  0.00    -0.077 C 
ATOM      2  C   UNL     1     -15.974  14.767 -31.045  1.00  0.00    -0.028 C 
ATOM      3  C   UNL     1     -14.263  16.520 -30.866  1.00  0.00     0.039 C 
ENDROOT
BRANCH   1   4
ATOM      4  C   UNL     1     -13.842  14.429 -32.352  1.00  0.00     0.034 C 
BRANCH   4   5
ATOM      5  C   UNL     1     -12.370  14.649 -31.981  1.00  0.00     0.032 C 
BRANCH   5   6
ATOM      6  C   UNL     1     -11.800  13.431 -31.293  1.00  0.00    -0.028 C 
ATOM      7  C   UNL     1     -11.084  12.018 -29.412  1.00  0.00     0.039 C 
ATOM      8  C   UNL     1     -11.636  13.309 -29.957  1.00  0.00    -0.080 C 
ATOM      9  C   UNL     1     -11.990  14.424 -29.001  1.00  0.00     0.039 C 
ENDBRANCH   5   6
ENDBRANCH   4   5
ENDBRANCH   1   4
BRANCH   2  10
ATOM     10  C   UNL     1     -16.605  13.470 -31.491  1.00  0.00     0.035 C 
BRANCH  10  11
ATOM     11  C   UNL     1     -16.655  12.421 -30.367  1.00  0.00     0.079 C 
BRANCH  11  12
ATOM     12  C   UNL     1     -15.298  11.848 -30.021  1.00  0.00     0.130 C 
ATOM     13  O   UNL     1     -14.621  11.298 -30.881  1.00  0.00    -0.300 OA
ATOM     14  C   UNL     1     -14.789  11.890 -28.609  1.00  0.00     0.087 C 
ENDBRANCH  11  12
ENDBRANCH  10  11
ENDBRANCH   2  10
TORSDOF 6
ENDMDL
