MODEL 1
REMARK VINA RESULT:    -6.248      0.000      0.000
REMARK INTER + INTRA:         -10.634
REMARK INTER:                  -9.169
REMARK INTRA:                  -1.465
REMARK UNBOUND:                -1.465
REMARK SMILES O=c1c(O[C@H]2O[C@H](CO)[C@@H](O)[C@@H](O)[C@@H]2O)c(-c2ccc(O)c(O)c2)oc2cc(O)cc(O)c12
REMARK SMILES IDX 4 1 3 2 16 3 25 4 2 5 26 6 1 7 33 8 27 9 31 10 28 11 30 12
REMARK SMILES IDX 17 13 18 14 19 15 20 16 24 17 22 18 21 19 23 21 32 23 29 25
REMARK SMILES IDX 5 27 14 28 6 29 12 30 7 31 10 32 15 33 13 35 8 37 9 38 11 40
REMARK H PARENT 21 20 23 22 32 24 29 26 15 34 13 36 9 39 11 41
REMARK Flexibility Score: inf
ROOT
ATOM      1  O   UNL     1      15.381  -3.242 -12.144  1.00  0.00    -0.454 OA
ENDROOT
BRANCH   1   2
ATOM      2  C   UNL     1      16.116  -2.468 -11.233  1.00  0.00     0.214 A 
ATOM      3  C   UNL     1      16.377  -1.122 -11.541  1.00  0.00     0.180 A 
ATOM      4  O   UNL     1      17.124  -0.382 -10.730  1.00  0.00    -0.452 OA
ATOM      5  C   UNL     1      16.609  -2.991 -10.023  1.00  0.00     0.239 A 
ATOM      6  C   UNL     1      17.632  -0.841  -9.593  1.00  0.00     0.146 A 
ATOM      7  O   UNL     1      16.325  -4.172  -9.690  1.00  0.00    -0.285 OA
ATOM      8  C   UNL     1      17.393  -2.174  -9.181  1.00  0.00     0.111 A 
ATOM      9  C   UNL     1      18.400   0.015  -8.798  1.00  0.00     0.094 A 
ATOM     10  C   UNL     1      17.944  -2.626  -7.958  1.00  0.00     0.134 A 
ATOM     11  C   UNL     1      18.937  -0.433  -7.587  1.00  0.00     0.123 A 
ATOM     12  C   UNL     1      18.706  -1.747  -7.170  1.00  0.00     0.093 A 
BRANCH   3  13
ATOM     13  C   UNL     1      15.861  -0.509 -12.780  1.00  0.00     0.025 A 
ATOM     14  C   UNL     1      14.608   0.123 -12.802  1.00  0.00     0.016 A 
ATOM     15  C   UNL     1      14.132   0.702 -13.981  1.00  0.00     0.051 A 
ATOM     16  C   UNL     1      14.897   0.646 -15.154  1.00  0.00     0.157 A 
ATOM     17  C   UNL     1      16.638  -0.547 -13.950  1.00  0.00     0.062 A 
ATOM     18  C   UNL     1      16.160   0.027 -15.137  1.00  0.00     0.158 A 
BRANCH  16  19
ATOM     19  O   UNL     1      14.384   1.202 -16.328  1.00  0.00    -0.504 OA
ATOM     20  H   UNL     1      13.392   1.178 -16.544  1.00  0.00     0.293 HD
ENDBRANCH  16  19
BRANCH  18  21
ATOM     21  O   UNL     1      16.935  -0.016 -16.295  1.00  0.00    -0.504 OA
ATOM     22  H   UNL     1      16.636   0.433 -17.153  1.00  0.00     0.293 HD
ENDBRANCH  18  21
ENDBRANCH   3  13
BRANCH  10  23
ATOM     23  O   UNL     1      17.747  -3.938  -7.522  1.00  0.00    -0.507 OA
ATOM     24  H   UNL     1      18.036  -4.731  -8.081  1.00  0.00     0.293 HD
ENDBRANCH  10  23
BRANCH  11  25
ATOM     25  O   UNL     1      19.704   0.416  -6.792  1.00  0.00    -0.508 OA
ATOM     26  H   UNL     1      20.716   0.389  -6.816  1.00  0.00     0.293 HD
ENDBRANCH  11  25
ENDBRANCH   1   2
BRANCH   1  27
ATOM     27  C   UNL     1      15.949  -4.092 -13.141  1.00  0.00     0.339 C 
ATOM     28  C   UNL     1      15.680  -5.552 -12.714  1.00  0.00     0.214 C 
ATOM     29  O   UNL     1      17.341  -3.828 -13.220  1.00  0.00    -0.332 OA
ATOM     30  C   UNL     1      16.336  -6.527 -13.698  1.00  0.00     0.180 C 
ATOM     31  C   UNL     1      18.005  -4.645 -14.180  1.00  0.00     0.179 C 
ATOM     32  C   UNL     1      17.819  -6.163 -13.909  1.00  0.00     0.177 C 
BRANCH  28  33
ATOM     33  O   UNL     1      14.298  -5.805 -12.615  1.00  0.00    -0.384 OA
ATOM     34  H   UNL     1      13.836  -4.941 -12.451  1.00  0.00     0.211 HD
ENDBRANCH  28  33
BRANCH  30  35
ATOM     35  O   UNL     1      16.224  -7.838 -13.200  1.00  0.00    -0.387 OA
ATOM     36  H   UNL     1      17.010  -7.995 -12.616  1.00  0.00     0.211 HD
ENDBRANCH  30  35
BRANCH  31  37
ATOM     37  C   UNL     1      17.668  -4.251 -15.637  1.00  0.00     0.191 C 
BRANCH  37  38
ATOM     38  O   UNL     1      18.043  -2.927 -15.897  1.00  0.00    -0.394 OA
ATOM     39  H   UNL     1      17.332  -2.345 -15.522  1.00  0.00     0.210 HD
ENDBRANCH  37  38
ENDBRANCH  31  37
BRANCH  32  40
ATOM     40  O   UNL     1      18.603  -6.575 -12.814  1.00  0.00    -0.387 OA
ATOM     41  H   UNL     1      18.562  -7.564 -12.758  1.00  0.00     0.211 HD
ENDBRANCH  32  40
ENDBRANCH   1  27
TORSDOF 12
ENDMDL
MODEL 2
REMARK VINA RESULT:    -6.137      3.561      5.168
REMARK INTER + INTRA:         -10.472
REMARK INTER:                  -9.446
REMARK INTRA:                  -1.026
REMARK UNBOUND:                -1.465
REMARK SMILES O=c1c(O[C@H]2O[C@H](CO)[C@@H](O)[C@@H](O)[C@@H]2O)c(-c2ccc(O)c(O)c2)oc2cc(O)cc(O)c12
REMARK SMILES IDX 4 1 3 2 16 3 25 4 2 5 26 6 1 7 33 8 27 9 31 10 28 11 30 12
REMARK SMILES IDX 17 13 18 14 19 15 20 16 24 17 22 18 21 19 23 21 32 23 29 25
REMARK SMILES IDX 5 27 14 28 6 29 12 30 7 31 10 32 15 33 13 35 8 37 9 38 11 40
REMARK H PARENT 21 20 23 22 32 24 29 26 15 34 13 36 9 39 11 41
REMARK Flexibility Score: inf
ROOT
ATOM      1  O   UNL     1      17.812  -2.770 -14.596  1.00  0.00    -0.454 OA
ENDROOT
BRANCH   1   2
ATOM      2  C   UNL     1      16.824  -1.776 -14.525  1.00  0.00     0.214 A 
ATOM      3  C   UNL     1      16.996  -0.595 -15.267  1.00  0.00     0.180 A 
ATOM      4  O   UNL     1      16.112   0.392 -15.171  1.00  0.00    -0.452 OA
ATOM      5  C   UNL     1      15.670  -1.913 -13.733  1.00  0.00     0.239 A 
ATOM      6  C   UNL     1      15.023   0.317 -14.415  1.00  0.00     0.146 A 
ATOM      7  O   UNL     1      15.457  -2.992 -13.118  1.00  0.00    -0.285 OA
ATOM      8  C   UNL     1      14.746  -0.848 -13.659  1.00  0.00     0.111 A 
ATOM      9  C   UNL     1      14.142   1.403 -14.383  1.00  0.00     0.094 A 
ATOM     10  C   UNL     1      13.571  -0.894 -12.872  1.00  0.00     0.134 A 
ATOM     11  C   UNL     1      12.979   1.350 -13.609  1.00  0.00     0.123 A 
ATOM     12  C   UNL     1      12.696   0.204 -12.860  1.00  0.00     0.093 A 
BRANCH   3  13
ATOM     13  C   UNL     1      18.170  -0.405 -16.139  1.00  0.00     0.025 A 
ATOM     14  C   UNL     1      19.169   0.524 -15.810  1.00  0.00     0.016 A 
ATOM     15  C   UNL     1      20.277   0.692 -16.644  1.00  0.00     0.051 A 
ATOM     16  C   UNL     1      20.394  -0.056 -17.823  1.00  0.00     0.157 A 
ATOM     17  C   UNL     1      18.298  -1.171 -17.310  1.00  0.00     0.062 A 
ATOM     18  C   UNL     1      19.404  -1.000 -18.153  1.00  0.00     0.158 A 
BRANCH  16  19
ATOM     19  O   UNL     1      21.494   0.156 -18.657  1.00  0.00    -0.504 OA
ATOM     20  H   UNL     1      22.063   0.995 -18.593  1.00  0.00     0.293 HD
ENDBRANCH  16  19
BRANCH  18  21
ATOM     21  O   UNL     1      19.524  -1.762 -19.314  1.00  0.00    -0.504 OA
ATOM     22  H   UNL     1      20.404  -1.843 -19.811  1.00  0.00     0.293 HD
ENDBRANCH  18  21
ENDBRANCH   3  13
BRANCH  10  23
ATOM     23  O   UNL     1      13.269  -2.018 -12.098  1.00  0.00    -0.507 OA
ATOM     24  H   UNL     1      13.993  -2.557 -11.641  1.00  0.00     0.293 HD
ENDBRANCH  10  23
BRANCH  11  25
ATOM     25  O   UNL     1      12.100   2.430 -13.572  1.00  0.00    -0.508 OA
ATOM     26  H   UNL     1      12.437   3.382 -13.510  1.00  0.00     0.293 HD
ENDBRANCH  11  25
ENDBRANCH   1   2
BRANCH   1  27
ATOM     27  C   UNL     1      17.562  -4.159 -14.813  1.00  0.00     0.339 C 
ATOM     28  C   UNL     1      18.335  -4.944 -13.730  1.00  0.00     0.214 C 
ATOM     29  O   UNL     1      18.013  -4.500 -16.115  1.00  0.00    -0.332 OA
ATOM     30  C   UNL     1      18.181  -6.453 -13.951  1.00  0.00     0.180 C 
ATOM     31  C   UNL     1      17.823  -5.879 -16.421  1.00  0.00     0.179 C 
ATOM     32  C   UNL     1      18.526  -6.822 -15.407  1.00  0.00     0.177 C 
BRANCH  28  33
ATOM     33  O   UNL     1      17.901  -4.588 -12.438  1.00  0.00    -0.384 OA
ATOM     34  H   UNL     1      18.653  -4.132 -11.975  1.00  0.00     0.211 HD
ENDBRANCH  28  33
BRANCH  30  35
ATOM     35  O   UNL     1      19.026  -7.143 -13.063  1.00  0.00    -0.387 OA
ATOM     36  H   UNL     1      19.370  -7.937 -13.546  1.00  0.00     0.211 HD
ENDBRANCH  30  35
BRANCH  31  37
ATOM     37  C   UNL     1      16.338  -6.243 -16.647  1.00  0.00     0.191 C 
BRANCH  37  38
ATOM     38  O   UNL     1      15.972  -6.048 -17.986  1.00  0.00    -0.394 OA
ATOM     39  H   UNL     1      14.982  -5.990 -18.010  1.00  0.00     0.210 HD
ENDBRANCH  37  38
ENDBRANCH  31  37
BRANCH  32  40
ATOM     40  O   UNL     1      19.919  -6.827 -15.612  1.00  0.00    -0.387 OA
ATOM     41  H   UNL     1      20.112  -7.366 -16.422  1.00  0.00     0.211 HD
ENDBRANCH  32  40
ENDBRANCH   1  27
TORSDOF 12
ENDMDL
MODEL 3
REMARK VINA RESULT:    -5.988      1.897      6.154
REMARK INTER + INTRA:         -10.253
REMARK INTER:                  -8.845
REMARK INTRA:                  -1.407
REMARK UNBOUND:                -1.465
REMARK SMILES O=c1c(O[C@H]2O[C@H](CO)[C@@H](O)[C@@H](O)[C@@H]2O)c(-c2ccc(O)c(O)c2)oc2cc(O)cc(O)c12
REMARK SMILES IDX 4 1 3 2 16 3 25 4 2 5 26 6 1 7 33 8 27 9 31 10 28 11 30 12
REMARK SMILES IDX 17 13 18 14 19 15 20 16 24 17 22 18 21 19 23 21 32 23 29 25
REMARK SMILES IDX 5 27 14 28 6 29 12 30 7 31 10 32 15 33 13 35 8 37 9 38 11 40
REMARK H PARENT 21 20 23 22 32 24 29 26 15 34 13 36 9 39 11 41
REMARK Flexibility Score: inf
ROOT
ATOM      1  O   UNL     1      16.992  -2.758 -11.637  1.00  0.00    -0.454 OA
ENDROOT
BRANCH   1   2
ATOM      2  C   UNL     1      17.378  -3.501 -12.762  1.00  0.00     0.214 A 
ATOM      3  C   UNL     1      17.476  -2.851 -14.004  1.00  0.00     0.180 A 
ATOM      4  O   UNL     1      17.776  -3.540 -15.100  1.00  0.00    -0.452 OA
ATOM      5  C   UNL     1      17.664  -4.878 -12.697  1.00  0.00     0.239 A 
ATOM      6  C   UNL     1      18.027  -4.844 -15.089  1.00  0.00     0.146 A 
ATOM      7  O   UNL     1      17.655  -5.466 -11.583  1.00  0.00    -0.285 OA
ATOM      8  C   UNL     1      17.986  -5.578 -13.879  1.00  0.00     0.111 A 
ATOM      9  C   UNL     1      18.343  -5.485 -16.291  1.00  0.00     0.094 A 
ATOM     10  C   UNL     1      18.268  -6.965 -13.906  1.00  0.00     0.134 A 
ATOM     11  C   UNL     1      18.627  -6.854 -16.312  1.00  0.00     0.123 A 
ATOM     12  C   UNL     1      18.591  -7.587 -15.123  1.00  0.00     0.093 A 
BRANCH   3  13
ATOM     13  C   UNL     1      17.219  -1.404 -14.131  1.00  0.00     0.025 A 
ATOM     14  C   UNL     1      15.907  -0.909 -14.187  1.00  0.00     0.016 A 
ATOM     15  C   UNL     1      15.677   0.464 -14.306  1.00  0.00     0.051 A 
ATOM     16  C   UNL     1      16.755   1.357 -14.381  1.00  0.00     0.157 A 
ATOM     17  C   UNL     1      18.299  -0.508 -14.186  1.00  0.00     0.062 A 
ATOM     18  C   UNL     1      18.073   0.870 -14.312  1.00  0.00     0.158 A 
BRANCH  16  19
ATOM     19  O   UNL     1      16.498   2.721 -14.535  1.00  0.00    -0.504 OA
ATOM     20  H   UNL     1      16.483   3.357 -13.743  1.00  0.00     0.293 HD
ENDBRANCH  16  19
BRANCH  18  21
ATOM     21  O   UNL     1      19.149   1.753 -14.367  1.00  0.00    -0.504 OA
ATOM     22  H   UNL     1      19.232   2.533 -13.724  1.00  0.00     0.293 HD
ENDBRANCH  18  21
ENDBRANCH   3  13
BRANCH  10  23
ATOM     23  O   UNL     1      18.223  -7.730 -12.738  1.00  0.00    -0.507 OA
ATOM     24  H   UNL     1      17.847  -7.357 -11.875  1.00  0.00     0.293 HD
ENDBRANCH  10  23
BRANCH  11  25
ATOM     25  O   UNL     1      18.941  -7.496 -17.507  1.00  0.00    -0.508 OA
ATOM     26  H   UNL     1      18.541  -8.395 -17.744  1.00  0.00     0.293 HD
ENDBRANCH  11  25
ENDBRANCH   1   2
BRANCH   1  27
ATOM     27  C   UNL     1      17.849  -2.415 -10.548  1.00  0.00     0.339 C 
ATOM     28  C   UNL     1      17.141  -2.848  -9.246  1.00  0.00     0.214 C 
ATOM     29  O   UNL     1      18.068  -1.013 -10.571  1.00  0.00    -0.332 OA
ATOM     30  C   UNL     1      17.968  -2.435  -8.023  1.00  0.00     0.180 C 
ATOM     31  C   UNL     1      18.902  -0.567  -9.505  1.00  0.00     0.179 C 
ATOM     32  C   UNL     1      18.342  -0.942  -8.106  1.00  0.00     0.177 C 
BRANCH  28  33
ATOM     33  O   UNL     1      16.904  -4.237  -9.235  1.00  0.00    -0.384 OA
ATOM     34  H   UNL     1      16.518  -4.477  -8.351  1.00  0.00     0.211 HD
ENDBRANCH  28  33
BRANCH  30  35
ATOM     35  O   UNL     1      17.229  -2.686  -6.853  1.00  0.00    -0.387 OA
ATOM     36  H   UNL     1      17.875  -2.960  -6.154  1.00  0.00     0.211 HD
ENDBRANCH  30  35
BRANCH  31  37
ATOM     37  C   UNL     1      20.381  -0.980  -9.688  1.00  0.00     0.191 C 
BRANCH  37  38
ATOM     38  O   UNL     1      21.100  -0.805  -8.499  1.00  0.00    -0.394 OA
ATOM     39  H   UNL     1      20.743   0.011  -8.062  1.00  0.00     0.210 HD
ENDBRANCH  37  38
ENDBRANCH  31  37
BRANCH  32  40
ATOM     40  O   UNL     1      17.244  -0.126  -7.772  1.00  0.00    -0.387 OA
ATOM     41  H   UNL     1      17.189  -0.070  -6.783  1.00  0.00     0.211 HD
ENDBRANCH  32  40
ENDBRANCH   1  27
TORSDOF 12
ENDMDL
MODEL 4
REMARK VINA RESULT:    -5.977      2.331      6.766
REMARK INTER + INTRA:         -10.237
REMARK INTER:                  -8.988
REMARK INTRA:                  -1.249
REMARK UNBOUND:                -1.465
REMARK SMILES O=c1c(O[C@H]2O[C@H](CO)[C@@H](O)[C@@H](O)[C@@H]2O)c(-c2ccc(O)c(O)c2)oc2cc(O)cc(O)c12
REMARK SMILES IDX 4 1 3 2 16 3 25 4 2 5 26 6 1 7 33 8 27 9 31 10 28 11 30 12
REMARK SMILES IDX 17 13 18 14 19 15 20 16 24 17 22 18 21 19 23 21 32 23 29 25
REMARK SMILES IDX 5 27 14 28 6 29 12 30 7 31 10 32 15 33 13 35 8 37 9 38 11 40
REMARK H PARENT 21 20 23 22 32 24 29 26 15 34 13 36 9 39 11 41
REMARK Flexibility Score: inf
ROOT
ATOM      1  O   UNL     1      17.225  -1.122 -11.347  1.00  0.00    -0.454 OA
ENDROOT
BRANCH   1   2
ATOM      2  C   UNL     1      17.487  -1.084 -12.724  1.00  0.00     0.214 A 
ATOM      3  C   UNL     1      16.898  -2.053 -13.554  1.00  0.00     0.180 A 
ATOM      4  O   UNL     1      17.177  -2.083 -14.853  1.00  0.00    -0.452 OA
ATOM      5  C   UNL     1      18.324  -0.115 -13.308  1.00  0.00     0.239 A 
ATOM      6  C   UNL     1      17.982  -1.206 -15.441  1.00  0.00     0.146 A 
ATOM      7  O   UNL     1      18.805   0.807 -12.597  1.00  0.00    -0.285 OA
ATOM      8  C   UNL     1      18.594  -0.172 -14.692  1.00  0.00     0.111 A 
ATOM      9  C   UNL     1      18.212  -1.310 -16.816  1.00  0.00     0.094 A 
ATOM     10  C   UNL     1      19.440   0.749 -15.355  1.00  0.00     0.134 A 
ATOM     11  C   UNL     1      19.043  -0.394 -17.468  1.00  0.00     0.123 A 
ATOM     12  C   UNL     1      19.650   0.631 -16.739  1.00  0.00     0.093 A 
BRANCH   3  13
ATOM     13  C   UNL     1      15.987  -3.075 -13.006  1.00  0.00     0.025 A 
ATOM     14  C   UNL     1      16.433  -4.385 -12.771  1.00  0.00     0.016 A 
ATOM     15  C   UNL     1      15.560  -5.343 -12.250  1.00  0.00     0.051 A 
ATOM     16  C   UNL     1      14.228  -5.008 -11.969  1.00  0.00     0.157 A 
ATOM     17  C   UNL     1      14.658  -2.733 -12.706  1.00  0.00     0.062 A 
ATOM     18  C   UNL     1      13.777  -3.694 -12.190  1.00  0.00     0.158 A 
BRANCH  16  19
ATOM     19  O   UNL     1      13.367  -5.993 -11.482  1.00  0.00    -0.504 OA
ATOM     20  H   UNL     1      13.503  -6.977 -11.692  1.00  0.00     0.293 HD
ENDBRANCH  16  19
BRANCH  18  21
ATOM     21  O   UNL     1      12.459  -3.348 -11.895  1.00  0.00    -0.504 OA
ATOM     22  H   UNL     1      11.712  -3.471 -12.570  1.00  0.00     0.293 HD
ENDBRANCH  18  21
ENDBRANCH   3  13
BRANCH  10  23
ATOM     23  O   UNL     1      20.077   1.775 -14.652  1.00  0.00    -0.507 OA
ATOM     24  H   UNL     1      19.568   2.379 -14.019  1.00  0.00     0.293 HD
ENDBRANCH  10  23
BRANCH  11  25
ATOM     25  O   UNL     1      19.275  -0.495 -18.837  1.00  0.00    -0.508 OA
ATOM     26  H   UNL     1      19.705  -1.318 -19.241  1.00  0.00     0.293 HD
ENDBRANCH  11  25
ENDBRANCH   1   2
BRANCH   1  27
ATOM     27  C   UNL     1      18.072  -1.726 -10.368  1.00  0.00     0.339 C 
ATOM     28  C   UNL     1      17.194  -2.077  -9.147  1.00  0.00     0.214 C 
ATOM     29  O   UNL     1      19.090  -0.800 -10.020  1.00  0.00    -0.332 OA
ATOM     30  C   UNL     1      18.053  -2.655  -8.018  1.00  0.00     0.180 C 
ATOM     31  C   UNL     1      19.980  -1.305  -9.030  1.00  0.00     0.179 C 
ATOM     32  C   UNL     1      19.251  -1.731  -7.726  1.00  0.00     0.177 C 
BRANCH  28  33
ATOM     33  O   UNL     1      16.171  -2.979  -9.500  1.00  0.00    -0.384 OA
ATOM     34  H   UNL     1      15.827  -3.397  -8.667  1.00  0.00     0.211 HD
ENDBRANCH  28  33
BRANCH  30  35
ATOM     35  O   UNL     1      17.265  -2.808  -6.863  1.00  0.00    -0.387 OA
ATOM     36  H   UNL     1      17.767  -3.396  -6.243  1.00  0.00     0.211 HD
ENDBRANCH  30  35
BRANCH  31  37
ATOM     37  C   UNL     1      20.921  -2.405  -9.575  1.00  0.00     0.191 C 
BRANCH  37  38
ATOM     38  O   UNL     1      21.628  -3.021  -8.534  1.00  0.00    -0.394 OA
ATOM     39  H   UNL     1      22.176  -2.317  -8.100  1.00  0.00     0.210 HD
ENDBRANCH  37  38
ENDBRANCH  31  37
BRANCH  32  40
ATOM     40  O   UNL     1      18.851  -0.601  -6.986  1.00  0.00    -0.387 OA
ATOM     41  H   UNL     1      17.911  -0.735  -6.700  1.00  0.00     0.211 HD
ENDBRANCH  32  40
ENDBRANCH   1  27
TORSDOF 12
ENDMDL
MODEL 5
REMARK VINA RESULT:    -5.934      2.542      6.712
REMARK INTER + INTRA:         -10.174
REMARK INTER:                  -9.034
REMARK INTRA:                  -1.140
REMARK UNBOUND:                -1.465
REMARK SMILES O=c1c(O[C@H]2O[C@H](CO)[C@@H](O)[C@@H](O)[C@@H]2O)c(-c2ccc(O)c(O)c2)oc2cc(O)cc(O)c12
REMARK SMILES IDX 4 1 3 2 16 3 25 4 2 5 26 6 1 7 33 8 27 9 31 10 28 11 30 12
REMARK SMILES IDX 17 13 18 14 19 15 20 16 24 17 22 18 21 19 23 21 32 23 29 25
REMARK SMILES IDX 5 27 14 28 6 29 12 30 7 31 10 32 15 33 13 35 8 37 9 38 11 40
REMARK H PARENT 21 20 23 22 32 24 29 26 15 34 13 36 9 39 11 41
REMARK Flexibility Score: inf
ROOT
ATOM      1  O   UNL     1      17.017   0.585 -11.956  1.00  0.00    -0.454 OA
ENDROOT
BRANCH   1   2
ATOM      2  C   UNL     1      17.433   0.330 -13.272  1.00  0.00     0.214 A 
ATOM      3  C   UNL     1      16.632  -0.484 -14.091  1.00  0.00     0.180 A 
ATOM      4  O   UNL     1      17.031  -0.797 -15.319  1.00  0.00    -0.452 OA
ATOM      5  C   UNL     1      18.628   0.852 -13.800  1.00  0.00     0.239 A 
ATOM      6  C   UNL     1      18.163  -0.350 -15.849  1.00  0.00     0.146 A 
ATOM      7  O   UNL     1      19.325   1.642 -13.111  1.00  0.00    -0.285 OA
ATOM      8  C   UNL     1      19.018   0.504 -15.112  1.00  0.00     0.111 A 
ATOM      9  C   UNL     1      18.498  -0.725 -17.154  1.00  0.00     0.094 A 
ATOM     10  C   UNL     1      20.213   0.968 -15.713  1.00  0.00     0.134 A 
ATOM     11  C   UNL     1      19.676  -0.260 -17.746  1.00  0.00     0.123 A 
ATOM     12  C   UNL     1      20.526   0.585 -17.028  1.00  0.00     0.093 A 
BRANCH   3  13
ATOM     13  C   UNL     1      15.354  -1.035 -13.604  1.00  0.00     0.025 A 
ATOM     14  C   UNL     1      14.207  -0.230 -13.524  1.00  0.00     0.016 A 
ATOM     15  C   UNL     1      13.002  -0.766 -13.062  1.00  0.00     0.051 A 
ATOM     16  C   UNL     1      12.932  -2.108 -12.664  1.00  0.00     0.157 A 
ATOM     17  C   UNL     1      15.279  -2.386 -13.225  1.00  0.00     0.062 A 
ATOM     18  C   UNL     1      14.073  -2.925 -12.755  1.00  0.00     0.158 A 
BRANCH  16  19
ATOM     19  O   UNL     1      11.724  -2.610 -12.174  1.00  0.00    -0.504 OA
ATOM     20  H   UNL     1      11.680  -3.463 -11.626  1.00  0.00     0.293 HD
ENDBRANCH  16  19
BRANCH  18  21
ATOM     21  O   UNL     1      14.006  -4.266 -12.380  1.00  0.00    -0.504 OA
ATOM     22  H   UNL     1      14.687  -4.945 -12.703  1.00  0.00     0.293 HD
ENDBRANCH  18  21
ENDBRANCH   3  13
BRANCH  10  23
ATOM     23  O   UNL     1      21.093   1.799 -15.015  1.00  0.00    -0.507 OA
ATOM     24  H   UNL     1      22.046   1.518 -14.822  1.00  0.00     0.293 HD
ENDBRANCH  10  23
BRANCH  11  25
ATOM     25  O   UNL     1      20.013  -0.633 -19.045  1.00  0.00    -0.508 OA
ATOM     26  H   UNL     1      20.369   0.040 -19.712  1.00  0.00     0.293 HD
ENDBRANCH  11  25
ENDBRANCH   1   2
BRANCH   1  27
ATOM     27  C   UNL     1      17.101  -0.344 -10.875  1.00  0.00     0.339 C 
ATOM     28  C   UNL     1      17.529   0.444  -9.618  1.00  0.00     0.214 C 
ATOM     29  O   UNL     1      18.057  -1.339 -11.209  1.00  0.00    -0.332 OA
ATOM     30  C   UNL     1      17.722  -0.506  -8.431  1.00  0.00     0.180 C 
ATOM     31  C   UNL     1      18.227  -2.308 -10.179  1.00  0.00     0.179 C 
ATOM     32  C   UNL     1      18.644  -1.677  -8.822  1.00  0.00     0.177 C 
BRANCH  28  33
ATOM     33  O   UNL     1      16.590   1.445  -9.302  1.00  0.00    -0.384 OA
ATOM     34  H   UNL     1      16.564   1.542  -8.314  1.00  0.00     0.211 HD
ENDBRANCH  28  33
BRANCH  30  35
ATOM     35  O   UNL     1      18.273   0.205  -7.349  1.00  0.00    -0.387 OA
ATOM     36  H   UNL     1      17.935   1.135  -7.411  1.00  0.00     0.211 HD
ENDBRANCH  30  35
BRANCH  31  37
ATOM     37  C   UNL     1      17.017  -3.263 -10.049  1.00  0.00     0.191 C 
BRANCH  37  38
ATOM     38  O   UNL     1      17.087  -3.999  -8.859  1.00  0.00    -0.394 OA
ATOM     39  H   UNL     1      16.155  -4.219  -8.600  1.00  0.00     0.210 HD
ENDBRANCH  37  38
ENDBRANCH  31  37
BRANCH  32  40
ATOM     40  O   UNL     1      19.992  -1.272  -8.853  1.00  0.00    -0.387 OA
ATOM     41  H   UNL     1      20.559  -2.084  -8.900  1.00  0.00     0.211 HD
ENDBRANCH  32  40
ENDBRANCH   1  27
TORSDOF 12
ENDMDL
MODEL 6
REMARK VINA RESULT:    -5.880      2.169      5.997
REMARK INTER + INTRA:         -10.095
REMARK INTER:                  -8.779
REMARK INTRA:                  -1.316
REMARK UNBOUND:                -1.465
REMARK SMILES O=c1c(O[C@H]2O[C@H](CO)[C@@H](O)[C@@H](O)[C@@H]2O)c(-c2ccc(O)c(O)c2)oc2cc(O)cc(O)c12
REMARK SMILES IDX 4 1 3 2 16 3 25 4 2 5 26 6 1 7 33 8 27 9 31 10 28 11 30 12
REMARK SMILES IDX 17 13 18 14 19 15 20 16 24 17 22 18 21 19 23 21 32 23 29 25
REMARK SMILES IDX 5 27 14 28 6 29 12 30 7 31 10 32 15 33 13 35 8 37 9 38 11 40
REMARK H PARENT 21 20 23 22 32 24 29 26 15 34 13 36 9 39 11 41
REMARK Flexibility Score: inf
ROOT
ATOM      1  O   UNL     1      17.028  -1.666 -12.294  1.00  0.00    -0.454 OA
ENDROOT
BRANCH   1   2
ATOM      2  C   UNL     1      15.943  -0.861 -11.916  1.00  0.00     0.214 A 
ATOM      3  C   UNL     1      15.847  -0.437 -10.579  1.00  0.00     0.180 A 
ATOM      4  O   UNL     1      14.798   0.271 -10.175  1.00  0.00    -0.452 OA
ATOM      5  C   UNL     1      14.942  -0.468 -12.822  1.00  0.00     0.239 A 
ATOM      6  C   UNL     1      13.817   0.642 -10.989  1.00  0.00     0.146 A 
ATOM      7  O   UNL     1      15.045  -0.773 -14.040  1.00  0.00    -0.285 OA
ATOM      8  C   UNL     1      13.845   0.291 -12.360  1.00  0.00     0.111 A 
ATOM      9  C   UNL     1      12.756   1.395 -10.476  1.00  0.00     0.094 A 
ATOM     10  C   UNL     1      12.785   0.711 -13.200  1.00  0.00     0.134 A 
ATOM     11  C   UNL     1      11.715   1.813 -11.310  1.00  0.00     0.123 A 
ATOM     12  C   UNL     1      11.734   1.474 -12.666  1.00  0.00     0.093 A 
BRANCH   3  13
ATOM     13  C   UNL     1      16.881  -0.792  -9.589  1.00  0.00     0.025 A 
ATOM     14  C   UNL     1      18.026   0.004  -9.428  1.00  0.00     0.016 A 
ATOM     15  C   UNL     1      18.997  -0.343  -8.485  1.00  0.00     0.051 A 
ATOM     16  C   UNL     1      18.841  -1.494  -7.701  1.00  0.00     0.157 A 
ATOM     17  C   UNL     1      16.714  -1.934  -8.789  1.00  0.00     0.062 A 
ATOM     18  C   UNL     1      17.690  -2.289  -7.846  1.00  0.00     0.158 A 
BRANCH  16  19
ATOM     19  O   UNL     1      19.843  -1.837  -6.790  1.00  0.00    -0.504 OA
ATOM     20  H   UNL     1      20.179  -1.183  -6.090  1.00  0.00     0.293 HD
ENDBRANCH  16  19
BRANCH  18  21
ATOM     21  O   UNL     1      17.519  -3.424  -7.056  1.00  0.00    -0.504 OA
ATOM     22  H   UNL     1      17.500  -3.372  -6.044  1.00  0.00     0.293 HD
ENDBRANCH  18  21
ENDBRANCH   3  13
BRANCH  10  23
ATOM     23  O   UNL     1      12.765   0.374 -14.555  1.00  0.00    -0.507 OA
ATOM     24  H   UNL     1      13.615   0.157 -15.060  1.00  0.00     0.293 HD
ENDBRANCH  10  23
BRANCH  11  25
ATOM     25  O   UNL     1      10.656   2.562 -10.803  1.00  0.00    -0.508 OA
ATOM     26  H   UNL     1       9.848   2.118 -10.386  1.00  0.00     0.293 HD
ENDBRANCH  11  25
ENDBRANCH   1   2
BRANCH   1  27
ATOM     27  C   UNL     1      17.024  -3.094 -12.306  1.00  0.00     0.339 C 
ATOM     28  C   UNL     1      18.494  -3.562 -12.223  1.00  0.00     0.214 C 
ATOM     29  O   UNL     1      16.412  -3.533 -13.509  1.00  0.00    -0.332 OA
ATOM     30  C   UNL     1      18.574  -5.091 -12.316  1.00  0.00     0.180 C 
ATOM     31  C   UNL     1      16.376  -4.953 -13.623  1.00  0.00     0.179 C 
ATOM     32  C   UNL     1      17.787  -5.598 -13.539  1.00  0.00     0.177 C 
BRANCH  28  33
ATOM     33  O   UNL     1      19.106  -3.107 -11.040  1.00  0.00    -0.384 OA
ATOM     34  H   UNL     1      20.061  -2.918 -11.239  1.00  0.00     0.211 HD
ENDBRANCH  28  33
BRANCH  30  35
ATOM     35  O   UNL     1      19.922  -5.482 -12.409  1.00  0.00    -0.387 OA
ATOM     36  H   UNL     1      20.420  -4.978 -11.715  1.00  0.00     0.211 HD
ENDBRANCH  30  35
BRANCH  31  37
ATOM     37  C   UNL     1      15.361  -5.607 -12.658  1.00  0.00     0.191 C 
BRANCH  37  38
ATOM     38  O   UNL     1      14.864  -6.804 -13.190  1.00  0.00    -0.394 OA
ATOM     39  H   UNL     1      13.879  -6.788 -13.069  1.00  0.00     0.210 HD
ENDBRANCH  37  38
ENDBRANCH  31  37
BRANCH  32  40
ATOM     40  O   UNL     1      18.507  -5.383 -14.730  1.00  0.00    -0.387 OA
ATOM     41  H   UNL     1      18.237  -4.503 -15.100  1.00  0.00     0.211 HD
ENDBRANCH  32  40
ENDBRANCH   1  27
TORSDOF 12
ENDMDL
MODEL 7
REMARK VINA RESULT:    -5.759      1.958      6.202
REMARK INTER + INTRA:          -9.918
REMARK INTER:                  -8.656
REMARK INTRA:                  -1.262
REMARK UNBOUND:                -1.465
REMARK SMILES O=c1c(O[C@H]2O[C@H](CO)[C@@H](O)[C@@H](O)[C@@H]2O)c(-c2ccc(O)c(O)c2)oc2cc(O)cc(O)c12
REMARK SMILES IDX 4 1 3 2 16 3 25 4 2 5 26 6 1 7 33 8 27 9 31 10 28 11 30 12
REMARK SMILES IDX 17 13 18 14 19 15 20 16 24 17 22 18 21 19 23 21 32 23 29 25
REMARK SMILES IDX 5 27 14 28 6 29 12 30 7 31 10 32 15 33 13 35 8 37 9 38 11 40
REMARK H PARENT 21 20 23 22 32 24 29 26 15 34 13 36 9 39 11 41
REMARK Flexibility Score: inf
ROOT
ATOM      1  O   UNL     1      18.773  -2.798 -12.535  1.00  0.00    -0.454 OA
ENDROOT
BRANCH   1   2
ATOM      2  C   UNL     1      18.036  -3.630 -13.393  1.00  0.00     0.214 A 
ATOM      3  C   UNL     1      17.230  -3.041 -14.382  1.00  0.00     0.180 A 
ATOM      4  O   UNL     1      16.471  -3.799 -15.166  1.00  0.00    -0.452 OA
ATOM      5  C   UNL     1      18.068  -5.033 -13.295  1.00  0.00     0.239 A 
ATOM      6  C   UNL     1      16.449  -5.124 -15.091  1.00  0.00     0.146 A 
ATOM      7  O   UNL     1      18.839  -5.586 -12.466  1.00  0.00    -0.285 OA
ATOM      8  C   UNL     1      17.254  -5.808 -14.150  1.00  0.00     0.111 A 
ATOM      9  C   UNL     1      15.625  -5.840 -15.965  1.00  0.00     0.094 A 
ATOM     10  C   UNL     1      17.210  -7.222 -14.105  1.00  0.00     0.134 A 
ATOM     11  C   UNL     1      15.589  -7.237 -15.922  1.00  0.00     0.123 A 
ATOM     12  C   UNL     1      16.382  -7.922 -14.997  1.00  0.00     0.093 A 
BRANCH   3  13
ATOM     13  C   UNL     1      17.179  -1.577 -14.553  1.00  0.00     0.025 A 
ATOM     14  C   UNL     1      16.178  -0.815 -13.931  1.00  0.00     0.016 A 
ATOM     15  C   UNL     1      16.142   0.572 -14.101  1.00  0.00     0.051 A 
ATOM     16  C   UNL     1      17.098   1.211 -14.902  1.00  0.00     0.157 A 
ATOM     17  C   UNL     1      18.150  -0.935 -15.339  1.00  0.00     0.062 A 
ATOM     18  C   UNL     1      18.112   0.455 -15.517  1.00  0.00     0.158 A 
BRANCH  16  19
ATOM     19  O   UNL     1      17.019   2.594 -15.083  1.00  0.00    -0.504 OA
ATOM     20  H   UNL     1      16.441   3.008 -15.808  1.00  0.00     0.293 HD
ENDBRANCH  16  19
BRANCH  18  21
ATOM     21  O   UNL     1      19.078   1.086 -16.300  1.00  0.00    -0.504 OA
ATOM     22  H   UNL     1      19.053   2.085 -16.476  1.00  0.00     0.293 HD
ENDBRANCH  18  21
ENDBRANCH   3  13
BRANCH  10  23
ATOM     23  O   UNL     1      17.976  -7.936 -13.180  1.00  0.00    -0.507 OA
ATOM     24  H   UNL     1      17.577  -8.682 -12.624  1.00  0.00     0.293 HD
ENDBRANCH  10  23
BRANCH  11  25
ATOM     25  O   UNL     1      14.769  -7.954 -16.789  1.00  0.00    -0.508 OA
ATOM     26  H   UNL     1      14.839  -8.960 -16.872  1.00  0.00     0.293 HD
ENDBRANCH  11  25
ENDBRANCH   1   2
BRANCH   1  27
ATOM     27  C   UNL     1      18.295  -2.267 -11.299  1.00  0.00     0.339 C 
ATOM     28  C   UNL     1      19.383  -2.522 -10.233  1.00  0.00     0.214 C 
ATOM     29  O   UNL     1      17.083  -2.927 -10.963  1.00  0.00    -0.332 OA
ATOM     30  C   UNL     1      18.904  -2.051  -8.855  1.00  0.00     0.180 C 
ATOM     31  C   UNL     1      16.534  -2.477  -9.728  1.00  0.00     0.179 C 
ATOM     32  C   UNL     1      17.517  -2.642  -8.537  1.00  0.00     0.177 C 
BRANCH  28  33
ATOM     33  O   UNL     1      20.591  -1.885 -10.579  1.00  0.00    -0.384 OA
ATOM     34  H   UNL     1      20.382  -1.147 -11.211  1.00  0.00     0.211 HD
ENDBRANCH  28  33
BRANCH  30  35
ATOM     35  O   UNL     1      19.835  -2.444  -7.878  1.00  0.00    -0.387 OA
ATOM     36  H   UNL     1      20.589  -2.878  -8.353  1.00  0.00     0.211 HD
ENDBRANCH  30  35
BRANCH  31  37
ATOM     37  C   UNL     1      15.940  -1.052  -9.820  1.00  0.00     0.191 C 
BRANCH  37  38
ATOM     38  O   UNL     1      14.919  -0.996 -10.778  1.00  0.00    -0.394 OA
ATOM     39  H   UNL     1      15.080  -0.183 -11.325  1.00  0.00     0.210 HD
ENDBRANCH  37  38
ENDBRANCH  31  37
BRANCH  32  40
ATOM     40  O   UNL     1      17.618  -3.995  -8.157  1.00  0.00    -0.387 OA
ATOM     41  H   UNL     1      17.790  -4.533  -8.972  1.00  0.00     0.211 HD
ENDBRANCH  32  40
ENDBRANCH   1  27
TORSDOF 12
ENDMDL
MODEL 8
REMARK VINA RESULT:    -5.754      3.405      7.371
REMARK INTER + INTRA:          -9.910
REMARK INTER:                  -8.546
REMARK INTRA:                  -1.364
REMARK UNBOUND:                -1.465
REMARK SMILES O=c1c(O[C@H]2O[C@H](CO)[C@@H](O)[C@@H](O)[C@@H]2O)c(-c2ccc(O)c(O)c2)oc2cc(O)cc(O)c12
REMARK SMILES IDX 4 1 3 2 16 3 25 4 2 5 26 6 1 7 33 8 27 9 31 10 28 11 30 12
REMARK SMILES IDX 17 13 18 14 19 15 20 16 24 17 22 18 21 19 23 21 32 23 29 25
REMARK SMILES IDX 5 27 14 28 6 29 12 30 7 31 10 32 15 33 13 35 8 37 9 38 11 40
REMARK H PARENT 21 20 23 22 32 24 29 26 15 34 13 36 9 39 11 41
REMARK Flexibility Score: inf
ROOT
ATOM      1  O   UNL     1      18.772   0.518 -13.299  1.00  0.00    -0.454 OA
ENDROOT
BRANCH   1   2
ATOM      2  C   UNL     1      18.827   0.260 -14.677  1.00  0.00     0.214 A 
ATOM      3  C   UNL     1      17.747  -0.401 -15.287  1.00  0.00     0.180 A 
ATOM      4  O   UNL     1      17.797  -0.718 -16.576  1.00  0.00    -0.452 OA
ATOM      5  C   UNL     1      19.926   0.633 -15.472  1.00  0.00     0.239 A 
ATOM      6  C   UNL     1      18.825  -0.410 -17.358  1.00  0.00     0.146 A 
ATOM      7  O   UNL     1      20.872   1.292 -14.964  1.00  0.00    -0.285 OA
ATOM      8  C   UNL     1      19.943   0.288 -16.841  1.00  0.00     0.111 A 
ATOM      9  C   UNL     1      18.786  -0.776 -18.707  1.00  0.00     0.094 A 
ATOM     10  C   UNL     1      21.017   0.606 -17.706  1.00  0.00     0.134 A 
ATOM     11  C   UNL     1      19.846  -0.454 -19.561  1.00  0.00     0.123 A 
ATOM     12  C   UNL     1      20.954   0.236 -19.060  1.00  0.00     0.093 A 
BRANCH   3  13
ATOM     13  C   UNL     1      16.554  -0.790 -14.513  1.00  0.00     0.025 A 
ATOM     14  C   UNL     1      15.496   0.112 -14.321  1.00  0.00     0.016 A 
ATOM     15  C   UNL     1      14.370  -0.270 -13.586  1.00  0.00     0.051 A 
ATOM     16  C   UNL     1      14.293  -1.553 -13.025  1.00  0.00     0.157 A 
ATOM     17  C   UNL     1      16.468  -2.083 -13.968  1.00  0.00     0.062 A 
ATOM     18  C   UNL     1      15.344  -2.467 -13.225  1.00  0.00     0.158 A 
BRANCH  16  19
ATOM     19  O   UNL     1      13.173  -1.897 -12.267  1.00  0.00    -0.504 OA
ATOM     20  H   UNL     1      12.247  -1.967 -12.678  1.00  0.00     0.293 HD
ENDBRANCH  16  19
BRANCH  18  21
ATOM     21  O   UNL     1      15.266  -3.750 -12.687  1.00  0.00    -0.504 OA
ATOM     22  H   UNL     1      15.282  -4.577 -13.275  1.00  0.00     0.293 HD
ENDBRANCH  18  21
ENDBRANCH   3  13
BRANCH  10  23
ATOM     23  O   UNL     1      22.146   1.278 -17.234  1.00  0.00    -0.507 OA
ATOM     24  H   UNL     1      22.274   2.271 -17.386  1.00  0.00     0.293 HD
ENDBRANCH  10  23
BRANCH  11  25
ATOM     25  O   UNL     1      19.812  -0.817 -20.904  1.00  0.00    -0.508 OA
ATOM     26  H   UNL     1      19.663  -0.132 -21.633  1.00  0.00     0.293 HD
ENDBRANCH  11  25
ENDBRANCH   1   2
BRANCH   1  27
ATOM     27  C   UNL     1      19.147  -0.406 -12.277  1.00  0.00     0.339 C 
ATOM     28  C   UNL     1      18.443   0.032 -10.974  1.00  0.00     0.214 C 
ATOM     29  O   UNL     1      20.559  -0.372 -12.135  1.00  0.00    -0.332 OA
ATOM     30  C   UNL     1      18.867  -0.869  -9.808  1.00  0.00     0.180 C 
ATOM     31  C   UNL     1      21.033  -1.251 -11.120  1.00  0.00     0.179 C 
ATOM     32  C   UNL     1      20.403  -0.961  -9.730  1.00  0.00     0.177 C 
BRANCH  28  33
ATOM     33  O   UNL     1      17.043   0.018 -11.125  1.00  0.00    -0.384 OA
ATOM     34  H   UNL     1      16.647  -0.369 -10.299  1.00  0.00     0.211 HD
ENDBRANCH  28  33
BRANCH  30  35
ATOM     35  O   UNL     1      18.350  -0.351  -8.607  1.00  0.00    -0.387 OA
ATOM     36  H   UNL     1      19.098   0.102  -8.140  1.00  0.00     0.211 HD
ENDBRANCH  30  35
BRANCH  31  37
ATOM     37  C   UNL     1      20.933  -2.741 -11.523  1.00  0.00     0.191 C 
BRANCH  37  38
ATOM     38  O   UNL     1      21.184  -3.575 -10.425  1.00  0.00    -0.394 OA
ATOM     39  H   UNL     1      21.118  -4.510 -10.751  1.00  0.00     0.210 HD
ENDBRANCH  37  38
ENDBRANCH  31  37
BRANCH  32  40
ATOM     40  O   UNL     1      20.953   0.207  -9.166  1.00  0.00    -0.387 OA
ATOM     41  H   UNL     1      20.872   0.143  -8.180  1.00  0.00     0.211 HD
ENDBRANCH  32  40
ENDBRANCH   1  27
TORSDOF 12
ENDMDL
MODEL 9
REMARK VINA RESULT:    -5.707      2.830      4.907
REMARK INTER + INTRA:          -9.842
REMARK INTER:                  -8.181
REMARK INTRA:                  -1.661
REMARK UNBOUND:                -1.465
REMARK SMILES O=c1c(O[C@H]2O[C@H](CO)[C@@H](O)[C@@H](O)[C@@H]2O)c(-c2ccc(O)c(O)c2)oc2cc(O)cc(O)c12
REMARK SMILES IDX 4 1 3 2 16 3 25 4 2 5 26 6 1 7 33 8 27 9 31 10 28 11 30 12
REMARK SMILES IDX 17 13 18 14 19 15 20 16 24 17 22 18 21 19 23 21 32 23 29 25
REMARK SMILES IDX 5 27 14 28 6 29 12 30 7 31 10 32 15 33 13 35 8 37 9 38 11 40
REMARK H PARENT 21 20 23 22 32 24 29 26 15 34 13 36 9 39 11 41
REMARK Flexibility Score: inf
ROOT
ATOM      1  O   UNL     1      15.884  -1.214 -11.893  1.00  0.00    -0.454 OA
ENDROOT
BRANCH   1   2
ATOM      2  C   UNL     1      17.094  -1.436 -11.218  1.00  0.00     0.214 A 
ATOM      3  C   UNL     1      18.292  -1.423 -11.952  1.00  0.00     0.180 A 
ATOM      4  O   UNL     1      19.448  -1.694 -11.354  1.00  0.00    -0.452 OA
ATOM      5  C   UNL     1      17.154  -1.677  -9.833  1.00  0.00     0.239 A 
ATOM      6  C   UNL     1      19.547  -1.954 -10.056  1.00  0.00     0.146 A 
ATOM      7  O   UNL     1      16.102  -1.620  -9.142  1.00  0.00    -0.285 OA
ATOM      8  C   UNL     1      18.399  -1.954  -9.229  1.00  0.00     0.111 A 
ATOM      9  C   UNL     1      20.808  -2.219  -9.511  1.00  0.00     0.094 A 
ATOM     10  C   UNL     1      18.545  -2.228  -7.848  1.00  0.00     0.134 A 
ATOM     11  C   UNL     1      20.949  -2.483  -8.145  1.00  0.00     0.123 A 
ATOM     12  C   UNL     1      19.822  -2.484  -7.320  1.00  0.00     0.093 A 
BRANCH   3  13
ATOM     13  C   UNL     1      18.298  -1.146 -13.401  1.00  0.00     0.025 A 
ATOM     14  C   UNL     1      17.888  -2.122 -14.322  1.00  0.00     0.016 A 
ATOM     15  C   UNL     1      17.896  -1.845 -15.691  1.00  0.00     0.051 A 
ATOM     16  C   UNL     1      18.325  -0.594 -16.157  1.00  0.00     0.157 A 
ATOM     17  C   UNL     1      18.708   0.115 -13.865  1.00  0.00     0.062 A 
ATOM     18  C   UNL     1      18.724   0.394 -15.239  1.00  0.00     0.158 A 
BRANCH  16  19
ATOM     19  O   UNL     1      18.357  -0.355 -17.532  1.00  0.00    -0.504 OA
ATOM     20  H   UNL     1      18.689  -1.052 -18.191  1.00  0.00     0.293 HD
ENDBRANCH  16  19
BRANCH  18  21
ATOM     21  O   UNL     1      19.133   1.647 -15.693  1.00  0.00    -0.504 OA
ATOM     22  H   UNL     1      19.325   2.410 -15.053  1.00  0.00     0.293 HD
ENDBRANCH  18  21
ENDBRANCH   3  13
BRANCH  10  23
ATOM     23  O   UNL     1      17.436  -2.254  -6.998  1.00  0.00    -0.507 OA
ATOM     24  H   UNL     1      17.540  -2.288  -5.992  1.00  0.00     0.293 HD
ENDBRANCH  10  23
BRANCH  11  25
ATOM     25  O   UNL     1      22.202  -2.749  -7.599  1.00  0.00    -0.508 OA
ATOM     26  H   UNL     1      22.304  -3.082  -6.649  1.00  0.00     0.293 HD
ENDBRANCH  11  25
ENDBRANCH   1   2
BRANCH   1  27
ATOM     27  C   UNL     1      15.384   0.066 -12.279  1.00  0.00     0.339 C 
ATOM     28  C   UNL     1      14.014   0.255 -11.593  1.00  0.00     0.214 C 
ATOM     29  O   UNL     1      15.259   0.093 -13.693  1.00  0.00    -0.332 OA
ATOM     30  C   UNL     1      13.374   1.579 -12.030  1.00  0.00     0.180 C 
ATOM     31  C   UNL     1      14.746   1.330 -14.178  1.00  0.00     0.179 C 
ATOM     32  C   UNL     1      13.364   1.690 -13.567  1.00  0.00     0.177 C 
BRANCH  28  33
ATOM     33  O   UNL     1      14.137   0.206 -10.191  1.00  0.00    -0.384 OA
ATOM     34  H   UNL     1      13.249   0.411  -9.795  1.00  0.00     0.211 HD
ENDBRANCH  28  33
BRANCH  30  35
ATOM     35  O   UNL     1      12.062   1.650 -11.529  1.00  0.00    -0.387 OA
ATOM     36  H   UNL     1      11.964   2.535 -11.094  1.00  0.00     0.211 HD
ENDBRANCH  30  35
BRANCH  31  37
ATOM     37  C   UNL     1      15.767   2.486 -14.069  1.00  0.00     0.191 C 
BRANCH  37  38
ATOM     38  O   UNL     1      16.323   2.783 -15.321  1.00  0.00    -0.394 OA
ATOM     39  H   UNL     1      15.817   3.555 -15.686  1.00  0.00     0.210 HD
ENDBRANCH  37  38
ENDBRANCH  31  37
BRANCH  32  40
ATOM     40  O   UNL     1      12.347   0.892 -14.126  1.00  0.00    -0.387 OA
ATOM     41  H   UNL     1      11.867   1.433 -14.804  1.00  0.00     0.211 HD
ENDBRANCH  32  40
ENDBRANCH   1  27
TORSDOF 12
ENDMDL
