MODEL 1
REMARK VINA RESULT:    -5.245      0.000      0.000
REMARK INTER + INTRA:          -5.773
REMARK INTER:                  -5.552
REMARK INTRA:                  -0.221
REMARK UNBOUND:                -0.221
REMARK SMILES O=c1cc(-c2ccccc2)oc2ccccc12
REMARK SMILES IDX 4 1 3 2 2 3 1 4 17 5 16 6 15 7 14 8 13 9 12 10 11 11 5 12
REMARK SMILES IDX 8 13 7 14 9 15 6 16 10 17
REMARK H PARENT
REMARK Flexibility Score: inf
ROOT
ATOM      1  C   UNL     1      -1.823   8.835 -10.573  1.00  0.00     0.138 A 
ATOM      2  C   UNL     1      -2.816   7.965 -11.068  1.00  0.00     0.100 A 
ATOM      3  C   UNL     1      -3.998   8.496 -11.590  1.00  0.00     0.193 A 
ATOM      4  O   UNL     1      -4.887   7.717 -12.031  1.00  0.00    -0.289 OA
ATOM      5  C   UNL     1      -4.180   9.885 -11.614  1.00  0.00     0.065 A 
ATOM      6  C   UNL     1      -5.346  10.484 -12.125  1.00  0.00     0.016 A 
ATOM      7  C   UNL     1      -5.475  11.876 -12.125  1.00  0.00     0.001 A 
ATOM      8  C   UNL     1      -4.449  12.678 -11.619  1.00  0.00     0.004 A 
ATOM      9  C   UNL     1      -3.287  12.091 -11.109  1.00  0.00     0.048 A 
ATOM     10  C   UNL     1      -3.146  10.700 -11.104  1.00  0.00     0.138 A 
ATOM     11  O   UNL     1      -2.038  10.152 -10.617  1.00  0.00    -0.456 OA
ENDROOT
BRANCH   1  12
ATOM     12  C   UNL     1      -0.529   8.352  -9.999  1.00  0.00     0.017 A 
ATOM     13  C   UNL     1       1.867   7.425  -8.830  1.00  0.00     0.000 A 
ATOM     14  C   UNL     1       0.696   7.472  -8.077  1.00  0.00     0.001 A 
ATOM     15  C   UNL     1       1.854   7.836 -10.163  1.00  0.00     0.001 A 
ATOM     16  C   UNL     1      -0.493   7.930  -8.653  1.00  0.00     0.012 A 
ATOM     17  C   UNL     1       0.670   8.297 -10.747  1.00  0.00     0.012 A 
ENDBRANCH   1  12
TORSDOF 1
ENDMDL
MODEL 2
REMARK VINA RESULT:    -5.082     16.448     18.639
REMARK INTER + INTRA:          -5.600
REMARK INTER:                  -5.335
REMARK INTRA:                  -0.266
REMARK UNBOUND:                -0.221
REMARK SMILES O=c1cc(-c2ccccc2)oc2ccccc12
REMARK SMILES IDX 4 1 3 2 2 3 1 4 17 5 16 6 15 7 14 8 13 9 12 10 11 11 5 12
REMARK SMILES IDX 8 13 7 14 9 15 6 16 10 17
REMARK H PARENT
REMARK Flexibility Score: inf
ROOT
ATOM      1  C   UNL     1       1.781  12.482   5.789  1.00  0.00     0.138 A 
ATOM      2  C   UNL     1       2.648  13.383   5.136  1.00  0.00     0.100 A 
ATOM      3  C   UNL     1       4.021  13.318   5.385  1.00  0.00     0.193 A 
ATOM      4  O   UNL     1       4.796  14.124   4.801  1.00  0.00    -0.289 OA
ATOM      5  C   UNL     1       4.517  12.361   6.280  1.00  0.00     0.065 A 
ATOM      6  C   UNL     1       5.888  12.243   6.575  1.00  0.00     0.016 A 
ATOM      7  C   UNL     1       6.329  11.269   7.476  1.00  0.00     0.001 A 
ATOM      8  C   UNL     1       5.411  10.409   8.087  1.00  0.00     0.004 A 
ATOM      9  C   UNL     1       4.048  10.520   7.799  1.00  0.00     0.048 A 
ATOM     10  C   UNL     1       3.595  11.490   6.900  1.00  0.00     0.138 A 
ATOM     11  O   UNL     1       2.297  11.587   6.634  1.00  0.00    -0.456 OA
ENDROOT
BRANCH   1  12
ATOM     12  C   UNL     1       0.300  12.482   5.581  1.00  0.00     0.017 A 
ATOM     13  C   UNL     1      -2.486  12.561   5.133  1.00  0.00     0.000 A 
ATOM     14  C   UNL     1      -1.661  13.536   4.575  1.00  0.00     0.001 A 
ATOM     15  C   UNL     1      -1.933  11.546   5.913  1.00  0.00     0.001 A 
ATOM     16  C   UNL     1      -0.281  13.499   4.795  1.00  0.00     0.012 A 
ATOM     17  C   UNL     1      -0.553  11.502   6.139  1.00  0.00     0.012 A 
ENDBRANCH   1  12
TORSDOF 1
ENDMDL
MODEL 3
REMARK VINA RESULT:    -5.034     11.397     13.712
REMARK INTER + INTRA:          -5.549
REMARK INTER:                  -5.284
REMARK INTRA:                  -0.265
REMARK UNBOUND:                -0.221
REMARK SMILES O=c1cc(-c2ccccc2)oc2ccccc12
REMARK SMILES IDX 4 1 3 2 2 3 1 4 17 5 16 6 15 7 14 8 13 9 12 10 11 11 5 12
REMARK SMILES IDX 8 13 7 14 9 15 6 16 10 17
REMARK H PARENT
REMARK Flexibility Score: inf
ROOT
ATOM      1  C   UNL     1       9.467  10.703  -6.750  1.00  0.00     0.138 A 
ATOM      2  C   UNL     1      10.037   9.846  -5.785  1.00  0.00     0.100 A 
ATOM      3  C   UNL     1      10.915   8.839  -6.192  1.00  0.00     0.193 A 
ATOM      4  O   UNL     1      11.423   8.073  -5.328  1.00  0.00    -0.289 OA
ATOM      5  C   UNL     1      11.216   8.693  -7.552  1.00  0.00     0.065 A 
ATOM      6  C   UNL     1      12.090   7.699  -8.029  1.00  0.00     0.016 A 
ATOM      7  C   UNL     1      12.356   7.597  -9.397  1.00  0.00     0.001 A 
ATOM      8  C   UNL     1      11.755   8.481 -10.298  1.00  0.00     0.004 A 
ATOM      9  C   UNL     1      10.885   9.472  -9.833  1.00  0.00     0.048 A 
ATOM     10  C   UNL     1      10.611   9.583  -8.466  1.00  0.00     0.138 A 
ATOM     11  O   UNL     1       9.782  10.528  -8.035  1.00  0.00    -0.456 OA
ENDROOT
BRANCH   1  12
ATOM     12  C   UNL     1       8.521  11.807  -6.402  1.00  0.00     0.017 A 
ATOM     13  C   UNL     1       6.751  13.874  -5.650  1.00  0.00     0.000 A 
ATOM     14  C   UNL     1       7.433  13.150  -4.674  1.00  0.00     0.001 A 
ATOM     15  C   UNL     1       6.944  13.577  -6.999  1.00  0.00     0.001 A 
ATOM     16  C   UNL     1       8.310  12.126  -5.043  1.00  0.00     0.012 A 
ATOM     17  C   UNL     1       7.819  12.553  -7.377  1.00  0.00     0.012 A 
ENDBRANCH   1  12
TORSDOF 1
ENDMDL
MODEL 4
REMARK VINA RESULT:    -5.012      1.903      2.768
REMARK INTER + INTRA:          -5.527
REMARK INTER:                  -5.278
REMARK INTRA:                  -0.249
REMARK UNBOUND:                -0.221
REMARK SMILES O=c1cc(-c2ccccc2)oc2ccccc12
REMARK SMILES IDX 4 1 3 2 2 3 1 4 17 5 16 6 15 7 14 8 13 9 12 10 11 11 5 12
REMARK SMILES IDX 8 13 7 14 9 15 6 16 10 17
REMARK H PARENT
REMARK Flexibility Score: inf
ROOT
ATOM      1  C   UNL     1      -0.042   8.877 -11.057  1.00  0.00     0.138 A 
ATOM      2  C   UNL     1      -0.606   7.680 -10.568  1.00  0.00     0.100 A 
ATOM      3  C   UNL     1      -1.985   7.606 -10.356  1.00  0.00     0.193 A 
ATOM      4  O   UNL     1      -2.489   6.535  -9.918  1.00  0.00    -0.289 OA
ATOM      5  C   UNL     1      -2.787   8.721 -10.631  1.00  0.00     0.065 A 
ATOM      6  C   UNL     1      -4.181   8.713 -10.438  1.00  0.00     0.016 A 
ATOM      7  C   UNL     1      -4.934   9.854 -10.729  1.00  0.00     0.001 A 
ATOM      8  C   UNL     1      -4.308  11.007 -11.211  1.00  0.00     0.004 A 
ATOM      9  C   UNL     1      -2.923  11.024 -11.405  1.00  0.00     0.048 A 
ATOM     10  C   UNL     1      -2.159   9.888 -11.118  1.00  0.00     0.138 A 
ATOM     11  O   UNL     1      -0.844   9.915 -11.305  1.00  0.00    -0.456 OA
ENDROOT
BRANCH   1  12
ATOM     12  C   UNL     1       1.422   9.042 -11.313  1.00  0.00     0.017 A 
ATOM     13  C   UNL     1       4.181   9.443 -11.758  1.00  0.00     0.000 A 
ATOM     14  C   UNL     1       3.415  10.449 -11.173  1.00  0.00     0.001 A 
ATOM     15  C   UNL     1       3.583   8.237 -12.123  1.00  0.00     0.001 A 
ATOM     16  C   UNL     1       2.049  10.254 -10.951  1.00  0.00     0.012 A 
ATOM     17  C   UNL     1       2.216   8.033 -11.905  1.00  0.00     0.012 A 
ENDBRANCH   1  12
TORSDOF 1
ENDMDL
MODEL 5
REMARK VINA RESULT:    -4.907     16.162     17.028
REMARK INTER + INTRA:          -5.415
REMARK INTER:                  -5.165
REMARK INTRA:                  -0.250
REMARK UNBOUND:                -0.221
REMARK SMILES O=c1cc(-c2ccccc2)oc2ccccc12
REMARK SMILES IDX 4 1 3 2 2 3 1 4 17 5 16 6 15 7 14 8 13 9 12 10 11 11 5 12
REMARK SMILES IDX 8 13 7 14 9 15 6 16 10 17
REMARK H PARENT
REMARK Flexibility Score: inf
ROOT
ATOM      1  C   UNL     1      -1.034  11.631   5.644  1.00  0.00     0.138 A 
ATOM      2  C   UNL     1      -2.179  12.326   5.201  1.00  0.00     0.100 A 
ATOM      3  C   UNL     1      -3.428  11.702   5.259  1.00  0.00     0.193 A 
ATOM      4  O   UNL     1      -4.451  12.324   4.861  1.00  0.00    -0.289 OA
ATOM      5  C   UNL     1      -3.525  10.396   5.755  1.00  0.00     0.065 A 
ATOM      6  C   UNL     1      -4.751   9.711   5.840  1.00  0.00     0.016 A 
ATOM      7  C   UNL     1      -4.792   8.408   6.344  1.00  0.00     0.001 A 
ATOM      8  C   UNL     1      -3.616   7.780   6.766  1.00  0.00     0.004 A 
ATOM      9  C   UNL     1      -2.394   8.453   6.685  1.00  0.00     0.048 A 
ATOM     10  C   UNL     1      -2.341   9.757   6.183  1.00  0.00     0.138 A 
ATOM     11  O   UNL     1      -1.174  10.388   6.110  1.00  0.00    -0.456 OA
ENDROOT
BRANCH   1  12
ATOM     12  C   UNL     1       0.338  12.223   5.618  1.00  0.00     0.017 A 
ATOM     13  C   UNL     1       2.908  13.384   5.485  1.00  0.00     0.000 A 
ATOM     14  C   UNL     1       1.978  13.629   4.477  1.00  0.00     0.001 A 
ATOM     15  C   UNL     1       2.568  12.564   6.561  1.00  0.00     0.001 A 
ATOM     16  C   UNL     1       0.705  13.056   4.540  1.00  0.00     0.012 A 
ATOM     17  C   UNL     1       1.296  11.986   6.632  1.00  0.00     0.012 A 
ENDBRANCH   1  12
TORSDOF 1
ENDMDL
MODEL 6
REMARK VINA RESULT:    -4.900      2.577      4.117
REMARK INTER + INTRA:          -5.408
REMARK INTER:                  -5.157
REMARK INTRA:                  -0.250
REMARK UNBOUND:                -0.221
REMARK SMILES O=c1cc(-c2ccccc2)oc2ccccc12
REMARK SMILES IDX 4 1 3 2 2 3 1 4 17 5 16 6 15 7 14 8 13 9 12 10 11 11 5 12
REMARK SMILES IDX 8 13 7 14 9 15 6 16 10 17
REMARK H PARENT
REMARK Flexibility Score: inf
ROOT
ATOM      1  C   UNL     1       1.350   8.945 -10.960  1.00  0.00     0.138 A 
ATOM      2  C   UNL     1       1.115   7.725 -10.292  1.00  0.00     0.100 A 
ATOM      3  C   UNL     1      -0.195   7.352  -9.980  1.00  0.00     0.193 A 
ATOM      4  O   UNL     1      -0.404   6.261  -9.382  1.00  0.00    -0.289 OA
ATOM      5  C   UNL     1      -1.256   8.196 -10.334  1.00  0.00     0.065 A 
ATOM      6  C   UNL     1      -2.597   7.881 -10.048  1.00  0.00     0.016 A 
ATOM      7  C   UNL     1      -3.618   8.760 -10.424  1.00  0.00     0.001 A 
ATOM      8  C   UNL     1      -3.311   9.953 -11.084  1.00  0.00     0.004 A 
ATOM      9  C   UNL     1      -1.981  10.274 -11.372  1.00  0.00     0.048 A 
ATOM     10  C   UNL     1      -0.952   9.403 -11.000  1.00  0.00     0.138 A 
ATOM     11  O   UNL     1       0.309   9.717 -11.278  1.00  0.00    -0.456 OA
ENDROOT
BRANCH   1  12
ATOM     12  C   UNL     1       2.718   9.419 -11.332  1.00  0.00     0.017 A 
ATOM     13  C   UNL     1       5.326  10.222 -12.055  1.00  0.00     0.000 A 
ATOM     14  C   UNL     1       4.966   8.878 -12.124  1.00  0.00     0.001 A 
ATOM     15  C   UNL     1       4.397  11.170 -11.628  1.00  0.00     0.001 A 
ATOM     16  C   UNL     1       3.675   8.477 -11.767  1.00  0.00     0.012 A 
ATOM     17  C   UNL     1       3.103  10.778 -11.268  1.00  0.00     0.012 A 
ENDBRANCH   1  12
TORSDOF 1
ENDMDL
MODEL 7
REMARK VINA RESULT:    -4.790      3.230      5.026
REMARK INTER + INTRA:          -5.291
REMARK INTER:                  -5.062
REMARK INTRA:                  -0.229
REMARK UNBOUND:                -0.221
REMARK SMILES O=c1cc(-c2ccccc2)oc2ccccc12
REMARK SMILES IDX 4 1 3 2 2 3 1 4 17 5 16 6 15 7 14 8 13 9 12 10 11 11 5 12
REMARK SMILES IDX 8 13 7 14 9 15 6 16 10 17
REMARK H PARENT
REMARK Flexibility Score: inf
ROOT
ATOM      1  C   UNL     1       1.532   9.880  -9.625  1.00  0.00     0.138 A 
ATOM      2  C   UNL     1       1.663   8.865  -8.654  1.00  0.00     0.100 A 
ATOM      3  C   UNL     1       0.662   7.899  -8.528  1.00  0.00     0.193 A 
ATOM      4  O   UNL     1       0.780   6.993  -7.659  1.00  0.00    -0.289 OA
ATOM      5  C   UNL     1      -0.459   7.953  -9.367  1.00  0.00     0.065 A 
ATOM      6  C   UNL     1      -1.502   7.013  -9.292  1.00  0.00     0.016 A 
ATOM      7  C   UNL     1      -2.598   7.113 -10.155  1.00  0.00     0.001 A 
ATOM      8  C   UNL     1      -2.662   8.146 -11.094  1.00  0.00     0.004 A 
ATOM      9  C   UNL     1      -1.630   9.085 -11.175  1.00  0.00     0.048 A 
ATOM     10  C   UNL     1      -0.528   8.995 -10.318  1.00  0.00     0.138 A 
ATOM     11  O   UNL     1       0.448   9.892 -10.403  1.00  0.00    -0.456 OA
ENDROOT
BRANCH   1  12
ATOM     12  C   UNL     1       2.555  10.951  -9.827  1.00  0.00     0.017 A 
ATOM     13  C   UNL     1       4.465  13.009 -10.120  1.00  0.00     0.000 A 
ATOM     14  C   UNL     1       3.700  12.928  -8.959  1.00  0.00     0.001 A 
ATOM     15  C   UNL     1       4.287  12.072 -11.138  1.00  0.00     0.001 A 
ATOM     16  C   UNL     1       2.753  11.910  -8.810  1.00  0.00     0.012 A 
ATOM     17  C   UNL     1       3.342  11.050 -10.998  1.00  0.00     0.012 A 
ENDBRANCH   1  12
TORSDOF 1
ENDMDL
MODEL 8
REMARK VINA RESULT:    -4.654     11.686     13.345
REMARK INTER + INTRA:          -5.147
REMARK INTER:                  -4.889
REMARK INTRA:                  -0.259
REMARK UNBOUND:                -0.221
REMARK SMILES O=c1cc(-c2ccccc2)oc2ccccc12
REMARK SMILES IDX 4 1 3 2 2 3 1 4 17 5 16 6 15 7 14 8 13 9 12 10 11 11 5 12
REMARK SMILES IDX 8 13 7 14 9 15 6 16 10 17
REMARK H PARENT
REMARK Flexibility Score: inf
ROOT
ATOM      1  C   UNL     1      10.864   9.129  -8.131  1.00  0.00     0.138 A 
ATOM      2  C   UNL     1      10.900   8.847  -6.750  1.00  0.00     0.100 A 
ATOM      3  C   UNL     1      10.138   9.620  -5.870  1.00  0.00     0.193 A 
ATOM      4  O   UNL     1      10.172   9.369  -4.634  1.00  0.00    -0.289 OA
ATOM      5  C   UNL     1       9.351  10.664  -6.373  1.00  0.00     0.065 A 
ATOM      6  C   UNL     1       8.561  11.480  -5.542  1.00  0.00     0.016 A 
ATOM      7  C   UNL     1       7.793  12.509  -6.096  1.00  0.00     0.001 A 
ATOM      8  C   UNL     1       7.806  12.731  -7.476  1.00  0.00     0.004 A 
ATOM      9  C   UNL     1       8.588  11.924  -8.309  1.00  0.00     0.048 A 
ATOM     10  C   UNL     1       9.360  10.893  -7.766  1.00  0.00     0.138 A 
ATOM     11  O   UNL     1      10.100  10.132  -8.566  1.00  0.00    -0.456 OA
ENDROOT
BRANCH   1  12
ATOM     12  C   UNL     1      11.647   8.352  -9.141  1.00  0.00     0.017 A 
ATOM     13  C   UNL     1      13.125   6.809 -10.987  1.00  0.00     0.000 A 
ATOM     14  C   UNL     1      12.748   6.261  -9.762  1.00  0.00     0.001 A 
ATOM     15  C   UNL     1      12.770   8.121 -11.300  1.00  0.00     0.001 A 
ATOM     16  C   UNL     1      12.016   7.022  -8.846  1.00  0.00     0.012 A 
ATOM     17  C   UNL     1      12.038   8.890 -10.389  1.00  0.00     0.012 A 
ENDBRANCH   1  12
TORSDOF 1
ENDMDL
MODEL 9
REMARK VINA RESULT:    -4.240      1.399      5.806
REMARK INTER + INTRA:          -4.709
REMARK INTER:                  -4.444
REMARK INTRA:                  -0.266
REMARK UNBOUND:                -0.221
REMARK SMILES O=c1cc(-c2ccccc2)oc2ccccc12
REMARK SMILES IDX 4 1 3 2 2 3 1 4 17 5 16 6 15 7 14 8 13 9 12 10 11 11 5 12
REMARK SMILES IDX 8 13 7 14 9 15 6 16 10 17
REMARK H PARENT
REMARK Flexibility Score: inf
ROOT
ATOM      1  C   UNL     1      -2.815   9.611 -10.923  1.00  0.00     0.138 A 
ATOM      2  C   UNL     1      -3.078   8.286 -10.518  1.00  0.00     0.100 A 
ATOM      3  C   UNL     1      -2.013   7.437 -10.208  1.00  0.00     0.193 A 
ATOM      4  O   UNL     1      -2.250   6.251  -9.847  1.00  0.00    -0.289 OA
ATOM      5  C   UNL     1      -0.699   7.913 -10.304  1.00  0.00     0.065 A 
ATOM      6  C   UNL     1       0.417   7.111 -10.006  1.00  0.00     0.016 A 
ATOM      7  C   UNL     1       1.708   7.637 -10.119  1.00  0.00     0.001 A 
ATOM      8  C   UNL     1       1.894   8.961 -10.526  1.00  0.00     0.004 A 
ATOM      9  C   UNL     1       0.790   9.765 -10.824  1.00  0.00     0.048 A 
ATOM     10  C   UNL     1      -0.505   9.250 -10.715  1.00  0.00     0.138 A 
ATOM     11  O   UNL     1      -1.548  10.023 -11.000  1.00  0.00    -0.456 OA
ENDROOT
BRANCH   1  12
ATOM     12  C   UNL     1      -3.894  10.586 -11.273  1.00  0.00     0.017 A 
ATOM     13  C   UNL     1      -5.997  12.360 -11.903  1.00  0.00     0.000 A 
ATOM     14  C   UNL     1      -6.279  11.104 -11.369  1.00  0.00     0.001 A 
ATOM     15  C   UNL     1      -4.673  12.740 -12.125  1.00  0.00     0.001 A 
ATOM     16  C   UNL     1      -5.240  10.224 -11.056  1.00  0.00     0.012 A 
ATOM     17  C   UNL     1      -3.627  11.864 -11.815  1.00  0.00     0.012 A 
ENDBRANCH   1  12
TORSDOF 1
ENDMDL
