MODEL 1
REMARK VINA RESULT:    -2.689      0.000      0.000
REMARK INTER + INTRA:          -3.254
REMARK INTER:                  -3.239
REMARK INTRA:                  -0.015
REMARK UNBOUND:                -0.015
REMARK SMILES OCC(O)CO
REMARK SMILES IDX 3 1 5 2 6 3 2 5 1 6 4 8
REMARK H PARENT 6 4 1 7 4 9
REMARK Flexibility Score: inf
ROOT
ATOM      1  C   UNL     1      -1.200  -2.396 -15.099  1.00  0.00     0.165 C 
ENDROOT
BRANCH   1   2
ATOM      2  C   UNL     1      -0.651  -3.734 -14.575  1.00  0.00     0.190 C 
BRANCH   2   3
ATOM      3  O   UNL     1      -0.855  -3.859 -13.192  1.00  0.00    -0.394 OA
ATOM      4  H   UNL     1      -1.212  -4.771 -13.036  1.00  0.00     0.210 HD
ENDBRANCH   2   3
ENDBRANCH   1   2
BRANCH   1   5
ATOM      5  C   UNL     1      -1.869  -2.567 -16.469  1.00  0.00     0.190 C 
BRANCH   5   6
ATOM      6  O   UNL     1      -3.067  -3.285 -16.342  1.00  0.00    -0.394 OA
ATOM      7  H   UNL     1      -2.942  -4.137 -16.837  1.00  0.00     0.210 HD
ENDBRANCH   5   6
ENDBRANCH   1   5
BRANCH   1   8
ATOM      8  O   UNL     1      -2.127  -1.861 -14.190  1.00  0.00    -0.388 OA
ATOM      9  H   UNL     1      -1.623  -1.633 -13.366  1.00  0.00     0.211 HD
ENDBRANCH   1   8
TORSDOF 5
ENDMDL
MODEL 2
REMARK VINA RESULT:    -2.583      0.864      2.949
REMARK INTER + INTRA:          -3.127
REMARK INTER:                  -3.124
REMARK INTRA:                  -0.003
REMARK UNBOUND:                -0.015
REMARK SMILES OCC(O)CO
REMARK SMILES IDX 3 1 5 2 6 3 2 5 1 6 4 8
REMARK H PARENT 6 4 1 7 4 9
REMARK Flexibility Score: inf
ROOT
ATOM      1  C   UNL     1      -1.708  -2.967 -14.638  1.00  0.00     0.165 C 
ENDROOT
BRANCH   1   2
ATOM      2  C   UNL     1      -1.226  -2.576 -16.046  1.00  0.00     0.190 C 
BRANCH   2   3
ATOM      3  O   UNL     1      -2.301  -2.201 -16.865  1.00  0.00    -0.394 OA
ATOM      4  H   UNL     1      -1.926  -2.022 -17.766  1.00  0.00     0.210 HD
ENDBRANCH   2   3
ENDBRANCH   1   2
BRANCH   1   5
ATOM      5  C   UNL     1      -0.628  -3.746 -13.876  1.00  0.00     0.190 C 
BRANCH   5   6
ATOM      6  O   UNL     1      -0.936  -3.799 -12.509  1.00  0.00    -0.394 OA
ATOM      7  H   UNL     1      -1.835  -3.390 -12.404  1.00  0.00     0.210 HD
ENDBRANCH   5   6
ENDBRANCH   1   5
BRANCH   1   8
ATOM      8  O   UNL     1      -2.058  -1.819 -13.908  1.00  0.00    -0.388 OA
ATOM      9  H   UNL     1      -1.728  -1.957 -12.982  1.00  0.00     0.211 HD
ENDBRANCH   1   8
TORSDOF 5
ENDMDL
MODEL 3
REMARK VINA RESULT:    -2.247      1.358      1.365
REMARK INTER + INTRA:          -2.722
REMARK INTER:                  -2.717
REMARK INTRA:                  -0.004
REMARK UNBOUND:                -0.015
REMARK SMILES OCC(O)CO
REMARK SMILES IDX 3 1 5 2 6 3 2 5 1 6 4 8
REMARK H PARENT 6 4 1 7 4 9
REMARK Flexibility Score: inf
ROOT
ATOM      1  C   UNL     1      -1.148  -3.180 -15.612  1.00  0.00     0.165 C 
ENDROOT
BRANCH   1   2
ATOM      2  C   UNL     1      -1.485  -2.970 -14.126  1.00  0.00     0.190 C 
BRANCH   2   3
ATOM      3  O   UNL     1      -0.761  -3.854 -13.312  1.00  0.00    -0.394 OA
ATOM      4  H   UNL     1       0.120  -3.429 -13.141  1.00  0.00     0.210 HD
ENDBRANCH   2   3
ENDBRANCH   1   2
BRANCH   1   5
ATOM      5  C   UNL     1      -2.210  -2.543 -16.519  1.00  0.00     0.190 C 
BRANCH   5   6
ATOM      6  O   UNL     1      -3.362  -3.340 -16.557  1.00  0.00    -0.394 OA
ATOM      7  H   UNL     1      -3.546  -3.620 -15.622  1.00  0.00     0.210 HD
ENDBRANCH   5   6
ENDBRANCH   1   5
BRANCH   1   8
ATOM      8  O   UNL     1       0.109  -2.628 -15.908  1.00  0.00    -0.388 OA
ATOM      9  H   UNL     1       0.035  -2.212 -16.806  1.00  0.00     0.211 HD
ENDBRANCH   1   8
TORSDOF 5
ENDMDL
MODEL 4
REMARK VINA RESULT:    -2.080      1.326      1.881
REMARK INTER + INTRA:          -2.521
REMARK INTER:                  -2.518
REMARK INTRA:                  -0.002
REMARK UNBOUND:                -0.015
REMARK SMILES OCC(O)CO
REMARK SMILES IDX 3 1 5 2 6 3 2 5 1 6 4 8
REMARK H PARENT 6 4 1 7 4 9
REMARK Flexibility Score: inf
ROOT
ATOM      1  C   UNL     1      -0.831  -3.768 -14.534  1.00  0.00     0.165 C 
ENDROOT
BRANCH   1   2
ATOM      2  C   UNL     1      -0.805  -3.753 -12.996  1.00  0.00     0.190 C 
BRANCH   2   3
ATOM      3  O   UNL     1      -1.131  -5.013 -12.471  1.00  0.00    -0.394 OA
ATOM      4  H   UNL     1      -0.298  -5.553 -12.486  1.00  0.00     0.210 HD
ENDBRANCH   2   3
ENDBRANCH   1   2
BRANCH   1   5
ATOM      5  C   UNL     1      -1.481  -2.494 -15.091  1.00  0.00     0.190 C 
BRANCH   5   6
ATOM      6  O   UNL     1      -2.332  -2.807 -16.160  1.00  0.00    -0.394 OA
ATOM      7  H   UNL     1      -3.110  -2.193 -16.093  1.00  0.00     0.210 HD
ENDBRANCH   5   6
ENDBRANCH   1   5
BRANCH   1   8
ATOM      8  O   UNL     1       0.473  -3.886 -15.040  1.00  0.00    -0.388 OA
ATOM      9  H   UNL     1       0.431  -3.641 -16.001  1.00  0.00     0.211 HD
ENDBRANCH   1   8
TORSDOF 5
ENDMDL
MODEL 5
REMARK VINA RESULT:    -1.845      1.096      2.818
REMARK INTER + INTRA:          -2.237
REMARK INTER:                  -2.235
REMARK INTRA:                  -0.002
REMARK UNBOUND:                -0.015
REMARK SMILES OCC(O)CO
REMARK SMILES IDX 3 1 5 2 6 3 2 5 1 6 4 8
REMARK H PARENT 6 4 1 7 4 9
REMARK Flexibility Score: inf
ROOT
ATOM      1  C   UNL     1      -1.639  -2.936 -15.278  1.00  0.00     0.165 C 
ENDROOT
BRANCH   1   2
ATOM      2  C   UNL     1      -2.408  -2.691 -16.588  1.00  0.00     0.190 C 
BRANCH   2   3
ATOM      3  O   UNL     1      -3.605  -3.423 -16.617  1.00  0.00    -0.394 OA
ATOM      4  H   UNL     1      -4.249  -2.940 -16.037  1.00  0.00     0.210 HD
ENDBRANCH   2   3
ENDBRANCH   1   2
BRANCH   1   5
ATOM      5  C   UNL     1      -0.129  -3.044 -15.531  1.00  0.00     0.190 C 
BRANCH   5   6
ATOM      6  O   UNL     1       0.416  -4.101 -14.790  1.00  0.00    -0.394 OA
ATOM      7  H   UNL     1       0.837  -3.698 -13.986  1.00  0.00     0.210 HD
ENDBRANCH   5   6
ENDBRANCH   1   5
BRANCH   1   8
ATOM      8  O   UNL     1      -1.886  -1.895 -14.368  1.00  0.00    -0.388 OA
ATOM      9  H   UNL     1      -1.481  -2.167 -13.504  1.00  0.00     0.211 HD
ENDBRANCH   1   8
TORSDOF 5
ENDMDL
MODEL 6
REMARK VINA RESULT:    -1.760      2.031      3.830
REMARK INTER + INTRA:          -2.135
REMARK INTER:                  -2.132
REMARK INTRA:                  -0.003
REMARK UNBOUND:                -0.015
REMARK SMILES OCC(O)CO
REMARK SMILES IDX 3 1 5 2 6 3 2 5 1 6 4 8
REMARK H PARENT 6 4 1 7 4 9
REMARK Flexibility Score: inf
ROOT
ATOM      1  C   UNL     1      -0.631  -3.926 -13.057  1.00  0.00     0.165 C 
ENDROOT
BRANCH   1   2
ATOM      2  C   UNL     1      -1.544  -3.206 -14.064  1.00  0.00     0.190 C 
BRANCH   2   3
ATOM      3  O   UNL     1      -0.862  -2.926 -15.258  1.00  0.00    -0.394 OA
ATOM      4  H   UNL     1       0.071  -2.700 -15.008  1.00  0.00     0.210 HD
ENDBRANCH   2   3
ENDBRANCH   1   2
BRANCH   1   5
ATOM      5  C   UNL     1      -0.881  -3.431 -11.626  1.00  0.00     0.190 C 
BRANCH   5   6
ATOM      6  O   UNL     1      -1.355  -4.478 -10.823  1.00  0.00    -0.394 OA
ATOM      7  H   UNL     1      -1.718  -4.061  -9.998  1.00  0.00     0.210 HD
ENDBRANCH   5   6
ENDBRANCH   1   5
BRANCH   1   8
ATOM      8  O   UNL     1      -0.843  -5.313 -13.115  1.00  0.00    -0.388 OA
ATOM      9  H   UNL     1      -0.238  -5.667 -13.818  1.00  0.00     0.211 HD
ENDBRANCH   1   8
TORSDOF 5
ENDMDL
MODEL 7
REMARK VINA RESULT:    -1.291      1.989      2.995
REMARK INTER + INTRA:          -1.570
REMARK INTER:                  -1.568
REMARK INTRA:                  -0.002
REMARK UNBOUND:                -0.015
REMARK SMILES OCC(O)CO
REMARK SMILES IDX 3 1 5 2 6 3 2 5 1 6 4 8
REMARK H PARENT 6 4 1 7 4 9
REMARK Flexibility Score: inf
ROOT
ATOM      1  C   UNL     1      -1.198  -4.205 -12.985  1.00  0.00     0.165 C 
ENDROOT
BRANCH   1   2
ATOM      2  C   UNL     1      -0.827  -3.382 -11.740  1.00  0.00     0.190 C 
BRANCH   2   3
ATOM      3  O   UNL     1      -1.052  -4.113 -10.563  1.00  0.00    -0.394 OA
ATOM      4  H   UNL     1      -0.223  -4.627 -10.384  1.00  0.00     0.210 HD
ENDBRANCH   2   3
ENDBRANCH   1   2
BRANCH   1   5
ATOM      5  C   UNL     1      -0.453  -3.700 -14.228  1.00  0.00     0.190 C 
BRANCH   5   6
ATOM      6  O   UNL     1      -1.262  -2.820 -14.960  1.00  0.00    -0.394 OA
ATOM      7  H   UNL     1      -1.816  -3.379 -15.566  1.00  0.00     0.210 HD
ENDBRANCH   5   6
ENDBRANCH   1   5
BRANCH   1   8
ATOM      8  O   UNL     1      -0.895  -5.561 -12.779  1.00  0.00    -0.388 OA
ATOM      9  H   UNL     1      -1.733  -5.999 -12.477  1.00  0.00     0.211 HD
ENDBRANCH   1   8
TORSDOF 5
ENDMDL
MODEL 8
REMARK VINA RESULT:    -1.197      2.461      3.951
REMARK INTER + INTRA:          -1.457
REMARK INTER:                  -1.429
REMARK INTRA:                  -0.028
REMARK UNBOUND:                -0.015
REMARK SMILES OCC(O)CO
REMARK SMILES IDX 3 1 5 2 6 3 2 5 1 6 4 8
REMARK H PARENT 6 4 1 7 4 9
REMARK Flexibility Score: inf
ROOT
ATOM      1  C   UNL     1      -1.269  -3.977 -11.938  1.00  0.00     0.165 C 
ENDROOT
BRANCH   1   2
ATOM      2  C   UNL     1      -0.536  -3.943 -13.290  1.00  0.00     0.190 C 
BRANCH   2   3
ATOM      3  O   UNL     1      -1.245  -3.182 -14.233  1.00  0.00    -0.394 OA
ATOM      4  H   UNL     1      -0.713  -3.196 -15.070  1.00  0.00     0.210 HD
ENDBRANCH   2   3
ENDBRANCH   1   2
BRANCH   1   5
ATOM      5  C   UNL     1      -1.371  -5.410 -11.397  1.00  0.00     0.190 C 
BRANCH   5   6
ATOM      6  O   UNL     1      -0.958  -6.331 -12.370  1.00  0.00    -0.394 OA
ATOM      7  H   UNL     1      -0.842  -5.820 -13.214  1.00  0.00     0.210 HD
ENDBRANCH   5   6
ENDBRANCH   1   5
BRANCH   1   8
ATOM      8  O   UNL     1      -0.600  -3.172 -11.002  1.00  0.00    -0.388 OA
ATOM      9  H   UNL     1      -0.664  -3.636 -10.127  1.00  0.00     0.211 HD
ENDBRANCH   1   8
TORSDOF 5
ENDMDL
MODEL 9
REMARK VINA RESULT:    -1.102      1.639      1.983
REMARK INTER + INTRA:          -1.342
REMARK INTER:                  -1.332
REMARK INTRA:                  -0.010
REMARK UNBOUND:                -0.015
REMARK SMILES OCC(O)CO
REMARK SMILES IDX 3 1 5 2 6 3 2 5 1 6 4 8
REMARK H PARENT 6 4 1 7 4 9
REMARK Flexibility Score: inf
ROOT
ATOM      1  C   UNL     1      -0.611  -3.013 -14.777  1.00  0.00     0.165 C 
ENDROOT
BRANCH   1   2
ATOM      2  C   UNL     1       0.162  -3.610 -15.965  1.00  0.00     0.190 C 
BRANCH   2   3
ATOM      3  O   UNL     1       1.362  -4.203 -15.543  1.00  0.00    -0.394 OA
ATOM      4  H   UNL     1       1.127  -5.094 -15.176  1.00  0.00     0.210 HD
ENDBRANCH   2   3
ENDBRANCH   1   2
BRANCH   1   5
ATOM      5  C   UNL     1      -2.025  -2.583 -15.192  1.00  0.00     0.190 C 
BRANCH   5   6
ATOM      6  O   UNL     1      -2.157  -2.622 -16.587  1.00  0.00    -0.394 OA
ATOM      7  H   UNL     1      -2.706  -1.835 -16.843  1.00  0.00     0.210 HD
ENDBRANCH   5   6
ENDBRANCH   1   5
BRANCH   1   8
ATOM      8  O   UNL     1      -0.697  -3.949 -13.733  1.00  0.00    -0.388 OA
ATOM      9  H   UNL     1      -0.186  -3.575 -12.969  1.00  0.00     0.211 HD
ENDBRANCH   1   8
TORSDOF 5
ENDMDL
