MODEL 1
REMARK VINA RESULT:     1.734      0.000      0.000
REMARK INTER + INTRA:           3.840
REMARK INTER:                   2.545
REMARK INTRA:                   1.295
REMARK UNBOUND:                 1.295
REMARK SMILES C=C1CC=CC(C)(C)CC=C(C)CCC1
REMARK SMILES IDX 2 1 1 2 15 3 14 4 13 5 11 6 12 7 10 8 3 10 4 11 5 12 6 13
REMARK SMILES IDX 7 14 8 15 9 16
REMARK H PARENT
REMARK Flexibility Score: 60.00
ROOT
ATOM      1  C   UNL     1     151.187 137.013 160.097  1.00  0.00    -0.074 C 
ATOM      2  C   UNL     1     150.694 137.103 158.850  1.00  0.00     0.008 C 
ENDROOT
BRANCH   1   3
ATOM      3  C   UNL     1     151.403 138.306 160.883  1.00  0.00     0.031 C 
BRANCH   3   4
ATOM      4  C   UNL     1     152.859 138.794 161.017  1.00  0.00     0.009 C 
BRANCH   4   5
ATOM      5  C   UNL     1     153.048 139.786 162.179  1.00  0.00     0.030 C 
BRANCH   5   6
ATOM      6  C   UNL     1     153.610 139.174 163.452  1.00  0.00    -0.077 C 
ATOM      7  C   UNL     1     153.361 139.901 164.753  1.00  0.00     0.039 C 
ATOM      8  C   UNL     1     154.416 138.081 163.500  1.00  0.00    -0.027 CG0
ATOM      9  G   UNL     1     154.695 137.070 162.401  1.00  0.00     0.000 G0
ENDBRANCH   5   6
ENDBRANCH   4   5
ENDBRANCH   3   4
ENDBRANCH   1   3
BRANCH   1  10
ATOM     10  C   UNL     1     151.412 135.630 160.689  1.00  0.00     0.057 C 
BRANCH  10  11
ATOM     11  C   UNL     1     151.489 135.724 162.197  1.00  0.00    -0.026 C 
ATOM     12  C   UNL     1     152.584 135.617 162.987  1.00  0.00    -0.024 C 
BRANCH  12  13
ATOM     13  C   UNL     1     154.063 135.651 162.595  1.00  0.00    -0.014 C 
ATOM     14  C   UNL     1     154.220 134.878 161.262  1.00  0.00     0.016 C 
ATOM     15  C   UNL     1     154.886 134.891 163.661  1.00  0.00     0.016 C 
BRANCH  13  16
ATOM     16  C   UNL     1     154.659 137.079 162.407  1.00  0.00     0.038 CG0
ATOM     17  G   UNL     1     154.403 138.091 163.510  1.00  0.00     0.000 G0
ENDBRANCH  13  16
ENDBRANCH  12  13
ENDBRANCH  10  11
ENDBRANCH   1  10
TORSDOF 0
ENDMDL
MODEL 2
REMARK VINA RESULT:     2.836      1.233      3.984
REMARK INTER + INTRA:           5.457
REMARK INTER:                   1.954
REMARK INTRA:                   3.503
REMARK UNBOUND:                 1.295
REMARK SMILES C=C1CC=CC(C)(C)CC=C(C)CCC1
REMARK SMILES IDX 2 1 1 2 15 3 14 4 13 5 11 6 12 7 10 8 3 10 4 11 5 12 6 13
REMARK SMILES IDX 7 14 8 15 9 16
REMARK H PARENT
REMARK Flexibility Score: 60.00
ROOT
ATOM      1  C   UNL     1     153.453 139.392 164.106  1.00  0.00    -0.074 C 
ATOM      2  C   UNL     1     152.956 139.987 165.204  1.00  0.00     0.008 C 
ENDROOT
BRANCH   1   3
ATOM      3  C   UNL     1     152.980 139.887 162.740  1.00  0.00     0.031 C 
BRANCH   3   4
ATOM      4  C   UNL     1     153.113 138.898 161.566  1.00  0.00     0.009 C 
BRANCH   4   5
ATOM      5  C   UNL     1     151.834 138.813 160.713  1.00  0.00     0.030 C 
BRANCH   5   6
ATOM      6  C   UNL     1     151.258 137.413 160.568  1.00  0.00    -0.077 C 
ATOM      7  C   UNL     1     150.385 137.130 159.368  1.00  0.00     0.039 C 
ATOM      8  C   UNL     1     151.375 136.424 161.493  1.00  0.00    -0.027 CG0
ATOM      9  G   UNL     1     152.308 136.362 162.691  1.00  0.00     0.000 G0
ENDBRANCH   5   6
ENDBRANCH   4   5
ENDBRANCH   3   4
ENDBRANCH   1   3
BRANCH   1  10
ATOM     10  C   UNL     1     154.525 138.327 164.282  1.00  0.00     0.057 C 
BRANCH  10  11
ATOM     11  C   UNL     1     155.092 137.942 162.933  1.00  0.00    -0.026 C 
ATOM     12  C   UNL     1     154.846 136.823 162.211  1.00  0.00    -0.024 C 
BRANCH  12  13
ATOM     13  C   UNL     1     153.744 135.778 162.398  1.00  0.00    -0.014 C 
ATOM     14  C   UNL     1     154.141 134.875 163.592  1.00  0.00     0.016 C 
ATOM     15  C   UNL     1     153.686 134.875 161.144  1.00  0.00     0.016 C 
BRANCH  13  16
ATOM     16  C   UNL     1     152.326 136.362 162.676  1.00  0.00     0.038 CG0
ATOM     17  G   UNL     1     151.354 136.417 161.509  1.00  0.00     0.000 G0
ENDBRANCH  13  16
ENDBRANCH  12  13
ENDBRANCH  10  11
ENDBRANCH   1  10
TORSDOF 0
ENDMDL
MODEL 3
REMARK VINA RESULT:     3.108      1.601      3.849
REMARK INTER + INTRA:           5.856
REMARK INTER:                   4.986
REMARK INTRA:                   0.870
REMARK UNBOUND:                 1.295
REMARK SMILES C=C1CC=CC(C)(C)CC=C(C)CCC1
REMARK SMILES IDX 2 1 1 2 15 3 14 4 13 5 11 6 12 7 10 8 3 10 4 11 5 12 6 13
REMARK SMILES IDX 7 14 8 15 9 16
REMARK H PARENT
REMARK Flexibility Score: 60.00
ROOT
ATOM      1  C   UNL     1     153.836 135.969 163.538  1.00  0.00    -0.074 C 
ATOM      2  C   UNL     1     155.061 135.872 164.082  1.00  0.00     0.008 C 
ENDROOT
BRANCH   1   3
ATOM      3  C   UNL     1     152.943 137.131 163.972  1.00  0.00     0.031 C 
BRANCH   3   4
ATOM      4  C   UNL     1     153.537 138.545 163.829  1.00  0.00     0.009 C 
BRANCH   4   5
ATOM      5  C   UNL     1     154.172 138.787 162.447  1.00  0.00     0.030 C 
BRANCH   5   6
ATOM      6  C   UNL     1     153.266 139.480 161.443  1.00  0.00    -0.077 C 
ATOM      7  C   UNL     1     153.740 140.786 160.849  1.00  0.00     0.039 C 
ATOM      8  C   UNL     1     152.009 139.076 161.120  1.00  0.00    -0.027 CG0
ATOM      9  G   UNL     1     151.343 137.744 161.422  1.00  0.00     0.000 G0
ENDBRANCH   5   6
ENDBRANCH   4   5
ENDBRANCH   3   4
ENDBRANCH   1   3
BRANCH   1  10
ATOM     10  C   UNL     1     153.444 134.975 162.455  1.00  0.00     0.057 C 
BRANCH  10  11
ATOM     11  C   UNL     1     153.797 135.534 161.094  1.00  0.00    -0.026 C 
ATOM     12  C   UNL     1     152.972 136.103 160.184  1.00  0.00    -0.024 C 
BRANCH  12  13
ATOM     13  C   UNL     1     151.534 136.598 160.362  1.00  0.00    -0.014 C 
ATOM     14  C   UNL     1     150.666 135.390 160.793  1.00  0.00     0.016 C 
ATOM     15  C   UNL     1     150.994 137.082 158.997  1.00  0.00     0.016 C 
BRANCH  13  16
ATOM     16  C   UNL     1     151.355 137.731 161.417  1.00  0.00     0.038 CG0
ATOM     17  G   UNL     1     151.997 139.074 161.111  1.00  0.00     0.000 G0
ENDBRANCH  13  16
ENDBRANCH  12  13
ENDBRANCH  10  11
ENDBRANCH   1  10
TORSDOF 0
ENDMDL
MODEL 4
REMARK VINA RESULT:     3.519     20.384     22.240
REMARK INTER + INTRA:           6.459
REMARK INTER:                   5.810
REMARK INTRA:                   0.649
REMARK UNBOUND:                 1.295
REMARK SMILES C=C1CC=CC(C)(C)CC=C(C)CCC1
REMARK SMILES IDX 2 1 1 2 15 3 14 4 13 5 11 6 12 7 10 8 3 10 4 11 5 12 6 13
REMARK SMILES IDX 7 14 8 15 9 16
REMARK H PARENT
REMARK Flexibility Score: 60.00
ROOT
ATOM      1  C   UNL     1     136.010 154.018 162.853  1.00  0.00    -0.074 C 
ATOM      2  C   UNL     1     136.208 155.007 163.740  1.00  0.00     0.008 C 
ENDROOT
BRANCH   1   3
ATOM      3  C   UNL     1     135.315 152.744 163.334  1.00  0.00     0.031 C 
BRANCH   3   4
ATOM      4  C   UNL     1     136.223 151.644 163.916  1.00  0.00     0.009 C 
BRANCH   4   5
ATOM      5  C   UNL     1     137.597 151.578 163.224  1.00  0.00     0.030 C 
BRANCH   5   6
ATOM      6  C   UNL     1     137.574 150.995 161.820  1.00  0.00    -0.077 C 
ATOM      7  C   UNL     1     136.490 149.997 161.487  1.00  0.00     0.039 C 
ATOM      8  C   UNL     1     138.522 151.217 160.870  1.00  0.00    -0.027 CG0
ATOM      9  G   UNL     1     139.610 152.276 160.857  1.00  0.00     0.000 G0
ENDBRANCH   5   6
ENDBRANCH   4   5
ENDBRANCH   3   4
ENDBRANCH   1   3
BRANCH   1  10
ATOM     10  C   UNL     1     136.400 154.257 161.402  1.00  0.00     0.057 C 
BRANCH  10  11
ATOM     11  C   UNL     1     137.639 155.122 161.340  1.00  0.00    -0.026 C 
ATOM     12  C   UNL     1     138.867 154.793 160.873  1.00  0.00    -0.024 C 
BRANCH  12  13
ATOM     13  C   UNL     1     139.287 153.583 160.034  1.00  0.00    -0.014 C 
ATOM     14  C   UNL     1     140.563 153.970 159.247  1.00  0.00     0.016 C 
ATOM     15  C   UNL     1     138.184 153.282 158.993  1.00  0.00     0.016 C 
BRANCH  13  16
ATOM     16  C   UNL     1     139.589 152.291 160.852  1.00  0.00     0.038 CG0
ATOM     17  G   UNL     1     138.525 151.205 160.856  1.00  0.00     0.000 G0
ENDBRANCH  13  16
ENDBRANCH  12  13
ENDBRANCH  10  11
ENDBRANCH   1  10
TORSDOF 0
ENDMDL
MODEL 5
REMARK VINA RESULT:     3.748      1.198      3.447
REMARK INTER + INTRA:           6.797
REMARK INTER:                   5.169
REMARK INTRA:                   1.628
REMARK UNBOUND:                 1.295
REMARK SMILES C=C1CC=CC(C)(C)CC=C(C)CCC1
REMARK SMILES IDX 2 1 1 2 15 3 14 4 13 5 11 6 12 7 10 8 3 10 4 11 5 12 6 13
REMARK SMILES IDX 7 14 8 15 9 16
REMARK H PARENT
REMARK Flexibility Score: 60.00
ROOT
ATOM      1  C   UNL     1     152.798 134.920 162.405  1.00  0.00    -0.074 C 
ATOM      2  C   UNL     1     151.753 134.897 163.249  1.00  0.00     0.008 C 
ENDROOT
BRANCH   1   3
ATOM      3  C   UNL     1     154.206 134.880 162.998  1.00  0.00     0.031 C 
BRANCH   3   4
ATOM      4  C   UNL     1     154.849 136.238 163.336  1.00  0.00     0.009 C 
BRANCH   4   5
ATOM      5  C   UNL     1     154.005 137.067 164.321  1.00  0.00     0.030 C 
BRANCH   5   6
ATOM      6  C   UNL     1     153.707 138.487 163.866  1.00  0.00    -0.077 C 
ATOM      7  C   UNL     1     153.808 139.592 164.890  1.00  0.00     0.039 C 
ATOM      8  C   UNL     1     153.246 138.828 162.633  1.00  0.00    -0.027 CG0
ATOM      9  G   UNL     1     153.207 137.976 161.376  1.00  0.00     0.000 G0
ENDBRANCH   5   6
ENDBRANCH   4   5
ENDBRANCH   3   4
ENDBRANCH   1   3
BRANCH   1  10
ATOM     10  C   UNL     1     152.523 134.889 160.909  1.00  0.00     0.057 C 
BRANCH  10  11
ATOM     11  C   UNL     1     151.223 135.603 160.612  1.00  0.00    -0.026 C 
ATOM     12  C   UNL     1     151.000 136.936 160.528  1.00  0.00    -0.024 C 
BRANCH  12  13
ATOM     13  C   UNL     1     152.014 138.079 160.430  1.00  0.00    -0.014 C 
ATOM     14  C   UNL     1     151.271 139.402 160.737  1.00  0.00     0.016 C 
ATOM     15  C   UNL     1     152.531 138.172 158.976  1.00  0.00     0.016 C 
BRANCH  13  16
ATOM     16  C   UNL     1     153.228 137.963 161.401  1.00  0.00     0.038 CG0
ATOM     17  G   UNL     1     153.227 138.858 162.628  1.00  0.00     0.000 G0
ENDBRANCH  13  16
ENDBRANCH  12  13
ENDBRANCH  10  11
ENDBRANCH   1  10
TORSDOF 0
ENDMDL
MODEL 6
REMARK VINA RESULT:     4.298     20.203     22.114
REMARK INTER + INTRA:           7.603
REMARK INTER:                   6.147
REMARK INTRA:                   1.456
REMARK UNBOUND:                 1.295
REMARK SMILES C=C1CC=CC(C)(C)CC=C(C)CCC1
REMARK SMILES IDX 2 1 1 2 15 3 14 4 13 5 11 6 12 7 10 8 3 10 4 11 5 12 6 13
REMARK SMILES IDX 7 14 8 15 9 16
REMARK H PARENT
REMARK Flexibility Score: 60.00
ROOT
ATOM      1  C   UNL     1     137.385 154.112 163.574  1.00  0.00    -0.074 C 
ATOM      2  C   UNL     1     136.580 155.125 163.213  1.00  0.00     0.008 C 
ENDROOT
BRANCH   1   3
ATOM      3  C   UNL     1     136.837 153.064 164.542  1.00  0.00     0.031 C 
BRANCH   3   4
ATOM      4  C   UNL     1     136.040 151.902 163.919  1.00  0.00     0.009 C 
BRANCH   4   5
ATOM      5  C   UNL     1     136.295 151.749 162.409  1.00  0.00     0.030 C 
BRANCH   5   6
ATOM      6  C   UNL     1     137.626 151.109 162.050  1.00  0.00    -0.077 C 
ATOM      7  C   UNL     1     138.100 149.946 162.890  1.00  0.00     0.039 C 
ATOM      8  C   UNL     1     138.481 151.572 161.100  1.00  0.00    -0.027 CG0
ATOM      9  G   UNL     1     138.211 152.595 160.010  1.00  0.00     0.000 G0
ENDBRANCH   5   6
ENDBRANCH   4   5
ENDBRANCH   3   4
ENDBRANCH   1   3
BRANCH   1  10
ATOM     10  C   UNL     1     138.758 154.012 162.928  1.00  0.00     0.057 C 
BRANCH  10  11
ATOM     11  C   UNL     1     138.908 155.085 161.872  1.00  0.00    -0.026 C 
ATOM     12  C   UNL     1     139.270 154.938 160.576  1.00  0.00    -0.024 C 
BRANCH  12  13
ATOM     13  C   UNL     1     139.359 153.659 159.738  1.00  0.00    -0.014 C 
ATOM     14  C   UNL     1     140.728 152.995 160.028  1.00  0.00     0.016 C 
ATOM     15  C   UNL     1     139.344 154.035 158.239  1.00  0.00     0.016 C 
BRANCH  13  16
ATOM     16  C   UNL     1     138.238 152.613 160.017  1.00  0.00     0.038 CG0
ATOM     17  G   UNL     1     138.506 151.576 161.095  1.00  0.00     0.000 G0
ENDBRANCH  13  16
ENDBRANCH  12  13
ENDBRANCH  10  11
ENDBRANCH   1  10
TORSDOF 0
ENDMDL
MODEL 7
REMARK VINA RESULT:     4.717     20.614     22.511
REMARK INTER + INTRA:           8.218
REMARK INTER:                   6.198
REMARK INTRA:                   2.020
REMARK UNBOUND:                 1.295
REMARK SMILES C=C1CC=CC(C)(C)CC=C(C)CCC1
REMARK SMILES IDX 2 1 1 2 15 3 14 4 13 5 11 6 12 7 10 8 3 10 4 11 5 12 6 13
REMARK SMILES IDX 7 14 8 15 9 16
REMARK H PARENT
REMARK Flexibility Score: 60.00
ROOT
ATOM      1  C   UNL     1     139.496 153.862 159.868  1.00  0.00    -0.074 C 
ATOM      2  C   UNL     1     139.931 154.101 158.619  1.00  0.00     0.008 C 
ENDROOT
BRANCH   1   3
ATOM      3  C   UNL     1     140.146 152.723 160.653  1.00  0.00     0.031 C 
BRANCH   3   4
ATOM      4  C   UNL     1     139.212 151.882 161.544  1.00  0.00     0.009 C 
BRANCH   4   5
ATOM      5  C   UNL     1     137.882 151.535 160.851  1.00  0.00     0.030 C 
BRANCH   5   6
ATOM      6  C   UNL     1     136.816 150.962 161.771  1.00  0.00    -0.077 C 
ATOM      7  C   UNL     1     136.114 149.697 161.336  1.00  0.00     0.039 C 
ATOM      8  C   UNL     1     136.363 151.559 162.905  1.00  0.00    -0.027 CG0
ATOM      9  G   UNL     1     136.979 152.722 163.665  1.00  0.00     0.000 G0
ENDBRANCH   5   6
ENDBRANCH   4   5
ENDBRANCH   3   4
ENDBRANCH   1   3
BRANCH   1  10
ATOM     10  C   UNL     1     138.452 154.795 160.462  1.00  0.00     0.057 C 
BRANCH  10  11
ATOM     11  C   UNL     1     138.814 155.125 161.893  1.00  0.00    -0.026 C 
ATOM     12  C   UNL     1     138.061 154.960 163.006  1.00  0.00    -0.024 C 
BRANCH  12  13
ATOM     13  C   UNL     1     136.770 154.156 163.187  1.00  0.00    -0.014 C 
ATOM     14  C   UNL     1     136.053 154.093 161.816  1.00  0.00     0.016 C 
ATOM     15  C   UNL     1     135.835 154.914 164.157  1.00  0.00     0.016 C 
BRANCH  13  16
ATOM     16  C   UNL     1     136.973 152.698 163.701  1.00  0.00     0.038 CG0
ATOM     17  G   UNL     1     136.360 151.578 162.878  1.00  0.00     0.000 G0
ENDBRANCH  13  16
ENDBRANCH  12  13
ENDBRANCH  10  11
ENDBRANCH   1  10
TORSDOF 0
ENDMDL
