MODEL 1
REMARK VINA RESULT:    -3.872      0.000      0.000
REMARK INTER + INTRA:          -5.017
REMARK INTER:                  -4.777
REMARK INTRA:                  -0.240
REMARK UNBOUND:                -0.240
REMARK SMILES CCCCCC(=O)[O-]
REMARK SMILES IDX 4 1 5 2 6 3 7 4 8 5 3 6 2 7 1 8
REMARK H PARENT
REMARK Flexibility Score: inf
ROOT
ATOM      1  C   UNL     1     -30.104  65.174  86.083  1.00  0.00     0.006 C 
ENDROOT
BRANCH   1   2
ATOM      2  C   UNL     1     -30.781  66.365  85.391  1.00  0.00     0.053 C 
BRANCH   2   3
ATOM      3  C   UNL     1     -31.089  67.469  86.355  1.00  0.00     0.041 C 
ATOM      4  O   UNL     1     -32.207  67.510  86.935  1.00  0.00    -0.550 OA
ATOM      5  O   UNL     1     -30.155  68.470  86.590  1.00  0.00    -0.550 OA
ENDBRANCH   2   3
ENDBRANCH   1   2
BRANCH   1   6
ATOM      6  C   UNL     1     -28.575  65.336  86.155  1.00  0.00     0.000 C 
BRANCH   6   7
ATOM      7  C   UNL     1     -27.986  65.945  84.875  1.00  0.00    -0.003 C 
ATOM      8  C   UNL     1     -27.090  67.153  85.150  1.00  0.00     0.004 C 
ENDBRANCH   6   7
ENDBRANCH   1   6
TORSDOF 4
ENDMDL
MODEL 2
REMARK VINA RESULT:    -3.849      0.968      1.494
REMARK INTER + INTRA:          -4.990
REMARK INTER:                  -4.767
REMARK INTRA:                  -0.222
REMARK UNBOUND:                -0.240
REMARK SMILES CCCCCC(=O)[O-]
REMARK SMILES IDX 4 1 5 2 6 3 7 4 8 5 3 6 2 7 1 8
REMARK H PARENT
REMARK Flexibility Score: inf
ROOT
ATOM      1  C   UNL     1     -30.396  66.563  83.871  1.00  0.00     0.006 C 
ENDROOT
BRANCH   1   2
ATOM      2  C   UNL     1     -30.533  66.111  85.330  1.00  0.00     0.053 C 
BRANCH   2   3
ATOM      3  C   UNL     1     -31.046  67.210  86.210  1.00  0.00     0.041 C 
ATOM      4  O   UNL     1     -32.253  67.222  86.569  1.00  0.00    -0.550 OA
ATOM      5  O   UNL     1     -30.200  68.237  86.606  1.00  0.00    -0.550 OA
ENDBRANCH   2   3
ENDBRANCH   1   2
BRANCH   1   6
ATOM      6  C   UNL     1     -28.981  67.079  83.553  1.00  0.00     0.000 C 
BRANCH   6   7
ATOM      7  C   UNL     1     -27.892  66.339  84.342  1.00  0.00    -0.003 C 
ATOM      8  C   UNL     1     -27.021  67.279  85.176  1.00  0.00     0.004 C 
ENDBRANCH   6   7
ENDBRANCH   1   6
TORSDOF 4
ENDMDL
MODEL 3
REMARK VINA RESULT:    -3.816      1.800      3.679
REMARK INTER + INTRA:          -4.949
REMARK INTER:                  -4.722
REMARK INTRA:                  -0.227
REMARK UNBOUND:                -0.240
REMARK SMILES CCCCCC(=O)[O-]
REMARK SMILES IDX 4 1 5 2 6 3 7 4 8 5 3 6 2 7 1 8
REMARK H PARENT
REMARK Flexibility Score: inf
ROOT
ATOM      1  C   UNL     1     -28.635  67.020  83.713  1.00  0.00     0.006 C 
ENDROOT
BRANCH   1   2
ATOM      2  C   UNL     1     -27.910  66.778  85.044  1.00  0.00     0.053 C 
BRANCH   2   3
ATOM      3  C   UNL     1     -27.646  68.057  85.777  1.00  0.00     0.041 C 
ATOM      4  O   UNL     1     -26.524  68.622  85.683  1.00  0.00    -0.550 OA
ATOM      5  O   UNL     1     -28.628  68.610  86.589  1.00  0.00    -0.550 OA
ENDBRANCH   2   3
ENDBRANCH   1   2
BRANCH   1   6
ATOM      6  C   UNL     1     -30.165  67.011  83.875  1.00  0.00     0.000 C 
BRANCH   6   7
ATOM      7  C   UNL     1     -30.636  66.046  84.972  1.00  0.00    -0.003 C 
ATOM      8  C   UNL     1     -31.580  66.705  85.978  1.00  0.00     0.004 C 
ENDBRANCH   6   7
ENDBRANCH   1   6
TORSDOF 4
ENDMDL
MODEL 4
REMARK VINA RESULT:    -3.808      2.977      3.516
REMARK INTER + INTRA:          -4.939
REMARK INTER:                  -4.700
REMARK INTRA:                  -0.239
REMARK UNBOUND:                -0.240
REMARK SMILES CCCCCC(=O)[O-]
REMARK SMILES IDX 4 1 5 2 6 3 7 4 8 5 3 6 2 7 1 8
REMARK H PARENT
REMARK Flexibility Score: inf
ROOT
ATOM      1  C   UNL     1     -30.691  66.251  85.302  1.00  0.00     0.006 C 
ENDROOT
BRANCH   1   2
ATOM      2  C   UNL     1     -29.597  65.299  85.803  1.00  0.00     0.053 C 
BRANCH   2   3
ATOM      3  C   UNL     1     -29.771  63.914  85.260  1.00  0.00     0.041 C 
ATOM      4  O   UNL     1     -30.516  63.089  85.853  1.00  0.00    -0.550 OA
ATOM      5  O   UNL     1     -29.087  63.523  84.116  1.00  0.00    -0.550 OA
ENDBRANCH   2   3
ENDBRANCH   1   2
BRANCH   1   6
ATOM      6  C   UNL     1     -30.379  66.809  83.902  1.00  0.00     0.000 C 
BRANCH   6   7
ATOM      7  C   UNL     1     -28.907  67.215  83.743  1.00  0.00    -0.003 C 
ATOM      8  C   UNL     1     -28.283  66.691  82.450  1.00  0.00     0.004 C 
ENDBRANCH   6   7
ENDBRANCH   1   6
TORSDOF 4
ENDMDL
MODEL 5
REMARK VINA RESULT:    -3.794      1.609      2.116
REMARK INTER + INTRA:          -4.921
REMARK INTER:                  -4.689
REMARK INTRA:                  -0.232
REMARK UNBOUND:                -0.240
REMARK SMILES CCCCCC(=O)[O-]
REMARK SMILES IDX 4 1 5 2 6 3 7 4 8 5 3 6 2 7 1 8
REMARK H PARENT
REMARK Flexibility Score: inf
ROOT
ATOM      1  C   UNL     1     -29.484  67.312  83.879  1.00  0.00     0.006 C 
ENDROOT
BRANCH   1   2
ATOM      2  C   UNL     1     -30.543  66.229  84.124  1.00  0.00     0.053 C 
BRANCH   2   3
ATOM      3  C   UNL     1     -30.926  66.139  85.570  1.00  0.00     0.041 C 
ATOM      4  O   UNL     1     -31.953  66.733  85.991  1.00  0.00    -0.550 OA
ATOM      5  O   UNL     1     -30.131  65.425  86.458  1.00  0.00    -0.550 OA
ENDBRANCH   2   3
ENDBRANCH   1   2
BRANCH   1   6
ATOM      6  C   UNL     1     -28.070  66.723  83.742  1.00  0.00     0.000 C 
BRANCH   6   7
ATOM      7  C   UNL     1     -27.240  66.875  85.025  1.00  0.00    -0.003 C 
ATOM      8  C   UNL     1     -27.470  68.215  85.724  1.00  0.00     0.004 C 
ENDBRANCH   6   7
ENDBRANCH   1   6
TORSDOF 4
ENDMDL
MODEL 6
REMARK VINA RESULT:    -3.776      1.657      3.471
REMARK INTER + INTRA:          -4.900
REMARK INTER:                  -4.682
REMARK INTRA:                  -0.218
REMARK UNBOUND:                -0.240
REMARK SMILES CCCCCC(=O)[O-]
REMARK SMILES IDX 4 1 5 2 6 3 7 4 8 5 3 6 2 7 1 8
REMARK H PARENT
REMARK Flexibility Score: inf
ROOT
ATOM      1  C   UNL     1     -28.354  65.502  86.147  1.00  0.00     0.006 C 
ENDROOT
BRANCH   1   2
ATOM      2  C   UNL     1     -27.890  66.426  85.014  1.00  0.00     0.053 C 
BRANCH   2   3
ATOM      3  C   UNL     1     -27.470  67.770  85.526  1.00  0.00     0.041 C 
ATOM      4  O   UNL     1     -26.277  68.152  85.400  1.00  0.00    -0.550 OA
ATOM      5  O   UNL     1     -28.390  68.588  86.169  1.00  0.00    -0.550 OA
ENDBRANCH   2   3
ENDBRANCH   1   2
BRANCH   1   6
ATOM      6  C   UNL     1     -29.788  64.988  85.928  1.00  0.00     0.000 C 
BRANCH   6   7
ATOM      7  C   UNL     1     -30.655  65.981  85.140  1.00  0.00    -0.003 C 
ATOM      8  C   UNL     1     -31.550  66.832  86.041  1.00  0.00     0.004 C 
ENDBRANCH   6   7
ENDBRANCH   1   6
TORSDOF 4
ENDMDL
MODEL 7
REMARK VINA RESULT:    -3.770      3.252      4.411
REMARK INTER + INTRA:          -4.892
REMARK INTER:                  -4.679
REMARK INTRA:                  -0.213
REMARK UNBOUND:                -0.240
REMARK SMILES CCCCCC(=O)[O-]
REMARK SMILES IDX 4 1 5 2 6 3 7 4 8 5 3 6 2 7 1 8
REMARK H PARENT
REMARK Flexibility Score: inf
ROOT
ATOM      1  C   UNL     1     -30.297  66.752  83.998  1.00  0.00     0.006 C 
ENDROOT
BRANCH   1   2
ATOM      2  C   UNL     1     -28.856  66.277  83.770  1.00  0.00     0.053 C 
BRANCH   2   3
ATOM      3  C   UNL     1     -28.760  65.314  82.625  1.00  0.00     0.041 C 
ATOM      4  O   UNL     1     -28.017  65.572  81.642  1.00  0.00    -0.550 OA
ATOM      5  O   UNL     1     -29.515  64.148  82.631  1.00  0.00    -0.550 OA
ENDBRANCH   2   3
ENDBRANCH   1   2
BRANCH   1   6
ATOM      6  C   UNL     1     -30.912  66.150  85.273  1.00  0.00     0.000 C 
BRANCH   6   7
ATOM      7  C   UNL     1     -29.898  65.335  86.089  1.00  0.00    -0.003 C 
ATOM      8  C   UNL     1     -30.261  63.852  86.175  1.00  0.00     0.004 C 
ENDBRANCH   6   7
ENDBRANCH   1   6
TORSDOF 4
ENDMDL
MODEL 8
REMARK VINA RESULT:    -3.761      3.006      3.986
REMARK INTER + INTRA:          -4.880
REMARK INTER:                  -4.646
REMARK INTRA:                  -0.234
REMARK UNBOUND:                -0.240
REMARK SMILES CCCCCC(=O)[O-]
REMARK SMILES IDX 4 1 5 2 6 3 7 4 8 5 3 6 2 7 1 8
REMARK H PARENT
REMARK Flexibility Score: inf
ROOT
ATOM      1  C   UNL     1     -27.750  66.101  85.191  1.00  0.00     0.006 C 
ENDROOT
BRANCH   1   2
ATOM      2  C   UNL     1     -28.505  66.919  84.136  1.00  0.00     0.053 C 
BRANCH   2   3
ATOM      3  C   UNL     1     -28.517  66.236  82.802  1.00  0.00     0.041 C 
ATOM      4  O   UNL     1     -28.938  65.053  82.700  1.00  0.00    -0.550 OA
ATOM      5  O   UNL     1     -28.033  66.894  81.679  1.00  0.00    -0.550 OA
ENDBRANCH   2   3
ENDBRANCH   1   2
BRANCH   1   6
ATOM      6  C   UNL     1     -28.568  65.919  86.481  1.00  0.00     0.000 C 
BRANCH   6   7
ATOM      7  C   UNL     1     -30.019  65.500  86.205  1.00  0.00    -0.003 C 
ATOM      8  C   UNL     1     -30.154  64.014  85.869  1.00  0.00     0.004 C 
ENDBRANCH   6   7
ENDBRANCH   1   6
TORSDOF 4
ENDMDL
MODEL 9
REMARK VINA RESULT:    -3.690      1.541      2.397
REMARK INTER + INTRA:          -4.793
REMARK INTER:                  -4.537
REMARK INTRA:                  -0.256
REMARK UNBOUND:                -0.240
REMARK SMILES CCCCCC(=O)[O-]
REMARK SMILES IDX 4 1 5 2 6 3 7 4 8 5 3 6 2 7 1 8
REMARK H PARENT
REMARK Flexibility Score: inf
ROOT
ATOM      1  C   UNL     1     -28.456  65.611  86.139  1.00  0.00     0.006 C 
ENDROOT
BRANCH   1   2
ATOM      2  C   UNL     1     -28.645  67.106  86.427  1.00  0.00     0.053 C 
BRANCH   2   3
ATOM      3  C   UNL     1     -29.941  67.621  85.880  1.00  0.00     0.041 C 
ATOM      4  O   UNL     1     -30.813  68.095  86.655  1.00  0.00    -0.550 OA
ATOM      5  O   UNL     1     -30.198  67.550  84.517  1.00  0.00    -0.550 OA
ENDBRANCH   2   3
ENDBRANCH   1   2
BRANCH   1   6
ATOM      6  C   UNL     1     -29.665  64.775  86.593  1.00  0.00     0.000 C 
BRANCH   6   7
ATOM      7  C   UNL     1     -30.148  63.801  85.509  1.00  0.00    -0.003 C 
ATOM      8  C   UNL     1     -29.389  63.956  84.191  1.00  0.00     0.004 C 
ENDBRANCH   6   7
ENDBRANCH   1   6
TORSDOF 4
ENDMDL
