MODEL 1
REMARK VINA RESULT:    -6.222      0.000      0.000
REMARK INTER + INTRA:          -8.498
REMARK INTER:                  -7.859
REMARK INTRA:                  -0.639
REMARK UNBOUND:                -0.639
REMARK SMILES O=C(C=Cc1ccc(O)cc1)c1ccc(O)cc1O
REMARK SMILES IDX 4 1 3 2 5 3 6 4 7 5 8 6 11 7 10 8 9 9 2 11 1 12 12 13 18 14
REMARK SMILES IDX 13 15 17 16 14 17 15 18 19 19 16 21
REMARK H PARENT 9 10 19 20 16 22
REMARK Flexibility Score: inf
ROOT
ATOM      1  C   UNL     1      -7.110  26.012  34.398  1.00  0.00     0.012 C 
ATOM      2  C   UNL     1      -6.339  25.105  33.780  1.00  0.00     0.053 C 
ENDROOT
BRANCH   1   3
ATOM      3  C   UNL     1      -6.680  27.403  34.680  1.00  0.00    -0.025 A 
ATOM      4  C   UNL     1      -6.938  28.041  35.911  1.00  0.00     0.012 A 
ATOM      5  C   UNL     1      -6.523  29.359  36.125  1.00  0.00     0.047 A 
ATOM      6  C   UNL     1      -5.855  30.061  35.114  1.00  0.00     0.115 A 
ATOM      7  C   UNL     1      -6.024  28.123  33.667  1.00  0.00     0.012 A 
ATOM      8  C   UNL     1      -5.610  29.440  33.885  1.00  0.00     0.047 A 
BRANCH   6   9
ATOM      9  O   UNL     1      -5.437  31.374  35.317  1.00  0.00    -0.508 OA
ATOM     10  H   UNL     1      -5.919  31.990  35.962  1.00  0.00     0.293 HD
ENDBRANCH   6   9
ENDBRANCH   1   3
BRANCH   2  11
ATOM     11  C   UNL     1      -6.806  23.730  33.501  1.00  0.00     0.189 C 
ATOM     12  O   UNL     1      -7.574  23.150  34.317  1.00  0.00    -0.289 OA
BRANCH  11  13
ATOM     13  C   UNL     1      -6.431  23.033  32.248  1.00  0.00     0.064 A 
ATOM     14  C   UNL     1      -6.139  21.652  32.224  1.00  0.00     0.130 A 
ATOM     15  C   UNL     1      -6.391  23.762  31.047  1.00  0.00     0.020 A 
ATOM     16  C   UNL     1      -5.774  21.036  31.018  1.00  0.00     0.093 A 
ATOM     17  C   UNL     1      -6.032  23.138  29.849  1.00  0.00     0.047 A 
ATOM     18  C   UNL     1      -5.718  21.775  29.833  1.00  0.00     0.119 A 
BRANCH  14  19
ATOM     19  O   UNL     1      -6.235  20.884  33.386  1.00  0.00    -0.507 OA
ATOM     20  H   UNL     1      -5.474  20.831  34.053  1.00  0.00     0.293 HD
ENDBRANCH  14  19
BRANCH  18  21
ATOM     21  O   UNL     1      -5.356  21.144  28.645  1.00  0.00    -0.508 OA
ATOM     22  H   UNL     1      -5.508  20.152  28.504  1.00  0.00     0.293 HD
ENDBRANCH  18  21
ENDBRANCH  11  13
ENDBRANCH   2  11
TORSDOF 6
ENDMDL
MODEL 2
REMARK VINA RESULT:    -6.094     18.813     20.124
REMARK INTER + INTRA:          -8.336
REMARK INTER:                  -7.619
REMARK INTRA:                  -0.718
REMARK UNBOUND:                -0.639
REMARK SMILES O=C(C=Cc1ccc(O)cc1)c1ccc(O)cc1O
REMARK SMILES IDX 4 1 3 2 5 3 6 4 7 5 8 6 11 7 10 8 9 9 2 11 1 12 12 13 18 14
REMARK SMILES IDX 13 15 17 16 14 17 15 18 19 19 16 21
REMARK H PARENT 9 10 19 20 16 22
REMARK Flexibility Score: inf
ROOT
ATOM      1  C   UNL     1      -3.631  38.991  18.768  1.00  0.00     0.012 C 
ATOM      2  C   UNL     1      -3.641  38.756  17.448  1.00  0.00     0.053 C 
ENDROOT
BRANCH   1   3
ATOM      3  C   UNL     1      -4.854  39.240  19.569  1.00  0.00    -0.025 A 
ATOM      4  C   UNL     1      -4.890  40.169  20.630  1.00  0.00     0.012 A 
ATOM      5  C   UNL     1      -6.065  40.359  21.364  1.00  0.00     0.047 A 
ATOM      6  C   UNL     1      -7.215  39.621  21.059  1.00  0.00     0.115 A 
ATOM      7  C   UNL     1      -6.010  38.493  19.283  1.00  0.00     0.012 A 
ATOM      8  C   UNL     1      -7.182  38.687  20.019  1.00  0.00     0.047 A 
BRANCH   6   9
ATOM      9  O   UNL     1      -8.390  39.803  21.783  1.00  0.00    -0.508 OA
ATOM     10  H   UNL     1      -8.537  40.627  22.355  1.00  0.00     0.293 HD
ENDBRANCH   6   9
ENDBRANCH   1   3
BRANCH   2  11
ATOM     11  C   UNL     1      -2.403  38.497  16.683  1.00  0.00     0.189 C 
ATOM     12  O   UNL     1      -1.922  39.397  15.941  1.00  0.00    -0.289 OA
BRANCH  11  13
ATOM     13  C   UNL     1      -1.679  37.210  16.811  1.00  0.00     0.064 A 
ATOM     14  C   UNL     1      -0.270  37.152  16.883  1.00  0.00     0.130 A 
ATOM     15  C   UNL     1      -2.417  36.016  16.890  1.00  0.00     0.020 A 
ATOM     16  C   UNL     1       0.374  35.910  16.989  1.00  0.00     0.093 A 
ATOM     17  C   UNL     1      -1.767  34.784  17.001  1.00  0.00     0.047 A 
ATOM     18  C   UNL     1      -0.370  34.728  17.047  1.00  0.00     0.119 A 
BRANCH  14  19
ATOM     19  O   UNL     1       0.491  38.322  16.875  1.00  0.00    -0.507 OA
ATOM     20  H   UNL     1       0.270  39.105  17.480  1.00  0.00     0.293 HD
ENDBRANCH  14  19
BRANCH  18  21
ATOM     21  O   UNL     1       0.288  33.505  17.155  1.00  0.00    -0.508 OA
ATOM     22  H   UNL     1       1.125  33.305  16.619  1.00  0.00     0.293 HD
ENDBRANCH  18  21
ENDBRANCH  11  13
ENDBRANCH   2  11
TORSDOF 6
ENDMDL
MODEL 3
REMARK VINA RESULT:    -6.058      1.403      1.625
REMARK INTER + INTRA:          -8.291
REMARK INTER:                  -7.684
REMARK INTRA:                  -0.607
REMARK UNBOUND:                -0.639
REMARK SMILES O=C(C=Cc1ccc(O)cc1)c1ccc(O)cc1O
REMARK SMILES IDX 4 1 3 2 5 3 6 4 7 5 8 6 11 7 10 8 9 9 2 11 1 12 12 13 18 14
REMARK SMILES IDX 13 15 17 16 14 17 15 18 19 19 16 21
REMARK H PARENT 9 10 19 20 16 22
REMARK Flexibility Score: inf
ROOT
ATOM      1  C   UNL     1      -6.055  25.747  34.919  1.00  0.00     0.012 C 
ATOM      2  C   UNL     1      -7.253  25.179  34.721  1.00  0.00     0.053 C 
ENDROOT
BRANCH   1   3
ATOM      3  C   UNL     1      -5.838  27.213  34.977  1.00  0.00    -0.025 A 
ATOM      4  C   UNL     1      -5.300  27.855  36.111  1.00  0.00     0.012 A 
ATOM      5  C   UNL     1      -5.126  29.243  36.123  1.00  0.00     0.047 A 
ATOM      6  C   UNL     1      -5.495  30.009  35.010  1.00  0.00     0.115 A 
ATOM      7  C   UNL     1      -6.221  27.995  33.873  1.00  0.00     0.012 A 
ATOM      8  C   UNL     1      -6.045  29.381  33.889  1.00  0.00     0.047 A 
BRANCH   6   9
ATOM      9  O   UNL     1      -5.325  31.391  35.012  1.00  0.00    -0.508 OA
ATOM     10  H   UNL     1      -4.870  31.869  35.781  1.00  0.00     0.293 HD
ENDBRANCH   6   9
ENDBRANCH   1   3
BRANCH   2  11
ATOM     11  C   UNL     1      -7.434  23.712  34.683  1.00  0.00     0.189 C 
ATOM     12  O   UNL     1      -7.693  23.084  35.747  1.00  0.00    -0.289 OA
BRANCH  11  13
ATOM     13  C   UNL     1      -7.369  22.965  33.406  1.00  0.00     0.064 A 
ATOM     14  C   UNL     1      -8.290  21.940  33.095  1.00  0.00     0.130 A 
ATOM     15  C   UNL     1      -6.380  23.303  32.466  1.00  0.00     0.020 A 
ATOM     16  C   UNL     1      -8.182  21.248  31.879  1.00  0.00     0.093 A 
ATOM     17  C   UNL     1      -6.283  22.612  31.255  1.00  0.00     0.047 A 
ATOM     18  C   UNL     1      -7.181  21.581  30.961  1.00  0.00     0.119 A 
BRANCH  14  19
ATOM     19  O   UNL     1      -9.326  21.624  33.975  1.00  0.00    -0.507 OA
ATOM     20  H   UNL     1      -9.150  21.167  34.862  1.00  0.00     0.293 HD
ENDBRANCH  14  19
BRANCH  18  21
ATOM     21  O   UNL     1      -7.093  20.884  29.758  1.00  0.00    -0.508 OA
ATOM     22  H   UNL     1      -7.854  20.305  29.423  1.00  0.00     0.293 HD
ENDBRANCH  18  21
ENDBRANCH  11  13
ENDBRANCH   2  11
TORSDOF 6
ENDMDL
MODEL 4
REMARK VINA RESULT:    -5.962      9.998     14.149
REMARK INTER + INTRA:          -8.170
REMARK INTER:                  -7.675
REMARK INTRA:                  -0.495
REMARK UNBOUND:                -0.639
REMARK SMILES O=C(C=Cc1ccc(O)cc1)c1ccc(O)cc1O
REMARK SMILES IDX 4 1 3 2 5 3 6 4 7 5 8 6 11 7 10 8 9 9 2 11 1 12 12 13 18 14
REMARK SMILES IDX 13 15 17 16 14 17 15 18 19 19 16 21
REMARK H PARENT 9 10 19 20 16 22
REMARK Flexibility Score: inf
ROOT
ATOM      1  C   UNL     1      -1.742  38.785  31.014  1.00  0.00     0.012 C 
ATOM      2  C   UNL     1      -2.563  38.858  32.072  1.00  0.00     0.053 C 
ENDROOT
BRANCH   1   3
ATOM      3  C   UNL     1      -0.388  39.389  30.980  1.00  0.00    -0.025 A 
ATOM      4  C   UNL     1       0.269  39.844  32.141  1.00  0.00     0.012 A 
ATOM      5  C   UNL     1       1.541  40.417  32.056  1.00  0.00     0.047 A 
ATOM      6  C   UNL     1       2.171  40.554  30.812  1.00  0.00     0.115 A 
ATOM      7  C   UNL     1       0.247  39.546  29.735  1.00  0.00     0.012 A 
ATOM      8  C   UNL     1       1.519  40.120  29.654  1.00  0.00     0.047 A 
BRANCH   6   9
ATOM      9  O   UNL     1       3.439  41.123  30.716  1.00  0.00    -0.508 OA
ATOM     10  H   UNL     1       4.098  40.832  30.004  1.00  0.00     0.293 HD
ENDBRANCH   6   9
ENDBRANCH   1   3
BRANCH   2  11
ATOM     11  C   UNL     1      -3.902  38.230  32.076  1.00  0.00     0.189 C 
ATOM     12  O   UNL     1      -4.862  38.793  31.481  1.00  0.00    -0.289 OA
BRANCH  11  13
ATOM     13  C   UNL     1      -4.130  36.919  32.727  1.00  0.00     0.064 A 
ATOM     14  C   UNL     1      -3.860  35.701  32.063  1.00  0.00     0.130 A 
ATOM     15  C   UNL     1      -4.602  36.885  34.050  1.00  0.00     0.020 A 
ATOM     16  C   UNL     1      -4.105  34.482  32.712  1.00  0.00     0.093 A 
ATOM     17  C   UNL     1      -4.838  35.666  34.691  1.00  0.00     0.047 A 
ATOM     18  C   UNL     1      -4.593  34.461  34.022  1.00  0.00     0.119 A 
BRANCH  14  19
ATOM     19  O   UNL     1      -3.327  35.698  30.773  1.00  0.00    -0.507 OA
ATOM     20  H   UNL     1      -2.328  35.650  30.610  1.00  0.00     0.293 HD
ENDBRANCH  14  19
BRANCH  18  21
ATOM     21  O   UNL     1      -4.827  33.240  34.650  1.00  0.00    -0.508 OA
ATOM     22  H   UNL     1      -5.616  32.657  34.397  1.00  0.00     0.293 HD
ENDBRANCH  18  21
ENDBRANCH  11  13
ENDBRANCH   2  11
TORSDOF 6
ENDMDL
MODEL 5
REMARK VINA RESULT:    -5.922     18.683     20.720
REMARK INTER + INTRA:          -8.119
REMARK INTER:                  -7.507
REMARK INTRA:                  -0.611
REMARK UNBOUND:                -0.639
REMARK SMILES O=C(C=Cc1ccc(O)cc1)c1ccc(O)cc1O
REMARK SMILES IDX 4 1 3 2 5 3 6 4 7 5 8 6 11 7 10 8 9 9 2 11 1 12 12 13 18 14
REMARK SMILES IDX 13 15 17 16 14 17 15 18 19 19 16 21
REMARK H PARENT 9 10 19 20 16 22
REMARK Flexibility Score: inf
ROOT
ATOM      1  C   UNL     1      -1.925  37.879  17.741  1.00  0.00     0.012 C 
ATOM      2  C   UNL     1      -3.051  38.002  18.459  1.00  0.00     0.053 C 
ENDROOT
BRANCH   1   3
ATOM      3  C   UNL     1      -1.380  36.578  17.281  1.00  0.00    -0.025 A 
ATOM      4  C   UNL     1      -1.984  35.346  17.606  1.00  0.00     0.012 A 
ATOM      5  C   UNL     1      -1.426  34.145  17.158  1.00  0.00     0.047 A 
ATOM      6  C   UNL     1      -0.255  34.155  16.390  1.00  0.00     0.115 A 
ATOM      7  C   UNL     1      -0.196  36.575  16.524  1.00  0.00     0.012 A 
ATOM      8  C   UNL     1       0.358  35.372  16.077  1.00  0.00     0.047 A 
BRANCH   6   9
ATOM      9  O   UNL     1       0.309  32.964  15.938  1.00  0.00    -0.508 OA
ATOM     10  H   UNL     1       1.079  32.959  15.279  1.00  0.00     0.293 HD
ENDBRANCH   6   9
ENDBRANCH   1   3
BRANCH   2  11
ATOM     11  C   UNL     1      -3.573  39.318  18.888  1.00  0.00     0.189 C 
ATOM     12  O   UNL     1      -2.971  40.374  18.547  1.00  0.00    -0.289 OA
BRANCH  11  13
ATOM     13  C   UNL     1      -4.825  39.426  19.672  1.00  0.00     0.064 A 
ATOM     14  C   UNL     1      -4.936  40.292  20.782  1.00  0.00     0.130 A 
ATOM     15  C   UNL     1      -5.942  38.666  19.283  1.00  0.00     0.020 A 
ATOM     16  C   UNL     1      -6.138  40.352  21.505  1.00  0.00     0.093 A 
ATOM     17  C   UNL     1      -7.136  38.736  20.006  1.00  0.00     0.047 A 
ATOM     18  C   UNL     1      -7.235  39.576  21.120  1.00  0.00     0.119 A 
BRANCH  14  19
ATOM     19  O   UNL     1      -3.869  41.111  21.154  1.00  0.00    -0.507 OA
ATOM     20  H   UNL     1      -3.085  40.755  21.688  1.00  0.00     0.293 HD
ENDBRANCH  14  19
BRANCH  18  21
ATOM     21  O   UNL     1      -8.420  39.652  21.849  1.00  0.00    -0.508 OA
ATOM     22  H   UNL     1      -9.224  40.161  21.502  1.00  0.00     0.293 HD
ENDBRANCH  18  21
ENDBRANCH  11  13
ENDBRANCH   2  11
TORSDOF 6
ENDMDL
MODEL 6
REMARK VINA RESULT:    -5.847     14.187     16.908
REMARK INTER + INTRA:          -8.025
REMARK INTER:                  -7.550
REMARK INTRA:                  -0.474
REMARK UNBOUND:                -0.639
REMARK SMILES O=C(C=Cc1ccc(O)cc1)c1ccc(O)cc1O
REMARK SMILES IDX 4 1 3 2 5 3 6 4 7 5 8 6 11 7 10 8 9 9 2 11 1 12 12 13 18 14
REMARK SMILES IDX 13 15 17 16 14 17 15 18 19 19 16 21
REMARK H PARENT 9 10 19 20 16 22
REMARK Flexibility Score: inf
ROOT
ATOM      1  C   UNL     1      -0.003  27.797  17.426  1.00  0.00     0.012 C 
ATOM      2  C   UNL     1       0.382  26.801  16.614  1.00  0.00     0.053 C 
ENDROOT
BRANCH   1   3
ATOM      3  C   UNL     1       0.113  29.234  17.078  1.00  0.00    -0.025 A 
ATOM      4  C   UNL     1       1.117  29.728  16.220  1.00  0.00     0.012 A 
ATOM      5  C   UNL     1       1.192  31.094  15.932  1.00  0.00     0.047 A 
ATOM      6  C   UNL     1       0.275  31.987  16.502  1.00  0.00     0.115 A 
ATOM      7  C   UNL     1      -0.791  30.141  17.657  1.00  0.00     0.012 A 
ATOM      8  C   UNL     1      -0.713  31.506  17.366  1.00  0.00     0.047 A 
BRANCH   6   9
ATOM      9  O   UNL     1       0.341  33.349  16.221  1.00  0.00    -0.508 OA
ATOM     10  H   UNL     1       1.192  33.880  16.368  1.00  0.00     0.293 HD
ENDBRANCH   6   9
ENDBRANCH   1   3
BRANCH   2  11
ATOM     11  C   UNL     1       0.237  25.378  16.988  1.00  0.00     0.189 C 
ATOM     12  O   UNL     1       0.562  24.477  16.166  1.00  0.00    -0.289 OA
BRANCH  11  13
ATOM     13  C   UNL     1      -0.236  24.984  18.335  1.00  0.00     0.064 A 
ATOM     14  C   UNL     1      -1.396  24.199  18.517  1.00  0.00     0.130 A 
ATOM     15  C   UNL     1       0.503  25.382  19.463  1.00  0.00     0.020 A 
ATOM     16  C   UNL     1      -1.816  23.861  19.812  1.00  0.00     0.093 A 
ATOM     17  C   UNL     1       0.080  25.036  20.749  1.00  0.00     0.047 A 
ATOM     18  C   UNL     1      -1.083  24.279  20.927  1.00  0.00     0.119 A 
BRANCH  14  19
ATOM     19  O   UNL     1      -2.117  23.730  17.417  1.00  0.00    -0.507 OA
ATOM     20  H   UNL     1      -3.078  24.006  17.253  1.00  0.00     0.293 HD
ENDBRANCH  14  19
BRANCH  18  21
ATOM     21  O   UNL     1      -1.516  23.931  22.204  1.00  0.00    -0.508 OA
ATOM     22  H   UNL     1      -2.463  23.616  22.376  1.00  0.00     0.293 HD
ENDBRANCH  18  21
ENDBRANCH  11  13
ENDBRANCH   2  11
TORSDOF 6
ENDMDL
MODEL 7
REMARK VINA RESULT:    -5.820     10.442     15.559
REMARK INTER + INTRA:          -7.990
REMARK INTER:                  -7.356
REMARK INTRA:                  -0.634
REMARK UNBOUND:                -0.639
REMARK SMILES O=C(C=Cc1ccc(O)cc1)c1ccc(O)cc1O
REMARK SMILES IDX 4 1 3 2 5 3 6 4 7 5 8 6 11 7 10 8 9 9 2 11 1 12 12 13 18 14
REMARK SMILES IDX 13 15 17 16 14 17 15 18 19 19 16 21
REMARK H PARENT 9 10 19 20 16 22
REMARK Flexibility Score: inf
ROOT
ATOM      1  C   UNL     1      -3.379  38.313  32.391  1.00  0.00     0.012 C 
ATOM      2  C   UNL     1      -2.254  38.514  31.690  1.00  0.00     0.053 C 
ENDROOT
BRANCH   1   3
ATOM      3  C   UNL     1      -3.806  36.987  32.900  1.00  0.00    -0.025 A 
ATOM      4  C   UNL     1      -4.210  36.782  34.236  1.00  0.00     0.012 A 
ATOM      5  C   UNL     1      -4.592  35.510  34.672  1.00  0.00     0.047 A 
ATOM      6  C   UNL     1      -4.567  34.424  33.787  1.00  0.00     0.115 A 
ATOM      7  C   UNL     1      -3.768  35.887  32.027  1.00  0.00     0.012 A 
ATOM      8  C   UNL     1      -4.152  34.617  32.466  1.00  0.00     0.047 A 
BRANCH   6   9
ATOM      9  O   UNL     1      -4.947  33.153  34.211  1.00  0.00    -0.508 OA
ATOM     10  H   UNL     1      -5.445  32.517  33.599  1.00  0.00     0.293 HD
ENDBRANCH   6   9
ENDBRANCH   1   3
BRANCH   2  11
ATOM     11  C   UNL     1      -1.852  39.854  31.210  1.00  0.00     0.189 C 
ATOM     12  O   UNL     1      -2.729  40.739  31.011  1.00  0.00    -0.289 OA
BRANCH  11  13
ATOM     13  C   UNL     1      -0.425  40.198  31.007  1.00  0.00     0.064 A 
ATOM     14  C   UNL     1       0.040  40.765  29.800  1.00  0.00     0.130 A 
ATOM     15  C   UNL     1       0.487  39.978  32.054  1.00  0.00     0.020 A 
ATOM     16  C   UNL     1       1.402  41.062  29.646  1.00  0.00     0.093 A 
ATOM     17  C   UNL     1       1.841  40.282  31.894  1.00  0.00     0.047 A 
ATOM     18  C   UNL     1       2.303  40.821  30.688  1.00  0.00     0.119 A 
BRANCH  14  19
ATOM     19  O   UNL     1      -0.849  41.059  28.765  1.00  0.00    -0.507 OA
ATOM     20  H   UNL     1      -1.282  40.329  28.211  1.00  0.00     0.293 HD
ENDBRANCH  14  19
BRANCH  18  21
ATOM     21  O   UNL     1       3.651  41.125  30.516  1.00  0.00    -0.508 OA
ATOM     22  H   UNL     1       3.999  42.070  30.624  1.00  0.00     0.293 HD
ENDBRANCH  18  21
ENDBRANCH  11  13
ENDBRANCH   2  11
TORSDOF 6
ENDMDL
MODEL 8
REMARK VINA RESULT:    -5.533      9.412     14.165
REMARK INTER + INTRA:          -7.627
REMARK INTER:                  -6.995
REMARK INTRA:                  -0.632
REMARK UNBOUND:                -0.639
REMARK SMILES O=C(C=Cc1ccc(O)cc1)c1ccc(O)cc1O
REMARK SMILES IDX 4 1 3 2 5 3 6 4 7 5 8 6 11 7 10 8 9 9 2 11 1 12 12 13 18 14
REMARK SMILES IDX 13 15 17 16 14 17 15 18 19 19 16 21
REMARK H PARENT 9 10 19 20 16 22
REMARK Flexibility Score: inf
ROOT
ATOM      1  C   UNL     1      -4.323  37.563  34.136  1.00  0.00     0.012 C 
ATOM      2  C   UNL     1      -3.684  37.763  32.975  1.00  0.00     0.053 C 
ENDROOT
BRANCH   1   3
ATOM      3  C   UNL     1      -4.915  36.263  34.536  1.00  0.00    -0.025 A 
ATOM      4  C   UNL     1      -5.862  36.149  35.575  1.00  0.00     0.012 A 
ATOM      5  C   UNL     1      -6.383  34.899  35.923  1.00  0.00     0.047 A 
ATOM      6  C   UNL     1      -5.960  33.746  35.250  1.00  0.00     0.115 A 
ATOM      7  C   UNL     1      -4.486  35.097  33.879  1.00  0.00     0.012 A 
ATOM      8  C   UNL     1      -5.010  33.850  34.229  1.00  0.00     0.047 A 
BRANCH   6   9
ATOM      9  O   UNL     1      -6.473  32.497  35.588  1.00  0.00    -0.508 OA
ATOM     10  H   UNL     1      -7.446  32.261  35.424  1.00  0.00     0.293 HD
ENDBRANCH   6   9
ENDBRANCH   1   3
BRANCH   2  11
ATOM     11  C   UNL     1      -3.091  39.070  32.616  1.00  0.00     0.189 C 
ATOM     12  O   UNL     1      -3.609  40.135  33.052  1.00  0.00    -0.289 OA
BRANCH  11  13
ATOM     13  C   UNL     1      -1.864  39.153  31.790  1.00  0.00     0.064 A 
ATOM     14  C   UNL     1      -0.728  39.876  32.217  1.00  0.00     0.130 A 
ATOM     15  C   UNL     1      -1.819  38.472  30.562  1.00  0.00     0.020 A 
ATOM     16  C   UNL     1       0.409  39.939  31.396  1.00  0.00     0.093 A 
ATOM     17  C   UNL     1      -0.681  38.537  29.754  1.00  0.00     0.047 A 
ATOM     18  C   UNL     1       0.434  39.274  30.167  1.00  0.00     0.119 A 
BRANCH  14  19
ATOM     19  O   UNL     1      -0.713  40.508  33.461  1.00  0.00    -0.507 OA
ATOM     20  H   UNL     1      -1.125  40.078  34.281  1.00  0.00     0.293 HD
ENDBRANCH  14  19
BRANCH  18  21
ATOM     21  O   UNL     1       1.573  39.347  29.368  1.00  0.00    -0.508 OA
ATOM     22  H   UNL     1       1.985  40.237  29.113  1.00  0.00     0.293 HD
ENDBRANCH  18  21
ENDBRANCH  11  13
ENDBRANCH   2  11
TORSDOF 6
ENDMDL
MODEL 9
REMARK VINA RESULT:    -5.497      1.566      7.207
REMARK INTER + INTRA:          -7.583
REMARK INTER:                  -7.059
REMARK INTRA:                  -0.524
REMARK UNBOUND:                -0.639
REMARK SMILES O=C(C=Cc1ccc(O)cc1)c1ccc(O)cc1O
REMARK SMILES IDX 4 1 3 2 5 3 6 4 7 5 8 6 11 7 10 8 9 9 2 11 1 12 12 13 18 14
REMARK SMILES IDX 13 15 17 16 14 17 15 18 19 19 16 21
REMARK H PARENT 9 10 19 20 16 22
REMARK Flexibility Score: inf
ROOT
ATOM      1  C   UNL     1      -6.794  23.958  32.836  1.00  0.00     0.012 C 
ATOM      2  C   UNL     1      -6.680  23.562  34.112  1.00  0.00     0.053 C 
ENDROOT
BRANCH   1   3
ATOM      3  C   UNL     1      -6.404  23.120  31.677  1.00  0.00    -0.025 A 
ATOM      4  C   UNL     1      -6.368  21.711  31.737  1.00  0.00     0.012 A 
ATOM      5  C   UNL     1      -5.982  20.965  30.620  1.00  0.00     0.047 A 
ATOM      6  C   UNL     1      -5.617  21.611  29.431  1.00  0.00     0.115 A 
ATOM      7  C   UNL     1      -6.020  23.757  30.484  1.00  0.00     0.012 A 
ATOM      8  C   UNL     1      -5.636  23.008  29.369  1.00  0.00     0.047 A 
BRANCH   6   9
ATOM      9  O   UNL     1      -5.232  20.877  28.313  1.00  0.00    -0.508 OA
ATOM     10  H   UNL     1      -4.281  20.544  28.199  1.00  0.00     0.293 HD
ENDBRANCH   6   9
ENDBRANCH   1   3
BRANCH   2  11
ATOM     11  C   UNL     1      -7.094  24.419  35.244  1.00  0.00     0.189 C 
ATOM     12  O   UNL     1      -7.876  23.964  36.125  1.00  0.00    -0.289 OA
BRANCH  11  13
ATOM     13  C   UNL     1      -6.566  25.795  35.396  1.00  0.00     0.064 A 
ATOM     14  C   UNL     1      -5.244  26.042  35.829  1.00  0.00     0.130 A 
ATOM     15  C   UNL     1      -7.394  26.884  35.074  1.00  0.00     0.020 A 
ATOM     16  C   UNL     1      -4.790  27.362  35.971  1.00  0.00     0.093 A 
ATOM     17  C   UNL     1      -6.932  28.195  35.215  1.00  0.00     0.047 A 
ATOM     18  C   UNL     1      -5.630  28.437  35.667  1.00  0.00     0.119 A 
BRANCH  14  19
ATOM     19  O   UNL     1      -4.373  24.984  36.091  1.00  0.00    -0.507 OA
ATOM     20  H   UNL     1      -4.450  24.097  35.606  1.00  0.00     0.293 HD
ENDBRANCH  14  19
BRANCH  18  21
ATOM     21  O   UNL     1      -5.160  29.740  35.814  1.00  0.00    -0.508 OA
ATOM     22  H   UNL     1      -5.484  30.491  35.215  1.00  0.00     0.293 HD
ENDBRANCH  18  21
ENDBRANCH  11  13
ENDBRANCH   2  11
TORSDOF 6
ENDMDL
