MODEL 1
REMARK VINA RESULT:    -3.767      0.000      0.000
REMARK INTER + INTRA:          -6.370
REMARK INTER:                  -5.528
REMARK INTRA:                  -0.842
REMARK UNBOUND:                -0.842
REMARK SMILES O=C([O-])CCCCCCCC(=O)[O-]
REMARK SMILES IDX 7 1 6 2 5 3 4 4 2 5 1 6 3 7 8 8 9 9 10 10 11 11 12 12 13 13
REMARK H PARENT
REMARK Flexibility Score: inf
ROOT
ATOM      1  C   UNL     1     -10.956   2.764   5.172  1.00  0.00     0.000 C 
ENDROOT
BRANCH   1   2
ATOM      2  C   UNL     1     -11.467   1.809   6.262  1.00  0.00     0.000 C 
BRANCH   2   3
ATOM      3  C   UNL     1     -11.112   0.341   5.978  1.00  0.00     0.006 C 
BRANCH   3   4
ATOM      4  C   UNL     1     -10.242   0.220   4.724  1.00  0.00     0.053 C 
BRANCH   4   5
ATOM      5  C   UNL     1      -9.227  -0.865   4.892  1.00  0.00     0.041 C 
ATOM      6  O   UNL     1      -8.463  -1.172   3.939  1.00  0.00    -0.550 OA
ATOM      7  O   UNL     1      -9.157  -1.572   6.086  1.00  0.00    -0.550 OA
ENDBRANCH   4   5
ENDBRANCH   3   4
ENDBRANCH   2   3
ENDBRANCH   1   2
BRANCH   1   8
ATOM      8  C   UNL     1     -10.266   4.009   5.751  1.00  0.00     0.000 C 
BRANCH   8   9
ATOM      9  C   UNL     1      -8.889   4.220   5.110  1.00  0.00     0.006 C 
BRANCH   9  10
ATOM     10  C   UNL     1      -7.767   3.838   6.079  1.00  0.00     0.053 C 
BRANCH  10  11
ATOM     11  C   UNL     1      -7.475   2.374   5.991  1.00  0.00     0.041 C 
ATOM     12  O   UNL     1      -7.737   1.616   6.962  1.00  0.00    -0.550 OA
ATOM     13  O   UNL     1      -6.957   1.837   4.819  1.00  0.00    -0.550 OA
ENDBRANCH  10  11
ENDBRANCH   9  10
ENDBRANCH   8   9
ENDBRANCH   1   8
TORSDOF 8
ENDMDL
MODEL 2
REMARK VINA RESULT:    -3.693      0.645      3.836
REMARK INTER + INTRA:          -6.262
REMARK INTER:                  -5.513
REMARK INTRA:                  -0.749
REMARK UNBOUND:                -0.842
REMARK SMILES O=C([O-])CCCCCCCC(=O)[O-]
REMARK SMILES IDX 7 1 6 2 5 3 4 4 2 5 1 6 3 7 8 8 9 9 10 10 11 11 12 12 13 13
REMARK H PARENT
REMARK Flexibility Score: inf
ROOT
ATOM      1  C   UNL     1     -10.751   3.330   5.121  1.00  0.00     0.000 C 
ENDROOT
BRANCH   1   2
ATOM      2  C   UNL     1      -9.822   4.445   5.627  1.00  0.00     0.000 C 
BRANCH   2   3
ATOM      3  C   UNL     1      -8.433   4.403   4.972  1.00  0.00     0.006 C 
BRANCH   3   4
ATOM      4  C   UNL     1      -7.372   3.926   5.968  1.00  0.00     0.053 C 
BRANCH   4   5
ATOM      5  C   UNL     1      -7.252   2.435   5.932  1.00  0.00     0.041 C 
ATOM      6  O   UNL     1      -6.880   1.854   4.878  1.00  0.00    -0.550 OA
ATOM      7  O   UNL     1      -7.596   1.683   7.048  1.00  0.00    -0.550 OA
ENDBRANCH   4   5
ENDBRANCH   3   4
ENDBRANCH   2   3
ENDBRANCH   1   2
BRANCH   1   8
ATOM      8  C   UNL     1     -11.075   2.292   6.206  1.00  0.00     0.000 C 
BRANCH   8   9
ATOM      9  C   UNL     1     -11.313   0.908   5.588  1.00  0.00     0.006 C 
BRANCH   9  10
ATOM     10  C   UNL     1     -10.103   0.457   4.766  1.00  0.00     0.053 C 
BRANCH  10  11
ATOM     11  C   UNL     1      -9.713  -0.939   5.131  1.00  0.00     0.041 C 
ATOM     12  O   UNL     1      -9.301  -1.200   6.292  1.00  0.00    -0.550 OA
ATOM     13  O   UNL     1      -9.851  -1.965   4.203  1.00  0.00    -0.550 OA
ENDBRANCH  10  11
ENDBRANCH   9  10
ENDBRANCH   8   9
ENDBRANCH   1   8
TORSDOF 8
ENDMDL
MODEL 3
REMARK VINA RESULT:    -3.523      1.828      4.679
REMARK INTER + INTRA:          -6.012
REMARK INTER:                  -5.599
REMARK INTRA:                  -0.413
REMARK UNBOUND:                -0.842
REMARK SMILES O=C([O-])CCCCCCCC(=O)[O-]
REMARK SMILES IDX 7 1 6 2 5 3 4 4 2 5 1 6 3 7 8 8 9 9 10 10 11 11 12 12 13 13
REMARK H PARENT
REMARK Flexibility Score: inf
ROOT
ATOM      1  C   UNL     1      -7.963   1.782   4.833  1.00  0.00     0.000 C 
ENDROOT
BRANCH   1   2
ATOM      2  C   UNL     1      -6.950   2.920   5.040  1.00  0.00     0.000 C 
BRANCH   2   3
ATOM      3  C   UNL     1      -6.959   3.468   6.475  1.00  0.00     0.006 C 
BRANCH   3   4
ATOM      4  C   UNL     1      -5.562   3.394   7.098  1.00  0.00     0.053 C 
BRANCH   4   5
ATOM      5  C   UNL     1      -5.215   1.980   7.441  1.00  0.00     0.041 C 
ATOM      6  O   UNL     1      -5.901   1.346   8.285  1.00  0.00    -0.550 OA
ATOM      7  O   UNL     1      -4.104   1.378   6.864  1.00  0.00    -0.550 OA
ENDBRANCH   4   5
ENDBRANCH   3   4
ENDBRANCH   2   3
ENDBRANCH   1   2
BRANCH   1   8
ATOM      8  C   UNL     1      -9.327   2.080   5.474  1.00  0.00     0.000 C 
BRANCH   8   9
ATOM      9  C   UNL     1     -10.433   1.238   4.826  1.00  0.00     0.006 C 
BRANCH   9  10
ATOM     10  C   UNL     1     -10.850   0.082   5.739  1.00  0.00     0.053 C 
BRANCH  10  11
ATOM     11  C   UNL     1      -9.869  -1.042   5.642  1.00  0.00     0.041 C 
ATOM     12  O   UNL     1      -9.183  -1.374   6.644  1.00  0.00    -0.550 OA
ATOM     13  O   UNL     1      -9.746  -1.757   4.456  1.00  0.00    -0.550 OA
ENDBRANCH  10  11
ENDBRANCH   9  10
ENDBRANCH   8   9
ENDBRANCH   1   8
TORSDOF 8
ENDMDL
MODEL 4
REMARK VINA RESULT:    -3.420      2.069      2.730
REMARK INTER + INTRA:          -5.862
REMARK INTER:                  -5.150
REMARK INTRA:                  -0.712
REMARK UNBOUND:                -0.842
REMARK SMILES O=C([O-])CCCCCCCC(=O)[O-]
REMARK SMILES IDX 7 1 6 2 5 3 4 4 2 5 1 6 3 7 8 8 9 9 10 10 11 11 12 12 13 13
REMARK H PARENT
REMARK Flexibility Score: inf
ROOT
ATOM      1  C   UNL     1     -11.711   1.616   6.230  1.00  0.00     0.000 C 
ENDROOT
BRANCH   1   2
ATOM      2  C   UNL     1     -11.091   1.190   4.890  1.00  0.00     0.000 C 
BRANCH   2   3
ATOM      3  C   UNL     1      -9.555   1.213   4.913  1.00  0.00     0.006 C 
BRANCH   3   4
ATOM      4  C   UNL     1      -8.977   0.047   4.107  1.00  0.00     0.053 C 
BRANCH   4   5
ATOM      5  C   UNL     1      -9.368  -1.260   4.721  1.00  0.00     0.041 C 
ATOM      6  O   UNL     1     -10.035  -2.097   4.058  1.00  0.00    -0.550 OA
ATOM      7  O   UNL     1      -9.038  -1.533   6.042  1.00  0.00    -0.550 OA
ENDBRANCH   4   5
ENDBRANCH   3   4
ENDBRANCH   2   3
ENDBRANCH   1   2
BRANCH   1   8
ATOM      8  C   UNL     1     -10.788   2.534   7.045  1.00  0.00     0.000 C 
BRANCH   8   9
ATOM      9  C   UNL     1     -10.690   2.061   8.501  1.00  0.00     0.006 C 
BRANCH   9  10
ATOM     10  C   UNL     1     -10.043   0.677   8.587  1.00  0.00     0.053 C 
BRANCH  10  11
ATOM     11  C   UNL     1      -8.614   0.792   9.011  1.00  0.00     0.041 C 
ATOM     12  O   UNL     1      -8.320   0.885  10.232  1.00  0.00    -0.550 OA
ATOM     13  O   UNL     1      -7.600   0.749   8.061  1.00  0.00    -0.550 OA
ENDBRANCH  10  11
ENDBRANCH   9  10
ENDBRANCH   8   9
ENDBRANCH   1   8
TORSDOF 8
ENDMDL
MODEL 5
REMARK VINA RESULT:    -3.412     12.974     14.275
REMARK INTER + INTRA:          -5.850
REMARK INTER:                  -5.335
REMARK INTRA:                  -0.515
REMARK UNBOUND:                -0.842
REMARK SMILES O=C([O-])CCCCCCCC(=O)[O-]
REMARK SMILES IDX 7 1 6 2 5 3 4 4 2 5 1 6 3 7 8 8 9 9 10 10 11 11 12 12 13 13
REMARK H PARENT
REMARK Flexibility Score: inf
ROOT
ATOM      1  C   UNL     1      -2.914  -8.826   6.811  1.00  0.00     0.000 C 
ENDROOT
BRANCH   1   2
ATOM      2  C   UNL     1      -2.807 -10.170   7.549  1.00  0.00     0.000 C 
BRANCH   2   3
ATOM      3  C   UNL     1      -3.690 -11.261   6.924  1.00  0.00     0.006 C 
BRANCH   3   4
ATOM      4  C   UNL     1      -2.952 -11.982   5.793  1.00  0.00     0.053 C 
BRANCH   4   5
ATOM      5  C   UNL     1      -3.783 -13.104   5.257  1.00  0.00     0.041 C 
ATOM      6  O   UNL     1      -3.253 -14.008   4.558  1.00  0.00    -0.550 OA
ATOM      7  O   UNL     1      -5.153 -13.126   5.488  1.00  0.00    -0.550 OA
ENDBRANCH   4   5
ENDBRANCH   3   4
ENDBRANCH   2   3
ENDBRANCH   1   2
BRANCH   1   8
ATOM      8  C   UNL     1      -1.551  -8.140   6.630  1.00  0.00     0.000 C 
BRANCH   8   9
ATOM      9  C   UNL     1      -0.422  -9.175   6.553  1.00  0.00     0.006 C 
BRANCH   9  10
ATOM     10  C   UNL     1       0.825  -8.685   7.294  1.00  0.00     0.053 C 
BRANCH  10  11
ATOM     11  C   UNL     1       0.744  -9.037   8.745  1.00  0.00     0.041 C 
ATOM     12  O   UNL     1       1.072 -10.188   9.138  1.00  0.00    -0.550 OA
ATOM     13  O   UNL     1       0.352  -8.079   9.673  1.00  0.00    -0.550 OA
ENDBRANCH  10  11
ENDBRANCH   9  10
ENDBRANCH   8   9
ENDBRANCH   1   8
TORSDOF 8
ENDMDL
MODEL 6
REMARK VINA RESULT:    -3.387      1.875      2.636
REMARK INTER + INTRA:          -5.813
REMARK INTER:                  -5.320
REMARK INTRA:                  -0.493
REMARK UNBOUND:                -0.842
REMARK SMILES O=C([O-])CCCCCCCC(=O)[O-]
REMARK SMILES IDX 7 1 6 2 5 3 4 4 2 5 1 6 3 7 8 8 9 9 10 10 11 11 12 12 13 13
REMARK H PARENT
REMARK Flexibility Score: inf
ROOT
ATOM      1  C   UNL     1      -8.794   3.521   5.493  1.00  0.00     0.000 C 
ENDROOT
BRANCH   1   2
ATOM      2  C   UNL     1     -10.096   2.736   5.266  1.00  0.00     0.000 C 
BRANCH   2   3
ATOM      3  C   UNL     1     -10.021   1.297   5.798  1.00  0.00     0.006 C 
BRANCH   3   4
ATOM      4  C   UNL     1     -10.303   0.285   4.683  1.00  0.00     0.053 C 
BRANCH   4   5
ATOM      5  C   UNL     1      -9.201  -0.722   4.598  1.00  0.00     0.041 C 
ATOM      6  O   UNL     1      -9.159  -1.686   5.409  1.00  0.00    -0.550 OA
ATOM      7  O   UNL     1      -8.192  -0.571   3.655  1.00  0.00    -0.550 OA
ENDBRANCH   4   5
ENDBRANCH   3   4
ENDBRANCH   2   3
ENDBRANCH   1   2
BRANCH   1   8
ATOM      8  C   UNL     1      -7.541   2.701   5.153  1.00  0.00     0.000 C 
BRANCH   8   9
ATOM      9  C   UNL     1      -6.352   3.129   6.023  1.00  0.00     0.006 C 
BRANCH   9  10
ATOM     10  C   UNL     1      -6.391   2.436   7.388  1.00  0.00     0.053 C 
BRANCH  10  11
ATOM     11  C   UNL     1      -5.037   1.915   7.749  1.00  0.00     0.041 C 
ATOM     12  O   UNL     1      -4.304   1.390   6.870  1.00  0.00    -0.550 OA
ATOM     13  O   UNL     1      -4.563   2.053   9.048  1.00  0.00    -0.550 OA
ENDBRANCH  10  11
ENDBRANCH   9  10
ENDBRANCH   8   9
ENDBRANCH   1   8
TORSDOF 8
ENDMDL
MODEL 7
REMARK VINA RESULT:    -3.381     13.441     15.579
REMARK INTER + INTRA:          -5.805
REMARK INTER:                  -4.954
REMARK INTRA:                  -0.850
REMARK UNBOUND:                -0.842
REMARK SMILES O=C([O-])CCCCCCCC(=O)[O-]
REMARK SMILES IDX 7 1 6 2 5 3 4 4 2 5 1 6 3 7 8 8 9 9 10 10 11 11 12 12 13 13
REMARK H PARENT
REMARK Flexibility Score: inf
ROOT
ATOM      1  C   UNL     1      -2.177 -11.817   6.663  1.00  0.00     0.000 C 
ENDROOT
BRANCH   1   2
ATOM      2  C   UNL     1      -2.878 -10.461   6.846  1.00  0.00     0.000 C 
BRANCH   2   3
ATOM      3  C   UNL     1      -2.079  -9.295   6.244  1.00  0.00     0.006 C 
BRANCH   3   4
ATOM      4  C   UNL     1      -1.564  -8.359   7.341  1.00  0.00     0.053 C 
BRANCH   4   5
ATOM      5  C   UNL     1      -0.084  -8.508   7.504  1.00  0.00     0.041 C 
ATOM      6  O   UNL     1       0.449  -8.345   8.633  1.00  0.00    -0.550 OA
ATOM      7  O   UNL     1       0.713  -8.779   6.399  1.00  0.00    -0.550 OA
ENDBRANCH   4   5
ENDBRANCH   3   4
ENDBRANCH   2   3
ENDBRANCH   1   2
BRANCH   1   8
ATOM      8  C   UNL     1      -1.224 -11.834   5.459  1.00  0.00     0.000 C 
BRANCH   8   9
ATOM      9  C   UNL     1       0.210 -12.154   5.899  1.00  0.00     0.006 C 
BRANCH   9  10
ATOM     10  C   UNL     1       0.276 -12.423   7.405  1.00  0.00     0.053 C 
BRANCH  10  11
ATOM     11  C   UNL     1       1.557 -11.902   7.974  1.00  0.00     0.041 C 
ATOM     12  O   UNL     1       1.574 -11.372   9.116  1.00  0.00    -0.550 OA
ATOM     13  O   UNL     1       2.743 -12.046   7.264  1.00  0.00    -0.550 OA
ENDBRANCH  10  11
ENDBRANCH   9  10
ENDBRANCH   8   9
ENDBRANCH   1   8
TORSDOF 8
ENDMDL
MODEL 8
REMARK VINA RESULT:    -3.347     13.465     15.382
REMARK INTER + INTRA:          -5.754
REMARK INTER:                  -4.945
REMARK INTRA:                  -0.810
REMARK UNBOUND:                -0.842
REMARK SMILES O=C([O-])CCCCCCCC(=O)[O-]
REMARK SMILES IDX 7 1 6 2 5 3 4 4 2 5 1 6 3 7 8 8 9 9 10 10 11 11 12 12 13 13
REMARK H PARENT
REMARK Flexibility Score: inf
ROOT
ATOM      1  C   UNL     1      -2.221 -11.331   7.204  1.00  0.00     0.000 C 
ENDROOT
BRANCH   1   2
ATOM      2  C   UNL     1      -1.576 -11.876   5.920  1.00  0.00     0.000 C 
BRANCH   2   3
ATOM      3  C   UNL     1      -0.047 -11.982   6.022  1.00  0.00     0.006 C 
BRANCH   3   4
ATOM      4  C   UNL     1       0.368 -12.671   7.326  1.00  0.00     0.053 C 
BRANCH   4   5
ATOM      5  C   UNL     1       1.592 -12.025   7.893  1.00  0.00     0.041 C 
ATOM      6  O   UNL     1       1.591 -11.595   9.077  1.00  0.00    -0.550 OA
ATOM      7  O   UNL     1       2.719 -11.854   7.099  1.00  0.00    -0.550 OA
ENDBRANCH   4   5
ENDBRANCH   3   4
ENDBRANCH   2   3
ENDBRANCH   1   2
BRANCH   1   8
ATOM      8  C   UNL     1      -2.906  -9.973   6.992  1.00  0.00     0.000 C 
BRANCH   8   9
ATOM      9  C   UNL     1      -2.112  -8.847   7.666  1.00  0.00     0.006 C 
BRANCH   9  10
ATOM     10  C   UNL     1      -0.969  -8.367   6.768  1.00  0.00     0.053 C 
BRANCH  10  11
ATOM     11  C   UNL     1       0.344  -8.515   7.469  1.00  0.00     0.041 C 
ATOM     12  O   UNL     1       1.396  -8.722   6.808  1.00  0.00    -0.550 OA
ATOM     13  O   UNL     1       0.415  -8.377   8.850  1.00  0.00    -0.550 OA
ENDBRANCH  10  11
ENDBRANCH   9  10
ENDBRANCH   8   9
ENDBRANCH   1   8
TORSDOF 8
ENDMDL
MODEL 9
REMARK VINA RESULT:    -3.332      2.199      3.959
REMARK INTER + INTRA:          -5.732
REMARK INTER:                  -4.986
REMARK INTRA:                  -0.745
REMARK UNBOUND:                -0.842
REMARK SMILES O=C([O-])CCCCCCCC(=O)[O-]
REMARK SMILES IDX 7 1 6 2 5 3 4 4 2 5 1 6 3 7 8 8 9 9 10 10 11 11 12 12 13 13
REMARK H PARENT
REMARK Flexibility Score: inf
ROOT
ATOM      1  C   UNL     1     -11.979   1.521   7.919  1.00  0.00     0.000 C 
ENDROOT
BRANCH   1   2
ATOM      2  C   UNL     1     -11.278   2.838   8.289  1.00  0.00     0.000 C 
BRANCH   2   3
ATOM      3  C   UNL     1      -9.848   2.624   8.808  1.00  0.00     0.006 C 
BRANCH   3   4
ATOM      4  C   UNL     1      -9.616   1.158   9.185  1.00  0.00     0.053 C 
BRANCH   4   5
ATOM      5  C   UNL     1      -8.540   0.562   8.334  1.00  0.00     0.041 C 
ATOM      6  O   UNL     1      -8.138  -0.612   8.550  1.00  0.00    -0.550 OA
ATOM      7  O   UNL     1      -7.947   1.319   7.332  1.00  0.00    -0.550 OA
ENDBRANCH   4   5
ENDBRANCH   3   4
ENDBRANCH   2   3
ENDBRANCH   1   2
BRANCH   1   8
ATOM      8  C   UNL     1     -12.070   1.305   6.401  1.00  0.00     0.000 C 
BRANCH   8   9
ATOM      9  C   UNL     1     -11.240   0.090   5.969  1.00  0.00     0.006 C 
BRANCH   9  10
ATOM     10  C   UNL     1     -10.307   0.446   4.808  1.00  0.00     0.053 C 
BRANCH  10  11
ATOM     11  C   UNL     1      -9.359  -0.678   4.535  1.00  0.00     0.041 C 
ATOM     12  O   UNL     1      -8.785  -0.766   3.418  1.00  0.00    -0.550 OA
ATOM     13  O   UNL     1      -9.070  -1.602   5.532  1.00  0.00    -0.550 OA
ENDBRANCH  10  11
ENDBRANCH   9  10
ENDBRANCH   8   9
ENDBRANCH   1   8
TORSDOF 8
ENDMDL
