MODEL 1
REMARK VINA RESULT:    -4.787      0.000      0.000
REMARK INTER + INTRA:          -7.320
REMARK INTER:                  -7.025
REMARK INTRA:                  -0.295
REMARK UNBOUND:                -0.295
REMARK SMILES O=C([O-])CCCCCCCC(=O)[O-]
REMARK SMILES IDX 7 1 6 2 5 3 4 4 2 5 1 6 3 7 8 8 9 9 10 10 11 11 12 12 13 13
REMARK H PARENT
REMARK Flexibility Score: inf
ROOT
ATOM      1  C   UNL     1      -1.888  12.437  -8.081  1.00  0.00     0.000 C 
ENDROOT
BRANCH   1   2
ATOM      2  C   UNL     1      -3.216  12.194  -8.810  1.00  0.00     0.000 C 
BRANCH   2   3
ATOM      3  C   UNL     1      -3.079  11.064  -9.840  1.00  0.00     0.006 C 
BRANCH   3   4
ATOM      4  C   UNL     1      -4.426  10.691 -10.476  1.00  0.00     0.053 C 
BRANCH   4   5
ATOM      5  C   UNL     1      -4.700   9.223 -10.375  1.00  0.00     0.041 C 
ATOM      6  O   UNL     1      -3.748   8.406 -10.269  1.00  0.00    -0.550 OA
ATOM      7  O   UNL     1      -6.009   8.758 -10.366  1.00  0.00    -0.550 OA
ENDBRANCH   4   5
ENDBRANCH   3   4
ENDBRANCH   2   3
ENDBRANCH   1   2
BRANCH   1   8
ATOM      8  C   UNL     1      -1.128  11.118  -7.868  1.00  0.00     0.000 C 
BRANCH   8   9
ATOM      9  C   UNL     1       0.400  11.297  -7.907  1.00  0.00     0.006 C 
BRANCH   9  10
ATOM     10  C   UNL     1       1.187   9.986  -8.066  1.00  0.00     0.053 C 
BRANCH  10  11
ATOM     11  C   UNL     1       2.666  10.219  -8.114  1.00  0.00     0.041 C 
ATOM     12  O   UNL     1       3.250  10.777  -7.147  1.00  0.00    -0.550 OA
ATOM     13  O   UNL     1       3.404   9.790  -9.209  1.00  0.00    -0.550 OA
ENDBRANCH  10  11
ENDBRANCH   9  10
ENDBRANCH   8   9
ENDBRANCH   1   8
TORSDOF 8
ENDMDL
MODEL 2
REMARK VINA RESULT:    -4.759      0.203      6.488
REMARK INTER + INTRA:          -7.280
REMARK INTER:                  -6.984
REMARK INTRA:                  -0.296
REMARK UNBOUND:                -0.295
REMARK SMILES O=C([O-])CCCCCCCC(=O)[O-]
REMARK SMILES IDX 7 1 6 2 5 3 4 4 2 5 1 6 3 7 8 8 9 9 10 10 11 11 12 12 13 13
REMARK H PARENT
REMARK Flexibility Score: inf
ROOT
ATOM      1  C   UNL     1      -1.688  12.591  -8.039  1.00  0.00     0.000 C 
ENDROOT
BRANCH   1   2
ATOM      2  C   UNL     1      -0.929  11.297  -7.715  1.00  0.00     0.000 C 
BRANCH   2   3
ATOM      3  C   UNL     1       0.558  11.427  -8.075  1.00  0.00     0.006 C 
BRANCH   3   4
ATOM      4  C   UNL     1       1.266  10.066  -8.118  1.00  0.00     0.053 C 
BRANCH   4   5
ATOM      5  C   UNL     1       2.756  10.215  -8.122  1.00  0.00     0.041 C 
ATOM      6  O   UNL     1       3.348  10.699  -7.122  1.00  0.00    -0.550 OA
ATOM      7  O   UNL     1       3.495   9.790  -9.219  1.00  0.00    -0.550 OA
ENDBRANCH   4   5
ENDBRANCH   3   4
ENDBRANCH   2   3
ENDBRANCH   1   2
BRANCH   1   8
ATOM      8  C   UNL     1      -3.049  12.283  -8.683  1.00  0.00     0.000 C 
BRANCH   8   9
ATOM      9  C   UNL     1      -2.983  11.121  -9.690  1.00  0.00     0.006 C 
BRANCH   9  10
ATOM     10  C   UNL     1      -4.317  10.814 -10.391  1.00  0.00     0.053 C 
BRANCH  10  11
ATOM     11  C   UNL     1      -4.639   9.352 -10.371  1.00  0.00     0.041 C 
ATOM     12  O   UNL     1      -5.829   8.964 -10.511  1.00  0.00    -0.550 OA
ATOM     13  O   UNL     1      -3.622   8.417 -10.232  1.00  0.00    -0.550 OA
ENDBRANCH  10  11
ENDBRANCH   9  10
ENDBRANCH   8   9
ENDBRANCH   1   8
TORSDOF 8
ENDMDL
MODEL 3
REMARK VINA RESULT:    -4.730      1.012      1.267
REMARK INTER + INTRA:          -7.236
REMARK INTER:                  -7.021
REMARK INTRA:                  -0.215
REMARK UNBOUND:                -0.295
REMARK SMILES O=C([O-])CCCCCCCC(=O)[O-]
REMARK SMILES IDX 7 1 6 2 5 3 4 4 2 5 1 6 3 7 8 8 9 9 10 10 11 11 12 12 13 13
REMARK H PARENT
REMARK Flexibility Score: inf
ROOT
ATOM      1  C   UNL     1      -1.853  11.213  -7.890  1.00  0.00     0.000 C 
ENDROOT
BRANCH   1   2
ATOM      2  C   UNL     1      -2.579  11.445  -9.221  1.00  0.00     0.000 C 
BRANCH   2   3
ATOM      3  C   UNL     1      -3.555  10.298  -9.523  1.00  0.00     0.006 C 
BRANCH   3   4
ATOM      4  C   UNL     1      -4.532  10.650 -10.653  1.00  0.00     0.053 C 
BRANCH   4   5
ATOM      5  C   UNL     1      -5.929  10.214 -10.335  1.00  0.00     0.041 C 
ATOM      6  O   UNL     1      -6.192   8.993 -10.177  1.00  0.00    -0.550 OA
ATOM      7  O   UNL     1      -6.935  11.160 -10.180  1.00  0.00    -0.550 OA
ENDBRANCH   4   5
ENDBRANCH   3   4
ENDBRANCH   2   3
ENDBRANCH   1   2
BRANCH   1   8
ATOM      8  C   UNL     1      -0.486  11.915  -7.879  1.00  0.00     0.000 C 
BRANCH   8   9
ATOM      9  C   UNL     1       0.617  11.063  -7.226  1.00  0.00     0.006 C 
BRANCH   9  10
ATOM     10  C   UNL     1       1.241  10.013  -8.160  1.00  0.00     0.053 C 
BRANCH  10  11
ATOM     11  C   UNL     1       2.728  10.162  -8.260  1.00  0.00     0.041 C 
ATOM     12  O   UNL     1       3.376  10.689  -7.319  1.00  0.00    -0.550 OA
ATOM     13  O   UNL     1       3.401   9.687  -9.379  1.00  0.00    -0.550 OA
ENDBRANCH  10  11
ENDBRANCH   9  10
ENDBRANCH   8   9
ENDBRANCH   1   8
TORSDOF 8
ENDMDL
MODEL 4
REMARK VINA RESULT:    -4.713      1.545      7.007
REMARK INTER + INTRA:          -7.211
REMARK INTER:                  -6.974
REMARK INTRA:                  -0.237
REMARK UNBOUND:                -0.295
REMARK SMILES O=C([O-])CCCCCCCC(=O)[O-]
REMARK SMILES IDX 7 1 6 2 5 3 4 4 2 5 1 6 3 7 8 8 9 9 10 10 11 11 12 12 13 13
REMARK H PARENT
REMARK Flexibility Score: inf
ROOT
ATOM      1  C   UNL     1      -1.440  11.099  -8.510  1.00  0.00     0.000 C 
ENDROOT
BRANCH   1   2
ATOM      2  C   UNL     1      -0.620  12.270  -7.953  1.00  0.00     0.000 C 
BRANCH   2   3
ATOM      3  C   UNL     1       0.779  11.805  -7.522  1.00  0.00     0.006 C 
BRANCH   3   4
ATOM      4  C   UNL     1       1.106  10.396  -8.036  1.00  0.00     0.053 C 
BRANCH   4   5
ATOM      5  C   UNL     1       2.579  10.201  -8.220  1.00  0.00     0.041 C 
ATOM      6  O   UNL     1       3.385  10.569  -7.325  1.00  0.00    -0.550 OA
ATOM      7  O   UNL     1       3.062   9.582  -9.367  1.00  0.00    -0.550 OA
ENDBRANCH   4   5
ENDBRANCH   3   4
ENDBRANCH   2   3
ENDBRANCH   1   2
BRANCH   1   8
ATOM      8  C   UNL     1      -2.735  11.600  -9.170  1.00  0.00     0.000 C 
BRANCH   8   9
ATOM      9  C   UNL     1      -3.722  10.462  -9.487  1.00  0.00     0.006 C 
BRANCH   9  10
ATOM     10  C   UNL     1      -4.732  10.791 -10.598  1.00  0.00     0.053 C 
BRANCH  10  11
ATOM     11  C   UNL     1      -6.086  11.118 -10.048  1.00  0.00     0.041 C 
ATOM     12  O   UNL     1      -7.119  10.888 -10.731  1.00  0.00    -0.550 OA
ATOM     13  O   UNL     1      -6.209  11.644  -8.768  1.00  0.00    -0.550 OA
ENDBRANCH  10  11
ENDBRANCH   9  10
ENDBRANCH   8   9
ENDBRANCH   1   8
TORSDOF 8
ENDMDL
MODEL 5
REMARK VINA RESULT:    -4.642      0.837      6.686
REMARK INTER + INTRA:          -7.108
REMARK INTER:                  -6.860
REMARK INTRA:                  -0.248
REMARK UNBOUND:                -0.295
REMARK SMILES O=C([O-])CCCCCCCC(=O)[O-]
REMARK SMILES IDX 7 1 6 2 5 3 4 4 2 5 1 6 3 7 8 8 9 9 10 10 11 11 12 12 13 13
REMARK H PARENT
REMARK Flexibility Score: inf
ROOT
ATOM      1  C   UNL     1      -1.560  10.872  -8.489  1.00  0.00     0.000 C 
ENDROOT
BRANCH   1   2
ATOM      2  C   UNL     1      -0.640  11.885  -7.795  1.00  0.00     0.000 C 
BRANCH   2   3
ATOM      3  C   UNL     1       0.593  11.191  -7.200  1.00  0.00     0.006 C 
BRANCH   3   4
ATOM      4  C   UNL     1       1.138  10.088  -8.118  1.00  0.00     0.053 C 
BRANCH   4   5
ATOM      5  C   UNL     1       2.630  10.142  -8.226  1.00  0.00     0.041 C 
ATOM      6  O   UNL     1       3.208   9.700  -9.254  1.00  0.00    -0.550 OA
ATOM      7  O   UNL     1       3.383  10.710  -7.206  1.00  0.00    -0.550 OA
ENDBRANCH   4   5
ENDBRANCH   3   4
ENDBRANCH   2   3
ENDBRANCH   1   2
BRANCH   1   8
ATOM      8  C   UNL     1      -2.846  11.549  -8.989  1.00  0.00     0.000 C 
BRANCH   8   9
ATOM      9  C   UNL     1      -3.540  10.754 -10.110  1.00  0.00     0.006 C 
BRANCH   9  10
ATOM     10  C   UNL     1      -3.813   9.281  -9.766  1.00  0.00     0.053 C 
BRANCH  10  11
ATOM     11  C   UNL     1      -5.074   8.780 -10.399  1.00  0.00     0.041 C 
ATOM     12  O   UNL     1      -6.121   9.479 -10.366  1.00  0.00    -0.550 OA
ATOM     13  O   UNL     1      -5.085   7.555 -11.055  1.00  0.00    -0.550 OA
ENDBRANCH  10  11
ENDBRANCH   9  10
ENDBRANCH   8   9
ENDBRANCH   1   8
TORSDOF 8
ENDMDL
MODEL 6
REMARK VINA RESULT:    -4.365     12.032     12.981
REMARK INTER + INTRA:          -6.701
REMARK INTER:                  -6.253
REMARK INTRA:                  -0.448
REMARK UNBOUND:                -0.295
REMARK SMILES O=C([O-])CCCCCCCC(=O)[O-]
REMARK SMILES IDX 7 1 6 2 5 3 4 4 2 5 1 6 3 7 8 8 9 9 10 10 11 11 12 12 13 13
REMARK H PARENT
REMARK Flexibility Score: inf
ROOT
ATOM      1  C   UNL     1      -0.939   5.322 -19.731  1.00  0.00     0.000 C 
ENDROOT
BRANCH   1   2
ATOM      2  C   UNL     1      -2.013   6.214 -19.095  1.00  0.00     0.000 C 
BRANCH   2   3
ATOM      3  C   UNL     1      -2.779   7.002 -20.166  1.00  0.00     0.006 C 
BRANCH   3   4
ATOM      4  C   UNL     1      -2.782   6.284 -21.524  1.00  0.00     0.053 C 
BRANCH   4   5
ATOM      5  C   UNL     1      -3.977   5.395 -21.680  1.00  0.00     0.041 C 
ATOM      6  O   UNL     1      -3.834   4.199 -22.045  1.00  0.00    -0.550 OA
ATOM      7  O   UNL     1      -5.247   5.879 -21.391  1.00  0.00    -0.550 OA
ENDBRANCH   4   5
ENDBRANCH   3   4
ENDBRANCH   2   3
ENDBRANCH   1   2
BRANCH   1   8
ATOM      8  C   UNL     1       0.383   5.413 -18.952  1.00  0.00     0.000 C 
BRANCH   8   9
ATOM      9  C   UNL     1       1.619   5.223 -19.851  1.00  0.00     0.006 C 
BRANCH   9  10
ATOM     10  C   UNL     1       1.489   4.082 -20.873  1.00  0.00     0.053 C 
BRANCH  10  11
ATOM     11  C   UNL     1       1.864   2.756 -20.287  1.00  0.00     0.041 C 
ATOM     12  O   UNL     1       0.973   1.983 -19.846  1.00  0.00    -0.550 OA
ATOM     13  O   UNL     1       3.195   2.359 -20.259  1.00  0.00    -0.550 OA
ENDBRANCH  10  11
ENDBRANCH   9  10
ENDBRANCH   8   9
ENDBRANCH   1   8
TORSDOF 8
ENDMDL
MODEL 7
REMARK VINA RESULT:    -4.308     12.245     14.336
REMARK INTER + INTRA:          -6.617
REMARK INTER:                  -6.258
REMARK INTRA:                  -0.359
REMARK UNBOUND:                -0.295
REMARK SMILES O=C([O-])CCCCCCCC(=O)[O-]
REMARK SMILES IDX 7 1 6 2 5 3 4 4 2 5 1 6 3 7 8 8 9 9 10 10 11 11 12 12 13 13
REMARK H PARENT
REMARK Flexibility Score: inf
ROOT
ATOM      1  C   UNL     1      -0.673   5.051 -20.023  1.00  0.00     0.000 C 
ENDROOT
BRANCH   1   2
ATOM      2  C   UNL     1       0.835   4.975 -19.747  1.00  0.00     0.000 C 
BRANCH   2   3
ATOM      3  C   UNL     1       1.505   3.923 -20.643  1.00  0.00     0.006 C 
BRANCH   3   4
ATOM      4  C   UNL     1       2.049   2.736 -19.836  1.00  0.00     0.053 C 
BRANCH   4   5
ATOM      5  C   UNL     1       1.359   1.456 -20.196  1.00  0.00     0.041 C 
ATOM      6  O   UNL     1       0.105   1.371 -20.122  1.00  0.00    -0.550 OA
ATOM      7  O   UNL     1       2.097   0.369 -20.644  1.00  0.00    -0.550 OA
ENDBRANCH   4   5
ENDBRANCH   3   4
ENDBRANCH   2   3
ENDBRANCH   1   2
BRANCH   1   8
ATOM      8  C   UNL     1      -1.376   5.946 -18.991  1.00  0.00     0.000 C 
BRANCH   8   9
ATOM      9  C   UNL     1      -2.798   6.347 -19.420  1.00  0.00     0.006 C 
BRANCH   9  10
ATOM     10  C   UNL     1      -2.960   6.587 -20.930  1.00  0.00     0.053 C 
BRANCH  10  11
ATOM     11  C   UNL     1      -3.932   5.632 -21.551  1.00  0.00     0.041 C 
ATOM     12  O   UNL     1      -3.517   4.594 -22.131  1.00  0.00    -0.550 OA
ATOM     13  O   UNL     1      -5.297   5.869 -21.458  1.00  0.00    -0.550 OA
ENDBRANCH  10  11
ENDBRANCH   9  10
ENDBRANCH   8   9
ENDBRANCH   1   8
TORSDOF 8
ENDMDL
MODEL 8
REMARK VINA RESULT:    -4.286     12.326     14.440
REMARK INTER + INTRA:          -6.585
REMARK INTER:                  -6.171
REMARK INTRA:                  -0.414
REMARK UNBOUND:                -0.295
REMARK SMILES O=C([O-])CCCCCCCC(=O)[O-]
REMARK SMILES IDX 7 1 6 2 5 3 4 4 2 5 1 6 3 7 8 8 9 9 10 10 11 11 12 12 13 13
REMARK H PARENT
REMARK Flexibility Score: inf
ROOT
ATOM      1  C   UNL     1      -1.790   5.972 -19.298  1.00  0.00     0.000 C 
ENDROOT
BRANCH   1   2
ATOM      2  C   UNL     1      -1.116   4.953 -20.226  1.00  0.00     0.000 C 
BRANCH   2   3
ATOM      3  C   UNL     1       0.324   4.667 -19.777  1.00  0.00     0.006 C 
BRANCH   3   4
ATOM      4  C   UNL     1       1.101   3.840 -20.811  1.00  0.00     0.053 C 
BRANCH   4   5
ATOM      5  C   UNL     1       1.695   2.607 -20.203  1.00  0.00     0.041 C 
ATOM      6  O   UNL     1       0.948   1.700 -19.751  1.00  0.00    -0.550 OA
ATOM      7  O   UNL     1       3.074   2.445 -20.164  1.00  0.00    -0.550 OA
ENDBRANCH   4   5
ENDBRANCH   3   4
ENDBRANCH   2   3
ENDBRANCH   1   2
BRANCH   1   8
ATOM      8  C   UNL     1      -2.623   6.982 -20.102  1.00  0.00     0.000 C 
BRANCH   8   9
ATOM      9  C   UNL     1      -3.290   6.354 -21.339  1.00  0.00     0.006 C 
BRANCH   9  10
ATOM     10  C   UNL     1      -4.753   5.935 -21.125  1.00  0.00     0.053 C 
BRANCH  10  11
ATOM     11  C   UNL     1      -4.973   4.485 -21.429  1.00  0.00     0.041 C 
ATOM     12  O   UNL     1      -6.099   3.959 -21.229  1.00  0.00    -0.550 OA
ATOM     13  O   UNL     1      -3.943   3.723 -21.967  1.00  0.00    -0.550 OA
ENDBRANCH  10  11
ENDBRANCH   9  10
ENDBRANCH   8   9
ENDBRANCH   1   8
TORSDOF 8
ENDMDL
MODEL 9
REMARK VINA RESULT:    -4.285      3.844      5.475
REMARK INTER + INTRA:          -6.584
REMARK INTER:                  -5.977
REMARK INTRA:                  -0.607
REMARK UNBOUND:                -0.295
REMARK SMILES O=C([O-])CCCCCCCC(=O)[O-]
REMARK SMILES IDX 7 1 6 2 5 3 4 4 2 5 1 6 3 7 8 8 9 9 10 10 11 11 12 12 13 13
REMARK H PARENT
REMARK Flexibility Score: inf
ROOT
ATOM      1  C   UNL     1      -1.860  12.314  -7.178  1.00  0.00     0.000 C 
ENDROOT
BRANCH   1   2
ATOM      2  C   UNL     1      -0.971  13.412  -6.578  1.00  0.00     0.000 C 
BRANCH   2   3
ATOM      3  C   UNL     1      -1.242  13.579  -5.076  1.00  0.00     0.006 C 
BRANCH   3   4
ATOM      4  C   UNL     1       0.026  13.954  -4.296  1.00  0.00     0.053 C 
BRANCH   4   5
ATOM      5  C   UNL     1       1.147  12.999  -4.566  1.00  0.00     0.041 C 
ATOM      6  O   UNL     1       2.213  13.407  -5.099  1.00  0.00    -0.550 OA
ATOM      7  O   UNL     1       1.029  11.665  -4.199  1.00  0.00    -0.550 OA
ENDBRANCH   4   5
ENDBRANCH   3   4
ENDBRANCH   2   3
ENDBRANCH   1   2
BRANCH   1   8
ATOM      8  C   UNL     1      -1.059  11.424  -8.142  1.00  0.00     0.000 C 
BRANCH   8   9
ATOM      9  C   UNL     1       0.457  11.480  -7.885  1.00  0.00     0.006 C 
BRANCH   9  10
ATOM     10  C   UNL     1       1.148  10.107  -7.869  1.00  0.00     0.053 C 
BRANCH  10  11
ATOM     11  C   UNL     1       2.632  10.221  -8.033  1.00  0.00     0.041 C 
ATOM     12  O   UNL     1       3.193   9.759  -9.062  1.00  0.00    -0.550 OA
ATOM     13  O   UNL     1       3.391  10.869  -7.067  1.00  0.00    -0.550 OA
ENDBRANCH  10  11
ENDBRANCH   9  10
ENDBRANCH   8   9
ENDBRANCH   1   8
TORSDOF 8
ENDMDL
