MODEL 1
REMARK VINA RESULT:    -3.581      0.000      0.000
REMARK INTER + INTRA:          -5.478
REMARK INTER:                  -5.465
REMARK INTRA:                  -0.013
REMARK UNBOUND:                -0.013
REMARK SMILES CC1=CCC[C@@H](C)C(=O)C[C@H](C(C)C)C(=O)C1
REMARK SMILES IDX 8 1 9 2 6 3 7 4 5 5 4 6 3 7 2 8 1 9 10 11 11 12 15 13 16 14
REMARK SMILES IDX 17 15 12 17 13 18 14 19
REMARK H PARENT
REMARK Flexibility Score: 70.00
ROOT
ATOM      1  C   UNL     1      87.951  38.298  27.996  1.00  0.00     0.136 C 
ATOM      2  O   UNL     1      87.934  39.276  28.732  1.00  0.00    -0.299 OA
ENDROOT
BRANCH   1   3
ATOM      3  C   UNL     1      88.921  38.233  26.826  1.00  0.00     0.053 C 
ATOM      4  C   UNL     1      90.161  39.122  27.016  1.00  0.00     0.016 C 
BRANCH   3   5
ATOM      5  C   UNL     1      88.238  38.467  25.456  1.00  0.00     0.015 C 
BRANCH   5   6
ATOM      6  C   UNL     1      87.748  37.232  24.664  1.00  0.00     0.028 C 
BRANCH   6   7
ATOM      7  C   UNL     1      86.298  37.207  24.240  1.00  0.00    -0.028 C 
ATOM      8  C   UNL     1      85.310  36.464  24.790  1.00  0.00    -0.070 CG0
ATOM      9  C   UNL     1      84.000  36.399  24.041  1.00  0.00     0.039 C 
ATOM     10  G   UNL     1      85.476  35.662  26.071  1.00  0.00     0.000 G0
ENDBRANCH   6   7
ENDBRANCH   5   6
ENDBRANCH   3   5
ENDBRANCH   1   3
BRANCH   1  11
ATOM     11  C   UNL     1      87.087  37.101  28.327  1.00  0.00     0.087 C 
BRANCH  11  12
ATOM     12  C   UNL     1      85.561  37.336  28.171  1.00  0.00     0.066 C 
BRANCH  12  13
ATOM     13  C   UNL     1      84.827  36.353  27.257  1.00  0.00     0.140 C 
ATOM     14  O   UNL     1      83.649  36.130  27.494  1.00  0.00    -0.299 OA
BRANCH  13  15
ATOM     15  C   UNL     1      85.456  35.640  26.077  1.00  0.00     0.106 CG0
ATOM     16  G   UNL     1      85.315  36.460  24.804  1.00  0.00     0.000 G0
ENDBRANCH  13  15
ENDBRANCH  12  13
BRANCH  12  17
ATOM     17  C   UNL     1      84.883  37.443  29.576  1.00  0.00    -0.006 C 
ATOM     18  C   UNL     1      85.234  38.744  30.320  1.00  0.00     0.008 C 
ATOM     19  C   UNL     1      85.191  36.228  30.465  1.00  0.00     0.008 C 
ENDBRANCH  12  17
ENDBRANCH  11  12
ENDBRANCH   1  11
TORSDOF 1
ENDMDL
MODEL 2
REMARK VINA RESULT:    -3.547      1.793      4.238
REMARK INTER + INTRA:          -5.426
REMARK INTER:                  -5.406
REMARK INTRA:                  -0.020
REMARK UNBOUND:                -0.013
REMARK SMILES CC1=CCC[C@@H](C)C(=O)C[C@H](C(C)C)C(=O)C1
REMARK SMILES IDX 8 1 9 2 6 3 7 4 5 5 4 6 3 7 2 8 1 9 10 11 11 12 15 13 16 14
REMARK SMILES IDX 17 15 12 17 13 18 14 19
REMARK H PARENT
REMARK Flexibility Score: 70.00
ROOT
ATOM      1  C   UNL     1      88.105  38.150  25.606  1.00  0.00     0.136 C 
ATOM      2  O   UNL     1      88.818  37.935  24.634  1.00  0.00    -0.299 OA
ENDROOT
BRANCH   1   3
ATOM      3  C   UNL     1      88.653  38.905  26.808  1.00  0.00     0.053 C 
ATOM      4  C   UNL     1      90.121  39.331  26.638  1.00  0.00     0.016 C 
BRANCH   3   5
ATOM      5  C   UNL     1      88.408  38.173  28.150  1.00  0.00     0.015 C 
BRANCH   5   6
ATOM      6  C   UNL     1      87.091  38.459  28.907  1.00  0.00     0.028 C 
BRANCH   6   7
ATOM      7  C   UNL     1      86.451  37.311  29.652  1.00  0.00    -0.028 C 
ATOM      8  C   UNL     1      85.426  36.541  29.220  1.00  0.00    -0.070 CG0
ATOM      9  C   UNL     1      84.778  35.627  30.232  1.00  0.00     0.039 C 
ATOM     10  G   UNL     1      84.870  36.598  27.806  1.00  0.00     0.000 G0
ENDBRANCH   6   7
ENDBRANCH   5   6
ENDBRANCH   3   5
ENDBRANCH   1   3
BRANCH   1  11
ATOM     11  C   UNL     1      86.642  37.769  25.557  1.00  0.00     0.087 C 
BRANCH  11  12
ATOM     12  C   UNL     1      86.365  36.242  25.592  1.00  0.00     0.066 C 
BRANCH  12  13
ATOM     13  C   UNL     1      85.643  35.725  26.837  1.00  0.00     0.140 C 
ATOM     14  O   UNL     1      85.707  34.528  27.074  1.00  0.00    -0.299 OA
BRANCH  13  15
ATOM     15  C   UNL     1      84.857  36.593  27.800  1.00  0.00     0.106 CG0
ATOM     16  G   UNL     1      85.436  36.515  29.203  1.00  0.00     0.000 G0
ENDBRANCH  13  15
ENDBRANCH  12  13
BRANCH  12  17
ATOM     17  C   UNL     1      85.653  35.791  24.275  1.00  0.00    -0.006 C 
ATOM     18  C   UNL     1      86.451  34.740  23.483  1.00  0.00     0.008 C 
ATOM     19  C   UNL     1      85.302  36.981  23.367  1.00  0.00     0.008 C 
ENDBRANCH  12  17
ENDBRANCH  11  12
ENDBRANCH   1  11
TORSDOF 1
ENDMDL
MODEL 3
REMARK VINA RESULT:    -3.529      1.768      4.075
REMARK INTER + INTRA:          -5.399
REMARK INTER:                  -5.247
REMARK INTRA:                  -0.152
REMARK UNBOUND:                -0.013
REMARK SMILES CC1=CCC[C@@H](C)C(=O)C[C@H](C(C)C)C(=O)C1
REMARK SMILES IDX 8 1 9 2 6 3 7 4 5 5 4 6 3 7 2 8 1 9 10 11 11 12 15 13 16 14
REMARK SMILES IDX 17 15 12 17 13 18 14 19
REMARK H PARENT
REMARK Flexibility Score: 70.00
ROOT
ATOM      1  C   UNL     1      88.350  38.154  26.759  1.00  0.00     0.136 C 
ATOM      2  O   UNL     1      89.524  38.455  26.928  1.00  0.00    -0.299 OA
ENDROOT
BRANCH   1   3
ATOM      3  C   UNL     1      87.416  38.004  27.950  1.00  0.00     0.053 C 
ATOM      4  C   UNL     1      87.724  38.991  29.089  1.00  0.00     0.016 C 
BRANCH   3   5
ATOM      5  C   UNL     1      87.302  36.545  28.455  1.00  0.00     0.015 C 
BRANCH   5   6
ATOM      6  C   UNL     1      85.894  35.915  28.555  1.00  0.00     0.028 C 
BRANCH   6   7
ATOM      7  C   UNL     1      84.707  36.827  28.351  1.00  0.00    -0.028 C 
ATOM      8  C   UNL     1      84.087  37.092  27.179  1.00  0.00    -0.070 CG0
ATOM      9  C   UNL     1      83.094  38.230  27.167  1.00  0.00     0.039 C 
ATOM     10  G   UNL     1      84.381  36.349  25.885  1.00  0.00     0.000 G0
ENDBRANCH   6   7
ENDBRANCH   5   6
ENDBRANCH   3   5
ENDBRANCH   1   3
BRANCH   1  11
ATOM     11  C   UNL     1      87.801  38.049  25.352  1.00  0.00     0.087 C 
BRANCH  11  12
ATOM     12  C   UNL     1      86.902  36.811  25.094  1.00  0.00     0.066 C 
BRANCH  12  13
ATOM     13  C   UNL     1      85.398  37.081  25.041  1.00  0.00     0.140 C 
ATOM     14  O   UNL     1      85.003  37.943  24.271  1.00  0.00    -0.299 OA
BRANCH  13  15
ATOM     15  C   UNL     1      84.362  36.351  25.874  1.00  0.00     0.106 CG0
ATOM     16  G   UNL     1      84.098  37.082  27.180  1.00  0.00     0.000 G0
ENDBRANCH  13  15
ENDBRANCH  12  13
BRANCH  12  17
ATOM     17  C   UNL     1      87.401  36.034  23.831  1.00  0.00    -0.006 C 
ATOM     18  C   UNL     1      86.954  34.562  23.809  1.00  0.00     0.008 C 
ATOM     19  C   UNL     1      88.925  36.125  23.657  1.00  0.00     0.008 C 
ENDBRANCH  12  17
ENDBRANCH  11  12
ENDBRANCH   1  11
TORSDOF 1
ENDMDL
MODEL 4
REMARK VINA RESULT:    -3.392      2.986      5.491
REMARK INTER + INTRA:          -5.189
REMARK INTER:                  -5.265
REMARK INTRA:                   0.076
REMARK UNBOUND:                -0.013
REMARK SMILES CC1=CCC[C@@H](C)C(=O)C[C@H](C(C)C)C(=O)C1
REMARK SMILES IDX 8 1 9 2 6 3 7 4 5 5 4 6 3 7 2 8 1 9 10 11 11 12 15 13 16 14
REMARK SMILES IDX 17 15 12 17 13 18 14 19
REMARK H PARENT
REMARK Flexibility Score: 70.00
ROOT
ATOM      1  C   UNL     1      84.494  35.675  22.412  1.00  0.00     0.136 C 
ATOM      2  O   UNL     1      83.846  34.772  22.925  1.00  0.00    -0.299 OA
ENDROOT
BRANCH   1   3
ATOM      3  C   UNL     1      83.821  36.669  21.478  1.00  0.00     0.053 C 
ATOM      4  C   UNL     1      84.054  36.356  19.990  1.00  0.00     0.016 C 
BRANCH   3   5
ATOM      5  C   UNL     1      84.145  38.144  21.823  1.00  0.00     0.015 C 
BRANCH   5   6
ATOM      6  C   UNL     1      83.250  38.864  22.858  1.00  0.00     0.028 C 
BRANCH   6   7
ATOM      7  C   UNL     1      82.417  38.002  23.778  1.00  0.00    -0.028 C 
ATOM      8  C   UNL     1      82.827  37.422  24.929  1.00  0.00    -0.070 CG0
ATOM      9  C   UNL     1      81.909  36.393  25.547  1.00  0.00     0.039 C 
ATOM     10  G   UNL     1      84.170  37.708  25.583  1.00  0.00     0.000 G0
ENDBRANCH   6   7
ENDBRANCH   5   6
ENDBRANCH   3   5
ENDBRANCH   1   3
BRANCH   1  11
ATOM     11  C   UNL     1      85.942  35.870  22.806  1.00  0.00     0.087 C 
BRANCH  11  12
ATOM     12  C   UNL     1      86.167  36.816  24.015  1.00  0.00     0.066 C 
BRANCH  12  13
ATOM     13  C   UNL     1      85.191  36.648  25.181  1.00  0.00     0.140 C 
ATOM     14  O   UNL     1      85.244  35.608  25.819  1.00  0.00    -0.299 OA
BRANCH  13  15
ATOM     15  C   UNL     1      84.167  37.683  25.603  1.00  0.00     0.106 CG0
ATOM     16  G   UNL     1      82.824  37.426  24.938  1.00  0.00     0.000 G0
ENDBRANCH  13  15
ENDBRANCH  12  13
BRANCH  12  17
ATOM     17  C   UNL     1      87.656  36.748  24.486  1.00  0.00    -0.006 C 
ATOM     18  C   UNL     1      88.259  38.131  24.794  1.00  0.00     0.008 C 
ATOM     19  C   UNL     1      88.549  35.996  23.486  1.00  0.00     0.008 C 
ENDBRANCH  12  17
ENDBRANCH  11  12
ENDBRANCH   1  11
TORSDOF 1
ENDMDL
MODEL 5
REMARK VINA RESULT:    -3.300      2.108      4.423
REMARK INTER + INTRA:          -5.049
REMARK INTER:                  -4.815
REMARK INTRA:                  -0.234
REMARK UNBOUND:                -0.013
REMARK SMILES CC1=CCC[C@@H](C)C(=O)C[C@H](C(C)C)C(=O)C1
REMARK SMILES IDX 8 1 9 2 6 3 7 4 5 5 4 6 3 7 2 8 1 9 10 11 11 12 15 13 16 14
REMARK SMILES IDX 17 15 12 17 13 18 14 19
REMARK H PARENT
REMARK Flexibility Score: 70.00
ROOT
ATOM      1  C   UNL     1      86.924  37.223  27.726  1.00  0.00     0.136 C 
ATOM      2  O   UNL     1      87.871  37.933  28.036  1.00  0.00    -0.299 OA
ENDROOT
BRANCH   1   3
ATOM      3  C   UNL     1      86.248  36.345  28.768  1.00  0.00     0.053 C 
ATOM      4  C   UNL     1      85.820  37.118  30.026  1.00  0.00     0.016 C 
BRANCH   3   5
ATOM      5  C   UNL     1      87.062  35.073  29.112  1.00  0.00     0.015 C 
BRANCH   5   6
ATOM      6  C   UNL     1      86.957  33.860  28.158  1.00  0.00     0.028 C 
BRANCH   6   7
ATOM      7  C   UNL     1      85.578  33.310  27.879  1.00  0.00    -0.028 C 
ATOM      8  C   UNL     1      84.944  33.296  26.684  1.00  0.00    -0.070 CG0
ATOM      9  C   UNL     1      83.476  32.940  26.689  1.00  0.00     0.039 C 
ATOM     10  G   UNL     1      85.613  33.673  25.372  1.00  0.00     0.000 G0
ENDBRANCH   6   7
ENDBRANCH   5   6
ENDBRANCH   3   5
ENDBRANCH   1   3
BRANCH   1  11
ATOM     11  C   UNL     1      86.351  37.311  26.328  1.00  0.00     0.087 C 
BRANCH  11  12
ATOM     12  C   UNL     1      86.710  36.121  25.400  1.00  0.00     0.066 C 
BRANCH  12  13
ATOM     13  C   UNL     1      85.569  35.152  25.089  1.00  0.00     0.140 C 
ATOM     14  O   UNL     1      84.557  35.611  24.582  1.00  0.00    -0.299 OA
BRANCH  13  15
ATOM     15  C   UNL     1      85.607  33.661  25.361  1.00  0.00     0.106 CG0
ATOM     16  G   UNL     1      84.957  33.333  26.696  1.00  0.00     0.000 G0
ENDBRANCH  13  15
ENDBRANCH  12  13
BRANCH  12  17
ATOM     17  C   UNL     1      87.406  36.640  24.099  1.00  0.00    -0.006 C 
ATOM     18  C   UNL     1      88.122  35.529  23.310  1.00  0.00     0.008 C 
ATOM     19  C   UNL     1      88.378  37.797  24.380  1.00  0.00     0.008 C 
ENDBRANCH  12  17
ENDBRANCH  11  12
ENDBRANCH   1  11
TORSDOF 1
ENDMDL
MODEL 6
REMARK VINA RESULT:    -3.216      2.910      4.931
REMARK INTER + INTRA:          -4.921
REMARK INTER:                  -4.651
REMARK INTRA:                  -0.271
REMARK UNBOUND:                -0.013
REMARK SMILES CC1=CCC[C@@H](C)C(=O)C[C@H](C(C)C)C(=O)C1
REMARK SMILES IDX 8 1 9 2 6 3 7 4 5 5 4 6 3 7 2 8 1 9 10 11 11 12 15 13 16 14
REMARK SMILES IDX 17 15 12 17 13 18 14 19
REMARK H PARENT
REMARK Flexibility Score: 70.00
ROOT
ATOM      1  C   UNL     1      86.509  36.330  27.762  1.00  0.00     0.136 C 
ATOM      2  O   UNL     1      87.241  37.291  27.962  1.00  0.00    -0.299 OA
ENDROOT
BRANCH   1   3
ATOM      3  C   UNL     1      86.153  35.386  28.900  1.00  0.00     0.053 C 
ATOM      4  C   UNL     1      85.808  36.117  30.208  1.00  0.00     0.016 C 
BRANCH   3   5
ATOM      5  C   UNL     1      87.203  34.268  29.114  1.00  0.00     0.015 C 
BRANCH   5   6
ATOM      6  C   UNL     1      86.854  32.839  28.636  1.00  0.00     0.028 C 
BRANCH   6   7
ATOM      7  C   UNL     1      87.643  32.282  27.475  1.00  0.00    -0.028 C 
ATOM      8  C   UNL     1      87.277  32.292  26.173  1.00  0.00    -0.070 CG0
ATOM      9  C   UNL     1      88.093  31.450  25.221  1.00  0.00     0.039 C 
ATOM     10  G   UNL     1      86.070  33.052  25.645  1.00  0.00     0.000 G0
ENDBRANCH   6   7
ENDBRANCH   5   6
ENDBRANCH   3   5
ENDBRANCH   1   3
BRANCH   1  11
ATOM     11  C   UNL     1      85.863  36.154  26.405  1.00  0.00     0.087 C 
BRANCH  11  12
ATOM     12  C   UNL     1      86.813  35.631  25.294  1.00  0.00     0.066 C 
BRANCH  12  13
ATOM     13  C   UNL     1      86.504  34.233  24.759  1.00  0.00     0.140 C 
ATOM     14  O   UNL     1      86.620  34.046  23.558  1.00  0.00    -0.299 OA
BRANCH  13  15
ATOM     15  C   UNL     1      86.068  33.060  25.616  1.00  0.00     0.106 CG0
ATOM     16  G   UNL     1      87.270  32.306  26.162  1.00  0.00     0.000 G0
ENDBRANCH  13  15
ENDBRANCH  12  13
BRANCH  12  17
ATOM     17  C   UNL     1      86.930  36.684  24.143  1.00  0.00    -0.006 C 
ATOM     18  C   UNL     1      88.098  37.666  24.337  1.00  0.00     0.008 C 
ATOM     19  C   UNL     1      85.620  37.458  23.928  1.00  0.00     0.008 C 
ENDBRANCH  12  17
ENDBRANCH  11  12
ENDBRANCH   1  11
TORSDOF 1
ENDMDL
MODEL 7
REMARK VINA RESULT:    -3.073      2.933      4.041
REMARK INTER + INTRA:          -4.703
REMARK INTER:                  -4.571
REMARK INTRA:                  -0.132
REMARK UNBOUND:                -0.013
REMARK SMILES CC1=CCC[C@@H](C)C(=O)C[C@H](C(C)C)C(=O)C1
REMARK SMILES IDX 8 1 9 2 6 3 7 4 5 5 4 6 3 7 2 8 1 9 10 11 11 12 15 13 16 14
REMARK SMILES IDX 17 15 12 17 13 18 14 19
REMARK H PARENT
REMARK Flexibility Score: 70.00
ROOT
ATOM      1  C   UNL     1      86.400  36.611  29.903  1.00  0.00     0.136 C 
ATOM      2  O   UNL     1      85.451  37.248  30.340  1.00  0.00    -0.299 OA
ENDROOT
BRANCH   1   3
ATOM      3  C   UNL     1      87.107  37.060  28.633  1.00  0.00     0.053 C 
ATOM      4  C   UNL     1      87.708  38.472  28.740  1.00  0.00     0.016 C 
BRANCH   3   5
ATOM      5  C   UNL     1      86.241  36.888  27.361  1.00  0.00     0.015 C 
BRANCH   5   6
ATOM      6  C   UNL     1      86.107  35.471  26.755  1.00  0.00     0.028 C 
BRANCH   6   7
ATOM      7  C   UNL     1      84.877  34.673  27.116  1.00  0.00    -0.028 C 
ATOM      8  C   UNL     1      84.822  33.612  27.953  1.00  0.00    -0.070 CG0
ATOM      9  C   UNL     1      83.544  32.807  27.963  1.00  0.00     0.039 C 
ATOM     10  G   UNL     1      85.986  33.166  28.824  1.00  0.00     0.000 G0
ENDBRANCH   6   7
ENDBRANCH   5   6
ENDBRANCH   3   5
ENDBRANCH   1   3
BRANCH   1  11
ATOM     11  C   UNL     1      86.944  35.444  30.697  1.00  0.00     0.087 C 
BRANCH  11  12
ATOM     12  C   UNL     1      85.873  34.434  31.188  1.00  0.00     0.066 C 
BRANCH  12  13
ATOM     13  C   UNL     1      85.650  33.214  30.293  1.00  0.00     0.140 C 
ATOM     14  O   UNL     1      85.156  32.219  30.803  1.00  0.00    -0.299 OA
BRANCH  13  15
ATOM     15  C   UNL     1      85.995  33.153  28.818  1.00  0.00     0.106 CG0
ATOM     16  G   UNL     1      84.822  33.608  27.964  1.00  0.00     0.000 G0
ENDBRANCH  13  15
ENDBRANCH  12  13
BRANCH  12  17
ATOM     17  C   UNL     1      86.154  34.026  32.672  1.00  0.00    -0.006 C 
ATOM     18  C   UNL     1      85.295  34.802  33.686  1.00  0.00     0.008 C 
ATOM     19  C   UNL     1      87.642  34.149  33.037  1.00  0.00     0.008 C 
ENDBRANCH  12  17
ENDBRANCH  11  12
ENDBRANCH   1  11
TORSDOF 1
ENDMDL
MODEL 8
REMARK VINA RESULT:    -3.066      2.812      3.962
REMARK INTER + INTRA:          -4.692
REMARK INTER:                  -4.714
REMARK INTRA:                   0.022
REMARK UNBOUND:                -0.013
REMARK SMILES CC1=CCC[C@@H](C)C(=O)C[C@H](C(C)C)C(=O)C1
REMARK SMILES IDX 8 1 9 2 6 3 7 4 5 5 4 6 3 7 2 8 1 9 10 11 11 12 15 13 16 14
REMARK SMILES IDX 17 15 12 17 13 18 14 19
REMARK H PARENT
REMARK Flexibility Score: 70.00
ROOT
ATOM      1  C   UNL     1      86.600  36.791  28.141  1.00  0.00     0.136 C 
ATOM      2  O   UNL     1      86.094  36.532  27.058  1.00  0.00    -0.299 OA
ENDROOT
BRANCH   1   3
ATOM      3  C   UNL     1      86.877  38.234  28.535  1.00  0.00     0.053 C 
ATOM      4  C   UNL     1      88.352  38.635  28.371  1.00  0.00     0.016 C 
BRANCH   3   5
ATOM      5  C   UNL     1      86.322  38.600  29.934  1.00  0.00     0.015 C 
BRANCH   5   6
ATOM      6  C   UNL     1      84.898  39.196  30.022  1.00  0.00     0.028 C 
BRANCH   6   7
ATOM      7  C   UNL     1      83.902  38.776  28.967  1.00  0.00    -0.028 C 
ATOM      8  C   UNL     1      83.249  37.593  28.901  1.00  0.00    -0.070 CG0
ATOM      9  C   UNL     1      82.503  37.288  27.623  1.00  0.00     0.039 C 
ATOM     10  G   UNL     1      83.281  36.552  30.008  1.00  0.00     0.000 G0
ENDBRANCH   6   7
ENDBRANCH   5   6
ENDBRANCH   3   5
ENDBRANCH   1   3
BRANCH   1  11
ATOM     11  C   UNL     1      86.840  35.678  29.138  1.00  0.00     0.087 C 
BRANCH  11  12
ATOM     12  C   UNL     1      85.760  35.552  30.245  1.00  0.00     0.066 C 
BRANCH  12  13
ATOM     13  C   UNL     1      84.313  35.477  29.758  1.00  0.00     0.140 C 
ATOM     14  O   UNL     1      83.978  34.488  29.122  1.00  0.00    -0.299 OA
BRANCH  13  15
ATOM     15  C   UNL     1      83.262  36.541  30.010  1.00  0.00     0.106 CG0
ATOM     16  G   UNL     1      83.255  37.577  28.897  1.00  0.00     0.000 G0
ENDBRANCH  13  15
ENDBRANCH  12  13
BRANCH  12  17
ATOM     17  C   UNL     1      86.112  34.373  31.212  1.00  0.00    -0.006 C 
ATOM     18  C   UNL     1      86.049  34.769  32.698  1.00  0.00     0.008 C 
ATOM     19  C   UNL     1      87.477  33.745  30.891  1.00  0.00     0.008 C 
ENDBRANCH  12  17
ENDBRANCH  11  12
ENDBRANCH   1  11
TORSDOF 1
ENDMDL
MODEL 9
REMARK VINA RESULT:    -3.066      1.584      2.594
REMARK INTER + INTRA:          -4.692
REMARK INTER:                  -4.738
REMARK INTRA:                   0.047
REMARK UNBOUND:                -0.013
REMARK SMILES CC1=CCC[C@@H](C)C(=O)C[C@H](C(C)C)C(=O)C1
REMARK SMILES IDX 8 1 9 2 6 3 7 4 5 5 4 6 3 7 2 8 1 9 10 11 11 12 15 13 16 14
REMARK SMILES IDX 17 15 12 17 13 18 14 19
REMARK H PARENT
REMARK Flexibility Score: 70.00
ROOT
ATOM      1  C   UNL     1      87.855  37.967  27.408  1.00  0.00     0.136 C 
ATOM      2  O   UNL     1      88.661  38.888  27.454  1.00  0.00    -0.299 OA
ENDROOT
BRANCH   1   3
ATOM      3  C   UNL     1      87.408  37.404  26.068  1.00  0.00     0.053 C 
ATOM      4  C   UNL     1      88.349  37.775  24.910  1.00  0.00     0.016 C 
BRANCH   3   5
ATOM      5  C   UNL     1      85.926  37.715  25.741  1.00  0.00     0.015 C 
BRANCH   5   6
ATOM      6  C   UNL     1      84.980  36.529  25.444  1.00  0.00     0.028 C 
BRANCH   6   7
ATOM      7  C   UNL     1      85.388  35.168  25.956  1.00  0.00    -0.028 C 
ATOM      8  C   UNL     1      85.184  34.681  27.201  1.00  0.00    -0.070 CG0
ATOM      9  C   UNL     1      85.905  33.405  27.568  1.00  0.00     0.039 C 
ATOM     10  G   UNL     1      84.326  35.377  28.246  1.00  0.00     0.000 G0
ENDBRANCH   6   7
ENDBRANCH   5   6
ENDBRANCH   3   5
ENDBRANCH   1   3
BRANCH   1  11
ATOM     11  C   UNL     1      87.398  37.312  28.693  1.00  0.00     0.087 C 
BRANCH  11  12
ATOM     12  C   UNL     1      85.878  37.435  28.982  1.00  0.00     0.066 C 
BRANCH  12  13
ATOM     13  C   UNL     1      85.146  36.122  29.262  1.00  0.00     0.140 C 
ATOM     14  O   UNL     1      85.236  35.650  30.386  1.00  0.00    -0.299 OA
BRANCH  13  15
ATOM     15  C   UNL     1      84.313  35.366  28.246  1.00  0.00     0.106 CG0
ATOM     16  G   UNL     1      85.196  34.693  27.207  1.00  0.00     0.000 G0
ENDBRANCH  13  15
ENDBRANCH  12  13
BRANCH  12  17
ATOM     17  C   UNL     1      85.624  38.495  30.103  1.00  0.00    -0.006 C 
ATOM     18  C   UNL     1      84.131  38.775  30.347  1.00  0.00     0.008 C 
ATOM     19  C   UNL     1      86.370  39.813  29.837  1.00  0.00     0.008 C 
ENDBRANCH  12  17
ENDBRANCH  11  12
ENDBRANCH   1  11
TORSDOF 1
ENDMDL
