MODEL 1
REMARK VINA RESULT:    35.467      0.000      0.000
REMARK INTER + INTRA:          43.259
REMARK INTER:                  42.724
REMARK INTRA:                   0.536
REMARK UNBOUND:                 0.536
REMARK SMILES O=c1ccn([C@H]2O[C@H](CO)[C@@H](O)[C@H]2O)c(=O)[nH]1
REMARK SMILES IDX 6 1 13 2 11 3 8 4 7 5 5 6 3 7 4 8 2 9 17 10 1 11 15 12 16 14
REMARK SMILES IDX 14 15 12 17 9 19 10 20
REMARK H PARENT 17 13 14 16 12 18 10 21
REMARK Flexibility Score: inf
ROOT
ATOM      1  C   UNL     1      24.969  -9.016  13.333  1.00  0.00     0.255 C 
ATOM      2  C   UNL     1      26.424  -9.255  13.760  1.00  0.00     0.196 C 
ATOM      3  C   UNL     1      26.601 -10.746  13.598  1.00  0.00     0.179 C 
ATOM      4  C   UNL     1      25.171 -11.265  13.717  1.00  0.00     0.178 C 
ATOM      5  O   UNL     1      24.284 -10.254  13.286  1.00  0.00    -0.347 OA
ENDROOT
BRANCH   1   6
ATOM      6  N   UNL     1      24.878  -8.327  12.026  1.00  0.00    -0.271 N 
ATOM      7  C   UNL     1      25.459  -8.202   9.700  1.00  0.00     0.090 A 
ATOM      8  C   UNL     1      25.510  -8.851  10.931  1.00  0.00     0.099 A 
ATOM      9  C   UNL     1      24.763  -7.001   9.609  1.00  0.00     0.253 A 
ATOM     10  N   UNL     1      24.157  -6.487  10.710  1.00  0.00    -0.274 N 
ATOM     11  O   UNL     1      24.700  -6.392   8.508  1.00  0.00    -0.269 OA
ATOM     12  C   UNL     1      24.213  -7.129  11.909  1.00  0.00     0.330 A 
ATOM     13  H   UNL     1      23.642  -5.579  10.635  1.00  0.00     0.175 HD
ATOM     14  O   UNL     1      23.653  -6.605  12.912  1.00  0.00    -0.248 OA
ENDBRANCH   1   6
BRANCH   2  15
ATOM     15  O   UNL     1      27.338  -8.518  12.986  1.00  0.00    -0.386 OA
ATOM     16  H   UNL     1      28.112  -9.119  12.819  1.00  0.00     0.211 HD
ENDBRANCH   2  15
BRANCH   3  17
ATOM     17  O   UNL     1      27.108 -11.062  12.325  1.00  0.00    -0.387 OA
ATOM     18  H   UNL     1      27.971 -11.531  12.467  1.00  0.00     0.211 HD
ENDBRANCH   3  17
BRANCH   4  19
ATOM     19  C   UNL     1      24.826 -11.675  15.159  1.00  0.00     0.191 C 
BRANCH  19  20
ATOM     20  O   UNL     1      23.657 -12.450  15.179  1.00  0.00    -0.394 OA
ATOM     21  H   UNL     1      22.893 -11.817  15.157  1.00  0.00     0.210 HD
ENDBRANCH  19  20
ENDBRANCH   4  19
TORSDOF 5
ENDMDL
MODEL 2
REMARK VINA RESULT:    36.137      2.576      5.872
REMARK INTER + INTRA:          44.066
REMARK INTER:                  44.110
REMARK INTRA:                  -0.044
REMARK UNBOUND:                 0.536
REMARK SMILES O=c1ccn([C@H]2O[C@H](CO)[C@@H](O)[C@H]2O)c(=O)[nH]1
REMARK SMILES IDX 6 1 13 2 11 3 8 4 7 5 5 6 3 7 4 8 2 9 17 10 1 11 15 12 16 14
REMARK SMILES IDX 14 15 12 17 9 19 10 20
REMARK H PARENT 17 13 14 16 12 18 10 21
REMARK Flexibility Score: inf
ROOT
ATOM      1  C   UNL     1      25.189 -10.544  13.645  1.00  0.00     0.255 C 
ATOM      2  C   UNL     1      26.207 -11.259  12.746  1.00  0.00     0.196 C 
ATOM      3  C   UNL     1      27.161 -10.158  12.345  1.00  0.00     0.179 C 
ATOM      4  C   UNL     1      26.304  -8.905  12.499  1.00  0.00     0.178 C 
ATOM      5  O   UNL     1      25.323  -9.144  13.485  1.00  0.00    -0.347 OA
ENDROOT
BRANCH   1   6
ATOM      6  N   UNL     1      25.345 -10.917  15.070  1.00  0.00    -0.271 N 
ATOM      7  C   UNL     1      26.460 -10.642  17.177  1.00  0.00     0.090 A 
ATOM      8  C   UNL     1      26.280 -10.284  15.844  1.00  0.00     0.099 A 
ATOM      9  C   UNL     1      25.679 -11.665  17.704  1.00  0.00     0.253 A 
ATOM     10  N   UNL     1      24.769 -12.293  16.917  1.00  0.00    -0.274 N 
ATOM     11  O   UNL     1      25.821 -12.009  18.908  1.00  0.00    -0.269 OA
ATOM     12  C   UNL     1      24.601 -11.937  15.613  1.00  0.00     0.330 A 
ATOM     13  H   UNL     1      24.191 -13.068  17.318  1.00  0.00     0.175 HD
ATOM     14  O   UNL     1      23.758 -12.562  14.911  1.00  0.00    -0.248 OA
ENDBRANCH   1   6
BRANCH   2  15
ATOM     15  O   UNL     1      26.856 -12.318  13.406  1.00  0.00    -0.386 OA
ATOM     16  H   UNL     1      27.812 -12.270  13.141  1.00  0.00     0.211 HD
ENDBRANCH   2  15
BRANCH   3  17
ATOM     17  O   UNL     1      28.254 -10.088  13.227  1.00  0.00    -0.387 OA
ATOM     18  H   UNL     1      28.932 -10.732  12.897  1.00  0.00     0.211 HD
ENDBRANCH   3  17
BRANCH   4  19
ATOM     19  C   UNL     1      25.624  -8.508  11.178  1.00  0.00     0.191 C 
BRANCH  19  20
ATOM     20  O   UNL     1      24.497  -7.713  11.429  1.00  0.00    -0.394 OA
ATOM     21  H   UNL     1      24.726  -6.792  11.140  1.00  0.00     0.210 HD
ENDBRANCH  19  20
ENDBRANCH   4  19
TORSDOF 5
ENDMDL
MODEL 3
REMARK VINA RESULT:    36.716      1.755      5.547
REMARK INTER + INTRA:          44.764
REMARK INTER:                  43.230
REMARK INTRA:                   1.533
REMARK UNBOUND:                 0.536
REMARK SMILES O=c1ccn([C@H]2O[C@H](CO)[C@@H](O)[C@H]2O)c(=O)[nH]1
REMARK SMILES IDX 6 1 13 2 11 3 8 4 7 5 5 6 3 7 4 8 2 9 17 10 1 11 15 12 16 14
REMARK SMILES IDX 14 15 12 17 9 19 10 20
REMARK H PARENT 17 13 14 16 12 18 10 21
REMARK Flexibility Score: inf
ROOT
ATOM      1  C   UNL     1      25.236  -8.094  11.950  1.00  0.00     0.255 C 
ATOM      2  C   UNL     1      23.997  -7.244  11.634  1.00  0.00     0.196 C 
ATOM      3  C   UNL     1      23.770  -7.482  10.160  1.00  0.00     0.179 C 
ATOM      4  C   UNL     1      25.158  -7.883   9.670  1.00  0.00     0.178 C 
ATOM      5  O   UNL     1      25.862  -8.478  10.739  1.00  0.00    -0.347 OA
ENDROOT
BRANCH   1   6
ATOM      6  N   UNL     1      24.902  -9.288  12.758  1.00  0.00    -0.271 N 
ATOM      7  C   UNL     1      23.259 -10.731  13.748  1.00  0.00     0.090 A 
ATOM      8  C   UNL     1      23.592  -9.628  12.967  1.00  0.00     0.099 A 
ATOM      9  C   UNL     1      24.284 -11.473  14.325  1.00  0.00     0.253 A 
ATOM     10  N   UNL     1      25.577 -11.110  14.123  1.00  0.00    -0.274 N 
ATOM     11  O   UNL     1      24.012 -12.476  15.037  1.00  0.00    -0.269 OA
ATOM     12  C   UNL     1      25.893 -10.029  13.357  1.00  0.00     0.330 A 
ATOM     13  H   UNL     1      26.342 -11.668  14.567  1.00  0.00     0.175 HD
ATOM     14  O   UNL     1      27.106  -9.714  13.212  1.00  0.00    -0.248 OA
ENDBRANCH   1   6
BRANCH   2  15
ATOM     15  O   UNL     1      22.884  -7.607  12.414  1.00  0.00    -0.386 OA
ATOM     16  H   UNL     1      22.383  -6.768  12.594  1.00  0.00     0.211 HD
ENDBRANCH   2  15
BRANCH   3  17
ATOM     17  O   UNL     1      22.875  -8.547   9.949  1.00  0.00    -0.387 OA
ATOM     18  H   UNL     1      23.278  -9.129   9.254  1.00  0.00     0.211 HD
ENDBRANCH   3  17
BRANCH   4  19
ATOM     19  C   UNL     1      25.950  -6.677   9.137  1.00  0.00     0.191 C 
BRANCH  19  20
ATOM     20  O   UNL     1      26.448  -6.947   7.855  1.00  0.00    -0.394 OA
ATOM     21  H   UNL     1      25.689  -7.299   7.322  1.00  0.00     0.210 HD
ENDBRANCH  19  20
ENDBRANCH   4  19
TORSDOF 5
ENDMDL
