MODEL 1
REMARK VINA RESULT:    -6.805      0.000      0.000
REMARK INTER + INTRA:          -9.045
REMARK INTER:                  -8.595
REMARK INTRA:                  -0.449
REMARK UNBOUND:                -0.449
REMARK SMILES Oc1cc(O)cc(CCc2ccccc2O)c1
REMARK SMILES IDX 9 1 10 2 12 3 13 4 11 5 14 6 15 7 16 8 8 10 7 11 6 12 17 13
REMARK SMILES IDX 4 14 2 15 3 16 5 17 1 19
REMARK H PARENT 16 9 5 18 1 20
REMARK Flexibility Score: inf
ROOT
ATOM      1  C   UNL     1       4.325 -13.110  -3.294  1.00  0.00     0.044 C 
ENDROOT
BRANCH   1   2
ATOM      2  C   UNL     1       3.558 -14.295  -2.757  1.00  0.00    -0.006 A 
ATOM      3  C   UNL     1       2.063 -16.170  -3.162  1.00  0.00     0.001 A 
ATOM      4  C   UNL     1       2.035 -16.450  -1.794  1.00  0.00     0.004 A 
ATOM      5  C   UNL     1       2.817 -15.096  -3.642  1.00  0.00     0.007 A 
ATOM      6  C   UNL     1       2.759 -15.656  -0.902  1.00  0.00     0.046 A 
ATOM      7  C   UNL     1       3.519 -14.575  -1.374  1.00  0.00     0.118 A 
BRANCH   7   8
ATOM      8  O   UNL     1       4.227 -13.780  -0.474  1.00  0.00    -0.508 OA
ATOM      9  H   UNL     1       4.290 -14.015   0.509  1.00  0.00     0.293 HD
ENDBRANCH   7   8
ENDBRANCH   1   2
BRANCH   1  10
ATOM     10  C   UNL     1       5.829 -13.401  -3.393  1.00  0.00     0.040 C 
BRANCH  10  11
ATOM     11  C   UNL     1       6.636 -12.492  -2.502  1.00  0.00    -0.040 A 
ATOM     12  C   UNL     1       7.487 -13.034  -1.526  1.00  0.00     0.050 A 
ATOM     13  C   UNL     1       6.493 -11.097  -2.594  1.00  0.00     0.050 A 
ATOM     14  C   UNL     1       8.197 -12.192  -0.659  1.00  0.00     0.119 A 
ATOM     15  C   UNL     1       7.200 -10.254  -1.726  1.00  0.00     0.119 A 
ATOM     16  C   UNL     1       8.053 -10.805  -0.764  1.00  0.00     0.092 A 
BRANCH  14  17
ATOM     17  O   UNL     1       9.045 -12.723   0.311  1.00  0.00    -0.508 OA
ATOM     18  H   UNL     1       9.756 -13.405   0.076  1.00  0.00     0.293 HD
ENDBRANCH  14  17
BRANCH  15  19
ATOM     19  O   UNL     1       7.060  -8.871  -1.810  1.00  0.00    -0.508 OA
ATOM     20  H   UNL     1       7.464  -8.344  -2.575  1.00  0.00     0.293 HD
ENDBRANCH  15  19
ENDBRANCH  10  11
ENDBRANCH   1  10
TORSDOF 6
ENDMDL
MODEL 2
REMARK VINA RESULT:    -6.776      0.077      2.032
REMARK INTER + INTRA:          -9.008
REMARK INTER:                  -8.591
REMARK INTRA:                  -0.417
REMARK UNBOUND:                -0.449
REMARK SMILES Oc1cc(O)cc(CCc2ccccc2O)c1
REMARK SMILES IDX 9 1 10 2 12 3 13 4 11 5 14 6 15 7 16 8 8 10 7 11 6 12 17 13
REMARK SMILES IDX 4 14 2 15 3 16 5 17 1 19
REMARK H PARENT 16 9 5 18 1 20
REMARK Flexibility Score: inf
ROOT
ATOM      1  C   UNL     1       4.260 -13.138  -3.255  1.00  0.00     0.044 C 
ENDROOT
BRANCH   1   2
ATOM      2  C   UNL     1       3.502 -14.327  -2.714  1.00  0.00    -0.006 A 
ATOM      3  C   UNL     1       2.030 -16.221  -3.113  1.00  0.00     0.001 A 
ATOM      4  C   UNL     1       1.995 -16.490  -1.744  1.00  0.00     0.004 A 
ATOM      5  C   UNL     1       2.776 -15.143  -3.597  1.00  0.00     0.007 A 
ATOM      6  C   UNL     1       2.704 -15.681  -0.853  1.00  0.00     0.046 A 
ATOM      7  C   UNL     1       3.456 -14.597  -1.328  1.00  0.00     0.118 A 
BRANCH   7   8
ATOM      8  O   UNL     1       4.149 -13.786  -0.430  1.00  0.00    -0.508 OA
ATOM      9  H   UNL     1       4.391 -14.108   0.499  1.00  0.00     0.293 HD
ENDBRANCH   7   8
ENDBRANCH   1   2
BRANCH   1  10
ATOM     10  C   UNL     1       5.770 -13.406  -3.321  1.00  0.00     0.040 C 
BRANCH  10  11
ATOM     11  C   UNL     1       6.542 -12.499  -2.397  1.00  0.00    -0.040 A 
ATOM     12  C   UNL     1       6.425 -11.105  -2.518  1.00  0.00     0.050 A 
ATOM     13  C   UNL     1       7.434 -13.037  -1.455  1.00  0.00     0.050 A 
ATOM     14  C   UNL     1       7.183 -10.258  -1.697  1.00  0.00     0.119 A 
ATOM     15  C   UNL     1       8.194 -12.191  -0.636  1.00  0.00     0.119 A 
ATOM     16  C   UNL     1       8.063 -10.804  -0.757  1.00  0.00     0.092 A 
BRANCH  14  17
ATOM     17  O   UNL     1       7.071  -8.873  -1.810  1.00  0.00    -0.508 OA
ATOM     18  H   UNL     1       7.716  -8.250  -1.340  1.00  0.00     0.293 HD
ENDBRANCH  14  17
BRANCH  15  19
ATOM     19  O   UNL     1       9.082 -12.719   0.299  1.00  0.00    -0.508 OA
ATOM     20  H   UNL     1       8.808 -12.868   1.263  1.00  0.00     0.293 HD
ENDBRANCH  15  19
ENDBRANCH  10  11
ENDBRANCH   1  10
TORSDOF 6
ENDMDL
MODEL 3
REMARK VINA RESULT:    -6.736      2.527      4.063
REMARK INTER + INTRA:          -8.957
REMARK INTER:                  -8.468
REMARK INTRA:                  -0.489
REMARK UNBOUND:                -0.449
REMARK SMILES Oc1cc(O)cc(CCc2ccccc2O)c1
REMARK SMILES IDX 9 1 10 2 12 3 13 4 11 5 14 6 15 7 16 8 8 10 7 11 6 12 17 13
REMARK SMILES IDX 4 14 2 15 3 16 5 17 1 19
REMARK H PARENT 16 9 5 18 1 20
REMARK Flexibility Score: inf
ROOT
ATOM      1  C   UNL     1       6.009 -12.769  -4.864  1.00  0.00     0.044 C 
ENDROOT
BRANCH   1   2
ATOM      2  C   UNL     1       4.594 -12.455  -5.289  1.00  0.00    -0.006 A 
ATOM      3  C   UNL     1       2.233 -13.040  -5.279  1.00  0.00     0.001 A 
ATOM      4  C   UNL     1       1.959 -11.969  -6.132  1.00  0.00     0.004 A 
ATOM      5  C   UNL     1       3.544 -13.285  -4.861  1.00  0.00     0.007 A 
ATOM      6  C   UNL     1       2.994 -11.142  -6.572  1.00  0.00     0.046 A 
ATOM      7  C   UNL     1       4.313 -11.379  -6.159  1.00  0.00     0.118 A 
BRANCH   7   8
ATOM      8  O   UNL     1       5.342 -10.555  -6.615  1.00  0.00    -0.508 OA
ATOM      9  H   UNL     1       6.287 -10.637  -6.258  1.00  0.00     0.293 HD
ENDBRANCH   7   8
ENDBRANCH   1   2
BRANCH   1  10
ATOM     10  C   UNL     1       6.058 -13.399  -3.465  1.00  0.00     0.040 C 
BRANCH  10  11
ATOM     11  C   UNL     1       6.725 -12.489  -2.464  1.00  0.00    -0.040 A 
ATOM     12  C   UNL     1       6.566 -11.098  -2.560  1.00  0.00     0.050 A 
ATOM     13  C   UNL     1       7.564 -13.021  -1.471  1.00  0.00     0.050 A 
ATOM     14  C   UNL     1       7.229 -10.247  -1.665  1.00  0.00     0.119 A 
ATOM     15  C   UNL     1       8.230 -12.171  -0.577  1.00  0.00     0.119 A 
ATOM     16  C   UNL     1       8.056 -10.787  -0.675  1.00  0.00     0.092 A 
BRANCH  14  17
ATOM     17  O   UNL     1       7.074  -8.865  -1.753  1.00  0.00    -0.508 OA
ATOM     18  H   UNL     1       6.560  -8.344  -1.052  1.00  0.00     0.293 HD
ENDBRANCH  14  17
BRANCH  15  19
ATOM     19  O   UNL     1       9.065 -12.691   0.408  1.00  0.00    -0.508 OA
ATOM     20  H   UNL     1       9.161 -13.690   0.547  1.00  0.00     0.293 HD
ENDBRANCH  15  19
ENDBRANCH  10  11
ENDBRANCH   1  10
TORSDOF 6
ENDMDL
MODEL 4
REMARK VINA RESULT:    -6.712      2.427      3.483
REMARK INTER + INTRA:          -8.927
REMARK INTER:                  -8.429
REMARK INTRA:                  -0.499
REMARK UNBOUND:                -0.449
REMARK SMILES Oc1cc(O)cc(CCc2ccccc2O)c1
REMARK SMILES IDX 9 1 10 2 12 3 13 4 11 5 14 6 15 7 16 8 8 10 7 11 6 12 17 13
REMARK SMILES IDX 4 14 2 15 3 16 5 17 1 19
REMARK H PARENT 16 9 5 18 1 20
REMARK Flexibility Score: inf
ROOT
ATOM      1  C   UNL     1       5.761 -13.019  -4.743  1.00  0.00     0.044 C 
ENDROOT
BRANCH   1   2
ATOM      2  C   UNL     1       4.401 -12.587  -5.238  1.00  0.00    -0.006 A 
ATOM      3  C   UNL     1       2.005 -12.983  -5.367  1.00  0.00     0.001 A 
ATOM      4  C   UNL     1       1.863 -11.882  -6.214  1.00  0.00     0.004 A 
ATOM      5  C   UNL     1       3.267 -13.337  -4.883  1.00  0.00     0.007 A 
ATOM      6  C   UNL     1       2.983 -11.133  -6.581  1.00  0.00     0.046 A 
ATOM      7  C   UNL     1       4.254 -11.480  -6.102  1.00  0.00     0.118 A 
BRANCH   7   8
ATOM      8  O   UNL     1       5.368 -10.735  -6.486  1.00  0.00    -0.508 OA
ATOM      9  H   UNL     1       5.505 -10.438  -7.445  1.00  0.00     0.293 HD
ENDBRANCH   7   8
ENDBRANCH   1   2
BRANCH   1  10
ATOM     10  C   UNL     1       5.729 -13.417  -3.261  1.00  0.00     0.040 C 
BRANCH  10  11
ATOM     11  C   UNL     1       6.576 -12.501  -2.416  1.00  0.00    -0.040 A 
ATOM     12  C   UNL     1       7.454 -13.034  -1.458  1.00  0.00     0.050 A 
ATOM     13  C   UNL     1       6.446 -11.107  -2.531  1.00  0.00     0.050 A 
ATOM     14  C   UNL     1       8.202 -12.183  -0.633  1.00  0.00     0.119 A 
ATOM     15  C   UNL     1       7.192 -10.255  -1.705  1.00  0.00     0.119 A 
ATOM     16  C   UNL     1       8.071 -10.797  -0.761  1.00  0.00     0.092 A 
BRANCH  14  17
ATOM     17  O   UNL     1       9.076 -12.705   0.319  1.00  0.00    -0.508 OA
ATOM     18  H   UNL     1       8.772 -13.398   0.993  1.00  0.00     0.293 HD
ENDBRANCH  14  17
BRANCH  15  19
ATOM     19  O   UNL     1       7.065  -8.872  -1.812  1.00  0.00    -0.508 OA
ATOM     20  H   UNL     1       7.819  -8.299  -2.171  1.00  0.00     0.293 HD
ENDBRANCH  15  19
ENDBRANCH  10  11
ENDBRANCH   1  10
TORSDOF 6
ENDMDL
MODEL 5
REMARK VINA RESULT:    -6.501      2.565      5.964
REMARK INTER + INTRA:          -8.661
REMARK INTER:                  -8.154
REMARK INTRA:                  -0.507
REMARK UNBOUND:                -0.449
REMARK SMILES Oc1cc(O)cc(CCc2ccccc2O)c1
REMARK SMILES IDX 9 1 10 2 12 3 13 4 11 5 14 6 15 7 16 8 8 10 7 11 6 12 17 13
REMARK SMILES IDX 4 14 2 15 3 16 5 17 1 19
REMARK H PARENT 16 9 5 18 1 20
REMARK Flexibility Score: inf
ROOT
ATOM      1  C   UNL     1       7.031 -13.369  -1.790  1.00  0.00     0.044 C 
ENDROOT
BRANCH   1   2
ATOM      2  C   UNL     1       7.316 -12.011  -1.194  1.00  0.00    -0.006 A 
ATOM      3  C   UNL     1       6.836  -9.628  -1.105  1.00  0.00     0.001 A 
ATOM      4  C   UNL     1       7.873  -9.448  -0.187  1.00  0.00     0.004 A 
ATOM      5  C   UNL     1       6.560 -10.902  -1.609  1.00  0.00     0.007 A 
ATOM      6  C   UNL     1       8.637 -10.540   0.228  1.00  0.00     0.046 A 
ATOM      7  C   UNL     1       8.369 -11.823  -0.272  1.00  0.00     0.118 A 
BRANCH   7   8
ATOM      8  O   UNL     1       9.148 -12.905   0.137  1.00  0.00    -0.508 OA
ATOM      9  H   UNL     1       9.298 -13.708  -0.460  1.00  0.00     0.293 HD
ENDBRANCH   7   8
ENDBRANCH   1   2
BRANCH   1  10
ATOM     10  C   UNL     1       7.283 -13.391  -3.305  1.00  0.00     0.040 C 
BRANCH  10  11
ATOM     11  C   UNL     1       6.042 -13.040  -4.085  1.00  0.00    -0.040 A 
ATOM     12  C   UNL     1       6.115 -12.139  -5.159  1.00  0.00     0.050 A 
ATOM     13  C   UNL     1       4.793 -13.558  -3.702  1.00  0.00     0.050 A 
ATOM     14  C   UNL     1       4.954 -11.768  -5.851  1.00  0.00     0.119 A 
ATOM     15  C   UNL     1       3.631 -13.186  -4.392  1.00  0.00     0.119 A 
ATOM     16  C   UNL     1       3.716 -12.295  -5.467  1.00  0.00     0.092 A 
BRANCH  14  17
ATOM     17  O   UNL     1       5.019 -10.875  -6.919  1.00  0.00    -0.508 OA
ATOM     18  H   UNL     1       4.461 -10.030  -6.937  1.00  0.00     0.293 HD
ENDBRANCH  14  17
BRANCH  15  19
ATOM     19  O   UNL     1       2.390 -13.693  -4.016  1.00  0.00    -0.508 OA
ATOM     20  H   UNL     1       2.108 -13.736  -3.044  1.00  0.00     0.293 HD
ENDBRANCH  15  19
ENDBRANCH  10  11
ENDBRANCH   1  10
TORSDOF 6
ENDMDL
MODEL 6
REMARK VINA RESULT:    -6.446      2.368      5.829
REMARK INTER + INTRA:          -8.591
REMARK INTER:                  -8.188
REMARK INTRA:                  -0.403
REMARK UNBOUND:                -0.449
REMARK SMILES Oc1cc(O)cc(CCc2ccccc2O)c1
REMARK SMILES IDX 9 1 10 2 12 3 13 4 11 5 14 6 15 7 16 8 8 10 7 11 6 12 17 13
REMARK SMILES IDX 4 14 2 15 3 16 5 17 1 19
REMARK H PARENT 16 9 5 18 1 20
REMARK Flexibility Score: inf
ROOT
ATOM      1  C   UNL     1       7.247 -13.293  -2.134  1.00  0.00     0.044 C 
ENDROOT
BRANCH   1   2
ATOM      2  C   UNL     1       7.445 -11.983  -1.410  1.00  0.00    -0.006 A 
ATOM      3  C   UNL     1       6.936  -9.613  -1.209  1.00  0.00     0.001 A 
ATOM      4  C   UNL     1       7.852  -9.500  -0.161  1.00  0.00     0.004 A 
ATOM      5  C   UNL     1       6.735 -10.846  -1.833  1.00  0.00     0.007 A 
ATOM      6  C   UNL     1       8.571 -10.619   0.263  1.00  0.00     0.046 A 
ATOM      7  C   UNL     1       8.377 -11.862  -0.357  1.00  0.00     0.118 A 
BRANCH   7   8
ATOM      8  O   UNL     1       9.110 -12.970   0.065  1.00  0.00    -0.508 OA
ATOM      9  H   UNL     1       9.598 -12.979   0.952  1.00  0.00     0.293 HD
ENDBRANCH   7   8
ENDBRANCH   1   2
BRANCH   1  10
ATOM     10  C   UNL     1       7.172 -13.101  -3.655  1.00  0.00     0.040 C 
BRANCH  10  11
ATOM     11  C   UNL     1       5.753 -12.906  -4.126  1.00  0.00    -0.040 A 
ATOM     12  C   UNL     1       4.713 -13.662  -3.564  1.00  0.00     0.050 A 
ATOM     13  C   UNL     1       5.471 -12.018  -5.177  1.00  0.00     0.050 A 
ATOM     14  C   UNL     1       3.401 -13.523  -4.038  1.00  0.00     0.119 A 
ATOM     15  C   UNL     1       4.160 -11.880  -5.654  1.00  0.00     0.119 A 
ATOM     16  C   UNL     1       3.129 -12.630  -5.080  1.00  0.00     0.092 A 
BRANCH  14  17
ATOM     17  O   UNL     1       2.363 -14.269  -3.483  1.00  0.00    -0.508 OA
ATOM     18  H   UNL     1       2.415 -15.278  -3.414  1.00  0.00     0.293 HD
ENDBRANCH  14  17
BRANCH  15  19
ATOM     19  O   UNL     1       3.873 -11.003  -6.697  1.00  0.00    -0.508 OA
ATOM     20  H   UNL     1       4.572 -10.753  -7.386  1.00  0.00     0.293 HD
ENDBRANCH  15  19
ENDBRANCH  10  11
ENDBRANCH   1  10
TORSDOF 6
ENDMDL
MODEL 7
REMARK VINA RESULT:    -6.315      4.354      6.377
REMARK INTER + INTRA:          -8.426
REMARK INTER:                  -7.968
REMARK INTRA:                  -0.458
REMARK UNBOUND:                -0.449
REMARK SMILES Oc1cc(O)cc(CCc2ccccc2O)c1
REMARK SMILES IDX 9 1 10 2 12 3 13 4 11 5 14 6 15 7 16 8 8 10 7 11 6 12 17 13
REMARK SMILES IDX 4 14 2 15 3 16 5 17 1 19
REMARK H PARENT 16 9 5 18 1 20
REMARK Flexibility Score: inf
ROOT
ATOM      1  C   UNL     1       4.456 -12.869  -5.557  1.00  0.00     0.044 C 
ENDROOT
BRANCH   1   2
ATOM      2  C   UNL     1       5.259 -13.041  -4.290  1.00  0.00    -0.006 A 
ATOM      3  C   UNL     1       7.407 -13.436  -3.218  1.00  0.00     0.001 A 
ATOM      4  C   UNL     1       6.784 -13.464  -1.968  1.00  0.00     0.004 A 
ATOM      5  C   UNL     1       6.649 -13.229  -4.373  1.00  0.00     0.007 A 
ATOM      6  C   UNL     1       5.402 -13.289  -1.871  1.00  0.00     0.046 A 
ATOM      7  C   UNL     1       4.632 -13.080  -3.025  1.00  0.00     0.118 A 
BRANCH   7   8
ATOM      8  O   UNL     1       3.251 -12.920  -2.919  1.00  0.00    -0.508 OA
ATOM      9  H   UNL     1       2.819 -12.004  -2.930  1.00  0.00     0.293 HD
ENDBRANCH   7   8
ENDBRANCH   1   2
BRANCH   1  10
ATOM     10  C   UNL     1       4.676 -11.488  -6.190  1.00  0.00     0.040 C 
BRANCH  10  11
ATOM     11  C   UNL     1       3.373 -10.788  -6.477  1.00  0.00    -0.040 A 
ATOM     12  C   UNL     1       2.177 -11.521  -6.539  1.00  0.00     0.050 A 
ATOM     13  C   UNL     1       3.352  -9.411  -6.752  1.00  0.00     0.050 A 
ATOM     14  C   UNL     1       0.971 -10.882  -6.860  1.00  0.00     0.119 A 
ATOM     15  C   UNL     1       2.148  -8.771  -7.075  1.00  0.00     0.119 A 
ATOM     16  C   UNL     1       0.960  -9.509  -7.124  1.00  0.00     0.092 A 
BRANCH  14  17
ATOM     17  O   UNL     1      -0.220 -11.603  -6.921  1.00  0.00    -0.508 OA
ATOM     18  H   UNL     1      -0.408 -12.250  -7.677  1.00  0.00     0.293 HD
ENDBRANCH  14  17
BRANCH  15  19
ATOM     19  O   UNL     1       2.121  -7.407  -7.351  1.00  0.00    -0.508 OA
ATOM     20  H   UNL     1       1.300  -6.844  -7.160  1.00  0.00     0.293 HD
ENDBRANCH  15  19
ENDBRANCH  10  11
ENDBRANCH   1  10
TORSDOF 6
ENDMDL
MODEL 8
REMARK VINA RESULT:    -6.301      4.498      6.250
REMARK INTER + INTRA:          -8.408
REMARK INTER:                  -7.861
REMARK INTRA:                  -0.547
REMARK UNBOUND:                -0.449
REMARK SMILES Oc1cc(O)cc(CCc2ccccc2O)c1
REMARK SMILES IDX 9 1 10 2 12 3 13 4 11 5 14 6 15 7 16 8 8 10 7 11 6 12 17 13
REMARK SMILES IDX 4 14 2 15 3 16 5 17 1 19
REMARK H PARENT 16 9 5 18 1 20
REMARK Flexibility Score: inf
ROOT
ATOM      1  C   UNL     1       3.782 -11.402  -4.364  1.00  0.00     0.044 C 
ENDROOT
BRANCH   1   2
ATOM      2  C   UNL     1       5.001 -12.070  -3.772  1.00  0.00    -0.006 A 
ATOM      3  C   UNL     1       7.093 -13.266  -4.102  1.00  0.00     0.001 A 
ATOM      4  C   UNL     1       7.236 -13.408  -2.721  1.00  0.00     0.004 A 
ATOM      5  C   UNL     1       5.980 -12.604  -4.627  1.00  0.00     0.007 A 
ATOM      6  C   UNL     1       6.266 -12.890  -1.860  1.00  0.00     0.046 A 
ATOM      7  C   UNL     1       5.145 -12.223  -2.376  1.00  0.00     0.118 A 
BRANCH   7   8
ATOM      8  O   UNL     1       4.175 -11.723  -1.508  1.00  0.00    -0.508 OA
ATOM      9  H   UNL     1       3.763 -10.807  -1.642  1.00  0.00     0.293 HD
ENDBRANCH   7   8
ENDBRANCH   1   2
BRANCH   1  10
ATOM     10  C   UNL     1       3.631 -11.713  -5.859  1.00  0.00     0.040 C 
BRANCH  10  11
ATOM     11  C   UNL     1       3.640 -10.459  -6.696  1.00  0.00    -0.040 A 
ATOM     12  C   UNL     1       4.814  -9.699  -6.815  1.00  0.00     0.050 A 
ATOM     13  C   UNL     1       2.460 -10.006  -7.308  1.00  0.00     0.050 A 
ATOM     14  C   UNL     1       4.812  -8.504  -7.547  1.00  0.00     0.119 A 
ATOM     15  C   UNL     1       2.456  -8.809  -8.038  1.00  0.00     0.119 A 
ATOM     16  C   UNL     1       3.633  -8.065  -8.159  1.00  0.00     0.092 A 
BRANCH  14  17
ATOM     17  O   UNL     1       5.974  -7.745  -7.671  1.00  0.00    -0.508 OA
ATOM     18  H   UNL     1       6.825  -8.139  -8.053  1.00  0.00     0.293 HD
ENDBRANCH  14  17
BRANCH  15  19
ATOM     19  O   UNL     1       1.288  -8.352  -8.644  1.00  0.00    -0.508 OA
ATOM     20  H   UNL     1       0.453  -8.924  -8.681  1.00  0.00     0.293 HD
ENDBRANCH  15  19
ENDBRANCH  10  11
ENDBRANCH   1  10
TORSDOF 6
ENDMDL
MODEL 9
REMARK VINA RESULT:    -6.298      3.689      6.241
REMARK INTER + INTRA:          -8.404
REMARK INTER:                  -7.973
REMARK INTRA:                  -0.431
REMARK UNBOUND:                -0.449
REMARK SMILES Oc1cc(O)cc(CCc2ccccc2O)c1
REMARK SMILES IDX 9 1 10 2 12 3 13 4 11 5 14 6 15 7 16 8 8 10 7 11 6 12 17 13
REMARK SMILES IDX 4 14 2 15 3 16 5 17 1 19
REMARK H PARENT 16 9 5 18 1 20
REMARK Flexibility Score: inf
ROOT
ATOM      1  C   UNL     1       6.286 -12.638  -4.826  1.00  0.00     0.044 C 
ENDROOT
BRANCH   1   2
ATOM      2  C   UNL     1       6.853 -12.590  -3.427  1.00  0.00    -0.006 A 
ATOM      3  C   UNL     1       7.978 -13.721  -1.592  1.00  0.00     0.001 A 
ATOM      4  C   UNL     1       7.835 -12.583  -0.795  1.00  0.00     0.004 A 
ATOM      5  C   UNL     1       7.487 -13.727  -2.900  1.00  0.00     0.007 A 
ATOM      6  C   UNL     1       7.198 -11.449  -1.304  1.00  0.00     0.046 A 
ATOM      7  C   UNL     1       6.701 -11.445  -2.615  1.00  0.00     0.118 A 
BRANCH   7   8
ATOM      8  O   UNL     1       6.054 -10.312  -3.108  1.00  0.00    -0.508 OA
ATOM      9  H   UNL     1       6.570  -9.505  -3.435  1.00  0.00     0.293 HD
ENDBRANCH   7   8
ENDBRANCH   1   2
BRANCH   1  10
ATOM     10  C   UNL     1       4.760 -12.809  -4.819  1.00  0.00     0.040 C 
BRANCH  10  11
ATOM     11  C   UNL     1       4.083 -11.847  -5.762  1.00  0.00    -0.040 A 
ATOM     12  C   UNL     1       4.838 -10.878  -6.443  1.00  0.00     0.050 A 
ATOM     13  C   UNL     1       2.688 -11.868  -5.916  1.00  0.00     0.050 A 
ATOM     14  C   UNL     1       4.205  -9.948  -7.278  1.00  0.00     0.119 A 
ATOM     15  C   UNL     1       2.053 -10.936  -6.748  1.00  0.00     0.119 A 
ATOM     16  C   UNL     1       2.815  -9.982  -7.430  1.00  0.00     0.092 A 
BRANCH  14  17
ATOM     17  O   UNL     1       4.947  -8.984  -7.959  1.00  0.00    -0.508 OA
ATOM     18  H   UNL     1       5.108  -8.065  -7.565  1.00  0.00     0.293 HD
ENDBRANCH  14  17
BRANCH  15  19
ATOM     19  O   UNL     1       0.669 -10.949  -6.903  1.00  0.00    -0.508 OA
ATOM     20  H   UNL     1       0.079 -10.265  -6.445  1.00  0.00     0.293 HD
ENDBRANCH  15  19
ENDBRANCH  10  11
ENDBRANCH   1  10
TORSDOF 6
ENDMDL
