MODEL 1
REMARK VINA RESULT:    -7.190      0.000      0.000
REMARK INTER + INTRA:          -7.190
REMARK INTER:                  -7.190
REMARK INTRA:                   0.000
REMARK UNBOUND:                 0.000
REMARK SMILES C=C1CCC[C@]2(C)CC(=O)C(=C(C)C)C[C@H]12
REMARK SMILES IDX 13 1 12 2 11 3 15 4 16 5 2 6 1 7 3 8 4 9 5 10 6 11 8 12 9 13
REMARK SMILES IDX 10 14 7 15 14 16
REMARK H PARENT
REMARK Flexibility Score: inf
ROOT
ATOM      1  C   UNL     1      -7.309  28.559  41.955  1.00  0.00     0.039 C 
ATOM      2  C   UNL     1      -8.258  29.468  41.210  1.00  0.00    -0.070 C 
ATOM      3  C   UNL     1      -8.931  30.470  41.849  1.00  0.00    -0.006 C 
ATOM      4  C   UNL     1      -9.823  31.456  41.118  1.00  0.00     0.047 C 
ATOM      5  C   UNL     1      -9.572  32.946  41.514  1.00  0.00     0.025 C 
ATOM      6  C   UNL     1      -8.988  33.717  40.341  1.00  0.00    -0.073 C 
ATOM      7  C   UNL     1      -9.794  34.323  39.453  1.00  0.00     0.008 C 
ATOM      8  C   UNL     1      -7.501  33.666  40.102  1.00  0.00     0.031 C 
ATOM      9  C   UNL     1      -6.752  34.024  41.382  1.00  0.00     0.005 C 
ATOM     10  C   UNL     1      -7.184  33.119  42.542  1.00  0.00     0.008 C 
ATOM     11  C   UNL     1      -8.723  33.160  42.823  1.00  0.00    -0.018 C 
ATOM     12  C   UNL     1      -9.083  32.065  43.862  1.00  0.00     0.088 C 
ATOM     13  C   UNL     1      -8.856  30.686  43.316  1.00  0.00     0.159 C 
ATOM     14  O   UNL     1      -8.687  29.729  44.118  1.00  0.00    -0.295 OA
ATOM     15  C   UNL     1      -9.086  34.534  43.446  1.00  0.00     0.012 C 
ATOM     16  C   UNL     1      -8.394  29.254  39.721  1.00  0.00     0.039 C 
ENDROOT
TORSDOF 0
ENDMDL
MODEL 2
REMARK VINA RESULT:    -6.044     17.956     20.532
REMARK INTER + INTRA:          -6.044
REMARK INTER:                  -6.044
REMARK INTRA:                   0.000
REMARK UNBOUND:                 0.000
REMARK SMILES C=C1CCC[C@]2(C)CC(=O)C(=C(C)C)C[C@H]12
REMARK SMILES IDX 13 1 12 2 11 3 15 4 16 5 2 6 1 7 3 8 4 9 5 10 6 11 8 12 9 13
REMARK SMILES IDX 10 14 7 15 14 16
REMARK H PARENT
REMARK Flexibility Score: inf
ROOT
ATOM      1  C   UNL     1      -0.830  17.496  50.144  1.00  0.00     0.039 C 
ATOM      2  C   UNL     1      -2.115  16.804  50.530  1.00  0.00    -0.070 C 
ATOM      3  C   UNL     1      -2.152  15.878  51.532  1.00  0.00    -0.006 C 
ATOM      4  C   UNL     1      -3.438  15.228  52.005  1.00  0.00     0.047 C 
ATOM      5  C   UNL     1      -3.604  15.214  53.558  1.00  0.00     0.025 C 
ATOM      6  C   UNL     1      -4.756  16.113  53.978  1.00  0.00    -0.073 C 
ATOM      7  C   UNL     1      -6.005  15.626  54.064  1.00  0.00     0.008 C 
ATOM      8  C   UNL     1      -4.505  17.590  54.149  1.00  0.00     0.031 C 
ATOM      9  C   UNL     1      -3.310  17.815  55.069  1.00  0.00     0.005 C 
ATOM     10  C   UNL     1      -2.072  17.073  54.552  1.00  0.00     0.008 C 
ATOM     11  C   UNL     1      -2.297  15.533  54.377  1.00  0.00    -0.018 C 
ATOM     12  C   UNL     1      -1.068  14.915  53.659  1.00  0.00     0.088 C 
ATOM     13  C   UNL     1      -0.936  15.419  52.252  1.00  0.00     0.159 C 
ATOM     14  O   UNL     1       0.188  15.367  51.685  1.00  0.00    -0.295 OA
ATOM     15  C   UNL     1      -2.401  14.876  55.778  1.00  0.00     0.012 C 
ATOM     16  C   UNL     1      -3.369  17.213  49.793  1.00  0.00     0.039 C 
ENDROOT
TORSDOF 0
ENDMDL
MODEL 3
REMARK VINA RESULT:    -5.363     18.629     19.941
REMARK INTER + INTRA:          -5.363
REMARK INTER:                  -5.363
REMARK INTRA:                   0.000
REMARK UNBOUND:                 0.000
REMARK SMILES C=C1CCC[C@]2(C)CC(=O)C(=C(C)C)C[C@H]12
REMARK SMILES IDX 13 1 12 2 11 3 15 4 16 5 2 6 1 7 3 8 4 9 5 10 6 11 8 12 9 13
REMARK SMILES IDX 10 14 7 15 14 16
REMARK H PARENT
REMARK Flexibility Score: inf
ROOT
ATOM      1  C   UNL     1       0.408  15.439  49.499  1.00  0.00     0.039 C 
ATOM      2  C   UNL     1       0.087  16.537  50.485  1.00  0.00    -0.070 C 
ATOM      3  C   UNL     1      -1.198  16.939  50.710  1.00  0.00    -0.006 C 
ATOM      4  C   UNL     1      -1.564  17.975  51.756  1.00  0.00     0.047 C 
ATOM      5  C   UNL     1      -2.761  17.556  52.666  1.00  0.00     0.025 C 
ATOM      6  C   UNL     1      -2.292  17.338  54.096  1.00  0.00    -0.073 C 
ATOM      7  C   UNL     1      -2.273  18.357  54.972  1.00  0.00     0.008 C 
ATOM      8  C   UNL     1      -1.705  16.002  54.476  1.00  0.00     0.031 C 
ATOM      9  C   UNL     1      -2.651  14.879  54.064  1.00  0.00     0.005 C 
ATOM     10  C   UNL     1      -2.984  14.962  52.569  1.00  0.00     0.008 C 
ATOM     11  C   UNL     1      -3.607  16.334  52.146  1.00  0.00    -0.018 C 
ATOM     12  C   UNL     1      -3.711  16.393  50.599  1.00  0.00     0.088 C 
ATOM     13  C   UNL     1      -2.356  16.401  49.952  1.00  0.00     0.159 C 
ATOM     14  O   UNL     1      -2.246  16.027  48.754  1.00  0.00    -0.295 OA
ATOM     15  C   UNL     1      -5.046  16.431  52.715  1.00  0.00     0.012 C 
ATOM     16  C   UNL     1       1.244  17.138  51.248  1.00  0.00     0.039 C 
ENDROOT
TORSDOF 0
ENDMDL
MODEL 4
REMARK VINA RESULT:    -5.229     17.591     19.921
REMARK INTER + INTRA:          -5.229
REMARK INTER:                  -5.229
REMARK INTRA:                   0.000
REMARK UNBOUND:                 0.000
REMARK SMILES C=C1CCC[C@]2(C)CC(=O)C(=C(C)C)C[C@H]12
REMARK SMILES IDX 13 1 12 2 11 3 15 4 16 5 2 6 1 7 3 8 4 9 5 10 6 11 8 12 9 13
REMARK SMILES IDX 10 14 7 15 14 16
REMARK H PARENT
REMARK Flexibility Score: inf
ROOT
ATOM      1  C   UNL     1      -4.705  17.468  54.669  1.00  0.00     0.039 C 
ATOM      2  C   UNL     1      -3.237  17.205  54.431  1.00  0.00    -0.070 C 
ATOM      3  C   UNL     1      -2.819  16.276  53.522  1.00  0.00    -0.006 C 
ATOM      4  C   UNL     1      -1.355  16.047  53.195  1.00  0.00     0.047 C 
ATOM      5  C   UNL     1      -1.055  15.985  51.664  1.00  0.00     0.025 C 
ATOM      6  C   UNL     1      -0.213  17.178  51.237  1.00  0.00    -0.073 C 
ATOM      7  C   UNL     1       1.128  17.116  51.276  1.00  0.00     0.008 C 
ATOM      8  C   UNL     1      -0.903  18.479  50.916  1.00  0.00     0.031 C 
ATOM      9  C   UNL     1      -2.020  18.243  49.904  1.00  0.00     0.005 C 
ATOM     10  C   UNL     1      -3.001  17.177  50.406  1.00  0.00     0.008 C 
ATOM     11  C   UNL     1      -2.315  15.808  50.736  1.00  0.00    -0.018 C 
ATOM     12  C   UNL     1      -3.344  14.875  51.428  1.00  0.00     0.088 C 
ATOM     13  C   UNL     1      -3.755  15.402  52.771  1.00  0.00     0.159 C 
ATOM     14  O   UNL     1      -4.852  15.027  53.268  1.00  0.00    -0.295 OA
ATOM     15  C   UNL     1      -1.882  15.128  49.412  1.00  0.00     0.012 C 
ATOM     16  C   UNL     1      -2.250  18.046  55.206  1.00  0.00     0.039 C 
ENDROOT
TORSDOF 0
ENDMDL
MODEL 5
REMARK VINA RESULT:    -4.809      1.990      3.644
REMARK INTER + INTRA:          -4.809
REMARK INTER:                  -4.809
REMARK INTRA:                   0.000
REMARK UNBOUND:                 0.000
REMARK SMILES C=C1CCC[C@]2(C)CC(=O)C(=C(C)C)C[C@H]12
REMARK SMILES IDX 13 1 12 2 11 3 15 4 16 5 2 6 1 7 3 8 4 9 5 10 6 11 8 12 9 13
REMARK SMILES IDX 10 14 7 15 14 16
REMARK H PARENT
REMARK Flexibility Score: inf
ROOT
ATOM      1  C   UNL     1      -9.543  27.896  40.950  1.00  0.00     0.039 C 
ATOM      2  C   UNL     1      -8.525  28.898  41.442  1.00  0.00    -0.070 C 
ATOM      3  C   UNL     1      -7.956  29.807  40.597  1.00  0.00    -0.006 C 
ATOM      4  C   UNL     1      -6.998  30.883  41.072  1.00  0.00     0.047 C 
ATOM      5  C   UNL     1      -7.325  32.306  40.519  1.00  0.00     0.025 C 
ATOM      6  C   UNL     1      -7.770  33.226  41.645  1.00  0.00    -0.073 C 
ATOM      7  C   UNL     1      -6.870  33.945  42.336  1.00  0.00     0.008 C 
ATOM      8  C   UNL     1      -9.215  33.204  42.076  1.00  0.00     0.031 C 
ATOM      9  C   UNL     1     -10.125  33.388  40.866  1.00  0.00     0.005 C 
ATOM     10  C   UNL     1      -9.826  32.338  39.790  1.00  0.00     0.008 C 
ATOM     11  C   UNL     1      -8.335  32.344  39.311  1.00  0.00    -0.018 C 
ATOM     12  C   UNL     1      -8.089  31.121  38.388  1.00  0.00     0.088 C 
ATOM     13  C   UNL     1      -8.219  29.827  39.136  1.00  0.00     0.159 C 
ATOM     14  O   UNL     1      -8.471  28.771  38.494  1.00  0.00    -0.295 OA
ATOM     15  C   UNL     1      -8.080  33.623  38.473  1.00  0.00     0.012 C 
ATOM     16  C   UNL     1      -8.198  28.884  42.916  1.00  0.00     0.039 C 
ENDROOT
TORSDOF 0
ENDMDL
MODEL 6
REMARK VINA RESULT:    -4.604     17.918     19.529
REMARK INTER + INTRA:          -4.604
REMARK INTER:                  -4.604
REMARK INTRA:                   0.000
REMARK UNBOUND:                 0.000
REMARK SMILES C=C1CCC[C@]2(C)CC(=O)C(=C(C)C)C[C@H]12
REMARK SMILES IDX 13 1 12 2 11 3 15 4 16 5 2 6 1 7 3 8 4 9 5 10 6 11 8 12 9 13
REMARK SMILES IDX 10 14 7 15 14 16
REMARK H PARENT
REMARK Flexibility Score: inf
ROOT
ATOM      1  C   UNL     1      -0.105  16.390  45.997  1.00  0.00     0.039 C 
ATOM      2  C   UNL     1      -1.166  15.871  46.939  1.00  0.00    -0.070 C 
ATOM      3  C   UNL     1      -0.839  15.325  48.147  1.00  0.00    -0.006 C 
ATOM      4  C   UNL     1      -1.880  14.875  49.154  1.00  0.00     0.047 C 
ATOM      5  C   UNL     1      -1.605  15.372  50.609  1.00  0.00     0.025 C 
ATOM      6  C   UNL     1      -2.671  16.367  51.042  1.00  0.00    -0.073 C 
ATOM      7  C   UNL     1      -3.798  15.943  51.638  1.00  0.00     0.008 C 
ATOM      8  C   UNL     1      -2.516  17.816  50.657  1.00  0.00     0.031 C 
ATOM      9  C   UNL     1      -1.137  18.322  51.068  1.00  0.00     0.005 C 
ATOM     10  C   UNL     1      -0.030  17.443  50.474  1.00  0.00     0.008 C 
ATOM     11  C   UNL     1      -0.156  15.933  50.867  1.00  0.00    -0.018 C 
ATOM     12  C   UNL     1       0.875  15.105  50.055  1.00  0.00     0.088 C 
ATOM     13  C   UNL     1       0.565  15.119  48.587  1.00  0.00     0.159 C 
ATOM     14  O   UNL     1       1.487  14.877  47.763  1.00  0.00    -0.295 OA
ATOM     15  C   UNL     1       0.192  15.771  52.369  1.00  0.00     0.012 C 
ATOM     16  C   UNL     1      -2.606  16.025  46.510  1.00  0.00     0.039 C 
ENDROOT
TORSDOF 0
ENDMDL
MODEL 7
REMARK VINA RESULT:    -4.517     17.855     20.025
REMARK INTER + INTRA:          -4.517
REMARK INTER:                  -4.517
REMARK INTRA:                   0.000
REMARK UNBOUND:                 0.000
REMARK SMILES C=C1CCC[C@]2(C)CC(=O)C(=C(C)C)C[C@H]12
REMARK SMILES IDX 13 1 12 2 11 3 15 4 16 5 2 6 1 7 3 8 4 9 5 10 6 11 8 12 9 13
REMARK SMILES IDX 10 14 7 15 14 16
REMARK H PARENT
REMARK Flexibility Score: inf
ROOT
ATOM      1  C   UNL     1      -4.445  14.900  55.890  1.00  0.00     0.039 C 
ATOM      2  C   UNL     1      -4.821  15.582  54.596  1.00  0.00    -0.070 C 
ATOM      3  C   UNL     1      -4.089  16.623  54.101  1.00  0.00    -0.006 C 
ATOM      4  C   UNL     1      -4.385  17.273  52.763  1.00  0.00     0.047 C 
ATOM      5  C   UNL     1      -3.123  17.473  51.866  1.00  0.00     0.025 C 
ATOM      6  C   UNL     1      -3.201  16.586  50.632  1.00  0.00    -0.073 C 
ATOM      7  C   UNL     1      -3.793  17.029  49.510  1.00  0.00     0.008 C 
ATOM      8  C   UNL     1      -2.743  15.154  50.733  1.00  0.00     0.031 C 
ATOM      9  C   UNL     1      -1.339  15.094  51.327  1.00  0.00     0.005 C 
ATOM     10  C   UNL     1      -1.283  15.816  52.678  1.00  0.00     0.008 C 
ATOM     11  C   UNL     1      -1.741  17.311  52.604  1.00  0.00    -0.018 C 
ATOM     12  C   UNL     1      -1.847  17.886  54.041  1.00  0.00     0.088 C 
ATOM     13  C   UNL     1      -2.937  17.217  54.826  1.00  0.00     0.159 C 
ATOM     14  O   UNL     1      -2.891  17.244  56.086  1.00  0.00    -0.295 OA
ATOM     15  C   UNL     1      -0.662  18.133  51.850  1.00  0.00     0.012 C 
ATOM     16  C   UNL     1      -6.013  15.033  53.847  1.00  0.00     0.039 C 
ENDROOT
TORSDOF 0
ENDMDL
