MODEL 1
REMARK VINA RESULT:    -3.248      0.000      0.000
REMARK INTER + INTRA:          -3.773
REMARK INTER:                  -3.723
REMARK INTRA:                  -0.050
REMARK UNBOUND:                -0.050
REMARK SMILES CC(C)[C@H]([NH3+])C(=O)[O-]
REMARK SMILES IDX 4 1 5 2 6 6 7 7 8 8 2 9 1 10 3 11
REMARK H PARENT 5 3 5 4 5 5
REMARK Flexibility Score: inf
ROOT
ATOM      1  C   UNL     1      11.189   2.798 -18.715  1.00  0.00     0.230 C 
ENDROOT
BRANCH   1   2
ATOM      2  N   UNL     1       9.924   2.134 -18.363  1.00  0.00    -0.350 N 
ATOM      3  H   UNL     1       9.410   1.814 -19.216  1.00  0.00     0.345 HD
ATOM      4  H   UNL     1      10.102   1.317 -17.738  1.00  0.00     0.345 HD
ATOM      5  H   UNL     1       9.313   2.804 -17.841  1.00  0.00     0.345 HD
ENDBRANCH   1   2
BRANCH   1   6
ATOM      6  C   UNL     1      11.288   4.153 -18.057  1.00  0.00     0.099 C 
ATOM      7  O   UNL     1      11.308   5.207 -18.748  1.00  0.00    -0.544 OA
ATOM      8  O   UNL     1      11.411   4.240 -16.676  1.00  0.00    -0.544 OA
ENDBRANCH   1   6
BRANCH   1   9
ATOM      9  C   UNL     1      11.415   2.909 -20.253  1.00  0.00     0.047 C 
ATOM     10  C   UNL     1      12.889   2.700 -20.631  1.00  0.00     0.014 C 
ATOM     11  C   UNL     1      10.518   1.969 -21.077  1.00  0.00     0.014 C 
ENDBRANCH   1   9
TORSDOF 3
ENDMDL
MODEL 2
REMARK VINA RESULT:    -3.161      2.064      3.335
REMARK INTER + INTRA:          -3.673
REMARK INTER:                  -3.613
REMARK INTRA:                  -0.059
REMARK UNBOUND:                -0.050
REMARK SMILES CC(C)[C@H]([NH3+])C(=O)[O-]
REMARK SMILES IDX 4 1 5 2 6 6 7 7 8 8 2 9 1 10 3 11
REMARK H PARENT 5 3 5 4 5 5
REMARK Flexibility Score: inf
ROOT
ATOM      1  C   UNL     1      10.671   3.046 -19.055  1.00  0.00     0.230 C 
ENDROOT
BRANCH   1   2
ATOM      2  N   UNL     1       9.954   2.024 -18.277  1.00  0.00    -0.350 N 
ATOM      3  H   UNL     1      10.589   1.542 -17.600  1.00  0.00     0.345 HD
ATOM      4  H   UNL     1       9.155   2.452 -17.759  1.00  0.00     0.345 HD
ATOM      5  H   UNL     1       9.559   1.305 -18.928  1.00  0.00     0.345 HD
ENDBRANCH   1   2
BRANCH   1   6
ATOM      6  C   UNL     1      11.538   2.410 -20.114  1.00  0.00     0.099 C 
ATOM      7  O   UNL     1      12.786   2.321 -19.961  1.00  0.00    -0.544 OA
ATOM      8  O   UNL     1      10.962   1.960 -21.296  1.00  0.00    -0.544 OA
ENDBRANCH   1   6
BRANCH   1   9
ATOM      9  C   UNL     1      11.503   4.019 -18.166  1.00  0.00     0.047 C 
ATOM     10  C   UNL     1      11.508   5.447 -18.730  1.00  0.00     0.014 C 
ATOM     11  C   UNL     1      11.065   4.033 -16.691  1.00  0.00     0.014 C 
ENDBRANCH   1   9
TORSDOF 3
ENDMDL
MODEL 3
REMARK VINA RESULT:    -3.074      4.504      5.374
REMARK INTER + INTRA:          -3.573
REMARK INTER:                  -3.592
REMARK INTRA:                   0.020
REMARK UNBOUND:                -0.050
REMARK SMILES CC(C)[C@H]([NH3+])C(=O)[O-]
REMARK SMILES IDX 4 1 5 2 6 6 7 7 8 8 2 9 1 10 3 11
REMARK H PARENT 5 3 5 4 5 5
REMARK Flexibility Score: inf
ROOT
ATOM      1  C   UNL     1      15.783   1.102 -20.159  1.00  0.00     0.230 C 
ENDROOT
BRANCH   1   2
ATOM      2  N   UNL     1      15.319   0.122 -19.165  1.00  0.00    -0.350 N 
ATOM      3  H   UNL     1      15.577  -0.853 -19.439  1.00  0.00     0.345 HD
ATOM      4  H   UNL     1      15.723   0.336 -18.225  1.00  0.00     0.345 HD
ATOM      5  H   UNL     1      14.278   0.177 -19.082  1.00  0.00     0.345 HD
ENDBRANCH   1   2
BRANCH   1   6
ATOM      6  C   UNL     1      14.686   2.078 -20.509  1.00  0.00     0.099 C 
ATOM      7  O   UNL     1      14.886   3.007 -21.336  1.00  0.00    -0.544 OA
ATOM      8  O   UNL     1      13.454   1.984 -19.873  1.00  0.00    -0.544 OA
ENDBRANCH   1   6
BRANCH   1   9
ATOM      9  C   UNL     1      16.368   0.440 -21.444  1.00  0.00     0.047 C 
ATOM     10  C   UNL     1      17.616   1.180 -21.950  1.00  0.00     0.014 C 
ATOM     11  C   UNL     1      16.671  -1.059 -21.281  1.00  0.00     0.014 C 
ENDBRANCH   1   9
TORSDOF 3
ENDMDL
MODEL 4
REMARK VINA RESULT:    -2.984      2.246      3.931
REMARK INTER + INTRA:          -3.470
REMARK INTER:                  -3.412
REMARK INTRA:                  -0.058
REMARK UNBOUND:                -0.050
REMARK SMILES CC(C)[C@H]([NH3+])C(=O)[O-]
REMARK SMILES IDX 4 1 5 2 6 6 7 7 8 8 2 9 1 10 3 11
REMARK H PARENT 5 3 5 4 5 5
REMARK Flexibility Score: inf
ROOT
ATOM      1  C   UNL     1      11.142   4.366 -17.507  1.00  0.00     0.230 C 
ENDROOT
BRANCH   1   2
ATOM      2  N   UNL     1      11.612   3.463 -16.445  1.00  0.00    -0.350 N 
ATOM      3  H   UNL     1      11.903   2.536 -16.831  1.00  0.00     0.345 HD
ATOM      4  H   UNL     1      12.415   3.890 -15.930  1.00  0.00     0.345 HD
ATOM      5  H   UNL     1      10.842   3.306 -15.754  1.00  0.00     0.345 HD
ENDBRANCH   1   2
BRANCH   1   6
ATOM      6  C   UNL     1      11.715   3.969 -18.846  1.00  0.00     0.099 C 
ATOM      7  O   UNL     1      11.834   4.813 -19.774  1.00  0.00    -0.544 OA
ATOM      8  O   UNL     1      12.071   2.646 -19.078  1.00  0.00    -0.544 OA
ENDBRANCH   1   6
BRANCH   1   9
ATOM      9  C   UNL     1      11.426   5.868 -17.203  1.00  0.00     0.047 C 
ATOM     10  C   UNL     1      10.306   6.503 -16.366  1.00  0.00     0.014 C 
ATOM     11  C   UNL     1      12.791   6.115 -16.537  1.00  0.00     0.014 C 
ENDBRANCH   1   9
TORSDOF 3
ENDMDL
MODEL 5
REMARK VINA RESULT:    -2.975      8.314      9.008
REMARK INTER + INTRA:          -3.460
REMARK INTER:                  -3.413
REMARK INTRA:                  -0.048
REMARK UNBOUND:                -0.050
REMARK SMILES CC(C)[C@H]([NH3+])C(=O)[O-]
REMARK SMILES IDX 4 1 5 2 6 6 7 7 8 8 2 9 1 10 3 11
REMARK H PARENT 5 3 5 4 5 5
REMARK Flexibility Score: inf
ROOT
ATOM      1  C   UNL     1      17.907  -1.345 -22.114  1.00  0.00     0.230 C 
ENDROOT
BRANCH   1   2
ATOM      2  N   UNL     1      19.166  -0.583 -22.095  1.00  0.00    -0.350 N 
ATOM      3  H   UNL     1      19.958  -1.161 -21.732  1.00  0.00     0.345 HD
ATOM      4  H   UNL     1      19.399  -0.239 -23.054  1.00  0.00     0.345 HD
ATOM      5  H   UNL     1      19.056   0.254 -21.477  1.00  0.00     0.345 HD
ENDBRANCH   1   2
BRANCH   1   6
ATOM      6  C   UNL     1      17.647  -1.925 -23.483  1.00  0.00     0.099 C 
ATOM      7  O   UNL     1      18.138  -1.393 -24.515  1.00  0.00    -0.544 OA
ATOM      8  O   UNL     1      16.816  -3.030 -23.616  1.00  0.00    -0.544 OA
ENDBRANCH   1   6
BRANCH   1   9
ATOM      9  C   UNL     1      16.683  -0.518 -21.619  1.00  0.00     0.047 C 
ATOM     10  C   UNL     1      16.261  -0.916 -20.197  1.00  0.00     0.014 C 
ATOM     11  C   UNL     1      16.894   1.004 -21.703  1.00  0.00     0.014 C 
ENDBRANCH   1   9
TORSDOF 3
ENDMDL
MODEL 6
REMARK VINA RESULT:    -2.950      1.508      1.982
REMARK INTER + INTRA:          -3.431
REMARK INTER:                  -3.366
REMARK INTRA:                  -0.065
REMARK UNBOUND:                -0.050
REMARK SMILES CC(C)[C@H]([NH3+])C(=O)[O-]
REMARK SMILES IDX 4 1 5 2 6 6 7 7 8 8 2 9 1 10 3 11
REMARK H PARENT 5 3 5 4 5 5
REMARK Flexibility Score: inf
ROOT
ATOM      1  C   UNL     1      11.986   3.550 -19.574  1.00  0.00     0.230 C 
ENDROOT
BRANCH   1   2
ATOM      2  N   UNL     1      11.895   2.657 -18.409  1.00  0.00    -0.350 N 
ATOM      3  H   UNL     1      12.026   1.656 -18.682  1.00  0.00     0.345 HD
ATOM      4  H   UNL     1      12.610   2.917 -17.692  1.00  0.00     0.345 HD
ATOM      5  H   UNL     1      10.953   2.758 -17.965  1.00  0.00     0.345 HD
ENDBRANCH   1   2
BRANCH   1   6
ATOM      6  C   UNL     1      12.147   4.987 -19.142  1.00  0.00     0.099 C 
ATOM      7  O   UNL     1      11.268   5.553 -18.438  1.00  0.00    -0.544 OA
ATOM      8  O   UNL     1      13.253   5.713 -19.567  1.00  0.00    -0.544 OA
ENDBRANCH   1   6
BRANCH   1   9
ATOM      9  C   UNL     1      10.786   3.396 -20.558  1.00  0.00     0.047 C 
ATOM     10  C   UNL     1      10.916   4.332 -21.769  1.00  0.00     0.014 C 
ATOM     11  C   UNL     1      10.557   1.949 -21.028  1.00  0.00     0.014 C 
ENDBRANCH   1   9
TORSDOF 3
ENDMDL
MODEL 7
REMARK VINA RESULT:    -2.927      7.128      7.722
REMARK INTER + INTRA:          -3.405
REMARK INTER:                  -3.346
REMARK INTRA:                  -0.059
REMARK UNBOUND:                -0.050
REMARK SMILES CC(C)[C@H]([NH3+])C(=O)[O-]
REMARK SMILES IDX 4 1 5 2 6 6 7 7 8 8 2 9 1 10 3 11
REMARK H PARENT 5 3 5 4 5 5
REMARK Flexibility Score: inf
ROOT
ATOM      1  C   UNL     1      16.840   0.844 -21.933  1.00  0.00     0.230 C 
ENDROOT
BRANCH   1   2
ATOM      2  N   UNL     1      15.885   1.092 -23.024  1.00  0.00    -0.350 N 
ATOM      3  H   UNL     1      15.551   2.083 -23.023  1.00  0.00     0.345 HD
ATOM      4  H   UNL     1      16.320   0.874 -23.948  1.00  0.00     0.345 HD
ATOM      5  H   UNL     1      15.055   0.464 -22.910  1.00  0.00     0.345 HD
ENDBRANCH   1   2
BRANCH   1   6
ATOM      6  C   UNL     1      18.208   1.377 -22.281  1.00  0.00     0.099 C 
ATOM      7  O   UNL     1      19.191   0.599 -22.414  1.00  0.00    -0.544 OA
ATOM      8  O   UNL     1      18.401   2.748 -22.408  1.00  0.00    -0.544 OA
ENDBRANCH   1   6
BRANCH   1   9
ATOM      9  C   UNL     1      16.917  -0.656 -21.516  1.00  0.00     0.047 C 
ATOM     10  C   UNL     1      16.216  -0.913 -20.174  1.00  0.00     0.014 C 
ATOM     11  C   UNL     1      16.380  -1.621 -22.587  1.00  0.00     0.014 C 
ENDBRANCH   1   9
TORSDOF 3
ENDMDL
MODEL 8
REMARK VINA RESULT:    -2.890      6.804      7.769
REMARK INTER + INTRA:          -3.363
REMARK INTER:                  -3.321
REMARK INTRA:                  -0.042
REMARK UNBOUND:                -0.050
REMARK SMILES CC(C)[C@H]([NH3+])C(=O)[O-]
REMARK SMILES IDX 4 1 5 2 6 6 7 7 8 8 2 9 1 10 3 11
REMARK H PARENT 5 3 5 4 5 5
REMARK Flexibility Score: inf
ROOT
ATOM      1  C   UNL     1      16.682  -0.534 -22.235  1.00  0.00     0.230 C 
ENDROOT
BRANCH   1   2
ATOM      2  N   UNL     1      16.043   0.403 -23.171  1.00  0.00    -0.350 N 
ATOM      3  H   UNL     1      15.057   0.612 -22.891  1.00  0.00     0.345 HD
ATOM      4  H   UNL     1      16.585   1.294 -23.224  1.00  0.00     0.345 HD
ATOM      5  H   UNL     1      16.031  -0.017 -24.130  1.00  0.00     0.345 HD
ENDBRANCH   1   2
BRANCH   1   6
ATOM      6  C   UNL     1      16.368  -0.167 -20.805  1.00  0.00     0.099 C 
ATOM      7  O   UNL     1      16.306  -1.051 -19.909  1.00  0.00    -0.544 OA
ATOM      8  O   UNL     1      16.093   1.156 -20.478  1.00  0.00    -0.544 OA
ENDBRANCH   1   6
BRANCH   1   9
ATOM      9  C   UNL     1      18.220  -0.663 -22.451  1.00  0.00     0.047 C 
ATOM     10  C   UNL     1      18.702  -2.111 -22.283  1.00  0.00     0.014 C 
ATOM     11  C   UNL     1      18.702  -0.097 -23.799  1.00  0.00     0.014 C 
ENDBRANCH   1   9
TORSDOF 3
ENDMDL
MODEL 9
REMARK VINA RESULT:    -2.802      3.093      3.758
REMARK INTER + INTRA:          -3.262
REMARK INTER:                  -3.202
REMARK INTRA:                  -0.060
REMARK UNBOUND:                -0.050
REMARK SMILES CC(C)[C@H]([NH3+])C(=O)[O-]
REMARK SMILES IDX 4 1 5 2 6 6 7 7 8 8 2 9 1 10 3 11
REMARK H PARENT 5 3 5 4 5 5
REMARK Flexibility Score: inf
ROOT
ATOM      1  C   UNL     1      10.578   3.133 -21.150  1.00  0.00     0.230 C 
ENDROOT
BRANCH   1   2
ATOM      2  N   UNL     1      10.162   1.733 -20.976  1.00  0.00    -0.350 N 
ATOM      3  H   UNL     1       9.691   1.585 -20.054  1.00  0.00     0.345 HD
ATOM      4  H   UNL     1       9.518   1.443 -21.745  1.00  0.00     0.345 HD
ATOM      5  H   UNL     1      11.004   1.112 -21.019  1.00  0.00     0.345 HD
ENDBRANCH   1   2
BRANCH   1   6
ATOM      6  C   UNL     1      11.367   3.307 -22.426  1.00  0.00     0.099 C 
ATOM      7  O   UNL     1      10.980   4.105 -23.321  1.00  0.00    -0.544 OA
ATOM      8  O   UNL     1      12.506   2.541 -22.640  1.00  0.00    -0.544 OA
ENDBRANCH   1   6
BRANCH   1   9
ATOM      9  C   UNL     1      11.366   3.694 -19.928  1.00  0.00     0.047 C 
ATOM     10  C   UNL     1      11.309   5.228 -19.867  1.00  0.00     0.014 C 
ATOM     11  C   UNL     1      10.925   3.093 -18.582  1.00  0.00     0.014 C 
ENDBRANCH   1   9
TORSDOF 3
ENDMDL
