MODEL 1
REMARK VINA RESULT:    -6.746      0.000      0.000
REMARK INTER + INTRA:         -10.369
REMARK INTER:                  -9.507
REMARK INTRA:                  -0.861
REMARK UNBOUND:                -0.861
REMARK SMILES OCC1=C[C@H](O)[C@H]2C=CO[C@@H](O[C@@H]3O[C@@H](CO)[C@H](O)[C@H](O)[C@H]3O)[C@H]12
REMARK SMILES IDX 12 1 11 2 8 3 9 4 7 5 10 6 24 7 5 8 3 9 4 10 6 11 2 13 1 14
REMARK SMILES IDX 13 16 22 17 14 18 20 19 15 20 18 21 23 22 21 24 16 26 17 27
REMARK SMILES IDX 19 29
REMARK H PARENT 6 12 1 15 23 23 21 25 17 28 19 30
REMARK Flexibility Score: inf
ROOT
ATOM      1  O   UNL     1      44.095 -10.823  13.165  1.00  0.00    -0.310 OA
ENDROOT
BRANCH   1   2
ATOM      2  C   UNL     1      42.833 -10.178  13.188  1.00  0.00     0.316 C 
ATOM      3  C   UNL     1      41.478  -7.757  12.286  1.00  0.00     0.018 C 
ATOM      4  C   UNL     1      41.799  -8.714  11.402  1.00  0.00     0.186 C 
ATOM      5  C   UNL     1      41.651  -8.089  13.732  1.00  0.00     0.061 C 
ATOM      6  O   UNL     1      42.425  -9.913  11.825  1.00  0.00    -0.472 OA
ATOM      7  C   UNL     1      42.968  -8.830  13.913  1.00  0.00     0.096 C 
ATOM      8  C   UNL     1      41.727  -6.973  14.770  1.00  0.00     0.145 C 
ATOM      9  C   UNL     1      43.147  -8.743  15.394  1.00  0.00    -0.036 C 
ATOM     10  C   UNL     1      42.506  -7.662  15.856  1.00  0.00     0.007 C 
BRANCH   8  11
ATOM     11  O   UNL     1      40.455  -6.616  15.235  1.00  0.00    -0.388 OA
ATOM     12  H   UNL     1      39.887  -7.425  15.138  1.00  0.00     0.211 HD
ENDBRANCH   8  11
BRANCH   9  13
ATOM     13  C   UNL     1      44.082  -9.577  16.227  1.00  0.00     0.187 C 
BRANCH  13  14
ATOM     14  O   UNL     1      44.432  -8.892  17.399  1.00  0.00    -0.392 OA
ATOM     15  H   UNL     1      43.969  -9.351  18.149  1.00  0.00     0.211 HD
ENDBRANCH  13  14
ENDBRANCH   9  13
ENDBRANCH   1   2
BRANCH   1  16
ATOM     16  C   UNL     1      44.949 -10.322  12.144  1.00  0.00     0.286 C 
ATOM     17  C   UNL     1      46.220  -9.641  12.721  1.00  0.00     0.202 C 
ATOM     18  O   UNL     1      45.299 -11.371  11.254  1.00  0.00    -0.341 OA
ATOM     19  C   UNL     1      47.169 -10.675  13.364  1.00  0.00     0.179 C 
ATOM     20  C   UNL     1      46.026 -12.401  11.910  1.00  0.00     0.178 C 
ATOM     21  C   UNL     1      47.387 -11.875  12.423  1.00  0.00     0.177 C 
BRANCH  17  22
ATOM     22  O   UNL     1      46.889  -8.898  11.731  1.00  0.00    -0.385 OA
ATOM     23  H   UNL     1      47.145  -9.514  10.997  1.00  0.00     0.211 HD
ENDBRANCH  17  22
BRANCH  19  24
ATOM     24  O   UNL     1      46.635 -11.125  14.584  1.00  0.00    -0.387 OA
ATOM     25  H   UNL     1      46.142 -10.362  14.982  1.00  0.00     0.211 HD
ENDBRANCH  19  24
BRANCH  20  26
ATOM     26  C   UNL     1      46.205 -13.569  10.928  1.00  0.00     0.191 C 
BRANCH  26  27
ATOM     27  O   UNL     1      46.186 -14.800  11.601  1.00  0.00    -0.394 OA
ATOM     28  H   UNL     1      45.474 -14.740  12.292  1.00  0.00     0.210 HD
ENDBRANCH  26  27
ENDBRANCH  20  26
BRANCH  21  29
ATOM     29  O   UNL     1      48.068 -12.899  13.101  1.00  0.00    -0.387 OA
ATOM     30  H   UNL     1      48.558 -12.469  13.851  1.00  0.00     0.211 HD
ENDBRANCH  21  29
ENDBRANCH   1  16
TORSDOF 10
ENDMDL
MODEL 2
REMARK VINA RESULT:    -6.677      2.383      5.862
REMARK INTER + INTRA:         -10.271
REMARK INTER:                  -8.860
REMARK INTRA:                  -1.411
REMARK UNBOUND:                -0.861
REMARK SMILES OCC1=C[C@H](O)[C@H]2C=CO[C@@H](O[C@@H]3O[C@@H](CO)[C@H](O)[C@H](O)[C@H]3O)[C@H]12
REMARK SMILES IDX 12 1 11 2 8 3 9 4 7 5 10 6 24 7 5 8 3 9 4 10 6 11 2 13 1 14
REMARK SMILES IDX 13 16 22 17 14 18 20 19 15 20 18 21 23 22 21 24 16 26 17 27
REMARK SMILES IDX 19 29
REMARK H PARENT 6 12 1 15 23 23 21 25 17 28 19 30
REMARK Flexibility Score: inf
ROOT
ATOM      1  O   UNL     1      43.146  -9.558  13.089  1.00  0.00    -0.310 OA
ENDROOT
BRANCH   1   2
ATOM      2  C   UNL     1      42.928 -10.261  11.878  1.00  0.00     0.316 C 
ATOM      3  C   UNL     1      44.245 -10.990   9.379  1.00  0.00     0.018 C 
ATOM      4  C   UNL     1      44.601 -11.591  10.525  1.00  0.00     0.186 C 
ATOM      5  C   UNL     1      43.033 -10.120   9.423  1.00  0.00     0.061 C 
ATOM      6  O   UNL     1      43.949 -11.277  11.743  1.00  0.00    -0.472 OA
ATOM      7  C   UNL     1      43.068  -9.288  10.696  1.00  0.00     0.096 C 
ATOM      8  C   UNL     1      42.794  -9.083   8.329  1.00  0.00     0.145 C 
ATOM      9  C   UNL     1      42.032  -8.254  10.396  1.00  0.00    -0.036 C 
ATOM     10  C   UNL     1      41.934  -8.096   9.070  1.00  0.00     0.007 C 
BRANCH   8  11
ATOM     11  O   UNL     1      42.089  -9.628   7.249  1.00  0.00    -0.388 OA
ATOM     12  H   UNL     1      41.702  -8.859   6.755  1.00  0.00     0.211 HD
ENDBRANCH   8  11
BRANCH   9  13
ATOM     13  C   UNL     1      41.363  -7.350  11.395  1.00  0.00     0.187 C 
BRANCH  13  14
ATOM     14  O   UNL     1      42.318  -6.761  12.235  1.00  0.00    -0.392 OA
ATOM     15  H   UNL     1      43.209  -7.057  11.910  1.00  0.00     0.211 HD
ENDBRANCH  13  14
ENDBRANCH   9  13
ENDBRANCH   1   2
BRANCH   1  16
ATOM     16  C   UNL     1      42.117  -9.782  14.046  1.00  0.00     0.286 C 
ATOM     17  C   UNL     1      42.511 -10.863  15.090  1.00  0.00     0.202 C 
ATOM     18  O   UNL     1      41.784  -8.561  14.687  1.00  0.00    -0.341 OA
ATOM     19  C   UNL     1      43.627 -10.359  16.028  1.00  0.00     0.179 C 
ATOM     20  C   UNL     1      42.884  -8.022  15.406  1.00  0.00     0.178 C 
ATOM     21  C   UNL     1      43.293  -8.956  16.569  1.00  0.00     0.177 C 
BRANCH  17  22
ATOM     22  O   UNL     1      41.388 -11.283  15.829  1.00  0.00    -0.385 OA
ATOM     23  H   UNL     1      41.295 -10.690  16.618  1.00  0.00     0.211 HD
ENDBRANCH  17  22
BRANCH  19  24
ATOM     24  O   UNL     1      44.853 -10.318  15.340  1.00  0.00    -0.387 OA
ATOM     25  H   UNL     1      44.761 -10.916  14.553  1.00  0.00     0.211 HD
ENDBRANCH  19  24
BRANCH  20  26
ATOM     26  C   UNL     1      42.496  -6.625  15.912  1.00  0.00     0.191 C 
BRANCH  26  27
ATOM     27  O   UNL     1      43.635  -5.876  16.248  1.00  0.00    -0.394 OA
ATOM     28  H   UNL     1      43.677  -5.114  15.612  1.00  0.00     0.210 HD
ENDBRANCH  26  27
ENDBRANCH  20  26
BRANCH  21  29
ATOM     29  O   UNL     1      44.407  -8.422  17.239  1.00  0.00    -0.387 OA
ATOM     30  H   UNL     1      44.060  -7.738  17.871  1.00  0.00     0.211 HD
ENDBRANCH  21  29
ENDBRANCH   1  16
TORSDOF 10
ENDMDL
MODEL 3
REMARK VINA RESULT:    -6.479      1.131      1.236
REMARK INTER + INTRA:          -9.992
REMARK INTER:                  -8.678
REMARK INTRA:                  -1.314
REMARK UNBOUND:                -0.861
REMARK SMILES OCC1=C[C@H](O)[C@H]2C=CO[C@@H](O[C@@H]3O[C@@H](CO)[C@H](O)[C@H](O)[C@H]3O)[C@H]12
REMARK SMILES IDX 12 1 11 2 8 3 9 4 7 5 10 6 24 7 5 8 3 9 4 10 6 11 2 13 1 14
REMARK SMILES IDX 13 16 22 17 14 18 20 19 15 20 18 21 23 22 21 24 16 26 17 27
REMARK SMILES IDX 19 29
REMARK H PARENT 6 12 1 15 23 23 21 25 17 28 19 30
REMARK Flexibility Score: inf
ROOT
ATOM      1  O   UNL     1      43.938 -10.868  12.539  1.00  0.00    -0.310 OA
ENDROOT
BRANCH   1   2
ATOM      2  C   UNL     1      42.756 -10.091  12.633  1.00  0.00     0.316 C 
ATOM      3  C   UNL     1      41.725  -7.411  12.121  1.00  0.00     0.018 C 
ATOM      4  C   UNL     1      41.985  -8.236  11.096  1.00  0.00     0.186 C 
ATOM      5  C   UNL     1      41.786  -8.000  13.492  1.00  0.00     0.061 C 
ATOM      6  O   UNL     1      42.451  -9.554  11.324  1.00  0.00    -0.472 OA
ATOM      7  C   UNL     1      43.001  -8.910  13.585  1.00  0.00     0.096 C 
ATOM      8  C   UNL     1      41.930  -7.092  14.710  1.00  0.00     0.145 C 
ATOM      9  C   UNL     1      43.111  -9.097  15.064  1.00  0.00    -0.036 C 
ATOM     10  C   UNL     1      42.570  -8.041  15.685  1.00  0.00     0.007 C 
BRANCH   8  11
ATOM     11  O   UNL     1      40.683  -6.671  15.189  1.00  0.00    -0.388 OA
ATOM     12  H   UNL     1      40.623  -6.992  16.127  1.00  0.00     0.211 HD
ENDBRANCH   8  11
BRANCH   9  13
ATOM     13  C   UNL     1      43.904 -10.163  15.769  1.00  0.00     0.187 C 
BRANCH  13  14
ATOM     14  O   UNL     1      45.188 -10.262  15.215  1.00  0.00    -0.392 OA
ATOM     15  H   UNL     1      45.447  -9.348  14.924  1.00  0.00     0.211 HD
ENDBRANCH  13  14
ENDBRANCH   9  13
ENDBRANCH   1   2
BRANCH   1  16
ATOM     16  C   UNL     1      44.564 -10.763  11.266  1.00  0.00     0.286 C 
ATOM     17  C   UNL     1      46.058 -10.354  11.377  1.00  0.00     0.202 C 
ATOM     18  O   UNL     1      44.428 -11.988  10.563  1.00  0.00    -0.341 OA
ATOM     19  C   UNL     1      46.908 -11.488  11.987  1.00  0.00     0.179 C 
ATOM     20  C   UNL     1      45.074 -13.060  11.237  1.00  0.00     0.178 C 
ATOM     21  C   UNL     1      46.602 -12.831  11.298  1.00  0.00     0.177 C 
BRANCH  17  22
ATOM     22  O   UNL     1      46.569  -9.965  10.124  1.00  0.00    -0.385 OA
ATOM     23  H   UNL     1      45.815  -9.912   9.482  1.00  0.00     0.211 HD
ENDBRANCH  17  22
BRANCH  19  24
ATOM     24  O   UNL     1      46.649 -11.596  13.365  1.00  0.00    -0.387 OA
ATOM     25  H   UNL     1      47.051 -12.452  13.667  1.00  0.00     0.211 HD
ENDBRANCH  19  24
BRANCH  20  26
ATOM     26  C   UNL     1      44.728 -14.369  10.511  1.00  0.00     0.191 C 
BRANCH  26  27
ATOM     27  O   UNL     1      44.677 -15.445  11.410  1.00  0.00    -0.394 OA
ATOM     28  H   UNL     1      43.721 -15.697  11.506  1.00  0.00     0.210 HD
ENDBRANCH  26  27
ENDBRANCH  20  26
BRANCH  21  29
ATOM     29  O   UNL     1      47.214 -13.882  12.002  1.00  0.00    -0.387 OA
ATOM     30  H   UNL     1      47.761 -13.465  12.719  1.00  0.00     0.211 HD
ENDBRANCH  21  29
ENDBRANCH   1  16
TORSDOF 10
ENDMDL
MODEL 4
REMARK VINA RESULT:    -6.478      0.991      2.720
REMARK INTER + INTRA:          -9.990
REMARK INTER:                  -8.704
REMARK INTRA:                  -1.286
REMARK UNBOUND:                -0.861
REMARK SMILES OCC1=C[C@H](O)[C@H]2C=CO[C@@H](O[C@@H]3O[C@@H](CO)[C@H](O)[C@H](O)[C@H]3O)[C@H]12
REMARK SMILES IDX 12 1 11 2 8 3 9 4 7 5 10 6 24 7 5 8 3 9 4 10 6 11 2 13 1 14
REMARK SMILES IDX 13 16 22 17 14 18 20 19 15 20 18 21 23 22 21 24 16 26 17 27
REMARK SMILES IDX 19 29
REMARK H PARENT 6 12 1 15 23 23 21 25 17 28 19 30
REMARK Flexibility Score: inf
ROOT
ATOM      1  O   UNL     1      44.893 -10.765  12.999  1.00  0.00    -0.310 OA
ENDROOT
BRANCH   1   2
ATOM      2  C   UNL     1      44.542  -9.678  13.837  1.00  0.00     0.316 C 
ATOM      3  C   UNL     1      42.969  -9.020  16.204  1.00  0.00     0.018 C 
ATOM      4  C   UNL     1      44.115  -9.706  16.330  1.00  0.00     0.186 C 
ATOM      5  C   UNL     1      42.672  -8.446  14.858  1.00  0.00     0.061 C 
ATOM      6  O   UNL     1      44.912 -10.004  15.197  1.00  0.00    -0.472 OA
ATOM      7  C   UNL     1      43.019  -9.477  13.795  1.00  0.00     0.096 C 
ATOM      8  C   UNL     1      41.247  -8.033  14.499  1.00  0.00     0.145 C 
ATOM      9  C   UNL     1      42.329  -8.904  12.599  1.00  0.00    -0.036 C 
ATOM     10  C   UNL     1      41.297  -8.152  13.001  1.00  0.00     0.007 C 
BRANCH   8  11
ATOM     11  O   UNL     1      40.986  -6.709  14.874  1.00  0.00    -0.388 OA
ATOM     12  H   UNL     1      41.856  -6.324  15.157  1.00  0.00     0.211 HD
ENDBRANCH   8  11
BRANCH   9  13
ATOM     13  C   UNL     1      42.578  -9.280  11.164  1.00  0.00     0.187 C 
BRANCH  13  14
ATOM     14  O   UNL     1      42.581 -10.674  11.019  1.00  0.00    -0.392 OA
ATOM     15  H   UNL     1      43.509 -10.981  11.200  1.00  0.00     0.211 HD
ENDBRANCH  13  14
ENDBRANCH   9  13
ENDBRANCH   1   2
BRANCH   1  16
ATOM     16  C   UNL     1      45.887 -10.421  12.041  1.00  0.00     0.286 C 
ATOM     17  C   UNL     1      47.203  -9.935  12.708  1.00  0.00     0.202 C 
ATOM     18  O   UNL     1      46.133 -11.526  11.186  1.00  0.00    -0.341 OA
ATOM     19  C   UNL     1      47.930 -11.092  13.425  1.00  0.00     0.179 C 
ATOM     20  C   UNL     1      46.640 -12.645  11.901  1.00  0.00     0.178 C 
ATOM     21  C   UNL     1      48.025 -12.328  12.510  1.00  0.00     0.177 C 
BRANCH  17  22
ATOM     22  O   UNL     1      48.050  -9.322  11.765  1.00  0.00    -0.385 OA
ATOM     23  H   UNL     1      48.066  -9.883  10.948  1.00  0.00     0.211 HD
ENDBRANCH  17  22
BRANCH  19  24
ATOM     24  O   UNL     1      47.245 -11.433  14.605  1.00  0.00    -0.387 OA
ATOM     25  H   UNL     1      46.533 -12.076  14.350  1.00  0.00     0.211 HD
ENDBRANCH  19  24
BRANCH  20  26
ATOM     26  C   UNL     1      46.705 -13.844  10.942  1.00  0.00     0.191 C 
BRANCH  26  27
ATOM     27  O   UNL     1      46.560 -15.054  11.638  1.00  0.00    -0.394 OA
ATOM     28  H   UNL     1      47.469 -15.333  11.924  1.00  0.00     0.210 HD
ENDBRANCH  26  27
ENDBRANCH  20  26
BRANCH  21  29
ATOM     29  O   UNL     1      48.487 -13.434  13.244  1.00  0.00    -0.387 OA
ATOM     30  H   UNL     1      47.891 -13.522  14.033  1.00  0.00     0.211 HD
ENDBRANCH  21  29
ENDBRANCH   1  16
TORSDOF 10
ENDMDL
MODEL 5
REMARK VINA RESULT:    -6.402      3.368      5.684
REMARK INTER + INTRA:          -9.884
REMARK INTER:                  -8.993
REMARK INTRA:                  -0.891
REMARK UNBOUND:                -0.861
REMARK SMILES OCC1=C[C@H](O)[C@H]2C=CO[C@@H](O[C@@H]3O[C@@H](CO)[C@H](O)[C@H](O)[C@H]3O)[C@H]12
REMARK SMILES IDX 12 1 11 2 8 3 9 4 7 5 10 6 24 7 5 8 3 9 4 10 6 11 2 13 1 14
REMARK SMILES IDX 13 16 22 17 14 18 20 19 15 20 18 21 23 22 21 24 16 26 17 27
REMARK SMILES IDX 19 29
REMARK H PARENT 6 12 1 15 23 23 21 25 17 28 19 30
REMARK Flexibility Score: inf
ROOT
ATOM      1  O   UNL     1      43.033  -8.847  10.679  1.00  0.00    -0.310 OA
ENDROOT
BRANCH   1   2
ATOM      2  C   UNL     1      43.030 -10.032  11.455  1.00  0.00     0.316 C 
ATOM      3  C   UNL     1      41.225 -11.976  12.669  1.00  0.00     0.018 C 
ATOM      4  C   UNL     1      41.404 -11.967  11.339  1.00  0.00     0.186 C 
ATOM      5  C   UNL     1      42.135 -11.111  13.478  1.00  0.00     0.061 C 
ATOM      6  O   UNL     1      42.304 -11.055  10.734  1.00  0.00    -0.472 OA
ATOM      7  C   UNL     1      42.292  -9.770  12.777  1.00  0.00     0.096 C 
ATOM      8  C   UNL     1      41.756 -10.722  14.904  1.00  0.00     0.145 C 
ATOM      9  C   UNL     1      42.893  -8.942  13.867  1.00  0.00    -0.036 C 
ATOM     10  C   UNL     1      42.531  -9.442  15.055  1.00  0.00     0.007 C 
BRANCH   8  11
ATOM     11  O   UNL     1      42.201 -11.672  15.832  1.00  0.00    -0.388 OA
ATOM     12  H   UNL     1      42.909 -12.197  15.373  1.00  0.00     0.211 HD
ENDBRANCH   8  11
BRANCH   9  13
ATOM     13  C   UNL     1      43.594  -7.622  13.697  1.00  0.00     0.187 C 
BRANCH  13  14
ATOM     14  O   UNL     1      42.884  -6.606  14.353  1.00  0.00    -0.392 OA
ATOM     15  H   UNL     1      43.168  -6.625  15.305  1.00  0.00     0.211 HD
ENDBRANCH  13  14
ENDBRANCH   9  13
ENDBRANCH   1   2
BRANCH   1  16
ATOM     16  C   UNL     1      41.722  -8.360  10.415  1.00  0.00     0.286 C 
ATOM     17  C   UNL     1      41.617  -6.822  10.602  1.00  0.00     0.202 C 
ATOM     18  O   UNL     1      41.325  -8.738   9.106  1.00  0.00    -0.341 OA
ATOM     19  C   UNL     1      42.395  -6.068   9.503  1.00  0.00     0.179 C 
ATOM     20  C   UNL     1      42.166  -8.169   8.113  1.00  0.00     0.178 C 
ATOM     21  C   UNL     1      42.051  -6.627   8.109  1.00  0.00     0.177 C 
BRANCH  17  22
ATOM     22  O   UNL     1      40.272  -6.408  10.635  1.00  0.00    -0.385 OA
ATOM     23  H   UNL     1      39.890  -6.514   9.726  1.00  0.00     0.211 HD
ENDBRANCH  17  22
BRANCH  19  24
ATOM     24  O   UNL     1      43.778  -6.183   9.727  1.00  0.00    -0.387 OA
ATOM     25  H   UNL     1      43.898  -6.383  10.692  1.00  0.00     0.211 HD
ENDBRANCH  19  24
BRANCH  20  26
ATOM     26  C   UNL     1      41.783  -8.768   6.751  1.00  0.00     0.191 C 
BRANCH  26  27
ATOM     27  O   UNL     1      41.068  -7.841   5.977  1.00  0.00    -0.394 OA
ATOM     28  H   UNL     1      40.777  -7.115   6.590  1.00  0.00     0.210 HD
ENDBRANCH  26  27
ENDBRANCH  20  26
BRANCH  21  29
ATOM     29  O   UNL     1      42.921  -6.086   7.147  1.00  0.00    -0.387 OA
ATOM     30  H   UNL     1      42.865  -6.675   6.349  1.00  0.00     0.211 HD
ENDBRANCH  21  29
ENDBRANCH   1  16
TORSDOF 10
ENDMDL
MODEL 6
REMARK VINA RESULT:    -6.400      2.205      5.789
REMARK INTER + INTRA:          -9.880
REMARK INTER:                  -8.627
REMARK INTRA:                  -1.254
REMARK UNBOUND:                -0.861
REMARK SMILES OCC1=C[C@H](O)[C@H]2C=CO[C@@H](O[C@@H]3O[C@@H](CO)[C@H](O)[C@H](O)[C@H]3O)[C@H]12
REMARK SMILES IDX 12 1 11 2 8 3 9 4 7 5 10 6 24 7 5 8 3 9 4 10 6 11 2 13 1 14
REMARK SMILES IDX 13 16 22 17 14 18 20 19 15 20 18 21 23 22 21 24 16 26 17 27
REMARK SMILES IDX 19 29
REMARK H PARENT 6 12 1 15 23 23 21 25 17 28 19 30
REMARK Flexibility Score: inf
ROOT
ATOM      1  O   UNL     1      43.676  -9.015  12.853  1.00  0.00    -0.310 OA
ENDROOT
BRANCH   1   2
ATOM      2  C   UNL     1      43.350  -8.708  11.508  1.00  0.00     0.316 C 
ATOM      3  C   UNL     1      41.382  -9.288   9.435  1.00  0.00     0.018 C 
ATOM      4  C   UNL     1      41.053  -8.500  10.470  1.00  0.00     0.186 C 
ATOM      5  C   UNL     1      42.823  -9.656   9.300  1.00  0.00     0.061 C 
ATOM      6  O   UNL     1      42.005  -8.177  11.468  1.00  0.00    -0.472 OA
ATOM      7  C   UNL     1      43.375  -9.999  10.675  1.00  0.00     0.096 C 
ATOM      8  C   UNL     1      43.230 -10.854   8.446  1.00  0.00     0.145 C 
ATOM      9  C   UNL     1      44.655 -10.681  10.312  1.00  0.00    -0.036 C 
ATOM     10  C   UNL     1      44.540 -11.216   9.089  1.00  0.00     0.007 C 
BRANCH   8  11
ATOM     11  O   UNL     1      43.429 -10.488   7.109  1.00  0.00    -0.388 OA
ATOM     12  H   UNL     1      44.385 -10.228   7.032  1.00  0.00     0.211 HD
ENDBRANCH   8  11
BRANCH   9  13
ATOM     13  C   UNL     1      45.813 -10.948  11.233  1.00  0.00     0.187 C 
BRANCH  13  14
ATOM     14  O   UNL     1      45.352 -11.422  12.470  1.00  0.00    -0.392 OA
ATOM     15  H   UNL     1      45.388 -12.414  12.429  1.00  0.00     0.211 HD
ENDBRANCH  13  14
ENDBRANCH   9  13
ENDBRANCH   1   2
BRANCH   1  16
ATOM     16  C   UNL     1      42.529  -9.306  13.643  1.00  0.00     0.286 C 
ATOM     17  C   UNL     1      42.723 -10.576  14.515  1.00  0.00     0.202 C 
ATOM     18  O   UNL     1      42.205  -8.185  14.450  1.00  0.00    -0.341 OA
ATOM     19  C   UNL     1      43.752 -10.335  15.639  1.00  0.00     0.179 C 
ATOM     20  C   UNL     1      43.247  -7.871  15.363  1.00  0.00     0.178 C 
ATOM     21  C   UNL     1      43.452  -9.018  16.381  1.00  0.00     0.177 C 
BRANCH  17  22
ATOM     22  O   UNL     1      41.496 -11.015  15.048  1.00  0.00    -0.385 OA
ATOM     23  H   UNL     1      41.663 -11.387  15.951  1.00  0.00     0.211 HD
ENDBRANCH  17  22
BRANCH  19  24
ATOM     24  O   UNL     1      45.050 -10.286  15.101  1.00  0.00    -0.387 OA
ATOM     25  H   UNL     1      44.953 -10.273  14.113  1.00  0.00     0.211 HD
ENDBRANCH  19  24
BRANCH  20  26
ATOM     26  C   UNL     1      42.896  -6.550  16.064  1.00  0.00     0.191 C 
BRANCH  26  27
ATOM     27  O   UNL     1      44.055  -5.878  16.483  1.00  0.00    -0.394 OA
ATOM     28  H   UNL     1      44.325  -5.278  15.739  1.00  0.00     0.210 HD
ENDBRANCH  26  27
ENDBRANCH  20  26
BRANCH  21  29
ATOM     29  O   UNL     1      44.512  -8.702  17.247  1.00  0.00    -0.387 OA
ATOM     30  H   UNL     1      45.140  -9.471  17.222  1.00  0.00     0.211 HD
ENDBRANCH  21  29
ENDBRANCH   1  16
TORSDOF 10
ENDMDL
MODEL 7
REMARK VINA RESULT:    -6.196     13.033     17.784
REMARK INTER + INTRA:          -9.593
REMARK INTER:                  -8.224
REMARK INTRA:                  -1.369
REMARK UNBOUND:                -0.861
REMARK SMILES OCC1=C[C@H](O)[C@H]2C=CO[C@@H](O[C@@H]3O[C@@H](CO)[C@H](O)[C@H](O)[C@H]3O)[C@H]12
REMARK SMILES IDX 12 1 11 2 8 3 9 4 7 5 10 6 24 7 5 8 3 9 4 10 6 11 2 13 1 14
REMARK SMILES IDX 13 16 22 17 14 18 20 19 15 20 18 21 23 22 21 24 16 26 17 27
REMARK SMILES IDX 19 29
REMARK H PARENT 6 12 1 15 23 23 21 25 17 28 19 30
REMARK Flexibility Score: inf
ROOT
ATOM      1  O   UNL     1      55.964 -21.428  11.950  1.00  0.00    -0.310 OA
ENDROOT
BRANCH   1   2
ATOM      2  C   UNL     1      56.287 -22.657  12.576  1.00  0.00     0.316 C 
ATOM      3  C   UNL     1      57.735 -23.761  14.855  1.00  0.00     0.018 C 
ATOM      4  C   UNL     1      56.571 -23.121  15.046  1.00  0.00     0.186 C 
ATOM      5  C   UNL     1      58.119 -24.054  13.442  1.00  0.00     0.061 C 
ATOM      6  O   UNL     1      55.835 -22.610  13.949  1.00  0.00    -0.472 OA
ATOM      7  C   UNL     1      57.813 -22.835  12.585  1.00  0.00     0.096 C 
ATOM      8  C   UNL     1      59.569 -24.377  13.093  1.00  0.00     0.145 C 
ATOM      9  C   UNL     1      58.579 -23.154  11.342  1.00  0.00    -0.036 C 
ATOM     10  C   UNL     1      59.602 -23.964  11.647  1.00  0.00     0.007 C 
BRANCH   8  11
ATOM     11  O   UNL     1      59.833 -25.747  13.213  1.00  0.00    -0.388 OA
ATOM     12  H   UNL     1      59.622 -25.989  14.153  1.00  0.00     0.211 HD
ENDBRANCH   8  11
BRANCH   9  13
ATOM     13  C   UNL     1      58.405 -22.503   9.997  1.00  0.00     0.187 C 
BRANCH  13  14
ATOM     14  O   UNL     1      58.337 -21.109  10.136  1.00  0.00    -0.392 OA
ATOM     15  H   UNL     1      57.374 -20.869  10.166  1.00  0.00     0.211 HD
ENDBRANCH  13  14
ENDBRANCH   9  13
ENDBRANCH   1   2
BRANCH   1  16
ATOM     16  C   UNL     1      54.926 -21.559  10.985  1.00  0.00     0.286 C 
ATOM     17  C   UNL     1      53.570 -21.956  11.629  1.00  0.00     0.202 C 
ATOM     18  O   UNL     1      54.801 -20.353  10.248  1.00  0.00    -0.341 OA
ATOM     19  C   UNL     1      52.989 -20.801  12.472  1.00  0.00     0.179 C 
ATOM     20  C   UNL     1      54.434 -19.261  11.079  1.00  0.00     0.178 C 
ATOM     21  C   UNL     1      53.027 -19.477  11.685  1.00  0.00     0.177 C 
BRANCH  17  22
ATOM     22  O   UNL     1      52.648 -22.372  10.650  1.00  0.00    -0.385 OA
ATOM     23  H   UNL     1      52.835 -23.320  10.428  1.00  0.00     0.211 HD
ENDBRANCH  17  22
BRANCH  19  24
ATOM     24  O   UNL     1      53.721 -20.660  13.664  1.00  0.00    -0.387 OA
ATOM     25  H   UNL     1      53.157 -20.131  14.288  1.00  0.00     0.211 HD
ENDBRANCH  19  24
BRANCH  20  26
ATOM     26  C   UNL     1      54.497 -17.973  10.244  1.00  0.00     0.191 C 
BRANCH  26  27
ATOM     27  O   UNL     1      54.767 -16.860  11.055  1.00  0.00    -0.394 OA
ATOM     28  H   UNL     1      53.964 -16.276  11.019  1.00  0.00     0.210 HD
ENDBRANCH  26  27
ENDBRANCH  20  26
BRANCH  21  29
ATOM     29  O   UNL     1      52.704 -18.405  12.533  1.00  0.00    -0.387 OA
ATOM     30  H   UNL     1      53.460 -17.763  12.483  1.00  0.00     0.211 HD
ENDBRANCH  21  29
ENDBRANCH   1  16
TORSDOF 10
ENDMDL
MODEL 8
REMARK VINA RESULT:    -6.149      2.786      5.135
REMARK INTER + INTRA:          -9.527
REMARK INTER:                  -8.235
REMARK INTRA:                  -1.292
REMARK UNBOUND:                -0.861
REMARK SMILES OCC1=C[C@H](O)[C@H]2C=CO[C@@H](O[C@@H]3O[C@@H](CO)[C@H](O)[C@H](O)[C@H]3O)[C@H]12
REMARK SMILES IDX 12 1 11 2 8 3 9 4 7 5 10 6 24 7 5 8 3 9 4 10 6 11 2 13 1 14
REMARK SMILES IDX 13 16 22 17 14 18 20 19 15 20 18 21 23 22 21 24 16 26 17 27
REMARK SMILES IDX 19 29
REMARK H PARENT 6 12 1 15 23 23 21 25 17 28 19 30
REMARK Flexibility Score: inf
ROOT
ATOM      1  O   UNL     1      42.679  -9.275  11.812  1.00  0.00    -0.310 OA
ENDROOT
BRANCH   1   2
ATOM      2  C   UNL     1      42.131  -9.414  10.513  1.00  0.00     0.316 C 
ATOM      3  C   UNL     1      42.903  -9.625   7.708  1.00  0.00     0.018 C 
ATOM      4  C   UNL     1      43.101 -10.661   8.538  1.00  0.00     0.186 C 
ATOM      5  C   UNL     1      42.096  -8.485   8.235  1.00  0.00     0.061 C 
ATOM      6  O   UNL     1      42.700 -10.591   9.895  1.00  0.00    -0.472 OA
ATOM      7  C   UNL     1      42.525  -8.195   9.665  1.00  0.00     0.096 C 
ATOM      8  C   UNL     1      42.168  -7.118   7.559  1.00  0.00     0.145 C 
ATOM      9  C   UNL     1      41.916  -6.848   9.884  1.00  0.00    -0.036 C 
ATOM     10  C   UNL     1      41.783  -6.225   8.706  1.00  0.00     0.007 C 
BRANCH   8  11
ATOM     11  O   UNL     1      41.235  -7.007   6.521  1.00  0.00    -0.388 OA
ATOM     12  H   UNL     1      41.373  -6.109   6.119  1.00  0.00     0.211 HD
ENDBRANCH   8  11
BRANCH   9  13
ATOM     13  C   UNL     1      41.696  -6.177  11.212  1.00  0.00     0.187 C 
BRANCH  13  14
ATOM     14  O   UNL     1      42.827  -6.329  12.027  1.00  0.00    -0.392 OA
ATOM     15  H   UNL     1      42.648  -5.823  12.864  1.00  0.00     0.211 HD
ENDBRANCH  13  14
ENDBRANCH   9  13
ENDBRANCH   1   2
BRANCH   1  16
ATOM     16  C   UNL     1      43.443 -10.408  12.210  1.00  0.00     0.286 C 
ATOM     17  C   UNL     1      44.807 -10.007  12.834  1.00  0.00     0.202 C 
ATOM     18  O   UNL     1      42.689 -11.202  13.113  1.00  0.00    -0.341 OA
ATOM     19  C   UNL     1      44.620  -9.331  14.208  1.00  0.00     0.179 C 
ATOM     20  C   UNL     1      42.376 -10.495  14.305  1.00  0.00     0.178 C 
ATOM     21  C   UNL     1      43.661 -10.149  15.094  1.00  0.00     0.177 C 
BRANCH  17  22
ATOM     22  O   UNL     1      45.661 -11.122  12.938  1.00  0.00    -0.385 OA
ATOM     23  H   UNL     1      46.280 -11.115  12.163  1.00  0.00     0.211 HD
ENDBRANCH  17  22
BRANCH  19  24
ATOM     24  O   UNL     1      44.111  -8.031  14.040  1.00  0.00    -0.387 OA
ATOM     25  H   UNL     1      44.068  -7.619  14.942  1.00  0.00     0.211 HD
ENDBRANCH  19  24
BRANCH  20  26
ATOM     26  C   UNL     1      41.415 -11.354  15.140  1.00  0.00     0.191 C 
BRANCH  26  27
ATOM     27  O   UNL     1      42.119 -12.287  15.918  1.00  0.00    -0.394 OA
ATOM     28  H   UNL     1      41.571 -13.115  15.942  1.00  0.00     0.210 HD
ENDBRANCH  26  27
ENDBRANCH  20  26
BRANCH  21  29
ATOM     29  O   UNL     1      43.330  -9.417  16.246  1.00  0.00    -0.387 OA
ATOM     30  H   UNL     1      42.475  -9.792  16.587  1.00  0.00     0.211 HD
ENDBRANCH  21  29
ENDBRANCH   1  16
TORSDOF 10
ENDMDL
MODEL 9
REMARK VINA RESULT:    -6.100      2.207      6.192
REMARK INTER + INTRA:          -9.458
REMARK INTER:                  -8.665
REMARK INTRA:                  -0.794
REMARK UNBOUND:                -0.861
REMARK SMILES OCC1=C[C@H](O)[C@H]2C=CO[C@@H](O[C@@H]3O[C@@H](CO)[C@H](O)[C@H](O)[C@H]3O)[C@H]12
REMARK SMILES IDX 12 1 11 2 8 3 9 4 7 5 10 6 24 7 5 8 3 9 4 10 6 11 2 13 1 14
REMARK SMILES IDX 13 16 22 17 14 18 20 19 15 20 18 21 23 22 21 24 16 26 17 27
REMARK SMILES IDX 19 29
REMARK H PARENT 6 12 1 15 23 23 21 25 17 28 19 30
REMARK Flexibility Score: inf
ROOT
ATOM      1  O   UNL     1      43.645  -9.579  13.131  1.00  0.00    -0.310 OA
ENDROOT
BRANCH   1   2
ATOM      2  C   UNL     1      44.457 -10.547  12.490  1.00  0.00     0.316 C 
ATOM      3  C   UNL     1      45.845 -11.078   9.979  1.00  0.00     0.018 C 
ATOM      4  C   UNL     1      46.327 -10.159  10.830  1.00  0.00     0.186 C 
ATOM      5  C   UNL     1      44.724 -11.933  10.474  1.00  0.00     0.061 C 
ATOM      6  O   UNL     1      45.688  -9.913  12.071  1.00  0.00    -0.472 OA
ATOM      7  C   UNL     1      43.736 -11.060  11.233  1.00  0.00     0.096 C 
ATOM      8  C   UNL     1      43.842 -12.687   9.483  1.00  0.00     0.145 C 
ATOM      9  C   UNL     1      42.552 -11.968  11.316  1.00  0.00    -0.036 C 
ATOM     10  C   UNL     1      42.583 -12.831  10.293  1.00  0.00     0.007 C 
BRANCH   8  11
ATOM     11  O   UNL     1      44.371 -13.947   9.179  1.00  0.00    -0.388 OA
ATOM     12  H   UNL     1      44.091 -14.148   8.247  1.00  0.00     0.211 HD
ENDBRANCH   8  11
BRANCH   9  13
ATOM     13  C   UNL     1      41.376 -11.813  12.241  1.00  0.00     0.187 C 
BRANCH  13  14
ATOM     14  O   UNL     1      41.765 -12.050  13.567  1.00  0.00    -0.392 OA
ATOM     15  H   UNL     1      42.446 -11.363  13.794  1.00  0.00     0.211 HD
ENDBRANCH  13  14
ENDBRANCH   9  13
ENDBRANCH   1   2
BRANCH   1  16
ATOM     16  C   UNL     1      44.237  -8.286  13.143  1.00  0.00     0.286 C 
ATOM     17  C   UNL     1      43.381  -7.239  12.379  1.00  0.00     0.202 C 
ATOM     18  O   UNL     1      44.461  -7.873  14.482  1.00  0.00    -0.341 OA
ATOM     19  C   UNL     1      42.071  -6.927  13.132  1.00  0.00     0.179 C 
ATOM     20  C   UNL     1      43.247  -7.760  15.211  1.00  0.00     0.178 C 
ATOM     21  C   UNL     1      42.351  -6.646  14.621  1.00  0.00     0.177 C 
BRANCH  17  22
ATOM     22  O   UNL     1      44.115  -6.061  12.144  1.00  0.00    -0.385 OA
ATOM     23  H   UNL     1      43.522  -5.285  12.310  1.00  0.00     0.211 HD
ENDBRANCH  17  22
BRANCH  19  24
ATOM     24  O   UNL     1      41.179  -8.008  13.017  1.00  0.00    -0.387 OA
ATOM     25  H   UNL     1      40.310  -7.633  12.717  1.00  0.00     0.211 HD
ENDBRANCH  19  24
BRANCH  20  26
ATOM     26  C   UNL     1      43.588  -7.489  16.684  1.00  0.00     0.191 C 
BRANCH  26  27
ATOM     27  O   UNL     1      44.261  -8.581  17.254  1.00  0.00    -0.394 OA
ATOM     28  H   UNL     1      45.229  -8.358  17.250  1.00  0.00     0.210 HD
ENDBRANCH  26  27
ENDBRANCH  20  26
BRANCH  21  29
ATOM     29  O   UNL     1      41.141  -6.581  15.333  1.00  0.00    -0.387 OA
ATOM     30  H   UNL     1      41.359  -6.229  16.236  1.00  0.00     0.211 HD
ENDBRANCH  21  29
ENDBRANCH   1  16
TORSDOF 10
ENDMDL
