MODEL 1
REMARK VINA RESULT:    -5.875      0.000      0.000
REMARK INTER + INTRA:          -6.046
REMARK INTER:                  -6.046
REMARK INTRA:                   0.000
REMARK UNBOUND:                 0.000
REMARK SMILES C[C@H]1CC[C@@]2(OC1)O[C@@H]1C[C@@H]3[C@H]4CC=C5C[C@H](O)CC[C@@]5(C)[C@H]4CC[C@]3(C)[C@H]1[C@@H]2C
REMARK SMILES IDX 1 1 2 2 3 3 4 4 5 5 29 6 28 7 9 8 8 9 10 10 11 11 26 12
REMARK SMILES IDX 25 13 24 14 23 15 12 16 13 17 14 18 15 19 21 20 20 21 19 22
REMARK SMILES IDX 17 23 16 24 22 25 27 26 30 27 6 28 7 29 18 30
REMARK H PARENT 18 31
REMARK Flexibility Score: inf
ROOT
ATOM      1  C   UNL     1      -0.174  28.179  -4.471  1.00  0.00     0.010 C 
ATOM      2  C   UNL     1      -0.046  27.613  -5.894  1.00  0.00     0.012 C 
ATOM      3  C   UNL     1       0.775  26.315  -5.925  1.00  0.00     0.011 C 
ATOM      4  C   UNL     1      -0.024  25.136  -5.363  1.00  0.00     0.066 C 
ATOM      5  C   UNL     1      -1.436  25.063  -5.993  1.00  0.00     0.171 C 
ATOM      6  C   UNL     1      -2.274  23.937  -5.281  1.00  0.00     0.052 C 
ATOM      7  C   UNL     1      -2.964  23.360  -6.486  1.00  0.00     0.033 C 
ATOM      8  C   UNL     1      -1.830  23.408  -7.442  1.00  0.00     0.126 C 
ATOM      9  O   UNL     1      -1.343  24.719  -7.384  1.00  0.00    -0.346 OA
ATOM     10  C   UNL     1      -2.445  22.899  -8.722  1.00  0.00     0.037 C 
ATOM     11  C   UNL     1      -3.359  21.733  -8.222  1.00  0.00     0.002 C 
ATOM     12  C   UNL     1      -3.545  21.947  -6.671  1.00  0.00    -0.024 C 
ATOM     13  C   UNL     1      -5.025  21.876  -6.221  1.00  0.00     0.008 C 
ATOM     14  C   UNL     1      -6.013  22.690  -7.071  1.00  0.00     0.005 C 
ATOM     15  C   UNL     1      -5.712  22.739  -8.604  1.00  0.00     0.003 C 
ATOM     16  C   UNL     1      -4.682  21.658  -9.036  1.00  0.00     0.000 C 
ATOM     17  C   UNL     1      -5.291  20.227  -9.056  1.00  0.00     0.031 C 
ATOM     18  C   UNL     1      -6.805  20.165  -9.122  1.00  0.00    -0.027 C 
ATOM     19  C   UNL     1      -7.606  21.242  -9.289  1.00  0.00    -0.065 C 
ATOM     20  C   UNL     1      -7.007  22.629  -9.489  1.00  0.00    -0.008 C 
ATOM     21  C   UNL     1      -8.042  23.728  -9.097  1.00  0.00     0.014 C 
ATOM     22  C   UNL     1      -9.413  23.561  -9.783  1.00  0.00     0.033 C 
ATOM     23  C   UNL     1      -9.950  22.105  -9.801  1.00  0.00     0.118 C 
ATOM     24  C   UNL     1      -9.089  21.094  -9.016  1.00  0.00     0.063 C 
ATOM     25  C   UNL     1      -6.642  22.817 -10.991  1.00  0.00     0.016 C 
ATOM     26  C   UNL     1      -2.753  20.886  -5.867  1.00  0.00     0.012 C 
ATOM     27  C   UNL     1      -3.251  24.435  -4.208  1.00  0.00     0.014 C 
ATOM     28  O   UNL     1      -2.111  26.311  -5.854  1.00  0.00    -0.349 OA
ATOM     29  C   UNL     1      -1.426  27.359  -6.518  1.00  0.00     0.167 C 
ENDROOT
BRANCH  23  30
ATOM     30  O   UNL     1     -10.163  21.666 -11.120  1.00  0.00    -0.393 OA
ATOM     31  H   UNL     1      -9.817  22.363 -11.733  1.00  0.00     0.210 HD
ENDBRANCH  23  30
TORSDOF 1
ENDMDL
MODEL 2
REMARK VINA RESULT:    -5.340      2.965      4.313
REMARK INTER + INTRA:          -5.496
REMARK INTER:                  -5.496
REMARK INTRA:                   0.000
REMARK UNBOUND:                 0.000
REMARK SMILES C[C@H]1CC[C@@]2(OC1)O[C@@H]1C[C@@H]3[C@H]4CC=C5C[C@H](O)CC[C@@]5(C)[C@H]4CC[C@]3(C)[C@H]1[C@@H]2C
REMARK SMILES IDX 1 1 2 2 3 3 4 4 5 5 29 6 28 7 9 8 8 9 10 10 11 11 26 12
REMARK SMILES IDX 25 13 24 14 23 15 12 16 13 17 14 18 15 19 21 20 20 21 19 22
REMARK SMILES IDX 17 23 16 24 22 25 27 26 30 27 6 28 7 29 18 30
REMARK H PARENT 18 31
REMARK Flexibility Score: inf
ROOT
ATOM      1  C   UNL     1       0.725  24.918  -8.864  1.00  0.00     0.010 C 
ATOM      2  C   UNL     1      -0.510  25.357  -9.664  1.00  0.00     0.012 C 
ATOM      3  C   UNL     1      -0.873  24.346 -10.762  1.00  0.00     0.011 C 
ATOM      4  C   UNL     1      -1.514  23.087 -10.171  1.00  0.00     0.066 C 
ATOM      5  C   UNL     1      -2.644  23.446  -9.175  1.00  0.00     0.171 C 
ATOM      6  C   UNL     1      -3.170  22.137  -8.479  1.00  0.00     0.052 C 
ATOM      7  C   UNL     1      -4.642  22.446  -8.477  1.00  0.00     0.033 C 
ATOM      8  C   UNL     1      -4.747  23.058  -9.825  1.00  0.00     0.126 C 
ATOM      9  O   UNL     1      -3.751  24.040  -9.872  1.00  0.00    -0.346 OA
ATOM     10  C   UNL     1      -6.197  23.466  -9.899  1.00  0.00     0.037 C 
ATOM     11  C   UNL     1      -6.927  22.257  -9.225  1.00  0.00     0.002 C 
ATOM     12  C   UNL     1      -5.826  21.465  -8.422  1.00  0.00    -0.024 C 
ATOM     13  C   UNL     1      -6.243  21.155  -6.963  1.00  0.00     0.008 C 
ATOM     14  C   UNL     1      -6.833  22.339  -6.181  1.00  0.00     0.005 C 
ATOM     15  C   UNL     1      -7.721  23.324  -7.005  1.00  0.00     0.003 C 
ATOM     16  C   UNL     1      -8.143  22.729  -8.378  1.00  0.00     0.000 C 
ATOM     17  C   UNL     1      -9.237  21.631  -8.242  1.00  0.00     0.031 C 
ATOM     18  C   UNL     1     -10.020  21.650  -6.943  1.00  0.00    -0.027 C 
ATOM     19  C   UNL     1      -9.907  22.611  -5.998  1.00  0.00    -0.065 C 
ATOM     20  C   UNL     1      -8.994  23.811  -6.221  1.00  0.00    -0.008 C 
ATOM     21  C   UNL     1      -8.592  24.446  -4.853  1.00  0.00     0.014 C 
ATOM     22  C   UNL     1      -9.793  24.766  -3.942  1.00  0.00     0.033 C 
ATOM     23  C   UNL     1     -10.867  23.646  -3.876  1.00  0.00     0.118 C 
ATOM     24  C   UNL     1     -10.490  22.352  -4.624  1.00  0.00     0.063 C 
ATOM     25  C   UNL     1      -9.754  24.885  -7.052  1.00  0.00     0.016 C 
ATOM     26  C   UNL     1      -5.495  20.119  -9.117  1.00  0.00     0.012 C 
ATOM     27  C   UNL     1      -2.607  21.877  -7.075  1.00  0.00     0.014 C 
ATOM     28  O   UNL     1      -2.167  24.349  -8.180  1.00  0.00    -0.349 OA
ATOM     29  C   UNL     1      -1.722  25.570  -8.745  1.00  0.00     0.167 C 
ENDROOT
BRANCH  23  30
ATOM     30  O   UNL     1     -12.118  24.126  -4.300  1.00  0.00    -0.393 OA
ATOM     31  H   UNL     1     -12.797  23.832  -3.642  1.00  0.00     0.210 HD
ENDBRANCH  23  30
TORSDOF 1
ENDMDL
MODEL 3
REMARK VINA RESULT:    -5.062      3.216      4.579
REMARK INTER + INTRA:          -5.210
REMARK INTER:                  -5.210
REMARK INTRA:                   0.000
REMARK UNBOUND:                 0.000
REMARK SMILES C[C@H]1CC[C@@]2(OC1)O[C@@H]1C[C@@H]3[C@H]4CC=C5C[C@H](O)CC[C@@]5(C)[C@H]4CC[C@]3(C)[C@H]1[C@@H]2C
REMARK SMILES IDX 1 1 2 2 3 3 4 4 5 5 29 6 28 7 9 8 8 9 10 10 11 11 26 12
REMARK SMILES IDX 25 13 24 14 23 15 12 16 13 17 14 18 15 19 21 20 20 21 19 22
REMARK SMILES IDX 17 23 16 24 22 25 27 26 30 27 6 28 7 29 18 30
REMARK H PARENT 18 31
REMARK Flexibility Score: inf
ROOT
ATOM      1  C   UNL     1      -0.427  28.731  -8.915  1.00  0.00     0.010 C 
ATOM      2  C   UNL     1      -1.851  29.068  -9.384  1.00  0.00     0.012 C 
ATOM      3  C   UNL     1      -2.147  28.498 -10.779  1.00  0.00     0.011 C 
ATOM      4  C   UNL     1      -2.358  26.982 -10.729  1.00  0.00     0.066 C 
ATOM      5  C   UNL     1      -3.352  26.590  -9.608  1.00  0.00     0.171 C 
ATOM      6  C   UNL     1      -3.423  25.023  -9.490  1.00  0.00     0.052 C 
ATOM      7  C   UNL     1      -4.903  24.870  -9.272  1.00  0.00     0.033 C 
ATOM      8  C   UNL     1      -5.382  25.894 -10.233  1.00  0.00     0.126 C 
ATOM      9  O   UNL     1      -4.671  27.061  -9.927  1.00  0.00    -0.346 OA
ATOM     10  C   UNL     1      -6.878  25.864 -10.043  1.00  0.00     0.037 C 
ATOM     11  C   UNL     1      -7.172  24.335  -9.891  1.00  0.00     0.002 C 
ATOM     12  C   UNL     1      -5.792  23.648  -9.559  1.00  0.00    -0.024 C 
ATOM     13  C   UNL     1      -5.865  22.696  -8.340  1.00  0.00     0.008 C 
ATOM     14  C   UNL     1      -6.576  23.265  -7.101  1.00  0.00     0.005 C 
ATOM     15  C   UNL     1      -7.802  24.191  -7.385  1.00  0.00     0.003 C 
ATOM     16  C   UNL     1      -8.300  24.074  -8.854  1.00  0.00     0.000 C 
ATOM     17  C   UNL     1      -9.061  22.743  -9.121  1.00  0.00     0.031 C 
ATOM     18  C   UNL     1      -9.590  22.037  -7.888  1.00  0.00    -0.027 C 
ATOM     19  C   UNL     1      -9.548  22.550  -6.637  1.00  0.00    -0.065 C 
ATOM     20  C   UNL     1      -8.998  23.951  -6.394  1.00  0.00    -0.008 C 
ATOM     21  C   UNL     1      -8.529  24.099  -4.914  1.00  0.00     0.014 C 
ATOM     22  C   UNL     1      -9.597  23.684  -3.881  1.00  0.00     0.033 C 
ATOM     23  C   UNL     1     -10.345  22.368  -4.223  1.00  0.00     0.118 C 
ATOM     24  C   UNL     1      -9.806  21.627  -5.464  1.00  0.00     0.063 C 
ATOM     25  C   UNL     1     -10.124  24.994  -6.655  1.00  0.00     0.016 C 
ATOM     26  C   UNL     1      -5.276  22.829 -10.770  1.00  0.00     0.012 C 
ATOM     27  C   UNL     1      -2.581  24.418  -8.359  1.00  0.00     0.014 C 
ATOM     28  O   UNL     1      -2.939  27.138  -8.358  1.00  0.00    -0.349 OA
ATOM     29  C   UNL     1      -2.902  28.554  -8.389  1.00  0.00     0.167 C 
ENDROOT
BRANCH  23  30
ATOM     30  O   UNL     1     -11.729  22.592  -4.333  1.00  0.00    -0.393 OA
ATOM     31  H   UNL     1     -12.166  21.721  -4.508  1.00  0.00     0.210 HD
ENDBRANCH  23  30
TORSDOF 1
ENDMDL
MODEL 4
REMARK VINA RESULT:    -4.964      2.498      7.812
REMARK INTER + INTRA:          -5.109
REMARK INTER:                  -5.109
REMARK INTRA:                   0.000
REMARK UNBOUND:                 0.000
REMARK SMILES C[C@H]1CC[C@@]2(OC1)O[C@@H]1C[C@@H]3[C@H]4CC=C5C[C@H](O)CC[C@@]5(C)[C@H]4CC[C@]3(C)[C@H]1[C@@H]2C
REMARK SMILES IDX 1 1 2 2 3 3 4 4 5 5 29 6 28 7 9 8 8 9 10 10 11 11 26 12
REMARK SMILES IDX 25 13 24 14 23 15 12 16 13 17 14 18 15 19 21 20 20 21 19 22
REMARK SMILES IDX 17 23 16 24 22 25 27 26 30 27 6 28 7 29 18 30
REMARK H PARENT 18 31
REMARK Flexibility Score: inf
ROOT
ATOM      1  C   UNL     1     -10.849  21.641  -9.889  1.00  0.00     0.010 C 
ATOM      2  C   UNL     1     -10.449  22.648  -8.801  1.00  0.00     0.012 C 
ATOM      3  C   UNL     1     -10.000  21.950  -7.508  1.00  0.00     0.011 C 
ATOM      4  C   UNL     1      -8.607  21.333  -7.664  1.00  0.00     0.066 C 
ATOM      5  C   UNL     1      -7.608  22.347  -8.274  1.00  0.00     0.171 C 
ATOM      6  C   UNL     1      -6.236  21.630  -8.557  1.00  0.00     0.052 C 
ATOM      7  C   UNL     1      -5.303  22.725  -8.119  1.00  0.00     0.033 C 
ATOM      8  C   UNL     1      -6.042  23.187  -6.918  1.00  0.00     0.126 C 
ATOM      9  O   UNL     1      -7.355  23.414  -7.346  1.00  0.00    -0.346 OA
ATOM     10  C   UNL     1      -5.207  24.345  -6.431  1.00  0.00     0.037 C 
ATOM     11  C   UNL     1      -3.747  23.826  -6.642  1.00  0.00     0.002 C 
ATOM     12  C   UNL     1      -3.847  22.607  -7.637  1.00  0.00    -0.024 C 
ATOM     13  C   UNL     1      -2.846  22.699  -8.815  1.00  0.00     0.008 C 
ATOM     14  C   UNL     1      -2.788  24.062  -9.524  1.00  0.00     0.005 C 
ATOM     15  C   UNL     1      -2.962  25.315  -8.608  1.00  0.00     0.003 C 
ATOM     16  C   UNL     1      -2.798  24.969  -7.101  1.00  0.00     0.000 C 
ATOM     17  C   UNL     1      -1.316  24.710  -6.707  1.00  0.00     0.031 C 
ATOM     18  C   UNL     1      -0.280  25.269  -7.663  1.00  0.00    -0.027 C 
ATOM     19  C   UNL     1      -0.568  26.059  -8.723  1.00  0.00    -0.065 C 
ATOM     20  C   UNL     1      -2.002  26.499  -8.993  1.00  0.00    -0.008 C 
ATOM     21  C   UNL     1      -2.176  26.887 -10.494  1.00  0.00     0.014 C 
ATOM     22  C   UNL     1      -1.131  27.904 -10.995  1.00  0.00     0.033 C 
ATOM     23  C   UNL     1       0.324  27.609 -10.539  1.00  0.00     0.118 C 
ATOM     24  C   UNL     1       0.500  26.281  -9.774  1.00  0.00     0.063 C 
ATOM     25  C   UNL     1      -2.325  27.750  -8.125  1.00  0.00     0.016 C 
ATOM     26  C   UNL     1      -3.589  21.268  -6.899  1.00  0.00     0.012 C 
ATOM     27  C   UNL     1      -6.018  21.198 -10.013  1.00  0.00     0.014 C 
ATOM     28  O   UNL     1      -8.119  22.883  -9.491  1.00  0.00    -0.349 OA
ATOM     29  C   UNL     1      -9.334  23.584  -9.290  1.00  0.00     0.167 C 
ENDROOT
BRANCH  23  30
ATOM     30  O   UNL     1       0.845  28.687  -9.802  1.00  0.00    -0.393 OA
ATOM     31  H   UNL     1       1.773  28.457  -9.540  1.00  0.00     0.210 HD
ENDBRANCH  23  30
TORSDOF 1
ENDMDL
MODEL 5
REMARK VINA RESULT:    -4.889      1.484      2.161
REMARK INTER + INTRA:          -5.032
REMARK INTER:                  -5.032
REMARK INTRA:                   0.000
REMARK UNBOUND:                 0.000
REMARK SMILES C[C@H]1CC[C@@]2(OC1)O[C@@H]1C[C@@H]3[C@H]4CC=C5C[C@H](O)CC[C@@]5(C)[C@H]4CC[C@]3(C)[C@H]1[C@@H]2C
REMARK SMILES IDX 1 1 2 2 3 3 4 4 5 5 29 6 28 7 9 8 8 9 10 10 11 11 26 12
REMARK SMILES IDX 25 13 24 14 23 15 12 16 13 17 14 18 15 19 21 20 20 21 19 22
REMARK SMILES IDX 17 23 16 24 22 25 27 26 30 27 6 28 7 29 18 30
REMARK H PARENT 18 31
REMARK Flexibility Score: inf
ROOT
ATOM      1  C   UNL     1       1.067  27.826  -7.892  1.00  0.00     0.010 C 
ATOM      2  C   UNL     1       0.993  26.301  -8.066  1.00  0.00     0.012 C 
ATOM      3  C   UNL     1       1.119  25.563  -6.725  1.00  0.00     0.011 C 
ATOM      4  C   UNL     1      -0.165  25.684  -5.899  1.00  0.00     0.066 C 
ATOM      5  C   UNL     1      -1.414  25.346  -6.748  1.00  0.00     0.171 C 
ATOM      6  C   UNL     1      -2.715  25.630  -5.909  1.00  0.00     0.052 C 
ATOM      7  C   UNL     1      -3.529  24.436  -6.326  1.00  0.00     0.033 C 
ATOM      8  C   UNL     1      -2.453  23.414  -6.320  1.00  0.00     0.126 C 
ATOM      9  O   UNL     1      -1.418  23.951  -7.093  1.00  0.00    -0.346 OA
ATOM     10  C   UNL     1      -3.165  22.171  -6.793  1.00  0.00     0.037 C 
ATOM     11  C   UNL     1      -4.541  22.264  -6.055  1.00  0.00     0.002 C 
ATOM     12  C   UNL     1      -4.689  23.759  -5.575  1.00  0.00    -0.024 C 
ATOM     13  C   UNL     1      -6.055  24.385  -5.950  1.00  0.00     0.008 C 
ATOM     14  C   UNL     1      -6.505  24.164  -7.403  1.00  0.00     0.005 C 
ATOM     15  C   UNL     1      -6.135  22.781  -8.027  1.00  0.00     0.003 C 
ATOM     16  C   UNL     1      -5.702  21.746  -6.951  1.00  0.00     0.000 C 
ATOM     17  C   UNL     1      -6.904  21.211  -6.120  1.00  0.00     0.031 C 
ATOM     18  C   UNL     1      -8.268  21.392  -6.758  1.00  0.00    -0.027 C 
ATOM     19  C   UNL     1      -8.468  21.856  -8.013  1.00  0.00    -0.065 C 
ATOM     20  C   UNL     1      -7.284  22.179  -8.916  1.00  0.00    -0.008 C 
ATOM     21  C   UNL     1      -7.710  23.188 -10.028  1.00  0.00     0.014 C 
ATOM     22  C   UNL     1      -8.963  22.751 -10.813  1.00  0.00     0.033 C 
ATOM     23  C   UNL     1     -10.113  22.193  -9.931  1.00  0.00     0.118 C 
ATOM     24  C   UNL     1      -9.862  22.293  -8.412  1.00  0.00     0.063 C 
ATOM     25  C   UNL     1      -6.795  20.872  -9.606  1.00  0.00     0.016 C 
ATOM     26  C   UNL     1      -4.524  23.865  -4.038  1.00  0.00     0.012 C 
ATOM     27  C   UNL     1      -3.405  26.966  -6.214  1.00  0.00     0.014 C 
ATOM     28  O   UNL     1      -1.440  26.132  -7.937  1.00  0.00    -0.349 OA
ATOM     29  C   UNL     1      -0.313  25.883  -8.759  1.00  0.00     0.167 C 
ENDROOT
BRANCH  23  30
ATOM     30  O   UNL     1     -10.435  20.876 -10.302  1.00  0.00    -0.393 OA
ATOM     31  H   UNL     1     -10.493  20.332  -9.476  1.00  0.00     0.210 HD
ENDBRANCH  23  30
TORSDOF 1
ENDMDL
MODEL 6
REMARK VINA RESULT:    -4.678      2.676      3.317
REMARK INTER + INTRA:          -4.815
REMARK INTER:                  -4.815
REMARK INTRA:                   0.000
REMARK UNBOUND:                 0.000
REMARK SMILES C[C@H]1CC[C@@]2(OC1)O[C@@H]1C[C@@H]3[C@H]4CC=C5C[C@H](O)CC[C@@]5(C)[C@H]4CC[C@]3(C)[C@H]1[C@@H]2C
REMARK SMILES IDX 1 1 2 2 3 3 4 4 5 5 29 6 28 7 9 8 8 9 10 10 11 11 26 12
REMARK SMILES IDX 25 13 24 14 23 15 12 16 13 17 14 18 15 19 21 20 20 21 19 22
REMARK SMILES IDX 17 23 16 24 22 25 27 26 30 27 6 28 7 29 18 30
REMARK H PARENT 18 31
REMARK Flexibility Score: inf
ROOT
ATOM      1  C   UNL     1      -0.487  29.124 -10.982  1.00  0.00     0.010 C 
ATOM      2  C   UNL     1      -0.767  27.718 -11.534  1.00  0.00     0.012 C 
ATOM      3  C   UNL     1       0.252  26.687 -11.027  1.00  0.00     0.011 C 
ATOM      4  C   UNL     1      -0.000  26.328  -9.560  1.00  0.00     0.066 C 
ATOM      5  C   UNL     1      -1.491  25.990  -9.312  1.00  0.00     0.171 C 
ATOM      6  C   UNL     1      -1.735  25.777  -7.773  1.00  0.00     0.052 C 
ATOM      7  C   UNL     1      -2.672  24.603  -7.843  1.00  0.00     0.033 C 
ATOM      8  C   UNL     1      -2.009  23.849  -8.936  1.00  0.00     0.126 C 
ATOM      9  O   UNL     1      -1.840  24.766  -9.979  1.00  0.00    -0.346 OA
ATOM     10  C   UNL     1      -2.921  22.663  -9.130  1.00  0.00     0.037 C 
ATOM     11  C   UNL     1      -3.303  22.282  -7.661  1.00  0.00     0.002 C 
ATOM     12  C   UNL     1      -2.949  23.534  -6.771  1.00  0.00    -0.024 C 
ATOM     13  C   UNL     1      -4.105  23.957  -5.830  1.00  0.00     0.008 C 
ATOM     14  C   UNL     1      -5.491  24.049  -6.489  1.00  0.00     0.005 C 
ATOM     15  C   UNL     1      -5.793  22.984  -7.592  1.00  0.00     0.003 C 
ATOM     16  C   UNL     1      -4.780  21.805  -7.564  1.00  0.00     0.000 C 
ATOM     17  C   UNL     1      -5.018  20.842  -6.366  1.00  0.00     0.031 C 
ATOM     18  C   UNL     1      -6.396  20.914  -5.736  1.00  0.00    -0.027 C 
ATOM     19  C   UNL     1      -7.421  21.649  -6.226  1.00  0.00    -0.065 C 
ATOM     20  C   UNL     1      -7.262  22.429  -7.527  1.00  0.00    -0.008 C 
ATOM     21  C   UNL     1      -8.298  23.594  -7.589  1.00  0.00     0.014 C 
ATOM     22  C   UNL     1      -9.750  23.145  -7.331  1.00  0.00     0.033 C 
ATOM     23  C   UNL     1      -9.917  22.157  -6.145  1.00  0.00     0.118 C 
ATOM     24  C   UNL     1      -8.627  21.893  -5.343  1.00  0.00     0.063 C 
ATOM     25  C   UNL     1      -7.526  21.477  -8.729  1.00  0.00     0.016 C 
ATOM     26  C   UNL     1      -1.702  23.256  -5.895  1.00  0.00     0.012 C 
ATOM     27  C   UNL     1      -2.334  26.983  -7.037  1.00  0.00     0.014 C 
ATOM     28  O   UNL     1      -2.328  27.045  -9.780  1.00  0.00    -0.349 OA
ATOM     29  C   UNL     1      -2.186  27.252 -11.175  1.00  0.00     0.167 C 
ENDROOT
BRANCH  23  30
ATOM     30  O   UNL     1     -10.496  20.950  -6.576  1.00  0.00    -0.393 OA
ATOM     31  H   UNL     1     -10.762  21.061  -7.524  1.00  0.00     0.210 HD
ENDBRANCH  23  30
TORSDOF 1
ENDMDL
MODEL 7
REMARK VINA RESULT:    -4.639      1.844      2.703
REMARK INTER + INTRA:          -4.775
REMARK INTER:                  -4.775
REMARK INTRA:                   0.000
REMARK UNBOUND:                 0.000
REMARK SMILES C[C@H]1CC[C@@]2(OC1)O[C@@H]1C[C@@H]3[C@H]4CC=C5C[C@H](O)CC[C@@]5(C)[C@H]4CC[C@]3(C)[C@H]1[C@@H]2C
REMARK SMILES IDX 1 1 2 2 3 3 4 4 5 5 29 6 28 7 9 8 8 9 10 10 11 11 26 12
REMARK SMILES IDX 25 13 24 14 23 15 12 16 13 17 14 18 15 19 21 20 20 21 19 22
REMARK SMILES IDX 17 23 16 24 22 25 27 26 30 27 6 28 7 29 18 30
REMARK H PARENT 18 31
REMARK Flexibility Score: inf
ROOT
ATOM      1  C   UNL     1       1.125  24.088  -3.875  1.00  0.00     0.010 C 
ATOM      2  C   UNL     1       0.896  24.524  -5.330  1.00  0.00     0.012 C 
ATOM      3  C   UNL     1       1.125  23.371  -6.319  1.00  0.00     0.011 C 
ATOM      4  C   UNL     1      -0.029  22.364  -6.278  1.00  0.00     0.066 C 
ATOM      5  C   UNL     1      -1.400  23.077  -6.369  1.00  0.00     0.171 C 
ATOM      6  C   UNL     1      -2.555  22.027  -6.170  1.00  0.00     0.052 C 
ATOM      7  C   UNL     1      -3.517  22.536  -7.209  1.00  0.00     0.033 C 
ATOM      8  C   UNL     1      -2.543  22.866  -8.278  1.00  0.00     0.126 C 
ATOM      9  O   UNL     1      -1.569  23.666  -7.668  1.00  0.00    -0.346 OA
ATOM     10  C   UNL     1      -3.414  23.452  -9.361  1.00  0.00     0.037 C 
ATOM     11  C   UNL     1      -4.673  22.524  -9.325  1.00  0.00     0.002 C 
ATOM     12  C   UNL     1      -4.627  21.765  -7.944  1.00  0.00    -0.024 C 
ATOM     13  C   UNL     1      -5.969  21.824  -7.173  1.00  0.00     0.008 C 
ATOM     14  C   UNL     1      -6.617  23.216  -7.083  1.00  0.00     0.005 C 
ATOM     15  C   UNL     1      -6.451  24.127  -8.341  1.00  0.00     0.003 C 
ATOM     16  C   UNL     1      -5.979  23.328  -9.588  1.00  0.00     0.000 C 
ATOM     17  C   UNL     1      -7.108  22.448 -10.196  1.00  0.00     0.031 C 
ATOM     18  C   UNL     1      -8.521  22.845  -9.812  1.00  0.00    -0.027 C 
ATOM     19  C   UNL     1      -8.836  23.954  -9.104  1.00  0.00    -0.065 C 
ATOM     20  C   UNL     1      -7.751  24.941  -8.688  1.00  0.00    -0.008 C 
ATOM     21  C   UNL     1      -8.223  25.779  -7.461  1.00  0.00     0.014 C 
ATOM     22  C   UNL     1      -9.599  26.447  -7.660  1.00  0.00     0.033 C 
ATOM     23  C   UNL     1     -10.673  25.529  -8.303  1.00  0.00     0.118 C 
ATOM     24  C   UNL     1     -10.225  24.068  -8.513  1.00  0.00     0.063 C 
ATOM     25  C   UNL     1      -7.469  25.918  -9.866  1.00  0.00     0.016 C 
ATOM     26  C   UNL     1      -4.261  20.273  -8.145  1.00  0.00     0.012 C 
ATOM     27  C   UNL     1      -3.158  21.984  -4.760  1.00  0.00     0.014 C 
ATOM     28  O   UNL     1      -1.506  24.088  -5.369  1.00  0.00    -0.349 OA
ATOM     29  C   UNL     1      -0.518  25.091  -5.526  1.00  0.00     0.167 C 
ENDROOT
BRANCH  23  30
ATOM     30  O   UNL     1     -11.154  26.084  -9.502  1.00  0.00    -0.393 OA
ATOM     31  H   UNL     1     -10.977  27.059  -9.479  1.00  0.00     0.210 HD
ENDBRANCH  23  30
TORSDOF 1
ENDMDL
MODEL 8
REMARK VINA RESULT:    -4.564      2.872      4.069
REMARK INTER + INTRA:          -4.698
REMARK INTER:                  -4.698
REMARK INTRA:                   0.000
REMARK UNBOUND:                 0.000
REMARK SMILES C[C@H]1CC[C@@]2(OC1)O[C@@H]1C[C@@H]3[C@H]4CC=C5C[C@H](O)CC[C@@]5(C)[C@H]4CC[C@]3(C)[C@H]1[C@@H]2C
REMARK SMILES IDX 1 1 2 2 3 3 4 4 5 5 29 6 28 7 9 8 8 9 10 10 11 11 26 12
REMARK SMILES IDX 25 13 24 14 23 15 12 16 13 17 14 18 15 19 21 20 20 21 19 22
REMARK SMILES IDX 17 23 16 24 22 25 27 26 30 27 6 28 7 29 18 30
REMARK H PARENT 18 31
REMARK Flexibility Score: inf
ROOT
ATOM      1  C   UNL     1       0.791  21.829  -3.875  1.00  0.00     0.010 C 
ATOM      2  C   UNL     1       0.178  21.037  -5.039  1.00  0.00     0.012 C 
ATOM      3  C   UNL     1      -0.780  19.941  -4.548  1.00  0.00     0.011 C 
ATOM      4  C   UNL     1      -2.102  20.536  -4.056  1.00  0.00     0.066 C 
ATOM      5  C   UNL     1      -2.684  21.539  -5.082  1.00  0.00     0.171 C 
ATOM      6  C   UNL     1      -3.955  22.238  -4.474  1.00  0.00     0.052 C 
ATOM      7  C   UNL     1      -4.826  22.249  -5.700  1.00  0.00     0.033 C 
ATOM      8  C   UNL     1      -4.494  20.902  -6.227  1.00  0.00     0.126 C 
ATOM      9  O   UNL     1      -3.097  20.848  -6.272  1.00  0.00    -0.346 OA
ATOM     10  C   UNL     1      -5.283  20.837  -7.511  1.00  0.00     0.037 C 
ATOM     11  C   UNL     1      -6.636  21.515  -7.116  1.00  0.00     0.002 C 
ATOM     12  C   UNL     1      -6.362  22.311  -5.783  1.00  0.00    -0.024 C 
ATOM     13  C   UNL     1      -6.872  23.773  -5.832  1.00  0.00     0.008 C 
ATOM     14  C   UNL     1      -6.498  24.559  -7.099  1.00  0.00     0.005 C 
ATOM     15  C   UNL     1      -6.485  23.740  -8.429  1.00  0.00     0.003 C 
ATOM     16  C   UNL     1      -7.205  22.370  -8.284  1.00  0.00     0.000 C 
ATOM     17  C   UNL     1      -8.753  22.513  -8.219  1.00  0.00     0.031 C 
ATOM     18  C   UNL     1      -9.310  23.816  -8.759  1.00  0.00    -0.027 C 
ATOM     19  C   UNL     1      -8.570  24.761  -9.384  1.00  0.00    -0.065 C 
ATOM     20  C   UNL     1      -7.086  24.533  -9.647  1.00  0.00    -0.008 C 
ATOM     21  C   UNL     1      -6.354  25.898  -9.834  1.00  0.00     0.014 C 
ATOM     22  C   UNL     1      -7.015  26.817 -10.881  1.00  0.00     0.033 C 
ATOM     23  C   UNL     1      -8.563  26.889 -10.787  1.00  0.00     0.118 C 
ATOM     24  C   UNL     1      -9.168  26.138  -9.583  1.00  0.00     0.063 C 
ATOM     25  C   UNL     1      -6.919  23.707 -10.955  1.00  0.00     0.016 C 
ATOM     26  C   UNL     1      -7.035  21.614  -4.574  1.00  0.00     0.012 C 
ATOM     27  C   UNL     1      -3.712  23.638  -3.895  1.00  0.00     0.014 C 
ATOM     28  O   UNL     1      -1.716  22.531  -5.417  1.00  0.00    -0.349 OA
ATOM     29  C   UNL     1      -0.563  21.963  -6.015  1.00  0.00     0.167 C 
ENDROOT
BRANCH  23  30
ATOM     30  O   UNL     1      -9.158  26.473 -11.991  1.00  0.00    -0.393 OA
ATOM     31  H   UNL     1      -9.023  27.189 -12.661  1.00  0.00     0.210 HD
ENDBRANCH  23  30
TORSDOF 1
ENDMDL
MODEL 9
REMARK VINA RESULT:    -4.515      3.653      5.222
REMARK INTER + INTRA:          -4.647
REMARK INTER:                  -4.647
REMARK INTRA:                   0.000
REMARK UNBOUND:                 0.000
REMARK SMILES C[C@H]1CC[C@@]2(OC1)O[C@@H]1C[C@@H]3[C@H]4CC=C5C[C@H](O)CC[C@@]5(C)[C@H]4CC[C@]3(C)[C@H]1[C@@H]2C
REMARK SMILES IDX 1 1 2 2 3 3 4 4 5 5 29 6 28 7 9 8 8 9 10 10 11 11 26 12
REMARK SMILES IDX 25 13 24 14 23 15 12 16 13 17 14 18 15 19 21 20 20 21 19 22
REMARK SMILES IDX 17 23 16 24 22 25 27 26 30 27 6 28 7 29 18 30
REMARK H PARENT 18 31
REMARK Flexibility Score: inf
ROOT
ATOM      1  C   UNL     1       0.803  28.112 -12.730  1.00  0.00     0.010 C 
ATOM      2  C   UNL     1       0.705  27.615 -11.280  1.00  0.00     0.012 C 
ATOM      3  C   UNL     1       0.330  28.745 -10.309  1.00  0.00     0.011 C 
ATOM      4  C   UNL     1      -1.148  29.125 -10.440  1.00  0.00     0.066 C 
ATOM      5  C   UNL     1      -2.056  27.871 -10.409  1.00  0.00     0.171 C 
ATOM      6  C   UNL     1      -3.544  28.290 -10.699  1.00  0.00     0.052 C 
ATOM      7  C   UNL     1      -4.237  27.400  -9.704  1.00  0.00     0.033 C 
ATOM      8  C   UNL     1      -3.286  27.539  -8.573  1.00  0.00     0.126 C 
ATOM      9  O   UNL     1      -2.022  27.265  -9.107  1.00  0.00    -0.346 OA
ATOM     10  C   UNL     1      -3.867  26.620  -7.528  1.00  0.00     0.037 C 
ATOM     11  C   UNL     1      -5.403  26.883  -7.657  1.00  0.00     0.002 C 
ATOM     12  C   UNL     1      -5.618  27.586  -9.052  1.00  0.00    -0.024 C 
ATOM     13  C   UNL     1      -6.741  26.932  -9.896  1.00  0.00     0.008 C 
ATOM     14  C   UNL     1      -6.687  25.398  -9.988  1.00  0.00     0.005 C 
ATOM     15  C   UNL     1      -6.208  24.655  -8.700  1.00  0.00     0.003 C 
ATOM     16  C   UNL     1      -6.222  25.577  -7.449  1.00  0.00     0.000 C 
ATOM     17  C   UNL     1      -7.662  25.852  -6.927  1.00  0.00     0.031 C 
ATOM     18  C   UNL     1      -8.719  24.864  -7.381  1.00  0.00    -0.027 C 
ATOM     19  C   UNL     1      -8.458  23.734  -8.078  1.00  0.00    -0.065 C 
ATOM     20  C   UNL     1      -7.022  23.342  -8.407  1.00  0.00    -0.008 C 
ATOM     21  C   UNL     1      -6.991  22.385  -9.638  1.00  0.00     0.014 C 
ATOM     22  C   UNL     1      -7.929  21.169  -9.501  1.00  0.00     0.033 C 
ATOM     23  C   UNL     1      -9.339  21.504  -8.942  1.00  0.00     0.118 C 
ATOM     24  C   UNL     1      -9.609  23.009  -8.744  1.00  0.00     0.063 C 
ATOM     25  C   UNL     1      -6.405  22.593  -7.191  1.00  0.00     0.016 C 
ATOM     26  C   UNL     1      -5.975  29.083  -8.868  1.00  0.00     0.012 C 
ATOM     27  C   UNL     1      -4.014  28.062 -12.141  1.00  0.00     0.014 C 
ATOM     28  O   UNL     1      -1.635  26.924 -11.388  1.00  0.00    -0.349 OA
ATOM     29  C   UNL     1      -0.313  26.472 -11.151  1.00  0.00     0.167 C 
ENDROOT
BRANCH  23  30
ATOM     30  O   UNL     1      -9.592  20.788  -7.759  1.00  0.00    -0.393 OA
ATOM     31  H   UNL     1      -9.688  19.831  -7.996  1.00  0.00     0.210 HD
ENDBRANCH  23  30
TORSDOF 1
ENDMDL
