MODEL 1
REMARK VINA RESULT:    -4.086      0.000      0.000
REMARK INTER + INTRA:          -5.092
REMARK INTER:                  -5.042
REMARK INTRA:                  -0.051
REMARK UNBOUND:                -0.051
REMARK SMILES CCCCCC(=O)[O-]
REMARK SMILES IDX 4 1 5 2 6 3 7 4 8 5 3 6 2 7 1 8
REMARK H PARENT
REMARK Flexibility Score: inf
ROOT
ATOM      1  C   UNL     1       4.618   7.108 -10.140  1.00  0.00     0.006 C 
ENDROOT
BRANCH   1   2
ATOM      2  C   UNL     1       4.626   8.125 -11.285  1.00  0.00     0.053 C 
BRANCH   2   3
ATOM      3  C   UNL     1       4.451   7.434 -12.601  1.00  0.00     0.041 C 
ATOM      4  O   UNL     1       3.869   6.319 -12.658  1.00  0.00    -0.550 OA
ATOM      5  O   UNL     1       4.975   7.997 -13.757  1.00  0.00    -0.550 OA
ENDBRANCH   2   3
ENDBRANCH   1   2
BRANCH   1   6
ATOM      6  C   UNL     1       4.384   7.800  -8.791  1.00  0.00     0.000 C 
BRANCH   6   7
ATOM      7  C   UNL     1       4.251   6.772  -7.662  1.00  0.00    -0.003 C 
ATOM      8  C   UNL     1       3.518   7.364  -6.462  1.00  0.00     0.004 C 
ENDBRANCH   6   7
ENDBRANCH   1   6
TORSDOF 4
ENDMDL
MODEL 2
REMARK VINA RESULT:    -3.842     21.245     22.239
REMARK INTER + INTRA:          -4.790
REMARK INTER:                  -4.627
REMARK INTRA:                  -0.163
REMARK UNBOUND:                -0.051
REMARK SMILES CCCCCC(=O)[O-]
REMARK SMILES IDX 4 1 5 2 6 3 7 4 8 5 3 6 2 7 1 8
REMARK H PARENT
REMARK Flexibility Score: inf
ROOT
ATOM      1  C   UNL     1      -8.756  -7.775  -0.938  1.00  0.00     0.006 C 
ENDROOT
BRANCH   1   2
ATOM      2  C   UNL     1      -7.421  -8.452  -0.610  1.00  0.00     0.053 C 
BRANCH   2   3
ATOM      3  C   UNL     1      -6.640  -8.704  -1.862  1.00  0.00     0.041 C 
ATOM      4  O   UNL     1      -7.056  -8.266  -2.967  1.00  0.00    -0.550 OA
ATOM      5  O   UNL     1      -5.479  -9.464  -1.815  1.00  0.00    -0.550 OA
ENDBRANCH   2   3
ENDBRANCH   1   2
BRANCH   1   6
ATOM      6  C   UNL     1      -9.890  -8.804  -1.013  1.00  0.00     0.000 C 
BRANCH   6   7
ATOM      7  C   UNL     1     -10.891  -8.438  -2.116  1.00  0.00    -0.003 C 
ATOM      8  C   UNL     1     -10.749  -6.975  -2.525  1.00  0.00     0.004 C 
ENDBRANCH   6   7
ENDBRANCH   1   6
TORSDOF 4
ENDMDL
MODEL 3
REMARK VINA RESULT:    -3.701     21.046     22.416
REMARK INTER + INTRA:          -4.617
REMARK INTER:                  -4.717
REMARK INTRA:                   0.100
REMARK UNBOUND:                -0.051
REMARK SMILES CCCCCC(=O)[O-]
REMARK SMILES IDX 4 1 5 2 6 3 7 4 8 5 3 6 2 7 1 8
REMARK H PARENT
REMARK Flexibility Score: inf
ROOT
ATOM      1  C   UNL     1      -8.801  -8.362  -0.944  1.00  0.00     0.006 C 
ENDROOT
BRANCH   1   2
ATOM      2  C   UNL     1      -8.608  -7.873  -2.383  1.00  0.00     0.053 C 
BRANCH   2   3
ATOM      3  C   UNL     1      -7.281  -8.317  -2.914  1.00  0.00     0.041 C 
ATOM      4  O   UNL     1      -6.400  -8.757  -2.129  1.00  0.00    -0.550 OA
ATOM      5  O   UNL     1      -6.999  -8.198  -4.268  1.00  0.00    -0.550 OA
ENDBRANCH   2   3
ENDBRANCH   1   2
BRANCH   1   6
ATOM      6  C   UNL     1     -10.270  -8.702  -0.671  1.00  0.00     0.000 C 
BRANCH   6   7
ATOM      7  C   UNL     1     -11.102  -8.618  -1.957  1.00  0.00    -0.003 C 
ATOM      8  C   UNL     1     -11.125  -9.958  -2.687  1.00  0.00     0.004 C 
ENDBRANCH   6   7
ENDBRANCH   1   6
TORSDOF 4
ENDMDL
MODEL 4
REMARK VINA RESULT:    -3.300     21.819     22.722
REMARK INTER + INTRA:          -4.122
REMARK INTER:                  -4.047
REMARK INTRA:                  -0.075
REMARK UNBOUND:                -0.051
REMARK SMILES CCCCCC(=O)[O-]
REMARK SMILES IDX 4 1 5 2 6 3 7 4 8 5 3 6 2 7 1 8
REMARK H PARENT
REMARK Flexibility Score: inf
ROOT
ATOM      1  C   UNL     1      -8.754  -7.914  -0.478  1.00  0.00     0.006 C 
ENDROOT
BRANCH   1   2
ATOM      2  C   UNL     1     -10.036  -8.735  -0.650  1.00  0.00     0.053 C 
BRANCH   2   3
ATOM      3  C   UNL     1     -10.638  -8.489  -1.998  1.00  0.00     0.041 C 
ATOM      4  O   UNL     1     -11.125  -9.444  -2.658  1.00  0.00    -0.550 OA
ATOM      5  O   UNL     1     -10.617  -7.213  -2.546  1.00  0.00    -0.550 OA
ENDBRANCH   2   3
ENDBRANCH   1   2
BRANCH   1   6
ATOM      6  C   UNL     1      -7.644  -8.427  -1.403  1.00  0.00     0.000 C 
BRANCH   6   7
ATOM      7  C   UNL     1      -6.321  -8.578  -0.642  1.00  0.00    -0.003 C 
ATOM      8  C   UNL     1      -5.409  -9.597  -1.320  1.00  0.00     0.004 C 
ENDBRANCH   6   7
ENDBRANCH   1   6
TORSDOF 4
ENDMDL
MODEL 5
REMARK VINA RESULT:    -2.904     10.783     11.627
REMARK INTER + INTRA:          -3.633
REMARK INTER:                  -3.432
REMARK INTRA:                  -0.202
REMARK UNBOUND:                -0.051
REMARK SMILES CCCCCC(=O)[O-]
REMARK SMILES IDX 4 1 5 2 6 3 7 4 8 5 3 6 2 7 1 8
REMARK H PARENT
REMARK Flexibility Score: inf
ROOT
ATOM      1  C   UNL     1       5.696  -3.253 -12.269  1.00  0.00     0.006 C 
ENDROOT
BRANCH   1   2
ATOM      2  C   UNL     1       5.541  -2.357 -13.501  1.00  0.00     0.053 C 
BRANCH   2   3
ATOM      3  C   UNL     1       4.093  -2.119 -13.798  1.00  0.00     0.041 C 
ATOM      4  O   UNL     1       3.348  -3.079 -14.125  1.00  0.00    -0.550 OA
ATOM      5  O   UNL     1       3.579  -0.830 -13.760  1.00  0.00    -0.550 OA
ENDBRANCH   2   3
ENDBRANCH   1   2
BRANCH   1   6
ATOM      6  C   UNL     1       6.653  -4.417 -12.552  1.00  0.00     0.000 C 
BRANCH   6   7
ATOM      7  C   UNL     1       6.513  -4.904 -13.999  1.00  0.00    -0.003 C 
ATOM      8  C   UNL     1       5.401  -5.942 -14.125  1.00  0.00     0.004 C 
ENDBRANCH   6   7
ENDBRANCH   1   6
TORSDOF 4
ENDMDL
MODEL 6
REMARK VINA RESULT:    -2.815     16.242     17.107
REMARK INTER + INTRA:          -3.523
REMARK INTER:                  -3.443
REMARK INTRA:                  -0.081
REMARK UNBOUND:                -0.051
REMARK SMILES CCCCCC(=O)[O-]
REMARK SMILES IDX 4 1 5 2 6 3 7 4 8 5 3 6 2 7 1 8
REMARK H PARENT
REMARK Flexibility Score: inf
ROOT
ATOM      1  C   UNL     1       1.964   4.232   4.790  1.00  0.00     0.006 C 
ENDROOT
BRANCH   1   2
ATOM      2  C   UNL     1       1.198   3.803   6.045  1.00  0.00     0.053 C 
BRANCH   2   3
ATOM      3  C   UNL     1       0.361   2.595   5.762  1.00  0.00     0.041 C 
ATOM      4  O   UNL     1       0.858   1.609   5.156  1.00  0.00    -0.550 OA
ATOM      5  O   UNL     1      -0.979   2.577   6.123  1.00  0.00    -0.550 OA
ENDBRANCH   2   3
ENDBRANCH   1   2
BRANCH   1   6
ATOM      6  C   UNL     1       3.478   4.138   5.011  1.00  0.00     0.000 C 
BRANCH   6   7
ATOM      7  C   UNL     1       3.811   3.131   6.120  1.00  0.00    -0.003 C 
ATOM      8  C   UNL     1       5.129   2.416   5.836  1.00  0.00     0.004 C 
ENDBRANCH   6   7
ENDBRANCH   1   6
TORSDOF 4
ENDMDL
MODEL 7
REMARK VINA RESULT:    -2.624     10.981     11.863
REMARK INTER + INTRA:          -3.288
REMARK INTER:                  -3.179
REMARK INTRA:                  -0.109
REMARK UNBOUND:                -0.051
REMARK SMILES CCCCCC(=O)[O-]
REMARK SMILES IDX 4 1 5 2 6 3 7 4 8 5 3 6 2 7 1 8
REMARK H PARENT
REMARK Flexibility Score: inf
ROOT
ATOM      1  C   UNL     1       5.814  -2.875 -12.263  1.00  0.00     0.006 C 
ENDROOT
BRANCH   1   2
ATOM      2  C   UNL     1       6.474  -4.255 -12.190  1.00  0.00     0.053 C 
BRANCH   2   3
ATOM      3  C   UNL     1       6.059  -5.097 -13.356  1.00  0.00     0.041 C 
ATOM      4  O   UNL     1       6.928  -5.670 -14.064  1.00  0.00    -0.550 OA
ATOM      5  O   UNL     1       4.716  -5.209 -13.689  1.00  0.00    -0.550 OA
ENDBRANCH   2   3
ENDBRANCH   1   2
BRANCH   1   6
ATOM      6  C   UNL     1       5.958  -2.270 -13.664  1.00  0.00     0.000 C 
BRANCH   6   7
ATOM      7  C   UNL     1       4.642  -1.630 -14.125  1.00  0.00    -0.003 C 
ATOM      8  C   UNL     1       3.494  -1.999 -13.189  1.00  0.00     0.004 C 
ENDBRANCH   6   7
ENDBRANCH   1   6
TORSDOF 4
ENDMDL
MODEL 8
REMARK VINA RESULT:    -2.552     20.929     21.388
REMARK INTER + INTRA:          -3.200
REMARK INTER:                  -3.081
REMARK INTRA:                  -0.119
REMARK UNBOUND:                -0.051
REMARK SMILES CCCCCC(=O)[O-]
REMARK SMILES IDX 4 1 5 2 6 3 7 4 8 5 3 6 2 7 1 8
REMARK H PARENT
REMARK Flexibility Score: inf
ROOT
ATOM      1  C   UNL     1      -7.228 -10.266 -12.989  1.00  0.00     0.006 C 
ENDROOT
BRANCH   1   2
ATOM      2  C   UNL     1      -6.179 -10.713 -14.012  1.00  0.00     0.053 C 
BRANCH   2   3
ATOM      3  C   UNL     1      -4.799 -10.438 -13.501  1.00  0.00     0.041 C 
ATOM      4  O   UNL     1      -3.995 -11.388 -13.307  1.00  0.00    -0.550 OA
ATOM      5  O   UNL     1      -4.418  -9.139 -13.192  1.00  0.00    -0.550 OA
ENDBRANCH   2   3
ENDBRANCH   1   2
BRANCH   1   6
ATOM      6  C   UNL     1      -7.777 -11.463 -12.205  1.00  0.00     0.000 C 
BRANCH   6   7
ATOM      7  C   UNL     1      -9.259 -11.263 -11.863  1.00  0.00    -0.003 C 
ATOM      8  C   UNL     1      -9.766  -9.919 -12.380  1.00  0.00     0.004 C 
ENDBRANCH   6   7
ENDBRANCH   1   6
TORSDOF 4
ENDMDL
MODEL 9
REMARK VINA RESULT:    -1.115     10.723     11.689
REMARK INTER + INTRA:          -1.426
REMARK INTER:                  -1.566
REMARK INTRA:                   0.140
REMARK UNBOUND:                -0.051
REMARK SMILES CCCCCC(=O)[O-]
REMARK SMILES IDX 4 1 5 2 6 3 7 4 8 5 3 6 2 7 1 8
REMARK H PARENT
REMARK Flexibility Score: inf
ROOT
ATOM      1  C   UNL     1       5.924  -3.606 -13.977  1.00  0.00     0.006 C 
ENDROOT
BRANCH   1   2
ATOM      2  C   UNL     1       6.849  -4.063 -12.845  1.00  0.00     0.053 C 
BRANCH   2   3
ATOM      3  C   UNL     1       6.379  -3.519 -11.533  1.00  0.00     0.041 C 
ATOM      4  O   UNL     1       6.516  -4.197 -10.481  1.00  0.00    -0.550 OA
ATOM      5  O   UNL     1       5.744  -2.285 -11.479  1.00  0.00    -0.550 OA
ENDBRANCH   2   3
ENDBRANCH   1   2
BRANCH   1   6
ATOM      6  C   UNL     1       4.517  -4.192 -13.809  1.00  0.00     0.000 C 
BRANCH   6   7
ATOM      7  C   UNL     1       3.444  -3.144 -14.125  1.00  0.00    -0.003 C 
ATOM      8  C   UNL     1       3.956  -1.732 -13.853  1.00  0.00     0.004 C 
ENDBRANCH   6   7
ENDBRANCH   1   6
TORSDOF 4
ENDMDL
