MODEL 1
REMARK VINA RESULT:    -4.241      0.000      0.000
REMARK INTER + INTRA:          -4.776
REMARK INTER:                  -4.613
REMARK INTRA:                  -0.163
REMARK UNBOUND:                -0.163
REMARK SMILES CC(=O)c1cc(C)ccc1O
REMARK SMILES IDX 7 1 6 2 5 3 4 4 10 5 9 6 8 7 2 8 3 9 1 10 11 11
REMARK H PARENT 11 12
REMARK Flexibility Score: inf
ROOT
ATOM      1  C   UNL     1       7.946 -33.243  13.761  1.00  0.00     0.044 C 
ATOM      2  C   UNL     1       7.859 -33.287  15.258  1.00  0.00    -0.050 A 
ATOM      3  C   UNL     1       8.705 -32.483  16.038  1.00  0.00     0.019 A 
ATOM      4  C   UNL     1       8.606 -32.478  17.443  1.00  0.00     0.059 A 
ATOM      5  C   UNL     1       7.641 -33.308  18.062  1.00  0.00     0.126 A 
ATOM      6  C   UNL     1       6.784 -34.090  17.275  1.00  0.00     0.047 A 
ATOM      7  C   UNL     1       6.885 -34.074  15.884  1.00  0.00     0.007 A 
ENDROOT
BRANCH   4   8
ATOM      8  C   UNL     1       9.526 -31.606  18.221  1.00  0.00     0.163 C 
ATOM      9  O   UNL     1       9.570 -31.719  19.477  1.00  0.00    -0.294 OA
ATOM     10  C   UNL     1      10.411 -30.588  17.570  1.00  0.00     0.093 C 
ENDBRANCH   4   8
BRANCH   5  11
ATOM     11  O   UNL     1       7.542 -33.377  19.451  1.00  0.00    -0.507 OA
ATOM     12  H   UNL     1       7.598 -32.549  20.031  1.00  0.00     0.293 HD
ENDBRANCH   5  11
TORSDOF 2
ENDMDL
MODEL 2
REMARK VINA RESULT:    -4.239      2.155      3.571
REMARK INTER + INTRA:          -4.774
REMARK INTER:                  -4.470
REMARK INTRA:                  -0.304
REMARK UNBOUND:                -0.163
REMARK SMILES CC(=O)c1cc(C)ccc1O
REMARK SMILES IDX 7 1 6 2 5 3 4 4 10 5 9 6 8 7 2 8 3 9 1 10 11 11
REMARK H PARENT 11 12
REMARK Flexibility Score: inf
ROOT
ATOM      1  C   UNL     1       6.343 -36.102  16.622  1.00  0.00     0.044 C 
ATOM      2  C   UNL     1       7.201 -34.871  16.623  1.00  0.00    -0.050 A 
ATOM      3  C   UNL     1       7.788 -34.419  15.432  1.00  0.00     0.019 A 
ATOM      4  C   UNL     1       8.558 -33.240  15.405  1.00  0.00     0.059 A 
ATOM      5  C   UNL     1       8.742 -32.518  16.608  1.00  0.00     0.126 A 
ATOM      6  C   UNL     1       8.133 -32.963  17.790  1.00  0.00     0.047 A 
ATOM      7  C   UNL     1       7.361 -34.124  17.797  1.00  0.00     0.007 A 
ENDROOT
BRANCH   4   8
ATOM      8  C   UNL     1       9.156 -32.805  14.114  1.00  0.00     0.163 C 
ATOM      9  O   UNL     1      10.397 -32.593  14.049  1.00  0.00    -0.294 OA
ATOM     10  C   UNL     1       8.337 -32.607  12.875  1.00  0.00     0.093 C 
ENDBRANCH   4   8
BRANCH   5  11
ATOM     11  O   UNL     1       9.540 -31.375  16.642  1.00  0.00    -0.507 OA
ATOM     12  H   UNL     1       9.162 -30.467  16.882  1.00  0.00     0.293 HD
ENDBRANCH   5  11
TORSDOF 2
ENDMDL
MODEL 3
REMARK VINA RESULT:    -4.167      1.680      2.602
REMARK INTER + INTRA:          -4.696
REMARK INTER:                  -4.433
REMARK INTRA:                  -0.263
REMARK UNBOUND:                -0.163
REMARK SMILES CC(=O)c1cc(C)ccc1O
REMARK SMILES IDX 7 1 6 2 5 3 4 4 10 5 9 6 8 7 2 8 3 9 1 10 11 11
REMARK H PARENT 11 12
REMARK Flexibility Score: inf
ROOT
ATOM      1  C   UNL     1      10.844 -32.545  13.323  1.00  0.00     0.044 C 
ATOM      2  C   UNL     1       9.546 -32.749  14.047  1.00  0.00    -0.050 A 
ATOM      3  C   UNL     1       9.485 -32.605  15.441  1.00  0.00     0.019 A 
ATOM      4  C   UNL     1       8.266 -32.748  16.132  1.00  0.00     0.059 A 
ATOM      5  C   UNL     1       7.097 -33.052  15.396  1.00  0.00     0.126 A 
ATOM      6  C   UNL     1       7.160 -33.171  14.000  1.00  0.00     0.047 A 
ATOM      7  C   UNL     1       8.373 -33.012  13.329  1.00  0.00     0.007 A 
ENDROOT
BRANCH   4   8
ATOM      8  C   UNL     1       8.258 -32.583  17.611  1.00  0.00     0.163 C 
ATOM      9  O   UNL     1       7.371 -33.164  18.292  1.00  0.00    -0.294 OA
ATOM     10  C   UNL     1       9.271 -31.746  18.332  1.00  0.00     0.093 C 
ENDBRANCH   4   8
BRANCH   5  11
ATOM     11  O   UNL     1       5.877 -33.256  16.042  1.00  0.00    -0.507 OA
ATOM     12  H   UNL     1       5.156 -32.545  16.056  1.00  0.00     0.293 HD
ENDBRANCH   5  11
TORSDOF 2
ENDMDL
MODEL 4
REMARK VINA RESULT:    -3.966      2.612      3.862
REMARK INTER + INTRA:          -4.477
REMARK INTER:                  -4.179
REMARK INTRA:                  -0.298
REMARK UNBOUND:                -0.163
REMARK SMILES CC(=O)c1cc(C)ccc1O
REMARK SMILES IDX 7 1 6 2 5 3 4 4 10 5 9 6 8 7 2 8 3 9 1 10 11 11
REMARK H PARENT 11 12
REMARK Flexibility Score: inf
ROOT
ATOM      1  C   UNL     1       9.551 -31.502  18.781  1.00  0.00     0.044 C 
ATOM      2  C   UNL     1       8.774 -32.230  17.724  1.00  0.00    -0.050 A 
ATOM      3  C   UNL     1       9.174 -32.160  16.380  1.00  0.00     0.019 A 
ATOM      4  C   UNL     1       8.483 -32.874  15.381  1.00  0.00     0.059 A 
ATOM      5  C   UNL     1       7.367 -33.660  15.753  1.00  0.00     0.126 A 
ATOM      6  C   UNL     1       6.989 -33.744  17.101  1.00  0.00     0.047 A 
ATOM      7  C   UNL     1       7.691 -33.042  18.080  1.00  0.00     0.007 A 
ENDROOT
BRANCH   4   8
ATOM      8  C   UNL     1       8.950 -32.765  13.973  1.00  0.00     0.163 C 
ATOM      9  O   UNL     1       8.100 -32.667  13.047  1.00  0.00    -0.294 OA
ATOM     10  C   UNL     1      10.403 -32.769  13.605  1.00  0.00     0.093 C 
ENDBRANCH   4   8
BRANCH   5  11
ATOM     11  O   UNL     1       6.620 -34.341  14.793  1.00  0.00    -0.507 OA
ATOM     12  H   UNL     1       6.588 -34.036  13.827  1.00  0.00     0.293 HD
ENDBRANCH   5  11
TORSDOF 2
ENDMDL
MODEL 5
REMARK VINA RESULT:    -3.696      2.205      3.724
REMARK INTER + INTRA:          -4.184
REMARK INTER:                  -3.916
REMARK INTRA:                  -0.268
REMARK UNBOUND:                -0.163
REMARK SMILES CC(=O)c1cc(C)ccc1O
REMARK SMILES IDX 7 1 6 2 5 3 4 4 10 5 9 6 8 7 2 8 3 9 1 10 11 11
REMARK H PARENT 11 12
REMARK Flexibility Score: inf
ROOT
ATOM      1  C   UNL     1       9.112 -36.634  12.972  1.00  0.00     0.044 C 
ATOM      2  C   UNL     1       9.083 -35.369  13.778  1.00  0.00    -0.050 A 
ATOM      3  C   UNL     1       8.394 -35.326  15.000  1.00  0.00     0.019 A 
ATOM      4  C   UNL     1       8.394 -34.161  15.791  1.00  0.00     0.059 A 
ATOM      5  C   UNL     1       9.095 -33.022  15.328  1.00  0.00     0.126 A 
ATOM      6  C   UNL     1       9.801 -33.080  14.118  1.00  0.00     0.047 A 
ATOM      7  C   UNL     1       9.803 -34.246  13.353  1.00  0.00     0.007 A 
ENDROOT
BRANCH   4   8
ATOM      8  C   UNL     1       7.649 -34.170  17.078  1.00  0.00     0.163 C 
ATOM      9  O   UNL     1       7.193 -33.087  17.536  1.00  0.00    -0.294 OA
ATOM     10  C   UNL     1       7.415 -35.425  17.862  1.00  0.00     0.093 C 
ENDBRANCH   4   8
BRANCH   5  11
ATOM     11  O   UNL     1       9.079 -31.829  16.050  1.00  0.00    -0.507 OA
ATOM     12  H   UNL     1       9.206 -30.931  15.599  1.00  0.00     0.293 HD
ENDBRANCH   5  11
TORSDOF 2
ENDMDL
MODEL 6
REMARK VINA RESULT:    -3.622      2.313      3.215
REMARK INTER + INTRA:          -4.103
REMARK INTER:                  -3.875
REMARK INTRA:                  -0.228
REMARK UNBOUND:                -0.163
REMARK SMILES CC(=O)c1cc(C)ccc1O
REMARK SMILES IDX 7 1 6 2 5 3 4 4 10 5 9 6 8 7 2 8 3 9 1 10 11 11
REMARK H PARENT 11 12
REMARK Flexibility Score: inf
ROOT
ATOM      1  C   UNL     1      10.915 -32.344  13.260  1.00  0.00     0.044 C 
ATOM      2  C   UNL     1       9.981 -33.232  14.028  1.00  0.00    -0.050 A 
ATOM      3  C   UNL     1       9.190 -32.701  15.059  1.00  0.00     0.019 A 
ATOM      4  C   UNL     1       8.275 -33.509  15.761  1.00  0.00     0.059 A 
ATOM      5  C   UNL     1       8.170 -34.877  15.415  1.00  0.00     0.126 A 
ATOM      6  C   UNL     1       8.945 -35.396  14.368  1.00  0.00     0.047 A 
ATOM      7  C   UNL     1       9.837 -34.579  13.674  1.00  0.00     0.007 A 
ENDROOT
BRANCH   4   8
ATOM      8  C   UNL     1       7.461 -32.894  16.843  1.00  0.00     0.163 C 
ATOM      9  O   UNL     1       6.228 -32.705  16.657  1.00  0.00    -0.294 OA
ATOM     10  C   UNL     1       8.050 -32.485  18.159  1.00  0.00     0.093 C 
ENDBRANCH   4   8
BRANCH   5  11
ATOM     11  O   UNL     1       7.317 -35.729  16.117  1.00  0.00    -0.507 OA
ATOM     12  H   UNL     1       6.344 -35.497  16.275  1.00  0.00     0.293 HD
ENDBRANCH   5  11
TORSDOF 2
ENDMDL
MODEL 7
REMARK VINA RESULT:    -3.584      3.491      4.217
REMARK INTER + INTRA:          -4.061
REMARK INTER:                  -3.758
REMARK INTRA:                  -0.303
REMARK UNBOUND:                -0.163
REMARK SMILES CC(=O)c1cc(C)ccc1O
REMARK SMILES IDX 7 1 6 2 5 3 4 4 10 5 9 6 8 7 2 8 3 9 1 10 11 11
REMARK H PARENT 11 12
REMARK Flexibility Score: inf
ROOT
ATOM      1  C   UNL     1       7.542 -35.890  17.968  1.00  0.00     0.044 C 
ATOM      2  C   UNL     1       7.375 -35.055  16.733  1.00  0.00    -0.050 A 
ATOM      3  C   UNL     1       8.490 -34.730  15.945  1.00  0.00     0.019 A 
ATOM      4  C   UNL     1       8.346 -33.986  14.758  1.00  0.00     0.059 A 
ATOM      5  C   UNL     1       7.053 -33.559  14.373  1.00  0.00     0.126 A 
ATOM      6  C   UNL     1       5.941 -33.908  15.153  1.00  0.00     0.047 A 
ATOM      7  C   UNL     1       6.098 -34.657  16.318  1.00  0.00     0.007 A 
ENDROOT
BRANCH   4   8
ATOM      8  C   UNL     1       9.561 -33.671  13.959  1.00  0.00     0.163 C 
ATOM      9  O   UNL     1       9.822 -32.469  13.681  1.00  0.00    -0.294 OA
ATOM     10  C   UNL     1      10.497 -34.732  13.467  1.00  0.00     0.093 C 
ENDBRANCH   4   8
BRANCH   5  11
ATOM     11  O   UNL     1       6.867 -32.774  13.235  1.00  0.00    -0.507 OA
ATOM     12  H   UNL     1       7.638 -32.530  12.624  1.00  0.00     0.293 HD
ENDBRANCH   5  11
TORSDOF 2
ENDMDL
MODEL 8
REMARK VINA RESULT:    -3.437      3.183      4.158
REMARK INTER + INTRA:          -3.902
REMARK INTER:                  -3.694
REMARK INTRA:                  -0.208
REMARK UNBOUND:                -0.163
REMARK SMILES CC(=O)c1cc(C)ccc1O
REMARK SMILES IDX 7 1 6 2 5 3 4 4 10 5 9 6 8 7 2 8 3 9 1 10 11 11
REMARK H PARENT 11 12
REMARK Flexibility Score: inf
ROOT
ATOM      1  C   UNL     1       7.699 -32.721  18.636  1.00  0.00     0.044 C 
ATOM      2  C   UNL     1       7.643 -33.506  17.359  1.00  0.00    -0.050 A 
ATOM      3  C   UNL     1       7.954 -32.890  16.138  1.00  0.00     0.019 A 
ATOM      4  C   UNL     1       7.951 -33.624  14.935  1.00  0.00     0.059 A 
ATOM      5  C   UNL     1       7.618 -34.998  14.975  1.00  0.00     0.126 A 
ATOM      6  C   UNL     1       7.331 -35.612  16.203  1.00  0.00     0.047 A 
ATOM      7  C   UNL     1       7.352 -34.876  17.387  1.00  0.00     0.007 A 
ENDROOT
BRANCH   4   8
ATOM      8  C   UNL     1       8.291 -32.921  13.668  1.00  0.00     0.163 C 
ATOM      9  O   UNL     1       7.366 -32.597  12.875  1.00  0.00    -0.294 OA
ATOM     10  C   UNL     1       9.700 -32.580  13.291  1.00  0.00     0.093 C 
ENDBRANCH   4   8
BRANCH   5  11
ATOM     11  O   UNL     1       7.549 -35.752  13.804  1.00  0.00    -0.507 OA
ATOM     12  H   UNL     1       6.700 -35.807  13.254  1.00  0.00     0.293 HD
ENDBRANCH   5  11
TORSDOF 2
ENDMDL
MODEL 9
REMARK VINA RESULT:    -3.365      2.670      3.391
REMARK INTER + INTRA:          -3.823
REMARK INTER:                  -3.534
REMARK INTRA:                  -0.289
REMARK UNBOUND:                -0.163
REMARK SMILES CC(=O)c1cc(C)ccc1O
REMARK SMILES IDX 7 1 6 2 5 3 4 4 10 5 9 6 8 7 2 8 3 9 1 10 11 11
REMARK H PARENT 11 12
REMARK Flexibility Score: inf
ROOT
ATOM      1  C   UNL     1       7.819 -37.489  13.479  1.00  0.00     0.044 C 
ATOM      2  C   UNL     1       7.487 -36.190  14.152  1.00  0.00    -0.050 A 
ATOM      3  C   UNL     1       8.441 -35.163  14.215  1.00  0.00     0.019 A 
ATOM      4  C   UNL     1       8.131 -33.921  14.802  1.00  0.00     0.059 A 
ATOM      5  C   UNL     1       6.837 -33.726  15.341  1.00  0.00     0.126 A 
ATOM      6  C   UNL     1       5.881 -34.748  15.254  1.00  0.00     0.047 A 
ATOM      7  C   UNL     1       6.200 -35.968  14.656  1.00  0.00     0.007 A 
ENDROOT
BRANCH   4   8
ATOM      8  C   UNL     1       9.179 -32.867  14.841  1.00  0.00     0.163 C 
ATOM      9  O   UNL     1       9.257 -32.110  15.846  1.00  0.00    -0.294 OA
ATOM     10  C   UNL     1      10.156 -32.663  13.723  1.00  0.00     0.093 C 
ENDBRANCH   4   8
BRANCH   5  11
ATOM     11  O   UNL     1       6.501 -32.533  15.980  1.00  0.00    -0.507 OA
ATOM     12  H   UNL     1       5.981 -32.522  16.850  1.00  0.00     0.293 HD
ENDBRANCH   5  11
TORSDOF 2
ENDMDL
