MODEL 1
REMARK VINA RESULT:    -3.281      0.000      0.000
REMARK INTER + INTRA:          -3.854
REMARK INTER:                  -5.008
REMARK INTRA:                   1.154
REMARK UNBOUND:                 1.154
REMARK SMILES CC1=CCC[C@@H](C)C(=O)C[C@H](C(C)C)C(=O)C1
REMARK SMILES IDX 8 1 9 2 6 3 7 4 5 5 4 6 3 7 2 8 1 9 10 11 11 12 15 13 16 14
REMARK SMILES IDX 17 15 12 17 13 18 14 19
REMARK H PARENT
REMARK Flexibility Score: 70.00
ROOT
ATOM      1  C   UNL     1       8.632 -33.195  16.113  1.00  0.00     0.136 C 
ATOM      2  O   UNL     1       9.078 -32.072  15.921  1.00  0.00    -0.299 OA
ENDROOT
BRANCH   1   3
ATOM      3  C   UNL     1       7.480 -33.394  17.127  1.00  0.00     0.053 C 
ATOM      4  C   UNL     1       7.771 -32.685  18.454  1.00  0.00     0.016 C 
BRANCH   3   5
ATOM      5  C   UNL     1       7.111 -34.899  17.372  1.00  0.00     0.015 C 
BRANCH   5   6
ATOM      6  C   UNL     1       6.010 -35.246  16.396  1.00  0.00     0.028 C 
BRANCH   6   7
ATOM      7  C   UNL     1       6.096 -36.222  15.290  1.00  0.00    -0.028 C 
ATOM      8  C   UNL     1       6.013 -35.733  14.021  1.00  0.00    -0.070 CG0
ATOM      9  C   UNL     1       5.931 -36.721  12.888  1.00  0.00     0.039 C 
ATOM     10  G   UNL     1       6.141 -34.221  13.696  1.00  0.00     0.000 G0
ENDBRANCH   6   7
ENDBRANCH   5   6
ENDBRANCH   3   5
ENDBRANCH   1   3
BRANCH   1  11
ATOM     11  C   UNL     1       9.280 -34.379  15.383  1.00  0.00     0.087 C 
BRANCH  11  12
ATOM     12  C   UNL     1       8.836 -34.545  13.870  1.00  0.00     0.066 C 
BRANCH  12  13
ATOM     13  C   UNL     1       7.597 -33.684  13.524  1.00  0.00     0.140 C 
ATOM     14  O   UNL     1       7.758 -32.556  13.081  1.00  0.00    -0.299 OA
BRANCH  13  15
ATOM     15  C   UNL     1       6.165 -34.216  13.676  1.00  0.00     0.106 CG0
ATOM     16  G   UNL     1       6.016 -35.728  13.993  1.00  0.00     0.000 G0
ENDBRANCH  13  15
ENDBRANCH  12  13
BRANCH  12  17
ATOM     17  C   UNL     1      10.017 -34.238  12.891  1.00  0.00    -0.006 C 
ATOM     18  C   UNL     1      10.654 -32.867  13.195  1.00  0.00     0.008 C 
ATOM     19  C   UNL     1      11.125 -35.308  12.950  1.00  0.00     0.008 C 
ENDBRANCH  12  17
ENDBRANCH  11  12
ENDBRANCH   1  11
TORSDOF 1
ENDMDL
MODEL 2
REMARK VINA RESULT:    -3.250      1.802      4.560
REMARK INTER + INTRA:          -3.806
REMARK INTER:                  -4.876
REMARK INTRA:                   1.070
REMARK UNBOUND:                 1.154
REMARK SMILES CC1=CCC[C@@H](C)C(=O)C[C@H](C(C)C)C(=O)C1
REMARK SMILES IDX 8 1 9 2 6 3 7 4 5 5 4 6 3 7 2 8 1 9 10 11 11 12 15 13 16 14
REMARK SMILES IDX 17 15 12 17 13 18 14 19
REMARK H PARENT
REMARK Flexibility Score: 70.00
ROOT
ATOM      1  C   UNL     1       6.583 -35.501  15.994  1.00  0.00     0.136 C 
ATOM      2  O   UNL     1       6.942 -36.257  16.886  1.00  0.00    -0.299 OA
ENDROOT
BRANCH   1   3
ATOM      3  C   UNL     1       6.184 -36.082  14.617  1.00  0.00     0.053 C 
ATOM      4  C   UNL     1       5.993 -37.601  14.682  1.00  0.00     0.016 C 
BRANCH   3   5
ATOM      5  C   UNL     1       7.174 -35.698  13.461  1.00  0.00     0.015 C 
BRANCH   5   6
ATOM      6  C   UNL     1       8.573 -35.808  14.026  1.00  0.00     0.028 C 
BRANCH   6   7
ATOM      7  C   UNL     1       9.768 -35.081  13.550  1.00  0.00    -0.028 C 
ATOM      8  C   UNL     1       9.698 -33.721  13.520  1.00  0.00    -0.070 CG0
ATOM      9  C   UNL     1      10.838 -32.970  12.885  1.00  0.00     0.039 C 
ATOM     10  G   UNL     1       8.572 -32.924  14.231  1.00  0.00     0.000 G0
ENDBRANCH   6   7
ENDBRANCH   5   6
ENDBRANCH   3   5
ENDBRANCH   1   3
BRANCH   1  11
ATOM     11  C   UNL     1       6.605 -33.989  16.258  1.00  0.00     0.087 C 
BRANCH  11  12
ATOM     12  C   UNL     1       7.988 -33.434  16.799  1.00  0.00     0.066 C 
BRANCH  12  13
ATOM     13  C   UNL     1       8.756 -32.624  15.726  1.00  0.00     0.140 C 
ATOM     14  O   UNL     1       9.552 -31.768  16.080  1.00  0.00    -0.299 OA
BRANCH  13  15
ATOM     15  C   UNL     1       8.584 -32.892  14.223  1.00  0.00     0.106 CG0
ATOM     16  G   UNL     1       9.696 -33.729  13.537  1.00  0.00     0.000 G0
ENDBRANCH  13  15
ENDBRANCH  12  13
BRANCH  12  17
ATOM     17  C   UNL     1       7.795 -32.588  18.101  1.00  0.00    -0.006 C 
ATOM     18  C   UNL     1       7.032 -33.386  19.178  1.00  0.00     0.008 C 
ATOM     19  C   UNL     1       9.133 -32.120  18.704  1.00  0.00     0.008 C 
ENDBRANCH  12  17
ENDBRANCH  11  12
ENDBRANCH   1  11
TORSDOF 1
ENDMDL
MODEL 3
REMARK VINA RESULT:    -3.080      2.169      4.610
REMARK INTER + INTRA:          -3.546
REMARK INTER:                  -4.015
REMARK INTRA:                   0.469
REMARK UNBOUND:                 1.154
REMARK SMILES CC1=CCC[C@@H](C)C(=O)C[C@H](C(C)C)C(=O)C1
REMARK SMILES IDX 8 1 9 2 6 3 7 4 5 5 4 6 3 7 2 8 1 9 10 11 11 12 15 13 16 14
REMARK SMILES IDX 17 15 12 17 13 18 14 19
REMARK H PARENT
REMARK Flexibility Score: 70.00
ROOT
ATOM      1  C   UNL     1       9.147 -34.535  13.442  1.00  0.00     0.136 C 
ATOM      2  O   UNL     1      10.101 -35.291  13.564  1.00  0.00    -0.299 OA
ENDROOT
BRANCH   1   3
ATOM      3  C   UNL     1       9.385 -33.007  13.406  1.00  0.00     0.053 C 
ATOM      4  C   UNL     1      10.877 -32.669  13.487  1.00  0.00     0.016 C 
BRANCH   3   5
ATOM      5  C   UNL     1       8.578 -32.219  14.498  1.00  0.00     0.015 C 
BRANCH   5   6
ATOM      6  C   UNL     1       9.220 -32.534  15.831  1.00  0.00     0.028 C 
BRANCH   6   7
ATOM      7  C   UNL     1       8.566 -32.470  17.154  1.00  0.00    -0.028 C 
ATOM      8  C   UNL     1       7.934 -33.595  17.591  1.00  0.00    -0.070 CG0
ATOM      9  C   UNL     1       7.123 -33.501  18.856  1.00  0.00     0.039 C 
ATOM     10  G   UNL     1       8.133 -34.980  16.922  1.00  0.00     0.000 G0
ENDBRANCH   6   7
ENDBRANCH   5   6
ENDBRANCH   3   5
ENDBRANCH   1   3
BRANCH   1  11
ATOM     11  C   UNL     1       7.735 -35.135  13.393  1.00  0.00     0.087 C 
BRANCH  11  12
ATOM     12  C   UNL     1       7.400 -36.133  14.579  1.00  0.00     0.066 C 
BRANCH  12  13
ATOM     13  C   UNL     1       7.048 -35.389  15.890  1.00  0.00     0.140 C 
ATOM     14  O   UNL     1       5.879 -35.136  16.137  1.00  0.00    -0.299 OA
BRANCH  13  15
ATOM     15  C   UNL     1       8.119 -34.996  16.918  1.00  0.00     0.106 CG0
ATOM     16  G   UNL     1       7.939 -33.620  17.614  1.00  0.00     0.000 G0
ENDBRANCH  13  15
ENDBRANCH  12  13
BRANCH  12  17
ATOM     17  C   UNL     1       6.263 -37.131  14.183  1.00  0.00    -0.006 C 
ATOM     18  C   UNL     1       6.641 -37.939  12.925  1.00  0.00     0.008 C 
ATOM     19  C   UNL     1       5.930 -38.125  15.313  1.00  0.00     0.008 C 
ENDBRANCH  12  17
ENDBRANCH  11  12
ENDBRANCH   1  11
TORSDOF 1
ENDMDL
MODEL 4
REMARK VINA RESULT:    -2.960      1.550      3.972
REMARK INTER + INTRA:          -3.363
REMARK INTER:                  -3.456
REMARK INTRA:                   0.093
REMARK UNBOUND:                 1.154
REMARK SMILES CC1=CCC[C@@H](C)C(=O)C[C@H](C(C)C)C(=O)C1
REMARK SMILES IDX 8 1 9 2 6 3 7 4 5 5 4 6 3 7 2 8 1 9 10 11 11 12 15 13 16 14
REMARK SMILES IDX 17 15 12 17 13 18 14 19
REMARK H PARENT
REMARK Flexibility Score: 70.00
ROOT
ATOM      1  C   UNL     1       9.486 -32.846  15.151  1.00  0.00     0.136 C 
ATOM      2  O   UNL     1       9.923 -31.754  15.486  1.00  0.00    -0.299 OA
ENDROOT
BRANCH   1   3
ATOM      3  C   UNL     1       9.430 -33.218  13.651  1.00  0.00     0.053 C 
ATOM      4  C   UNL     1      10.675 -32.727  12.904  1.00  0.00     0.016 C 
BRANCH   3   5
ATOM      5  C   UNL     1       8.124 -32.731  12.930  1.00  0.00     0.015 C 
BRANCH   5   6
ATOM      6  C   UNL     1       7.089 -33.818  13.116  1.00  0.00     0.028 C 
BRANCH   6   7
ATOM      7  C   UNL     1       7.313 -35.272  12.988  1.00  0.00    -0.028 C 
ATOM      8  C   UNL     1       6.917 -36.057  14.029  1.00  0.00    -0.070 CG0
ATOM      9  C   UNL     1       7.286 -37.516  13.992  1.00  0.00     0.039 C 
ATOM     10  G   UNL     1       5.994 -35.539  15.164  1.00  0.00     0.000 G0
ENDBRANCH   6   7
ENDBRANCH   5   6
ENDBRANCH   3   5
ENDBRANCH   1   3
BRANCH   1  11
ATOM     11  C   UNL     1       8.947 -33.787  16.238  1.00  0.00     0.087 C 
BRANCH  11  12
ATOM     12  C   UNL     1       7.388 -33.664  16.504  1.00  0.00     0.066 C 
BRANCH  12  13
ATOM     13  C   UNL     1       6.674 -35.036  16.444  1.00  0.00     0.140 C 
ATOM     14  O   UNL     1       6.621 -35.726  17.451  1.00  0.00    -0.299 OA
BRANCH  13  15
ATOM     15  C   UNL     1       5.986 -35.543  15.168  1.00  0.00     0.106 CG0
ATOM     16  G   UNL     1       6.913 -36.075  14.044  1.00  0.00     0.000 G0
ENDBRANCH  13  15
ENDBRANCH  12  13
BRANCH  12  17
ATOM     17  C   UNL     1       7.095 -32.943  17.860  1.00  0.00    -0.006 C 
ATOM     18  C   UNL     1       8.393 -32.418  18.507  1.00  0.00     0.008 C 
ATOM     19  C   UNL     1       6.123 -31.758  17.699  1.00  0.00     0.008 C 
ENDBRANCH  12  17
ENDBRANCH  11  12
ENDBRANCH   1  11
TORSDOF 1
ENDMDL
MODEL 5
REMARK VINA RESULT:    -2.432      2.036      3.888
REMARK INTER + INTRA:          -2.557
REMARK INTER:                  -3.764
REMARK INTRA:                   1.207
REMARK UNBOUND:                 1.154
REMARK SMILES CC1=CCC[C@@H](C)C(=O)C[C@H](C(C)C)C(=O)C1
REMARK SMILES IDX 8 1 9 2 6 3 7 4 5 5 4 6 3 7 2 8 1 9 10 11 11 12 15 13 16 14
REMARK SMILES IDX 17 15 12 17 13 18 14 19
REMARK H PARENT
REMARK Flexibility Score: 70.00
ROOT
ATOM      1  C   UNL     1       7.675 -34.742  17.438  1.00  0.00     0.136 C 
ATOM      2  O   UNL     1       7.437 -34.816  18.635  1.00  0.00    -0.299 OA
ENDROOT
BRANCH   1   3
ATOM      3  C   UNL     1       8.044 -33.373  16.818  1.00  0.00     0.053 C 
ATOM      4  C   UNL     1       8.556 -32.395  17.881  1.00  0.00     0.016 C 
BRANCH   3   5
ATOM      5  C   UNL     1       6.882 -32.727  15.984  1.00  0.00     0.015 C 
BRANCH   5   6
ATOM      6  C   UNL     1       7.289 -32.805  14.530  1.00  0.00     0.028 C 
BRANCH   6   7
ATOM      7  C   UNL     1       8.632 -32.529  13.980  1.00  0.00    -0.028 C 
ATOM      8  C   UNL     1       9.282 -33.564  13.378  1.00  0.00    -0.070 CG0
ATOM      9  C   UNL     1      10.713 -33.351  12.961  1.00  0.00     0.039 C 
ATOM     10  G   UNL     1       8.569 -34.884  12.983  1.00  0.00     0.000 G0
ENDBRANCH   6   7
ENDBRANCH   5   6
ENDBRANCH   3   5
ENDBRANCH   1   3
BRANCH   1  11
ATOM     11  C   UNL     1       7.535 -36.007  16.580  1.00  0.00     0.087 C 
BRANCH  11  12
ATOM     12  C   UNL     1       7.119 -35.740  15.073  1.00  0.00     0.066 C 
BRANCH  12  13
ATOM     13  C   UNL     1       8.311 -35.898  14.098  1.00  0.00     0.140 C 
ATOM     14  O   UNL     1       9.041 -36.872  14.201  1.00  0.00    -0.299 OA
BRANCH  13  15
ATOM     15  C   UNL     1       8.584 -34.891  12.972  1.00  0.00     0.106 CG0
ATOM     16  G   UNL     1       9.274 -33.562  13.380  1.00  0.00     0.000 G0
ENDBRANCH  13  15
ENDBRANCH  12  13
BRANCH  12  17
ATOM     17  C   UNL     1       5.923 -36.650  14.641  1.00  0.00    -0.006 C 
ATOM     18  C   UNL     1       5.909 -36.869  13.114  1.00  0.00     0.008 C 
ATOM     19  C   UNL     1       5.955 -38.030  15.325  1.00  0.00     0.008 C 
ENDBRANCH  12  17
ENDBRANCH  11  12
ENDBRANCH   1  11
TORSDOF 1
ENDMDL
MODEL 6
REMARK VINA RESULT:    -2.406      1.644      3.568
REMARK INTER + INTRA:          -2.518
REMARK INTER:                  -2.998
REMARK INTRA:                   0.479
REMARK UNBOUND:                 1.154
REMARK SMILES CC1=CCC[C@@H](C)C(=O)C[C@H](C(C)C)C(=O)C1
REMARK SMILES IDX 8 1 9 2 6 3 7 4 5 5 4 6 3 7 2 8 1 9 10 11 11 12 15 13 16 14
REMARK SMILES IDX 17 15 12 17 13 18 14 19
REMARK H PARENT
REMARK Flexibility Score: 70.00
ROOT
ATOM      1  C   UNL     1       9.281 -33.916  13.554  1.00  0.00     0.136 C 
ATOM      2  O   UNL     1      10.296 -33.375  13.136  1.00  0.00    -0.299 OA
ENDROOT
BRANCH   1   3
ATOM      3  C   UNL     1       9.290 -35.436  13.838  1.00  0.00     0.053 C 
ATOM      4  C   UNL     1      10.715 -36.000  13.835  1.00  0.00     0.016 C 
BRANCH   3   5
ATOM      5  C   UNL     1       8.366 -36.262  12.875  1.00  0.00     0.015 C 
BRANCH   5   6
ATOM      6  C   UNL     1       7.116 -36.606  13.653  1.00  0.00     0.028 C 
BRANCH   6   7
ATOM      7  C   UNL     1       7.035 -36.886  15.101  1.00  0.00    -0.028 C 
ATOM      8  C   UNL     1       6.629 -35.868  15.910  1.00  0.00    -0.070 CG0
ATOM      9  C   UNL     1       6.699 -36.079  17.399  1.00  0.00     0.039 C 
ATOM     10  G   UNL     1       5.974 -34.573  15.361  1.00  0.00     0.000 G0
ENDBRANCH   6   7
ENDBRANCH   5   6
ENDBRANCH   3   5
ENDBRANCH   1   3
BRANCH   1  11
ATOM     11  C   UNL     1       8.012 -33.069  13.720  1.00  0.00     0.087 C 
BRANCH  11  12
ATOM     12  C   UNL     1       7.744 -32.563  15.199  1.00  0.00     0.066 C 
BRANCH  12  13
ATOM     13  C   UNL     1       6.496 -33.228  15.829  1.00  0.00     0.140 C 
ATOM     14  O   UNL     1       5.897 -32.647  16.721  1.00  0.00    -0.299 OA
BRANCH  13  15
ATOM     15  C   UNL     1       5.955 -34.579  15.339  1.00  0.00     0.106 CG0
ATOM     16  G   UNL     1       6.635 -35.849  15.917  1.00  0.00     0.000 G0
ENDBRANCH  13  15
ENDBRANCH  12  13
BRANCH  12  17
ATOM     17  C   UNL     1       9.000 -32.764  16.108  1.00  0.00    -0.006 C 
ATOM     18  C   UNL     1      10.000 -31.600  15.946  1.00  0.00     0.008 C 
ATOM     19  C   UNL     1       8.636 -32.882  17.600  1.00  0.00     0.008 C 
ENDBRANCH  12  17
ENDBRANCH  11  12
ENDBRANCH   1  11
TORSDOF 1
ENDMDL
MODEL 7
REMARK VINA RESULT:    -1.991      2.157      5.140
REMARK INTER + INTRA:          -1.885
REMARK INTER:                  -2.980
REMARK INTRA:                   1.095
REMARK UNBOUND:                 1.154
REMARK SMILES CC1=CCC[C@@H](C)C(=O)C[C@H](C(C)C)C(=O)C1
REMARK SMILES IDX 8 1 9 2 6 3 7 4 5 5 4 6 3 7 2 8 1 9 10 11 11 12 15 13 16 14
REMARK SMILES IDX 17 15 12 17 13 18 14 19
REMARK H PARENT
REMARK Flexibility Score: 70.00
ROOT
ATOM      1  C   UNL     1       6.953 -35.032  13.503  1.00  0.00     0.136 C 
ATOM      2  O   UNL     1       6.312 -34.132  12.978  1.00  0.00    -0.299 OA
ENDROOT
BRANCH   1   3
ATOM      3  C   UNL     1       8.358 -35.384  12.959  1.00  0.00     0.053 C 
ATOM      4  C   UNL     1       8.732 -36.838  13.269  1.00  0.00     0.016 C 
BRANCH   3   5
ATOM      5  C   UNL     1       9.485 -34.407  13.446  1.00  0.00     0.015 C 
BRANCH   5   6
ATOM      6  C   UNL     1       8.794 -33.181  13.999  1.00  0.00     0.028 C 
BRANCH   6   7
ATOM      7  C   UNL     1       9.359 -32.222  14.971  1.00  0.00    -0.028 C 
ATOM      8  C   UNL     1       9.265 -32.546  16.291  1.00  0.00    -0.070 CG0
ATOM      9  C   UNL     1       9.681 -31.511  17.303  1.00  0.00     0.039 C 
ATOM     10  G   UNL     1       8.885 -33.969  16.779  1.00  0.00     0.000 G0
ENDBRANCH   6   7
ENDBRANCH   5   6
ENDBRANCH   3   5
ENDBRANCH   1   3
BRANCH   1  11
ATOM     11  C   UNL     1       6.307 -35.824  14.647  1.00  0.00     0.087 C 
BRANCH  11  12
ATOM     12  C   UNL     1       7.150 -35.851  15.990  1.00  0.00     0.066 C 
BRANCH  12  13
ATOM     13  C   UNL     1       7.453 -34.430  16.522  1.00  0.00     0.140 C 
ATOM     14  O   UNL     1       6.525 -33.667  16.749  1.00  0.00    -0.299 OA
BRANCH  13  15
ATOM     15  C   UNL     1       8.883 -33.956  16.818  1.00  0.00     0.106 CG0
ATOM     16  G   UNL     1       9.267 -32.544  16.300  1.00  0.00     0.000 G0
ENDBRANCH  13  15
ENDBRANCH  12  13
BRANCH  12  17
ATOM     17  C   UNL     1       6.449 -36.718  17.087  1.00  0.00    -0.006 C 
ATOM     18  C   UNL     1       6.076 -38.113  16.545  1.00  0.00     0.008 C 
ATOM     19  C   UNL     1       7.327 -36.906  18.340  1.00  0.00     0.008 C 
ENDBRANCH  12  17
ENDBRANCH  11  12
ENDBRANCH   1  11
TORSDOF 1
ENDMDL
MODEL 8
REMARK VINA RESULT:    -1.718      1.856      3.775
REMARK INTER + INTRA:          -1.467
REMARK INTER:                  -3.700
REMARK INTRA:                   2.233
REMARK UNBOUND:                 1.154
REMARK SMILES CC1=CCC[C@@H](C)C(=O)C[C@H](C(C)C)C(=O)C1
REMARK SMILES IDX 8 1 9 2 6 3 7 4 5 5 4 6 3 7 2 8 1 9 10 11 11 12 15 13 16 14
REMARK SMILES IDX 17 15 12 17 13 18 14 19
REMARK H PARENT
REMARK Flexibility Score: 70.00
ROOT
ATOM      1  C   UNL     1       7.398 -32.937  16.491  1.00  0.00     0.136 C 
ATOM      2  O   UNL     1       7.194 -32.682  17.670  1.00  0.00    -0.299 OA
ENDROOT
BRANCH   1   3
ATOM      3  C   UNL     1       8.829 -32.802  15.919  1.00  0.00     0.053 C 
ATOM      4  C   UNL     1       9.662 -31.796  16.720  1.00  0.00     0.016 C 
BRANCH   3   5
ATOM      5  C   UNL     1       8.865 -32.457  14.389  1.00  0.00     0.015 C 
BRANCH   5   6
ATOM      6  C   UNL     1      10.104 -33.111  13.820  1.00  0.00     0.028 C 
BRANCH   6   7
ATOM      7  C   UNL     1      10.245 -34.529  13.430  1.00  0.00    -0.028 C 
ATOM      8  C   UNL     1       9.103 -35.265  13.335  1.00  0.00    -0.070 CG0
ATOM      9  C   UNL     1       9.236 -36.747  13.104  1.00  0.00     0.039 C 
ATOM     10  G   UNL     1       7.691 -34.621  13.313  1.00  0.00     0.000 G0
ENDBRANCH   6   7
ENDBRANCH   5   6
ENDBRANCH   3   5
ENDBRANCH   1   3
BRANCH   1  11
ATOM     11  C   UNL     1       6.205 -33.321  15.605  1.00  0.00     0.087 C 
BRANCH  11  12
ATOM     12  C   UNL     1       5.994 -34.883  15.423  1.00  0.00     0.066 C 
BRANCH  12  13
ATOM     13  C   UNL     1       6.553 -35.397  14.075  1.00  0.00     0.140 C 
ATOM     14  O   UNL     1       6.083 -36.412  13.582  1.00  0.00    -0.299 OA
BRANCH  13  15
ATOM     15  C   UNL     1       7.653 -34.649  13.308  1.00  0.00     0.106 CG0
ATOM     16  G   UNL     1       9.071 -35.279  13.336  1.00  0.00     0.000 G0
ENDBRANCH  13  15
ENDBRANCH  12  13
BRANCH  12  17
ATOM     17  C   UNL     1       6.601 -35.685  16.620  1.00  0.00    -0.006 C 
ATOM     18  C   UNL     1       5.974 -37.090  16.727  1.00  0.00     0.008 C 
ATOM     19  C   UNL     1       8.130 -35.846  16.507  1.00  0.00     0.008 C 
ENDBRANCH  12  17
ENDBRANCH  11  12
ENDBRANCH   1  11
TORSDOF 1
ENDMDL
MODEL 9
REMARK VINA RESULT:    -1.593      2.341      3.909
REMARK INTER + INTRA:          -1.277
REMARK INTER:                  -3.607
REMARK INTRA:                   2.330
REMARK UNBOUND:                 1.154
REMARK SMILES CC1=CCC[C@@H](C)C(=O)C[C@H](C(C)C)C(=O)C1
REMARK SMILES IDX 8 1 9 2 6 3 7 4 5 5 4 6 3 7 2 8 1 9 10 11 11 12 15 13 16 14
REMARK SMILES IDX 17 15 12 17 13 18 14 19
REMARK H PARENT
REMARK Flexibility Score: 70.00
ROOT
ATOM      1  C   UNL     1       6.857 -35.689  15.810  1.00  0.00     0.136 C 
ATOM      2  O   UNL     1       6.425 -36.688  16.370  1.00  0.00    -0.299 OA
ENDROOT
BRANCH   1   3
ATOM      3  C   UNL     1       5.891 -34.534  15.459  1.00  0.00     0.053 C 
ATOM      4  C   UNL     1       5.899 -34.231  13.957  1.00  0.00     0.016 C 
BRANCH   3   5
ATOM      5  C   UNL     1       6.146 -33.226  16.288  1.00  0.00     0.015 C 
BRANCH   5   6
ATOM      6  C   UNL     1       7.374 -33.475  17.135  1.00  0.00     0.028 C 
BRANCH   6   7
ATOM      7  C   UNL     1       8.462 -32.513  17.403  1.00  0.00    -0.028 C 
ATOM      8  C   UNL     1       9.236 -32.139  16.346  1.00  0.00    -0.070 CG0
ATOM      9  C   UNL     1      10.450 -31.293  16.626  1.00  0.00     0.039 C 
ATOM     10  G   UNL     1       8.840 -32.428  14.875  1.00  0.00     0.000 G0
ENDBRANCH   6   7
ENDBRANCH   5   6
ENDBRANCH   3   5
ENDBRANCH   1   3
BRANCH   1  11
ATOM     11  C   UNL     1       8.341 -35.651  15.417  1.00  0.00     0.087 C 
BRANCH  11  12
ATOM     12  C   UNL     1       8.636 -34.960  14.020  1.00  0.00     0.066 C 
BRANCH  12  13
ATOM     13  C   UNL     1       9.434 -33.643  14.174  1.00  0.00     0.140 C 
ATOM     14  O   UNL     1      10.557 -33.566  13.696  1.00  0.00    -0.299 OA
BRANCH  13  15
ATOM     15  C   UNL     1       8.846 -32.408  14.870  1.00  0.00     0.106 CG0
ATOM     16  G   UNL     1       9.257 -32.183  16.349  1.00  0.00     0.000 G0
ENDBRANCH  13  15
ENDBRANCH  12  13
BRANCH  12  17
ATOM     17  C   UNL     1       9.362 -35.940  13.041  1.00  0.00    -0.006 C 
ATOM     18  C   UNL     1      10.822 -36.184  13.473  1.00  0.00     0.008 C 
ATOM     19  C   UNL     1       8.654 -37.305  12.940  1.00  0.00     0.008 C 
ENDBRANCH  12  17
ENDBRANCH  11  12
ENDBRANCH   1  11
TORSDOF 1
ENDMDL
