MODEL 1
REMARK VINA RESULT:    -3.271      0.000      0.000
REMARK INTER + INTRA:          -4.205
REMARK INTER:                  -4.036
REMARK INTRA:                  -0.169
REMARK UNBOUND:                -0.169
REMARK SMILES CCCCCC(=O)[O-]
REMARK SMILES IDX 4 1 5 2 6 3 7 4 8 5 3 6 2 7 1 8
REMARK H PARENT
REMARK Flexibility Score: inf
ROOT
ATOM      1  C   UNL     1       8.109  -8.886  42.130  1.00  0.00     0.006 C 
ENDROOT
BRANCH   1   2
ATOM      2  C   UNL     1       7.803  -7.397  41.897  1.00  0.00     0.053 C 
BRANCH   2   3
ATOM      3  C   UNL     1       8.275  -6.542  43.034  1.00  0.00     0.041 C 
ATOM      4  O   UNL     1       7.924  -6.806  44.213  1.00  0.00    -0.550 OA
ATOM      5  O   UNL     1       9.075  -5.435  42.785  1.00  0.00    -0.550 OA
ENDBRANCH   2   3
ENDBRANCH   1   2
BRANCH   1   6
ATOM      6  C   UNL     1       6.933  -9.829  41.818  1.00  0.00     0.000 C 
BRANCH   6   7
ATOM      7  C   UNL     1       6.492 -10.653  43.036  1.00  0.00    -0.003 C 
ATOM      8  C   UNL     1       7.257 -10.235  44.288  1.00  0.00     0.004 C 
ENDBRANCH   6   7
ENDBRANCH   1   6
TORSDOF 4
ENDMDL
MODEL 2
REMARK VINA RESULT:    -3.189      1.209      1.883
REMARK INTER + INTRA:          -4.104
REMARK INTER:                  -3.965
REMARK INTRA:                  -0.138
REMARK UNBOUND:                -0.169
REMARK SMILES CCCCCC(=O)[O-]
REMARK SMILES IDX 4 1 5 2 6 3 7 4 8 5 3 6 2 7 1 8
REMARK H PARENT
REMARK Flexibility Score: inf
ROOT
ATOM      1  C   UNL     1       7.906  -8.869  42.340  1.00  0.00     0.006 C 
ENDROOT
BRANCH   1   2
ATOM      2  C   UNL     1       7.791  -7.420  41.837  1.00  0.00     0.053 C 
BRANCH   2   3
ATOM      3  C   UNL     1       9.119  -6.727  41.810  1.00  0.00     0.041 C 
ATOM      4  O   UNL     1       9.965  -7.013  40.923  1.00  0.00    -0.550 OA
ATOM      5  O   UNL     1       9.435  -5.790  42.786  1.00  0.00    -0.550 OA
ENDBRANCH   2   3
ENDBRANCH   1   2
BRANCH   1   6
ATOM      6  C   UNL     1       7.997  -9.002  43.871  1.00  0.00     0.000 C 
BRANCH   6   7
ATOM      7  C   UNL     1       7.282 -10.253  44.402  1.00  0.00    -0.003 C 
ATOM      8  C   UNL     1       6.362 -10.851  43.342  1.00  0.00     0.004 C 
ENDBRANCH   6   7
ENDBRANCH   1   6
TORSDOF 4
ENDMDL
MODEL 3
REMARK VINA RESULT:    -3.159      1.911      3.872
REMARK INTER + INTRA:          -4.066
REMARK INTER:                  -3.925
REMARK INTRA:                  -0.141
REMARK UNBOUND:                -0.169
REMARK SMILES CCCCCC(=O)[O-]
REMARK SMILES IDX 4 1 5 2 6 3 7 4 8 5 3 6 2 7 1 8
REMARK H PARENT
REMARK Flexibility Score: inf
ROOT
ATOM      1  C   UNL     1       8.580  -7.101  41.664  1.00  0.00     0.006 C 
ENDROOT
BRANCH   1   2
ATOM      2  C   UNL     1       8.030  -8.495  42.010  1.00  0.00     0.053 C 
BRANCH   2   3
ATOM      3  C   UNL     1       8.161  -8.803  43.470  1.00  0.00     0.041 C 
ATOM      4  O   UNL     1       7.358  -9.597  44.025  1.00  0.00    -0.550 OA
ATOM      5  O   UNL     1       9.151  -8.186  44.225  1.00  0.00    -0.550 OA
ENDBRANCH   2   3
ENDBRANCH   1   2
BRANCH   1   6
ATOM      6  C   UNL     1       7.509  -5.998  41.590  1.00  0.00     0.000 C 
BRANCH   6   7
ATOM      7  C   UNL     1       7.514  -5.081  42.821  1.00  0.00    -0.003 C 
ATOM      8  C   UNL     1       8.409  -3.865  42.597  1.00  0.00     0.004 C 
ENDBRANCH   6   7
ENDBRANCH   1   6
TORSDOF 4
ENDMDL
MODEL 4
REMARK VINA RESULT:    -3.152      1.903      2.648
REMARK INTER + INTRA:          -4.058
REMARK INTER:                  -3.879
REMARK INTRA:                  -0.179
REMARK UNBOUND:                -0.169
REMARK SMILES CCCCCC(=O)[O-]
REMARK SMILES IDX 4 1 5 2 6 3 7 4 8 5 3 6 2 7 1 8
REMARK H PARENT
REMARK Flexibility Score: inf
ROOT
ATOM      1  C   UNL     1       7.544  -6.215  41.555  1.00  0.00     0.006 C 
ENDROOT
BRANCH   1   2
ATOM      2  C   UNL     1       7.604  -5.326  42.809  1.00  0.00     0.053 C 
BRANCH   2   3
ATOM      3  C   UNL     1       8.615  -4.230  42.672  1.00  0.00     0.041 C 
ATOM      4  O   UNL     1       9.840  -4.505  42.578  1.00  0.00    -0.550 OA
ATOM      5  O   UNL     1       8.207  -2.902  42.681  1.00  0.00    -0.550 OA
ENDBRANCH   2   3
ENDBRANCH   1   2
BRANCH   1   6
ATOM      6  C   UNL     1       7.882  -7.695  41.812  1.00  0.00     0.000 C 
BRANCH   6   7
ATOM      7  C   UNL     1       8.513  -7.930  43.191  1.00  0.00    -0.003 C 
ATOM      8  C   UNL     1       7.898  -9.146  43.877  1.00  0.00     0.004 C 
ENDBRANCH   6   7
ENDBRANCH   1   6
TORSDOF 4
ENDMDL
MODEL 5
REMARK VINA RESULT:    -3.104      2.858      5.194
REMARK INTER + INTRA:          -3.998
REMARK INTER:                  -3.856
REMARK INTRA:                  -0.143
REMARK UNBOUND:                -0.169
REMARK SMILES CCCCCC(=O)[O-]
REMARK SMILES IDX 4 1 5 2 6 3 7 4 8 5 3 6 2 7 1 8
REMARK H PARENT
REMARK Flexibility Score: inf
ROOT
ATOM      1  C   UNL     1       7.706  -4.955  41.581  1.00  0.00     0.006 C 
ENDROOT
BRANCH   1   2
ATOM      2  C   UNL     1       7.353  -5.337  43.028  1.00  0.00     0.053 C 
BRANCH   2   3
ATOM      3  C   UNL     1       8.175  -6.489  43.521  1.00  0.00     0.041 C 
ATOM      4  O   UNL     1       7.837  -7.108  44.563  1.00  0.00    -0.550 OA
ATOM      5  O   UNL     1       9.333  -6.855  42.847  1.00  0.00    -0.550 OA
ENDBRANCH   2   3
ENDBRANCH   1   2
BRANCH   1   6
ATOM      6  C   UNL     1       8.186  -3.502  41.410  1.00  0.00     0.000 C 
BRANCH   6   7
ATOM      7  C   UNL     1       8.513  -2.823  42.747  1.00  0.00    -0.003 C 
ATOM      8  C   UNL     1       8.984  -1.387  42.534  1.00  0.00     0.004 C 
ENDBRANCH   6   7
ENDBRANCH   1   6
TORSDOF 4
ENDMDL
MODEL 6
REMARK VINA RESULT:    -3.080      2.558      4.279
REMARK INTER + INTRA:          -3.969
REMARK INTER:                  -3.792
REMARK INTRA:                  -0.178
REMARK UNBOUND:                -0.169
REMARK SMILES CCCCCC(=O)[O-]
REMARK SMILES IDX 4 1 5 2 6 3 7 4 8 5 3 6 2 7 1 8
REMARK H PARENT
REMARK Flexibility Score: inf
ROOT
ATOM      1  C   UNL     1       8.372  -8.454  42.885  1.00  0.00     0.006 C 
ENDROOT
BRANCH   1   2
ATOM      2  C   UNL     1       7.478  -9.660  43.216  1.00  0.00     0.053 C 
BRANCH   2   3
ATOM      3  C   UNL     1       6.631 -10.068  42.049  1.00  0.00     0.041 C 
ATOM      4  O   UNL     1       6.816  -9.545  40.919  1.00  0.00    -0.550 OA
ATOM      5  O   UNL     1       5.616 -11.001  42.219  1.00  0.00    -0.550 OA
ENDBRANCH   2   3
ENDBRANCH   1   2
BRANCH   1   6
ATOM      6  C   UNL     1       8.235  -7.276  43.868  1.00  0.00     0.000 C 
BRANCH   6   7
ATOM      7  C   UNL     1       7.866  -5.960  43.169  1.00  0.00    -0.003 C 
ATOM      8  C   UNL     1       7.624  -6.178  41.678  1.00  0.00     0.004 C 
ENDBRANCH   6   7
ENDBRANCH   1   6
TORSDOF 4
ENDMDL
MODEL 7
REMARK VINA RESULT:    -3.073      8.759     10.399
REMARK INTER + INTRA:          -3.960
REMARK INTER:                  -3.857
REMARK INTRA:                  -0.103
REMARK UNBOUND:                -0.169
REMARK SMILES CCCCCC(=O)[O-]
REMARK SMILES IDX 4 1 5 2 6 3 7 4 8 5 3 6 2 7 1 8
REMARK H PARENT
REMARK Flexibility Score: inf
ROOT
ATOM      1  C   UNL     1       6.711  -1.567  35.113  1.00  0.00     0.006 C 
ENDROOT
BRANCH   1   2
ATOM      2  C   UNL     1       6.747  -3.017  35.626  1.00  0.00     0.053 C 
BRANCH   2   3
ATOM      3  C   UNL     1       6.716  -3.084  37.122  1.00  0.00     0.041 C 
ATOM      4  O   UNL     1       7.511  -3.839  37.739  1.00  0.00    -0.550 OA
ATOM      5  O   UNL     1       5.786  -2.336  37.832  1.00  0.00    -0.550 OA
ENDBRANCH   2   3
ENDBRANCH   1   2
BRANCH   1   6
ATOM      6  C   UNL     1       5.524  -1.254  34.184  1.00  0.00     0.000 C 
BRANCH   6   7
ATOM      7  C   UNL     1       5.095   0.219  34.243  1.00  0.00    -0.003 C 
ATOM      8  C   UNL     1       6.279   1.123  34.574  1.00  0.00     0.004 C 
ENDBRANCH   6   7
ENDBRANCH   1   6
TORSDOF 4
ENDMDL
MODEL 8
REMARK VINA RESULT:    -3.048      2.668      4.796
REMARK INTER + INTRA:          -3.930
REMARK INTER:                  -3.774
REMARK INTRA:                  -0.157
REMARK UNBOUND:                -0.169
REMARK SMILES CCCCCC(=O)[O-]
REMARK SMILES IDX 4 1 5 2 6 3 7 4 8 5 3 6 2 7 1 8
REMARK H PARENT
REMARK Flexibility Score: inf
ROOT
ATOM      1  C   UNL     1       7.456  -5.301  42.529  1.00  0.00     0.006 C 
ENDROOT
BRANCH   1   2
ATOM      2  C   UNL     1       8.241  -6.548  42.968  1.00  0.00     0.053 C 
BRANCH   2   3
ATOM      3  C   UNL     1       8.399  -7.534  41.852  1.00  0.00     0.041 C 
ATOM      4  O   UNL     1       7.405  -8.181  41.432  1.00  0.00    -0.550 OA
ATOM      5  O   UNL     1       9.653  -7.763  41.299  1.00  0.00    -0.550 OA
ENDBRANCH   2   3
ENDBRANCH   1   2
BRANCH   1   6
ATOM      6  C   UNL     1       7.925  -4.697  41.192  1.00  0.00     0.000 C 
BRANCH   6   7
ATOM      7  C   UNL     1       8.313  -3.216  41.313  1.00  0.00    -0.003 C 
ATOM      8  C   UNL     1       8.483  -2.810  42.774  1.00  0.00     0.004 C 
ENDBRANCH   6   7
ENDBRANCH   1   6
TORSDOF 4
ENDMDL
MODEL 9
REMARK VINA RESULT:    -3.033      7.728      9.457
REMARK INTER + INTRA:          -3.911
REMARK INTER:                  -3.696
REMARK INTRA:                  -0.215
REMARK UNBOUND:                -0.169
REMARK SMILES CCCCCC(=O)[O-]
REMARK SMILES IDX 4 1 5 2 6 3 7 4 8 5 3 6 2 7 1 8
REMARK H PARENT
REMARK Flexibility Score: inf
ROOT
ATOM      1  C   UNL     1       6.721  -1.725  37.676  1.00  0.00     0.006 C 
ENDROOT
BRANCH   1   2
ATOM      2  C   UNL     1       6.716  -3.255  37.527  1.00  0.00     0.053 C 
BRANCH   2   3
ATOM      3  C   UNL     1       7.891  -3.746  36.737  1.00  0.00     0.041 C 
ATOM      4  O   UNL     1       9.040  -3.757  37.250  1.00  0.00    -0.550 OA
ATOM      5  O   UNL     1       7.720  -4.160  35.422  1.00  0.00    -0.550 OA
ENDBRANCH   2   3
ENDBRANCH   1   2
BRANCH   1   6
ATOM      6  C   UNL     1       5.594  -1.011  36.907  1.00  0.00     0.000 C 
BRANCH   6   7
ATOM      7  C   UNL     1       6.043  -0.507  35.528  1.00  0.00    -0.003 C 
ATOM      8  C   UNL     1       5.570  -1.445  34.421  1.00  0.00     0.004 C 
ENDBRANCH   6   7
ENDBRANCH   1   6
TORSDOF 4
ENDMDL
