MODEL 1
REMARK VINA RESULT:    -4.678      0.000      0.000
REMARK INTER + INTRA:          -4.815
REMARK INTER:                  -4.815
REMARK INTRA:                   0.000
REMARK UNBOUND:                 0.000
REMARK SMILES Nc1ncnc2nc[nH]c12
REMARK SMILES IDX 8 1 7 2 6 3 5 4 4 5 3 6 2 7 10 8 9 9 1 11
REMARK H PARENT 9 10 1 12 1 13
REMARK Flexibility Score: inf
ROOT
ATOM      1  C   UNL     1     -16.633 -29.855 -13.284  1.00  0.00     0.199 A 
ATOM      2  N   UNL     1     -15.631 -30.445 -12.576  1.00  0.00    -0.217 NA
ATOM      3  C   UNL     1     -14.786 -29.422 -12.372  1.00  0.00     0.182 A 
ATOM      4  N   UNL     1     -13.607 -29.468 -11.706  1.00  0.00    -0.215 NA
ATOM      5  C   UNL     1     -12.880 -28.315 -11.600  1.00  0.00     0.226 A 
ATOM      6  N   UNL     1     -13.340 -27.148 -12.155  1.00  0.00    -0.217 NA
ATOM      7  C   UNL     1     -14.528 -27.099 -12.827  1.00  0.00     0.152 A 
ATOM      8  C   UNL     1     -15.257 -28.281 -12.927  1.00  0.00     0.127 A 
ATOM      9  N   UNL     1     -16.433 -28.532 -13.514  1.00  0.00    -0.340 N 
ATOM     10  H   UNL     1     -17.060 -27.874 -14.030  1.00  0.00     0.168 HD
ENDROOT
BRANCH   7  11
ATOM     11  N   UNL     1     -14.987 -25.872 -13.398  1.00  0.00    -0.382 N 
ATOM     12  H   UNL     1     -15.889 -25.454 -13.080  1.00  0.00     0.158 HD
ATOM     13  H   UNL     1     -14.439 -25.376 -14.133  1.00  0.00     0.158 HD
ENDBRANCH   7  11
TORSDOF 1
ENDMDL
MODEL 2
REMARK VINA RESULT:    -4.628      0.821      2.889
REMARK INTER + INTRA:          -4.763
REMARK INTER:                  -4.763
REMARK INTRA:                   0.000
REMARK UNBOUND:                 0.000
REMARK SMILES Nc1ncnc2nc[nH]c12
REMARK SMILES IDX 8 1 7 2 6 3 5 4 4 5 3 6 2 7 10 8 9 9 1 11
REMARK H PARENT 9 10 1 12 1 13
REMARK Flexibility Score: inf
ROOT
ATOM      1  C   UNL     1     -12.283 -28.058 -11.239  1.00  0.00     0.199 A 
ATOM      2  N   UNL     1     -12.962 -29.234 -11.342  1.00  0.00    -0.217 NA
ATOM      3  C   UNL     1     -14.032 -28.882 -12.073  1.00  0.00     0.182 A 
ATOM      4  N   UNL     1     -15.043 -29.693 -12.469  1.00  0.00    -0.215 NA
ATOM      5  C   UNL     1     -16.052 -29.148 -13.215  1.00  0.00     0.226 A 
ATOM      6  N   UNL     1     -16.032 -27.818 -13.548  1.00  0.00    -0.217 NA
ATOM      7  C   UNL     1     -15.015 -26.999 -13.149  1.00  0.00     0.152 A 
ATOM      8  C   UNL     1     -13.994 -27.567 -12.390  1.00  0.00     0.127 A 
ATOM      9  N   UNL     1     -12.889 -27.021 -11.870  1.00  0.00    -0.340 N 
ATOM     10  H   UNL     1     -12.559 -26.031 -11.929  1.00  0.00     0.168 HD
ENDROOT
BRANCH   7  11
ATOM     11  N   UNL     1     -15.016 -25.616 -13.507  1.00  0.00    -0.382 N 
ATOM     12  H   UNL     1     -15.437 -25.312 -14.413  1.00  0.00     0.158 HD
ATOM     13  H   UNL     1     -14.602 -24.891 -12.881  1.00  0.00     0.158 HD
ENDBRANCH   7  11
TORSDOF 1
ENDMDL
MODEL 3
REMARK VINA RESULT:    -4.489      1.803      2.558
REMARK INTER + INTRA:          -4.621
REMARK INTER:                  -4.621
REMARK INTRA:                   0.000
REMARK UNBOUND:                 0.000
REMARK SMILES Nc1ncnc2nc[nH]c12
REMARK SMILES IDX 8 1 7 2 6 3 5 4 4 5 3 6 2 7 10 8 9 9 1 11
REMARK H PARENT 9 10 1 12 1 13
REMARK Flexibility Score: inf
ROOT
ATOM      1  C   UNL     1     -14.603 -30.661 -13.668  1.00  0.00     0.199 A 
ATOM      2  N   UNL     1     -15.592 -30.007 -12.998  1.00  0.00    -0.217 NA
ATOM      3  C   UNL     1     -15.357 -28.725 -13.323  1.00  0.00     0.182 A 
ATOM      4  N   UNL     1     -16.066 -27.645 -12.913  1.00  0.00    -0.215 NA
ATOM      5  C   UNL     1     -15.673 -26.412 -13.353  1.00  0.00     0.226 A 
ATOM      6  N   UNL     1     -14.590 -26.282 -14.186  1.00  0.00    -0.217 NA
ATOM      7  C   UNL     1     -13.875 -27.369 -14.600  1.00  0.00     0.152 A 
ATOM      8  C   UNL     1     -14.287 -28.619 -14.144  1.00  0.00     0.127 A 
ATOM      9  N   UNL     1     -13.790 -29.838 -14.378  1.00  0.00    -0.340 N 
ATOM     10  H   UNL     1     -12.970 -30.108 -14.967  1.00  0.00     0.168 HD
ENDROOT
BRANCH   7  11
ATOM     11  N   UNL     1     -12.752 -27.209 -15.467  1.00  0.00    -0.382 N 
ATOM     12  H   UNL     1     -12.899 -27.010 -16.482  1.00  0.00     0.158 HD
ATOM     13  H   UNL     1     -11.774 -27.286 -15.111  1.00  0.00     0.158 HD
ENDBRANCH   7  11
TORSDOF 1
ENDMDL
MODEL 4
REMARK VINA RESULT:    -4.488      1.726      1.883
REMARK INTER + INTRA:          -4.619
REMARK INTER:                  -4.619
REMARK INTRA:                   0.000
REMARK UNBOUND:                 0.000
REMARK SMILES Nc1ncnc2nc[nH]c12
REMARK SMILES IDX 8 1 7 2 6 3 5 4 4 5 3 6 2 7 10 8 9 9 1 11
REMARK H PARENT 9 10 1 12 1 13
REMARK Flexibility Score: inf
ROOT
ATOM      1  C   UNL     1     -15.013 -31.454 -12.948  1.00  0.00     0.199 A 
ATOM      2  N   UNL     1     -14.537 -30.934 -11.783  1.00  0.00    -0.217 NA
ATOM      3  C   UNL     1     -14.057 -29.743 -12.178  1.00  0.00     0.182 A 
ATOM      4  N   UNL     1     -13.463 -28.810 -11.394  1.00  0.00    -0.215 NA
ATOM      5  C   UNL     1     -13.038 -27.651 -11.981  1.00  0.00     0.226 A 
ATOM      6  N   UNL     1     -13.211 -27.447 -13.327  1.00  0.00    -0.217 NA
ATOM      7  C   UNL     1     -13.809 -28.386 -14.118  1.00  0.00     0.152 A 
ATOM      8  C   UNL     1     -14.237 -29.561 -13.507  1.00  0.00     0.127 A 
ATOM      9  N   UNL     1     -14.844 -30.638 -14.019  1.00  0.00    -0.340 N 
ATOM     10  H   UNL     1     -15.128 -30.820 -15.008  1.00  0.00     0.168 HD
ENDROOT
BRANCH   7  11
ATOM     11  N   UNL     1     -13.979 -28.151 -15.517  1.00  0.00    -0.382 N 
ATOM     12  H   UNL     1     -14.914 -28.291 -15.961  1.00  0.00     0.158 HD
ATOM     13  H   UNL     1     -13.184 -27.839 -16.117  1.00  0.00     0.158 HD
ENDBRANCH   7  11
TORSDOF 1
ENDMDL
MODEL 5
REMARK VINA RESULT:    -4.479      6.500      7.927
REMARK INTER + INTRA:          -4.610
REMARK INTER:                  -4.610
REMARK INTRA:                   0.000
REMARK UNBOUND:                 0.000
REMARK SMILES Nc1ncnc2nc[nH]c12
REMARK SMILES IDX 8 1 7 2 6 3 5 4 4 5 3 6 2 7 10 8 9 9 1 11
REMARK H PARENT 9 10 1 12 1 13
REMARK Flexibility Score: inf
ROOT
ATOM      1  C   UNL     1     -13.396 -34.443 -12.724  1.00  0.00     0.199 A 
ATOM      2  N   UNL     1     -12.506 -34.819 -13.684  1.00  0.00    -0.217 NA
ATOM      3  C   UNL     1     -13.311 -35.312 -14.640  1.00  0.00     0.182 A 
ATOM      4  N   UNL     1     -12.927 -35.829 -15.832  1.00  0.00    -0.215 NA
ATOM      5  C   UNL     1     -13.898 -36.283 -16.681  1.00  0.00     0.226 A 
ATOM      6  N   UNL     1     -15.222 -36.212 -16.327  1.00  0.00    -0.217 NA
ATOM      7  C   UNL     1     -15.610 -35.691 -15.126  1.00  0.00     0.152 A 
ATOM      8  C   UNL     1     -14.611 -35.233 -14.272  1.00  0.00     0.127 A 
ATOM      9  N   UNL     1     -14.690 -34.683 -13.055  1.00  0.00    -0.340 N 
ATOM     10  H   UNL     1     -15.540 -34.480 -12.483  1.00  0.00     0.168 HD
ENDROOT
BRANCH   7  11
ATOM     11  N   UNL     1     -16.995 -35.627 -14.779  1.00  0.00    -0.382 N 
ATOM     12  H   UNL     1     -17.704 -36.118 -15.367  1.00  0.00     0.158 HD
ATOM     13  H   UNL     1     -17.322 -35.096 -13.943  1.00  0.00     0.158 HD
ENDBRANCH   7  11
TORSDOF 1
ENDMDL
MODEL 6
REMARK VINA RESULT:    -4.437      6.441      7.501
REMARK INTER + INTRA:          -4.567
REMARK INTER:                  -4.567
REMARK INTRA:                   0.000
REMARK UNBOUND:                 0.000
REMARK SMILES Nc1ncnc2nc[nH]c12
REMARK SMILES IDX 8 1 7 2 6 3 5 4 4 5 3 6 2 7 10 8 9 9 1 11
REMARK H PARENT 9 10 1 12 1 13
REMARK Flexibility Score: inf
ROOT
ATOM      1  C   UNL     1     -14.148 -36.037 -17.142  1.00  0.00     0.199 A 
ATOM      2  N   UNL     1     -13.086 -35.778 -16.331  1.00  0.00    -0.217 NA
ATOM      3  C   UNL     1     -13.683 -35.351 -15.207  1.00  0.00     0.182 A 
ATOM      4  N   UNL     1     -13.069 -34.958 -14.065  1.00  0.00    -0.215 NA
ATOM      5  C   UNL     1     -13.851 -34.554 -13.018  1.00  0.00     0.226 A 
ATOM      6  N   UNL     1     -15.218 -34.551 -13.131  1.00  0.00    -0.217 NA
ATOM      7  C   UNL     1     -15.839 -34.946 -14.282  1.00  0.00     0.152 A 
ATOM      8  C   UNL     1     -15.029 -35.355 -15.338  1.00  0.00     0.127 A 
ATOM      9  N   UNL     1     -15.350 -35.788 -16.563  1.00  0.00    -0.340 N 
ATOM     10  H   UNL     1     -16.297 -35.911 -16.986  1.00  0.00     0.168 HD
ENDROOT
BRANCH   7  11
ATOM     11  N   UNL     1     -17.264 -34.934 -14.375  1.00  0.00    -0.382 N 
ATOM     12  H   UNL     1     -17.789 -34.041 -14.248  1.00  0.00     0.158 HD
ATOM     13  H   UNL     1     -17.803 -35.806 -14.570  1.00  0.00     0.158 HD
ENDBRANCH   7  11
TORSDOF 1
ENDMDL
MODEL 7
REMARK VINA RESULT:    -4.346      1.092      2.877
REMARK INTER + INTRA:          -4.473
REMARK INTER:                  -4.473
REMARK INTRA:                   0.000
REMARK UNBOUND:                 0.000
REMARK SMILES Nc1ncnc2nc[nH]c12
REMARK SMILES IDX 8 1 7 2 6 3 5 4 4 5 3 6 2 7 10 8 9 9 1 11
REMARK H PARENT 9 10 1 12 1 13
REMARK Flexibility Score: inf
ROOT
ATOM      1  C   UNL     1     -13.145 -30.432 -11.795  1.00  0.00     0.199 A 
ATOM      2  N   UNL     1     -12.706 -29.154 -11.628  1.00  0.00    -0.217 NA
ATOM      3  C   UNL     1     -13.715 -28.435 -12.147  1.00  0.00     0.182 A 
ATOM      4  N   UNL     1     -13.786 -27.085 -12.232  1.00  0.00    -0.215 NA
ATOM      5  C   UNL     1     -14.901 -26.532 -12.796  1.00  0.00     0.226 A 
ATOM      6  N   UNL     1     -15.916 -27.330 -13.260  1.00  0.00    -0.217 NA
ATOM      7  C   UNL     1     -15.846 -28.691 -13.177  1.00  0.00     0.152 A 
ATOM      8  C   UNL     1     -14.704 -29.240 -12.600  1.00  0.00     0.127 A 
ATOM      9  N   UNL     1     -14.364 -30.517 -12.387  1.00  0.00    -0.340 N 
ATOM     10  H   UNL     1     -14.901 -31.383 -12.615  1.00  0.00     0.168 HD
ENDROOT
BRANCH   7  11
ATOM     11  N   UNL     1     -16.915 -29.502 -13.667  1.00  0.00    -0.382 N 
ATOM     12  H   UNL     1     -17.362 -30.210 -13.044  1.00  0.00     0.158 HD
ATOM     13  H   UNL     1     -17.266 -29.405 -14.645  1.00  0.00     0.158 HD
ENDBRANCH   7  11
TORSDOF 1
ENDMDL
MODEL 8
REMARK VINA RESULT:    -4.339      1.396      2.939
REMARK INTER + INTRA:          -4.466
REMARK INTER:                  -4.466
REMARK INTRA:                   0.000
REMARK UNBOUND:                 0.000
REMARK SMILES Nc1ncnc2nc[nH]c12
REMARK SMILES IDX 8 1 7 2 6 3 5 4 4 5 3 6 2 7 10 8 9 9 1 11
REMARK H PARENT 9 10 1 12 1 13
REMARK Flexibility Score: inf
ROOT
ATOM      1  C   UNL     1     -15.997 -27.376 -13.184  1.00  0.00     0.199 A 
ATOM      2  N   UNL     1     -14.844 -27.227 -12.476  1.00  0.00    -0.217 NA
ATOM      3  C   UNL     1     -14.336 -28.471 -12.493  1.00  0.00     0.182 A 
ATOM      4  N   UNL     1     -13.177 -28.879 -11.922  1.00  0.00    -0.215 NA
ATOM      5  C   UNL     1     -12.824 -30.194 -12.049  1.00  0.00     0.226 A 
ATOM      6  N   UNL     1     -13.628 -31.068 -12.737  1.00  0.00    -0.217 NA
ATOM      7  C   UNL     1     -14.796 -30.658 -13.313  1.00  0.00     0.152 A 
ATOM      8  C   UNL     1     -15.142 -29.317 -13.176  1.00  0.00     0.127 A 
ATOM      9  N   UNL     1     -16.207 -28.642 -13.626  1.00  0.00    -0.340 N 
ATOM     10  H   UNL     1     -17.015 -28.994 -14.186  1.00  0.00     0.168 HD
ENDROOT
BRANCH   7  11
ATOM     11  N   UNL     1     -15.616 -31.586 -14.025  1.00  0.00    -0.382 N 
ATOM     12  H   UNL     1     -15.842 -32.514 -13.603  1.00  0.00     0.158 HD
ATOM     13  H   UNL     1     -16.001 -31.360 -14.968  1.00  0.00     0.158 HD
ENDBRANCH   7  11
TORSDOF 1
ENDMDL
MODEL 9
REMARK VINA RESULT:    -4.247      1.144      2.866
REMARK INTER + INTRA:          -4.371
REMARK INTER:                  -4.371
REMARK INTRA:                   0.000
REMARK UNBOUND:                 0.000
REMARK SMILES Nc1ncnc2nc[nH]c12
REMARK SMILES IDX 8 1 7 2 6 3 5 4 4 5 3 6 2 7 10 8 9 9 1 11
REMARK H PARENT 9 10 1 12 1 13
REMARK Flexibility Score: inf
ROOT
ATOM      1  C   UNL     1     -15.256 -26.170 -13.335  1.00  0.00     0.199 A 
ATOM      2  N   UNL     1     -15.853 -27.360 -13.617  1.00  0.00    -0.217 NA
ATOM      3  C   UNL     1     -15.101 -28.228 -12.920  1.00  0.00     0.182 A 
ATOM      4  N   UNL     1     -15.269 -29.571 -12.853  1.00  0.00    -0.215 NA
ATOM      5  C   UNL     1     -14.398 -30.292 -12.085  1.00  0.00     0.226 A 
ATOM      6  N   UNL     1     -13.385 -29.665 -11.404  1.00  0.00    -0.217 NA
ATOM      7  C   UNL     1     -13.214 -28.312 -11.471  1.00  0.00     0.152 A 
ATOM      8  C   UNL     1     -14.109 -27.590 -12.257  1.00  0.00     0.127 A 
ATOM      9  N   UNL     1     -14.186 -26.278 -12.506  1.00  0.00    -0.340 N 
ATOM     10  H   UNL     1     -13.576 -25.508 -12.152  1.00  0.00     0.168 HD
ENDROOT
BRANCH   7  11
ATOM     11  N   UNL     1     -12.151 -27.681 -10.754  1.00  0.00    -0.382 N 
ATOM     12  H   UNL     1     -12.160 -27.669  -9.710  1.00  0.00     0.158 HD
ATOM     13  H   UNL     1     -11.356 -27.224 -11.251  1.00  0.00     0.158 HD
ENDBRANCH   7  11
TORSDOF 1
ENDMDL
