MODEL 1
REMARK VINA RESULT:    -4.287      0.000      0.000
REMARK INTER + INTRA:          -5.850
REMARK INTER:                  -6.041
REMARK INTRA:                   0.190
REMARK UNBOUND:                 0.190
REMARK SMILES CC1=CCC(=C(C)C)C(=O)CC(C)=CCC1
REMARK SMILES IDX 12 1 14 2 13 3 15 4 16 5 2 6 1 7 3 8 11 10 9 11 10 12 5 13
REMARK SMILES IDX 6 14 7 15 8 16 4 17
REMARK H PARENT
REMARK Flexibility Score: 60.00
ROOT
ATOM      1  C   UNL     1      17.418  17.709  16.538  1.00  0.00    -0.070 C 
ATOM      2  C   UNL     1      18.590  17.531  17.187  1.00  0.00    -0.027 C 
ATOM      3  C   UNL     1      16.146  17.622  17.342  1.00  0.00     0.039 C 
ENDROOT
BRANCH   2   4
ATOM      4  C   UNL     1      19.958  17.486  16.541  1.00  0.00     0.032 C 
BRANCH   4   5
ATOM      5  C   UNL     1      20.324  16.136  15.892  1.00  0.00     0.034 C 
BRANCH   5   6
ATOM      6  C   UNL     1      20.972  16.285  14.527  1.00  0.00    -0.077 C 
ATOM      7  C   UNL     1      22.337  16.924  14.465  1.00  0.00     0.039 C 
ATOM      8  C   UNL     1      20.376  15.946  13.358  1.00  0.00    -0.023 CG0
ATOM      9  G   UNL     1      19.027  15.278  13.179  1.00  0.00     0.000 G0
ENDBRANCH   5   6
ENDBRANCH   4   5
ENDBRANCH   2   4
BRANCH   1  10
ATOM     10  C   UNL     1      17.318  17.897  15.038  1.00  0.00     0.111 C 
BRANCH  10  11
ATOM     11  C   UNL     1      17.141  16.583  14.323  1.00  0.00     0.163 C 
ATOM     12  O   UNL     1      16.380  15.721  14.841  1.00  0.00    -0.294 OA
BRANCH  11  13
ATOM     13  C   UNL     1      17.878  16.248  13.067  1.00  0.00    -0.002 C 
ATOM     14  C   UNL     1      17.471  16.752  11.863  1.00  0.00    -0.069 C 
ATOM     15  C   UNL     1      18.095  16.309  10.558  1.00  0.00     0.039 C 
ATOM     16  C   UNL     1      16.368  17.783  11.777  1.00  0.00     0.039 C 
BRANCH  13  17
ATOM     17  C   UNL     1      19.026  15.258  13.178  1.00  0.00     0.066 CG0
ATOM     18  G   UNL     1      20.365  15.946  13.355  1.00  0.00     0.000 G0
ENDBRANCH  13  17
ENDBRANCH  11  13
ENDBRANCH  10  11
ENDBRANCH   1  10
TORSDOF 0
ENDMDL
MODEL 2
REMARK VINA RESULT:    -4.080      1.950      3.956
REMARK INTER + INTRA:          -5.560
REMARK INTER:                  -5.792
REMARK INTRA:                   0.232
REMARK UNBOUND:                 0.190
REMARK SMILES CC1=CCC(=C(C)C)C(=O)CC(C)=CCC1
REMARK SMILES IDX 12 1 14 2 13 3 15 4 16 5 2 6 1 7 3 8 11 10 9 11 10 12 5 13
REMARK SMILES IDX 6 14 7 15 8 16 4 17
REMARK H PARENT
REMARK Flexibility Score: 60.00
ROOT
ATOM      1  C   UNL     1      20.080  16.127  14.678  1.00  0.00    -0.070 C 
ATOM      2  C   UNL     1      20.856  16.264  13.581  1.00  0.00    -0.027 C 
ATOM      3  C   UNL     1      20.708  16.389  16.023  1.00  0.00     0.039 C 
ENDROOT
BRANCH   2   4
ATOM      4  C   UNL     1      20.436  15.954  12.159  1.00  0.00     0.032 C 
BRANCH   4   5
ATOM      5  C   UNL     1      19.629  17.070  11.465  1.00  0.00     0.034 C 
BRANCH   5   6
ATOM      6  C   UNL     1      18.313  16.582  10.885  1.00  0.00    -0.077 C 
ATOM      7  C   UNL     1      18.369  15.694   9.667  1.00  0.00     0.039 C 
ATOM      8  C   UNL     1      17.092  16.947  11.348  1.00  0.00    -0.023 CG0
ATOM      9  G   UNL     1      16.794  17.808  12.560  1.00  0.00     0.000 G0
ENDBRANCH   5   6
ENDBRANCH   4   5
ENDBRANCH   2   4
BRANCH   1  10
ATOM     10  C   UNL     1      18.647  15.639  14.629  1.00  0.00     0.111 C 
BRANCH  10  11
ATOM     11  C   UNL     1      17.667  16.776  14.756  1.00  0.00     0.163 C 
ATOM     12  O   UNL     1      17.798  17.567  15.729  1.00  0.00    -0.294 OA
BRANCH  11  13
ATOM     13  C   UNL     1      16.523  16.957  13.813  1.00  0.00    -0.002 C 
ATOM     14  C   UNL     1      15.337  16.308  14.020  1.00  0.00    -0.069 C 
ATOM     15  C   UNL     1      14.217  16.345  13.003  1.00  0.00     0.039 C 
ATOM     16  C   UNL     1      15.087  15.515  15.284  1.00  0.00     0.039 C 
BRANCH  13  17
ATOM     17  C   UNL     1      16.768  17.808  12.578  1.00  0.00     0.066 CG0
ATOM     18  G   UNL     1      17.095  16.971  11.357  1.00  0.00     0.000 G0
ENDBRANCH  13  17
ENDBRANCH  11  13
ENDBRANCH  10  11
ENDBRANCH   1  10
TORSDOF 0
ENDMDL
MODEL 3
REMARK VINA RESULT:    -3.943      2.512      4.877
REMARK INTER + INTRA:          -5.367
REMARK INTER:                  -5.615
REMARK INTRA:                   0.248
REMARK UNBOUND:                 0.190
REMARK SMILES CC1=CCC(=C(C)C)C(=O)CC(C)=CCC1
REMARK SMILES IDX 12 1 14 2 13 3 15 4 16 5 2 6 1 7 3 8 11 10 9 11 10 12 5 13
REMARK SMILES IDX 6 14 7 15 8 16 4 17
REMARK H PARENT
REMARK Flexibility Score: 60.00
ROOT
ATOM      1  C   UNL     1      15.016  15.378  15.044  1.00  0.00    -0.070 C 
ATOM      2  C   UNL     1      13.880  15.632  14.359  1.00  0.00    -0.027 C 
ATOM      3  C   UNL     1      14.969  15.470  16.548  1.00  0.00     0.039 C 
ENDROOT
BRANCH   2   4
ATOM      4  C   UNL     1      13.751  15.685  12.852  1.00  0.00     0.032 C 
BRANCH   4   5
ATOM      5  C   UNL     1      13.666  17.105  12.258  1.00  0.00     0.034 C 
BRANCH   5   6
ATOM      6  C   UNL     1      14.623  17.327  11.099  1.00  0.00    -0.077 C 
ATOM      7  C   UNL     1      14.122  17.023   9.709  1.00  0.00     0.039 C 
ATOM      8  C   UNL     1      15.914  17.713  11.238  1.00  0.00    -0.023 CG0
ATOM      9  G   UNL     1      16.623  18.088  12.524  1.00  0.00     0.000 G0
ENDBRANCH   5   6
ENDBRANCH   4   5
ENDBRANCH   2   4
BRANCH   1  10
ATOM     10  C   UNL     1      16.346  15.097  14.375  1.00  0.00     0.111 C 
BRANCH  10  11
ATOM     11  C   UNL     1      17.203  16.334  14.299  1.00  0.00     0.163 C 
ATOM     12  O   UNL     1      17.582  16.862  15.380  1.00  0.00    -0.294 OA
BRANCH  11  13
ATOM     13  C   UNL     1      17.562  16.982  13.002  1.00  0.00    -0.002 C 
ATOM     14  C   UNL     1      18.713  16.645  12.348  1.00  0.00    -0.069 C 
ATOM     15  C   UNL     1      19.183  17.393  11.119  1.00  0.00     0.039 C 
ATOM     16  C   UNL     1      19.581  15.502  12.825  1.00  0.00     0.039 C 
BRANCH  13  17
ATOM     17  C   UNL     1      16.646  18.088  12.501  1.00  0.00     0.066 CG0
ATOM     18  G   UNL     1      15.911  17.697  11.235  1.00  0.00     0.000 G0
ENDBRANCH  13  17
ENDBRANCH  11  13
ENDBRANCH  10  11
ENDBRANCH   1  10
TORSDOF 0
ENDMDL
MODEL 4
REMARK VINA RESULT:    -3.883      1.970      3.540
REMARK INTER + INTRA:          -5.281
REMARK INTER:                  -5.512
REMARK INTRA:                   0.231
REMARK UNBOUND:                 0.190
REMARK SMILES CC1=CCC(=C(C)C)C(=O)CC(C)=CCC1
REMARK SMILES IDX 12 1 14 2 13 3 15 4 16 5 2 6 1 7 3 8 11 10 9 11 10 12 5 13
REMARK SMILES IDX 6 14 7 15 8 16 4 17
REMARK H PARENT
REMARK Flexibility Score: 60.00
ROOT
ATOM      1  C   UNL     1      16.437  17.565  12.177  1.00  0.00    -0.070 C 
ATOM      2  C   UNL     1      16.115  17.317  13.465  1.00  0.00    -0.027 C 
ATOM      3  C   UNL     1      15.359  17.401  11.135  1.00  0.00     0.039 C 
ENDROOT
BRANCH   2   4
ATOM      4  C   UNL     1      17.077  17.332  14.634  1.00  0.00     0.032 C 
BRANCH   4   5
ATOM      5  C   UNL     1      17.845  16.014  14.859  1.00  0.00     0.034 C 
BRANCH   5   6
ATOM      6  C   UNL     1      19.352  16.199  14.890  1.00  0.00    -0.077 C 
ATOM      7  C   UNL     1      19.954  16.836  16.118  1.00  0.00     0.039 C 
ATOM      8  C   UNL     1      20.180  15.892  13.863  1.00  0.00    -0.023 CG0
ATOM      9  G   UNL     1      19.805  15.233  12.550  1.00  0.00     0.000 G0
ENDBRANCH   5   6
ENDBRANCH   4   5
ENDBRANCH   2   4
BRANCH   1  10
ATOM     10  C   UNL     1      17.841  17.907  11.721  1.00  0.00     0.111 C 
BRANCH  10  11
ATOM     11  C   UNL     1      18.480  16.762  10.980  1.00  0.00     0.163 C 
ATOM     12  O   UNL     1      17.842  16.242  10.024  1.00  0.00    -0.294 OA
BRANCH  11  13
ATOM     13  C   UNL     1      19.802  16.189  11.375  1.00  0.00    -0.002 C 
ATOM     14  C   UNL     1      20.928  16.467  10.653  1.00  0.00    -0.069 C 
ATOM     15  C   UNL     1      22.247  15.780  10.930  1.00  0.00     0.039 C 
ATOM     16  C   UNL     1      20.910  17.482   9.530  1.00  0.00     0.039 C 
BRANCH  13  17
ATOM     17  C   UNL     1      19.817  15.219  12.545  1.00  0.00     0.066 CG0
ATOM     18  G   UNL     1      20.175  15.898  13.852  1.00  0.00     0.000 G0
ENDBRANCH  13  17
ENDBRANCH  11  13
ENDBRANCH  10  11
ENDBRANCH   1  10
TORSDOF 0
ENDMDL
MODEL 5
REMARK VINA RESULT:    -3.864      9.015     11.425
REMARK INTER + INTRA:          -5.255
REMARK INTER:                  -5.488
REMARK INTRA:                   0.232
REMARK UNBOUND:                 0.190
REMARK SMILES CC1=CCC(=C(C)C)C(=O)CC(C)=CCC1
REMARK SMILES IDX 12 1 14 2 13 3 15 4 16 5 2 6 1 7 3 8 11 10 9 11 10 12 5 13
REMARK SMILES IDX 6 14 7 15 8 16 4 17
REMARK H PARENT
REMARK Flexibility Score: 60.00
ROOT
ATOM      1  C   UNL     1      17.145  16.053  24.314  1.00  0.00    -0.070 C 
ATOM      2  C   UNL     1      17.063  15.715  25.619  1.00  0.00    -0.027 C 
ATOM      3  C   UNL     1      18.461  16.586  23.805  1.00  0.00     0.039 C 
ENDROOT
BRANCH   2   4
ATOM      4  C   UNL     1      15.810  15.256  26.335  1.00  0.00     0.032 C 
BRANCH   4   5
ATOM      5  C   UNL     1      14.841  16.386  26.736  1.00  0.00     0.034 C 
BRANCH   5   6
ATOM      6  C   UNL     1      13.432  16.180  26.211  1.00  0.00    -0.077 C 
ATOM      7  C   UNL     1      12.632  15.035  26.780  1.00  0.00     0.039 C 
ATOM      8  C   UNL     1      12.872  16.913  25.217  1.00  0.00    -0.023 CG0
ATOM      9  G   UNL     1      13.475  18.113  24.515  1.00  0.00     0.000 G0
ENDBRANCH   5   6
ENDBRANCH   4   5
ENDBRANCH   2   4
BRANCH   1  10
ATOM     10  C   UNL     1      15.964  16.008  23.367  1.00  0.00     0.111 C 
BRANCH  10  11
ATOM     11  C   UNL     1      15.460  17.390  23.040  1.00  0.00     0.163 C 
ATOM     12  O   UNL     1      16.306  18.276  22.741  1.00  0.00    -0.294 OA
BRANCH  11  13
ATOM     13  C   UNL     1      14.014  17.755  23.119  1.00  0.00    -0.002 C 
ATOM     14  C   UNL     1      13.253  17.843  21.988  1.00  0.00    -0.069 C 
ATOM     15  C   UNL     1      11.832  18.363  22.017  1.00  0.00     0.039 C 
ATOM     16  C   UNL     1      13.799  17.425  20.640  1.00  0.00     0.039 C 
BRANCH  13  17
ATOM     17  C   UNL     1      13.461  18.112  24.490  1.00  0.00     0.066 CG0
ATOM     18  G   UNL     1      12.882  16.910  25.209  1.00  0.00     0.000 G0
ENDBRANCH  13  17
ENDBRANCH  11  13
ENDBRANCH  10  11
ENDBRANCH   1  10
TORSDOF 0
ENDMDL
MODEL 6
REMARK VINA RESULT:    -3.825      1.256      3.875
REMARK INTER + INTRA:          -5.200
REMARK INTER:                  -5.463
REMARK INTRA:                   0.262
REMARK UNBOUND:                 0.190
REMARK SMILES CC1=CCC(=C(C)C)C(=O)CC(C)=CCC1
REMARK SMILES IDX 12 1 14 2 13 3 15 4 16 5 2 6 1 7 3 8 11 10 9 11 10 12 5 13
REMARK SMILES IDX 6 14 7 15 8 16 4 17
REMARK H PARENT
REMARK Flexibility Score: 60.00
ROOT
ATOM      1  C   UNL     1      16.327  17.237  12.357  1.00  0.00    -0.070 C 
ATOM      2  C   UNL     1      16.857  17.019  11.134  1.00  0.00    -0.027 C 
ATOM      3  C   UNL     1      14.844  17.031  12.531  1.00  0.00     0.039 C 
ENDROOT
BRANCH   2   4
ATOM      4  C   UNL     1      18.297  17.263  10.740  1.00  0.00     0.032 C 
BRANCH   4   5
ATOM      5  C   UNL     1      19.273  16.130  11.118  1.00  0.00     0.034 C 
BRANCH   5   6
ATOM      6  C   UNL     1      20.455  16.610  11.942  1.00  0.00    -0.077 C 
ATOM      7  C   UNL     1      21.518  17.418  11.239  1.00  0.00     0.039 C 
ATOM      8  C   UNL     1      20.651  16.303  13.248  1.00  0.00    -0.023 CG0
ATOM      9  G   UNL     1      19.717  15.528  14.155  1.00  0.00     0.000 G0
ENDBRANCH   5   6
ENDBRANCH   4   5
ENDBRANCH   2   4
BRANCH   1  10
ATOM     10  C   UNL     1      17.130  17.762  13.530  1.00  0.00     0.111 C 
BRANCH  10  11
ATOM     11  C   UNL     1      17.445  16.672  14.521  1.00  0.00     0.163 C 
ATOM     12  O   UNL     1      16.488  15.994  14.984  1.00  0.00    -0.294 OA
BRANCH  11  13
ATOM     13  C   UNL     1      18.832  16.413  15.012  1.00  0.00    -0.002 C 
ATOM     14  C   UNL     1      19.300  17.026  16.141  1.00  0.00    -0.069 C 
ATOM     15  C   UNL     1      20.744  16.910  16.575  1.00  0.00     0.039 C 
ATOM     16  C   UNL     1      18.389  17.860  17.015  1.00  0.00     0.039 C 
BRANCH  13  17
ATOM     17  C   UNL     1      19.717  15.522  14.156  1.00  0.00     0.066 CG0
ATOM     18  G   UNL     1      20.639  16.320  13.255  1.00  0.00     0.000 G0
ENDBRANCH  13  17
ENDBRANCH  11  13
ENDBRANCH  10  11
ENDBRANCH   1  10
TORSDOF 0
ENDMDL
MODEL 7
REMARK VINA RESULT:    -3.789      9.299     10.501
REMARK INTER + INTRA:          -5.149
REMARK INTER:                  -5.561
REMARK INTRA:                   0.413
REMARK UNBOUND:                 0.190
REMARK SMILES CC1=CCC(=C(C)C)C(=O)CC(C)=CCC1
REMARK SMILES IDX 12 1 14 2 13 3 15 4 16 5 2 6 1 7 3 8 11 10 9 11 10 12 5 13
REMARK SMILES IDX 6 14 7 15 8 16 4 17
REMARK H PARENT
REMARK Flexibility Score: 60.00
ROOT
ATOM      1  C   UNL     1      19.223  13.240  24.297  1.00  0.00    -0.070 C 
ATOM      2  C   UNL     1      20.429  13.606  23.810  1.00  0.00    -0.027 C 
ATOM      3  C   UNL     1      19.178  12.105  25.289  1.00  0.00     0.039 C 
ENDROOT
BRANCH   2   4
ATOM      4  C   UNL     1      20.669  14.651  22.742  1.00  0.00     0.032 C 
BRANCH   4   5
ATOM      5  C   UNL     1      21.444  15.897  23.216  1.00  0.00     0.034 C 
BRANCH   5   6
ATOM      6  C   UNL     1      20.974  16.416  24.564  1.00  0.00    -0.077 C 
ATOM      7  C   UNL     1      21.914  16.277  25.735  1.00  0.00     0.039 C 
ATOM      8  C   UNL     1      19.742  16.931  24.796  1.00  0.00    -0.023 CG0
ATOM      9  G   UNL     1      18.648  17.182  23.777  1.00  0.00     0.000 G0
ENDBRANCH   5   6
ENDBRANCH   4   5
ENDBRANCH   2   4
BRANCH   1  10
ATOM     10  C   UNL     1      17.917  13.848  23.830  1.00  0.00     0.111 C 
BRANCH  10  11
ATOM     11  C   UNL     1      17.534  15.048  24.656  1.00  0.00     0.163 C 
ATOM     12  O   UNL     1      17.298  14.874  25.883  1.00  0.00    -0.294 OA
BRANCH  11  13
ATOM     13  C   UNL     1      17.368  16.409  24.064  1.00  0.00    -0.002 C 
ATOM     14  C   UNL     1      16.130  16.877  23.724  1.00  0.00    -0.069 C 
ATOM     15  C   UNL     1      15.944  18.181  22.980  1.00  0.00     0.039 C 
ATOM     16  C   UNL     1      14.876  16.107  24.077  1.00  0.00     0.039 C 
BRANCH  13  17
ATOM     17  C   UNL     1      18.634  17.199  23.772  1.00  0.00     0.066 CG0
ATOM     18  G   UNL     1      19.729  16.928  24.786  1.00  0.00     0.000 G0
ENDBRANCH  13  17
ENDBRANCH  11  13
ENDBRANCH  10  11
ENDBRANCH   1  10
TORSDOF 0
ENDMDL
MODEL 8
REMARK VINA RESULT:    -3.771      9.957     11.847
REMARK INTER + INTRA:          -5.124
REMARK INTER:                  -5.370
REMARK INTRA:                   0.246
REMARK UNBOUND:                 0.190
REMARK SMILES CC1=CCC(=C(C)C)C(=O)CC(C)=CCC1
REMARK SMILES IDX 12 1 14 2 13 3 15 4 16 5 2 6 1 7 3 8 11 10 9 11 10 12 5 13
REMARK SMILES IDX 6 14 7 15 8 16 4 17
REMARK H PARENT
REMARK Flexibility Score: 60.00
ROOT
ATOM      1  C   UNL     1      14.428  17.556  23.699  1.00  0.00    -0.070 C 
ATOM      2  C   UNL     1      15.024  16.783  24.633  1.00  0.00    -0.027 C 
ATOM      3  C   UNL     1      15.308  18.425  22.836  1.00  0.00     0.039 C 
ENDROOT
BRANCH   2   4
ATOM      4  C   UNL     1      14.310  15.921  25.652  1.00  0.00     0.032 C 
BRANCH   4   5
ATOM      5  C   UNL     1      13.611  14.676  25.071  1.00  0.00     0.034 C 
BRANCH   5   6
ATOM      6  C   UNL     1      12.143  14.584  25.449  1.00  0.00    -0.077 C 
ATOM      7  C   UNL     1      11.802  14.482  26.915  1.00  0.00     0.039 C 
ATOM      8  C   UNL     1      11.126  14.517  24.555  1.00  0.00    -0.023 CG0
ATOM      9  G   UNL     1      11.228  14.618  23.046  1.00  0.00     0.000 G0
ENDBRANCH   5   6
ENDBRANCH   4   5
ENDBRANCH   2   4
BRANCH   1  10
ATOM     10  C   UNL     1      12.925  17.660  23.540  1.00  0.00     0.111 C 
BRANCH  10  11
ATOM     11  C   UNL     1      12.423  16.790  22.417  1.00  0.00     0.163 C 
ATOM     12  O   UNL     1      13.089  16.758  21.347  1.00  0.00    -0.294 OA
BRANCH  11  13
ATOM     13  C   UNL     1      11.144  16.024  22.508  1.00  0.00    -0.002 C 
ATOM     14  C   UNL     1       9.950  16.619  22.214  1.00  0.00    -0.069 C 
ATOM     15  C   UNL     1       8.628  15.921  22.448  1.00  0.00     0.039 C 
ATOM     16  C   UNL     1       9.891  18.017  21.638  1.00  0.00     0.039 C 
BRANCH  13  17
ATOM     17  C   UNL     1      11.225  14.598  23.029  1.00  0.00     0.066 CG0
ATOM     18  G   UNL     1      11.116  14.529  24.540  1.00  0.00     0.000 G0
ENDBRANCH  13  17
ENDBRANCH  11  13
ENDBRANCH  10  11
ENDBRANCH   1  10
TORSDOF 0
ENDMDL
MODEL 9
REMARK VINA RESULT:    -3.755     10.011     11.588
REMARK INTER + INTRA:          -5.102
REMARK INTER:                  -5.609
REMARK INTRA:                   0.507
REMARK UNBOUND:                 0.190
REMARK SMILES CC1=CCC(=C(C)C)C(=O)CC(C)=CCC1
REMARK SMILES IDX 12 1 14 2 13 3 15 4 16 5 2 6 1 7 3 8 11 10 9 11 10 12 5 13
REMARK SMILES IDX 6 14 7 15 8 16 4 17
REMARK H PARENT
REMARK Flexibility Score: 60.00
ROOT
ATOM      1  C   UNL     1      18.970  12.869  25.707  1.00  0.00    -0.070 C 
ATOM      2  C   UNL     1      17.888  13.497  26.216  1.00  0.00    -0.027 C 
ATOM      3  C   UNL     1      18.815  11.431  25.279  1.00  0.00     0.039 C 
ENDROOT
BRANCH   2   4
ATOM      4  C   UNL     1      17.867  14.899  26.785  1.00  0.00     0.032 C 
BRANCH   4   5
ATOM      5  C   UNL     1      16.846  15.850  26.130  1.00  0.00     0.034 C 
BRANCH   5   6
ATOM      6  C   UNL     1      17.117  16.094  24.655  1.00  0.00    -0.077 C 
ATOM      7  C   UNL     1      15.994  15.828  23.683  1.00  0.00     0.039 C 
ATOM      8  C   UNL     1      18.318  16.467  24.151  1.00  0.00    -0.023 CG0
ATOM      9  G   UNL     1      19.573  16.804  24.932  1.00  0.00     0.000 G0
ENDBRANCH   5   6
ENDBRANCH   4   5
ENDBRANCH   2   4
BRANCH   1  10
ATOM     10  C   UNL     1      20.342  13.506  25.631  1.00  0.00     0.111 C 
BRANCH  10  11
ATOM     11  C   UNL     1      20.461  14.432  24.449  1.00  0.00     0.163 C 
ATOM     12  O   UNL     1      20.363  13.936  23.293  1.00  0.00    -0.294 OA
BRANCH  11  13
ATOM     13  C   UNL     1      20.750  15.889  24.598  1.00  0.00    -0.002 C 
ATOM     14  C   UNL     1      22.031  16.360  24.517  1.00  0.00    -0.069 C 
ATOM     15  C   UNL     1      22.374  17.802  24.821  1.00  0.00     0.039 C 
ATOM     16  C   UNL     1      23.176  15.455  24.119  1.00  0.00     0.039 C 
BRANCH  13  17
ATOM     17  C   UNL     1      19.580  16.799  24.937  1.00  0.00     0.066 CG0
ATOM     18  G   UNL     1      18.334  16.453  24.146  1.00  0.00     0.000 G0
ENDBRANCH  13  17
ENDBRANCH  11  13
ENDBRANCH  10  11
ENDBRANCH   1  10
TORSDOF 0
ENDMDL
