MODEL 1
REMARK VINA RESULT:    -5.016      0.000      0.000
REMARK INTER + INTRA:          -5.559
REMARK INTER:                  -5.456
REMARK INTRA:                  -0.104
REMARK UNBOUND:                -0.104
REMARK SMILES C=C(C)[C@H]1CC[C@@H](C)[C@@H](O)C1
REMARK SMILES IDX 8 1 7 2 6 3 5 4 4 5 11 6 9 7 10 8 2 10 1 11 3 12
REMARK H PARENT 10 9
REMARK Flexibility Score: inf
ROOT
ATOM      1  C   UNL     1     137.688 123.421 138.047  1.00  0.00     0.010 C 
ATOM      2  C   UNL     1     136.236 123.844 138.332  1.00  0.00     0.015 C 
ATOM      3  C   UNL     1     136.234 125.068 139.285  1.00  0.00     0.006 C 
ATOM      4  C   UNL     1     134.896 125.236 140.018  1.00  0.00     0.008 C 
ATOM      5  C   UNL     1     134.496 123.981 140.843  1.00  0.00     0.017 C 
ATOM      6  C   UNL     1     135.229 122.698 140.388  1.00  0.00     0.040 C 
ATOM      7  C   UNL     1     135.353 122.667 138.855  1.00  0.00     0.117 C 
ENDROOT
BRANCH   7   8
ATOM      8  O   UNL     1     135.858 121.424 138.438  1.00  0.00    -0.393 OA
ATOM      9  H   UNL     1     135.271 121.103 137.704  1.00  0.00     0.210 HD
ENDBRANCH   7   8
BRANCH   5  10
ATOM     10  C   UNL     1     134.649 124.202 142.345  1.00  0.00    -0.077 C 
ATOM     11  C   UNL     1     135.717 124.839 142.851  1.00  0.00     0.008 C 
ATOM     12  C   UNL     1     133.589 123.705 143.295  1.00  0.00     0.039 C 
ENDBRANCH   5  10
TORSDOF 2
ENDMDL
MODEL 2
REMARK VINA RESULT:    -4.986      2.254      4.492
REMARK INTER + INTRA:          -5.527
REMARK INTER:                  -5.394
REMARK INTRA:                  -0.133
REMARK UNBOUND:                -0.104
REMARK SMILES C=C(C)[C@H]1CC[C@@H](C)[C@@H](O)C1
REMARK SMILES IDX 8 1 7 2 6 3 5 4 4 5 11 6 9 7 10 8 2 10 1 11 3 12
REMARK H PARENT 10 9
REMARK Flexibility Score: inf
ROOT
ATOM      1  C   UNL     1     136.014 125.275 144.232  1.00  0.00     0.010 C 
ATOM      2  C   UNL     1     135.908 124.085 143.262  1.00  0.00     0.015 C 
ATOM      3  C   UNL     1     137.075 124.149 142.242  1.00  0.00     0.006 C 
ATOM      4  C   UNL     1     136.781 123.346 140.966  1.00  0.00     0.008 C 
ATOM      5  C   UNL     1     135.484 123.811 140.246  1.00  0.00     0.017 C 
ATOM      6  C   UNL     1     134.528 124.603 141.169  1.00  0.00     0.040 C 
ATOM      7  C   UNL     1     134.508 123.984 142.576  1.00  0.00     0.117 C 
ENDROOT
BRANCH   7   8
ATOM      8  O   UNL     1     133.512 124.595 143.357  1.00  0.00    -0.393 OA
ATOM      9  H   UNL     1     132.954 123.867 143.738  1.00  0.00     0.210 HD
ENDBRANCH   7   8
BRANCH   5  10
ATOM     10  C   UNL     1     135.777 124.580 138.962  1.00  0.00    -0.077 C 
ATOM     11  C   UNL     1     134.786 124.993 138.155  1.00  0.00     0.008 C 
ATOM     12  C   UNL     1     137.199 124.897 138.577  1.00  0.00     0.039 C 
ENDBRANCH   5  10
TORSDOF 2
ENDMDL
MODEL 3
REMARK VINA RESULT:    -4.976      1.698      4.214
REMARK INTER + INTRA:          -5.516
REMARK INTER:                  -5.363
REMARK INTRA:                  -0.153
REMARK UNBOUND:                -0.104
REMARK SMILES C=C(C)[C@H]1CC[C@@H](C)[C@@H](O)C1
REMARK SMILES IDX 8 1 7 2 6 3 5 4 4 5 11 6 9 7 10 8 2 10 1 11 3 12
REMARK H PARENT 10 9
REMARK Flexibility Score: inf
ROOT
ATOM      1  C   UNL     1     132.753 124.458 142.638  1.00  0.00     0.010 C 
ATOM      2  C   UNL     1     134.207 123.968 142.518  1.00  0.00     0.015 C 
ATOM      3  C   UNL     1     135.078 125.091 141.898  1.00  0.00     0.006 C 
ATOM      4  C   UNL     1     136.374 124.551 141.276  1.00  0.00     0.008 C 
ATOM      5  C   UNL     1     136.117 123.478 140.181  1.00  0.00     0.017 C 
ATOM      6  C   UNL     1     134.714 122.835 140.279  1.00  0.00     0.040 C 
ATOM      7  C   UNL     1     134.329 122.613 141.752  1.00  0.00     0.117 C 
ENDROOT
BRANCH   7   8
ATOM      8  O   UNL     1     133.137 121.872 141.831  1.00  0.00    -0.393 OA
ATOM      9  H   UNL     1     133.260 121.063 141.268  1.00  0.00     0.210 HD
ENDBRANCH   7   8
BRANCH   5  10
ATOM     10  C   UNL     1     136.385 124.008 138.776  1.00  0.00    -0.077 C 
ATOM     11  C   UNL     1     135.420 124.609 138.062  1.00  0.00     0.008 C 
ATOM     12  C   UNL     1     137.754 123.867 138.162  1.00  0.00     0.039 C 
ENDBRANCH   5  10
TORSDOF 2
ENDMDL
MODEL 4
REMARK VINA RESULT:    -4.830      1.798      2.301
REMARK INTER + INTRA:          -5.357
REMARK INTER:                  -5.206
REMARK INTRA:                  -0.152
REMARK UNBOUND:                -0.104
REMARK SMILES C=C(C)[C@H]1CC[C@@H](C)[C@@H](O)C1
REMARK SMILES IDX 8 1 7 2 6 3 5 4 4 5 11 6 9 7 10 8 2 10 1 11 3 12
REMARK H PARENT 10 9
REMARK Flexibility Score: inf
ROOT
ATOM      1  C   UNL     1     137.735 124.156 137.765  1.00  0.00     0.010 C 
ATOM      2  C   UNL     1     137.293 123.125 138.817  1.00  0.00     0.015 C 
ATOM      3  C   UNL     1     135.752 122.961 138.762  1.00  0.00     0.006 C 
ATOM      4  C   UNL     1     135.178 122.377 140.061  1.00  0.00     0.008 C 
ATOM      5  C   UNL     1     135.528 123.230 141.313  1.00  0.00     0.017 C 
ATOM      6  C   UNL     1     136.738 124.167 141.089  1.00  0.00     0.040 C 
ATOM      7  C   UNL     1     137.816 123.459 140.251  1.00  0.00     0.117 C 
ENDROOT
BRANCH   7   8
ATOM      8  O   UNL     1     138.980 124.245 140.200  1.00  0.00    -0.393 OA
ATOM      9  H   UNL     1     138.693 125.193 140.271  1.00  0.00     0.210 HD
ENDBRANCH   7   8
BRANCH   5  10
ATOM     10  C   UNL     1     134.324 123.999 141.845  1.00  0.00    -0.077 C 
ATOM     11  C   UNL     1     133.924 125.148 141.277  1.00  0.00     0.008 C 
ATOM     12  C   UNL     1     133.554 123.474 143.030  1.00  0.00     0.039 C 
ENDBRANCH   5  10
TORSDOF 2
ENDMDL
MODEL 5
REMARK VINA RESULT:    -4.722      1.978      4.473
REMARK INTER + INTRA:          -5.240
REMARK INTER:                  -5.101
REMARK INTRA:                  -0.140
REMARK UNBOUND:                -0.104
REMARK SMILES C=C(C)[C@H]1CC[C@@H](C)[C@@H](O)C1
REMARK SMILES IDX 8 1 7 2 6 3 5 4 4 5 11 6 9 7 10 8 2 10 1 11 3 12
REMARK H PARENT 10 9
REMARK Flexibility Score: inf
ROOT
ATOM      1  C   UNL     1     133.893 123.817 143.327  1.00  0.00     0.010 C 
ATOM      2  C   UNL     1     134.642 124.767 142.376  1.00  0.00     0.015 C 
ATOM      3  C   UNL     1     134.088 124.597 140.938  1.00  0.00     0.006 C 
ATOM      4  C   UNL     1     135.074 125.091 139.869  1.00  0.00     0.008 C 
ATOM      5  C   UNL     1     136.452 124.376 139.942  1.00  0.00     0.017 C 
ATOM      6  C   UNL     1     136.717 123.711 141.313  1.00  0.00     0.040 C 
ATOM      7  C   UNL     1     136.193 124.602 142.452  1.00  0.00     0.117 C 
ENDROOT
BRANCH   7   8
ATOM      8  O   UNL     1     136.592 124.080 143.694  1.00  0.00    -0.393 OA
ATOM      9  H   UNL     1     137.398 124.586 143.977  1.00  0.00     0.210 HD
ENDBRANCH   7   8
BRANCH   5  10
ATOM     10  C   UNL     1     136.655 123.388 138.799  1.00  0.00    -0.077 C 
ATOM     11  C   UNL     1     135.927 122.263 138.713  1.00  0.00     0.008 C 
ATOM     12  C   UNL     1     137.686 123.662 137.734  1.00  0.00     0.039 C 
ENDBRANCH   5  10
TORSDOF 2
ENDMDL
MODEL 6
REMARK VINA RESULT:    -4.713      1.657      2.223
REMARK INTER + INTRA:          -5.230
REMARK INTER:                  -5.081
REMARK INTRA:                  -0.149
REMARK UNBOUND:                -0.104
REMARK SMILES C=C(C)[C@H]1CC[C@@H](C)[C@@H](O)C1
REMARK SMILES IDX 8 1 7 2 6 3 5 4 4 5 11 6 9 7 10 8 2 10 1 11 3 12
REMARK H PARENT 10 9
REMARK Flexibility Score: inf
ROOT
ATOM      1  C   UNL     1     134.885 122.625 137.861  1.00  0.00     0.010 C 
ATOM      2  C   UNL     1     135.823 123.544 138.663  1.00  0.00     0.015 C 
ATOM      3  C   UNL     1     136.352 122.780 139.905  1.00  0.00     0.006 C 
ATOM      4  C   UNL     1     136.854 123.727 141.004  1.00  0.00     0.008 C 
ATOM      5  C   UNL     1     135.766 124.730 141.481  1.00  0.00     0.017 C 
ATOM      6  C   UNL     1     134.614 124.903 140.464  1.00  0.00     0.040 C 
ATOM      7  C   UNL     1     135.164 124.912 139.028  1.00  0.00     0.117 C 
ENDROOT
BRANCH   7   8
ATOM      8  O   UNL     1     134.142 125.245 138.122  1.00  0.00    -0.393 OA
ATOM      9  H   UNL     1     133.634 125.999 138.523  1.00  0.00     0.210 HD
ENDBRANCH   7   8
BRANCH   5  10
ATOM     10  C   UNL     1     135.232 124.389 142.868  1.00  0.00    -0.077 C 
ATOM     11  C   UNL     1     135.968 124.602 143.971  1.00  0.00     0.008 C 
ATOM     12  C   UNL     1     133.852 123.803 143.026  1.00  0.00     0.039 C 
ENDBRANCH   5  10
TORSDOF 2
ENDMDL
MODEL 7
REMARK VINA RESULT:    -4.698      1.954      4.331
REMARK INTER + INTRA:          -5.214
REMARK INTER:                  -5.080
REMARK INTRA:                  -0.134
REMARK UNBOUND:                -0.104
REMARK SMILES C=C(C)[C@H]1CC[C@@H](C)[C@@H](O)C1
REMARK SMILES IDX 8 1 7 2 6 3 5 4 4 5 11 6 9 7 10 8 2 10 1 11 3 12
REMARK H PARENT 10 9
REMARK Flexibility Score: inf
ROOT
ATOM      1  C   UNL     1     134.123 123.761 143.355  1.00  0.00     0.010 C 
ATOM      2  C   UNL     1     134.806 124.736 142.380  1.00  0.00     0.015 C 
ATOM      3  C   UNL     1     134.170 124.587 140.973  1.00  0.00     0.006 C 
ATOM      4  C   UNL     1     135.086 125.110 139.858  1.00  0.00     0.008 C 
ATOM      5  C   UNL     1     136.474 124.409 139.837  1.00  0.00     0.017 C 
ATOM      6  C   UNL     1     136.825 123.721 141.177  1.00  0.00     0.040 C 
ATOM      7  C   UNL     1     136.361 124.586 142.361  1.00  0.00     0.117 C 
ENDROOT
BRANCH   7   8
ATOM      8  O   UNL     1     136.837 124.045 143.568  1.00  0.00    -0.393 OA
ATOM      9  H   UNL     1     136.273 123.254 143.774  1.00  0.00     0.210 HD
ENDBRANCH   7   8
BRANCH   5  10
ATOM     10  C   UNL     1     136.618 123.443 138.666  1.00  0.00    -0.077 C 
ATOM     11  C   UNL     1     137.574 123.610 137.738  1.00  0.00     0.008 C 
ATOM     12  C   UNL     1     135.680 122.270 138.531  1.00  0.00     0.039 C 
ENDBRANCH   5  10
TORSDOF 2
ENDMDL
MODEL 8
REMARK VINA RESULT:    -3.764      2.331      3.756
REMARK INTER + INTRA:          -4.198
REMARK INTER:                  -4.045
REMARK INTRA:                  -0.153
REMARK UNBOUND:                -0.104
REMARK SMILES C=C(C)[C@H]1CC[C@@H](C)[C@@H](O)C1
REMARK SMILES IDX 8 1 7 2 6 3 5 4 4 5 11 6 9 7 10 8 2 10 1 11 3 12
REMARK H PARENT 10 9
REMARK Flexibility Score: inf
ROOT
ATOM      1  C   UNL     1     138.607 122.238 141.495  1.00  0.00     0.010 C 
ATOM      2  C   UNL     1     138.133 123.658 141.141  1.00  0.00     0.015 C 
ATOM      3  C   UNL     1     136.610 123.773 141.408  1.00  0.00     0.006 C 
ATOM      4  C   UNL     1     135.965 124.929 140.630  1.00  0.00     0.008 C 
ATOM      5  C   UNL     1     136.179 124.817 139.094  1.00  0.00     0.017 C 
ATOM      6  C   UNL     1     137.359 123.893 138.712  1.00  0.00     0.040 C 
ATOM      7  C   UNL     1     138.529 124.085 139.691  1.00  0.00     0.117 C 
ENDROOT
BRANCH   7   8
ATOM      8  O   UNL     1     139.656 123.378 139.240  1.00  0.00    -0.393 OA
ATOM      9  H   UNL     1     139.420 122.413 139.259  1.00  0.00     0.210 HD
ENDBRANCH   7   8
BRANCH   5  10
ATOM     10  C   UNL     1     134.904 124.419 138.359  1.00  0.00    -0.077 C 
ATOM     11  C   UNL     1     134.667 123.143 138.015  1.00  0.00     0.008 C 
ATOM     12  C   UNL     1     133.876 125.463 138.005  1.00  0.00     0.039 C 
ENDBRANCH   5  10
TORSDOF 2
ENDMDL
MODEL 9
REMARK VINA RESULT:    -3.742      2.862      4.002
REMARK INTER + INTRA:          -4.174
REMARK INTER:                  -4.034
REMARK INTRA:                  -0.139
REMARK UNBOUND:                -0.104
REMARK SMILES C=C(C)[C@H]1CC[C@@H](C)[C@@H](O)C1
REMARK SMILES IDX 8 1 7 2 6 3 5 4 4 5 11 6 9 7 10 8 2 10 1 11 3 12
REMARK H PARENT 10 9
REMARK Flexibility Score: inf
ROOT
ATOM      1  C   UNL     1     140.028 124.530 141.798  1.00  0.00     0.010 C 
ATOM      2  C   UNL     1     139.000 123.458 141.398  1.00  0.00     0.015 C 
ATOM      3  C   UNL     1     138.702 123.571 139.880  1.00  0.00     0.006 C 
ATOM      4  C   UNL     1     137.363 122.926 139.497  1.00  0.00     0.008 C 
ATOM      5  C   UNL     1     136.157 123.529 140.271  1.00  0.00     0.017 C 
ATOM      6  C   UNL     1     136.576 124.266 141.565  1.00  0.00     0.040 C 
ATOM      7  C   UNL     1     137.707 123.502 142.274  1.00  0.00     0.117 C 
ENDROOT
BRANCH   7   8
ATOM      8  O   UNL     1     137.961 124.076 143.532  1.00  0.00    -0.393 OA
ATOM      9  H   UNL     1     137.242 123.766 144.142  1.00  0.00     0.210 HD
ENDBRANCH   7   8
BRANCH   5  10
ATOM     10  C   UNL     1     135.286 124.416 139.387  1.00  0.00    -0.077 C 
ATOM     11  C   UNL     1     134.275 125.134 139.902  1.00  0.00     0.008 C 
ATOM     12  C   UNL     1     135.552 124.504 137.906  1.00  0.00     0.039 C 
ENDBRANCH   5  10
TORSDOF 2
ENDMDL
