MODEL 1
REMARK VINA RESULT:    10.776      0.000      0.000
REMARK INTER + INTRA:          12.350
REMARK INTER:                  12.666
REMARK INTRA:                  -0.316
REMARK UNBOUND:                -0.316
REMARK SMILES O=c1c(O)c(-c2ccc(O)c(O)c2)oc2cc(O)ccc12
REMARK SMILES IDX 5 1 3 2 2 3 1 4 21 5 15 6 14 7 16 8 17 9 19 10 20 11 6 12
REMARK SMILES IDX 7 13 8 14 9 15 13 16 11 17 10 18 12 20 4 22 18 24
REMARK H PARENT 10 19 12 21 4 23 18 25
REMARK Flexibility Score: inf
ROOT
ATOM      1  C   UNL     1     -13.769  13.070   5.687  1.00  0.00     0.180 A 
ATOM      2  C   UNL     1     -13.469  14.325   6.257  1.00  0.00     0.208 A 
ATOM      3  C   UNL     1     -13.176  15.401   5.407  1.00  0.00     0.235 A 
ATOM      4  O   UNL     1     -12.915  16.537   5.893  1.00  0.00    -0.285 OA
ATOM      5  C   UNL     1     -13.169  15.202   4.017  1.00  0.00     0.069 A 
ATOM      6  C   UNL     1     -13.456  13.910   3.526  1.00  0.00     0.142 A 
ATOM      7  O   UNL     1     -13.737  12.919   4.365  1.00  0.00    -0.452 OA
ATOM      8  C   UNL     1     -13.449  13.668   2.147  1.00  0.00     0.094 A 
ATOM      9  C   UNL     1     -13.159  14.701   1.251  1.00  0.00     0.119 A 
ATOM     10  C   UNL     1     -12.876  15.986   1.736  1.00  0.00     0.047 A 
ATOM     11  C   UNL     1     -12.879  16.237   3.111  1.00  0.00     0.020 A 
ENDROOT
BRANCH   1  12
ATOM     12  C   UNL     1     -14.106  11.890   6.516  1.00  0.00     0.025 A 
ATOM     13  C   UNL     1     -13.113  10.996   6.955  1.00  0.00     0.016 A 
ATOM     14  C   UNL     1     -13.450   9.902   7.755  1.00  0.00     0.051 A 
ATOM     15  C   UNL     1     -14.780   9.692   8.141  1.00  0.00     0.157 A 
ATOM     16  C   UNL     1     -15.435  11.686   6.923  1.00  0.00     0.062 A 
ATOM     17  C   UNL     1     -15.776  10.591   7.724  1.00  0.00     0.158 A 
BRANCH  15  18
ATOM     18  O   UNL     1     -15.115   8.599   8.939  1.00  0.00    -0.504 OA
ATOM     19  H   UNL     1     -15.563   8.718   9.841  1.00  0.00     0.293 HD
ENDBRANCH  15  18
BRANCH  17  20
ATOM     20  O   UNL     1     -17.109  10.415   8.097  1.00  0.00    -0.504 OA
ATOM     21  H   UNL     1     -17.578   9.521   8.008  1.00  0.00     0.293 HD
ENDBRANCH  17  20
ENDBRANCH   1  12
BRANCH   2  22
ATOM     22  O   UNL     1     -13.436  14.481   7.645  1.00  0.00    -0.502 OA
ATOM     23  H   UNL     1     -12.588  14.730   8.142  1.00  0.00     0.293 HD
ENDBRANCH   2  22
BRANCH   9  24
ATOM     24  O   UNL     1     -13.158  14.443  -0.117  1.00  0.00    -0.508 OA
ATOM     25  H   UNL     1     -13.873  13.869  -0.549  1.00  0.00     0.293 HD
ENDBRANCH   9  24
TORSDOF 5
ENDMDL
MODEL 2
REMARK VINA RESULT:    11.598      2.417      4.457
REMARK INTER + INTRA:          13.316
REMARK INTER:                  13.339
REMARK INTRA:                  -0.024
REMARK UNBOUND:                -0.316
REMARK SMILES O=c1c(O)c(-c2ccc(O)c(O)c2)oc2cc(O)ccc12
REMARK SMILES IDX 5 1 3 2 2 3 1 4 21 5 15 6 14 7 16 8 17 9 19 10 20 11 6 12
REMARK SMILES IDX 7 13 8 14 9 15 13 16 11 17 10 18 12 20 4 22 18 24
REMARK H PARENT 10 19 12 21 4 23 18 25
REMARK Flexibility Score: inf
ROOT
ATOM      1  C   UNL     1     -13.563  14.736   5.902  1.00  0.00     0.180 A 
ATOM      2  C   UNL     1     -13.507  13.329   5.985  1.00  0.00     0.208 A 
ATOM      3  C   UNL     1     -13.305  12.590   4.810  1.00  0.00     0.235 A 
ATOM      4  O   UNL     1     -13.240  11.331   4.859  1.00  0.00    -0.285 OA
ATOM      5  C   UNL     1     -13.186  13.262   3.583  1.00  0.00     0.069 A 
ATOM      6  C   UNL     1     -13.278  14.671   3.580  1.00  0.00     0.142 A 
ATOM      7  O   UNL     1     -13.460  15.334   4.718  1.00  0.00    -0.452 OA
ATOM      8  C   UNL     1     -13.174  15.377   2.377  1.00  0.00     0.094 A 
ATOM      9  C   UNL     1     -12.979  14.694   1.173  1.00  0.00     0.119 A 
ATOM     10  C   UNL     1     -12.885  13.295   1.172  1.00  0.00     0.047 A 
ATOM     11  C   UNL     1     -12.988  12.581   2.368  1.00  0.00     0.020 A 
ENDROOT
BRANCH   1  12
ATOM     12  C   UNL     1     -13.754  15.588   7.099  1.00  0.00     0.025 A 
ATOM     13  C   UNL     1     -12.875  16.645   7.393  1.00  0.00     0.016 A 
ATOM     14  C   UNL     1     -13.088  17.450   8.514  1.00  0.00     0.051 A 
ATOM     15  C   UNL     1     -14.190  17.222   9.349  1.00  0.00     0.157 A 
ATOM     16  C   UNL     1     -14.869  15.376   7.927  1.00  0.00     0.062 A 
ATOM     17  C   UNL     1     -15.085  16.182   9.051  1.00  0.00     0.158 A 
BRANCH  15  18
ATOM     18  O   UNL     1     -14.400  18.026  10.468  1.00  0.00    -0.504 OA
ATOM     19  H   UNL     1     -13.634  18.310  11.069  1.00  0.00     0.293 HD
ENDBRANCH  15  18
BRANCH  17  20
ATOM     20  O   UNL     1     -16.196  15.932   9.858  1.00  0.00    -0.504 OA
ATOM     21  H   UNL     1     -16.437  16.530  10.640  1.00  0.00     0.293 HD
ENDBRANCH  17  20
ENDBRANCH   1  12
BRANCH   2  22
ATOM     22  O   UNL     1     -13.678  12.686   7.213  1.00  0.00    -0.502 OA
ATOM     23  H   UNL     1     -13.671  11.677   7.302  1.00  0.00     0.293 HD
ENDBRANCH   2  22
BRANCH   9  24
ATOM     24  O   UNL     1     -12.877  15.413  -0.016  1.00  0.00    -0.508 OA
ATOM     25  H   UNL     1     -13.120  14.997  -0.909  1.00  0.00     0.293 HD
ENDBRANCH   9  24
TORSDOF 5
ENDMDL
MODEL 3
REMARK VINA RESULT:    13.646      2.294      6.536
REMARK INTER + INTRA:          15.723
REMARK INTER:                  15.263
REMARK INTRA:                   0.461
REMARK UNBOUND:                -0.316
REMARK SMILES O=c1c(O)c(-c2ccc(O)c(O)c2)oc2cc(O)ccc12
REMARK SMILES IDX 5 1 3 2 2 3 1 4 21 5 15 6 14 7 16 8 17 9 19 10 20 11 6 12
REMARK SMILES IDX 7 13 8 14 9 15 13 16 11 17 10 18 12 20 4 22 18 24
REMARK H PARENT 10 19 12 21 4 23 18 25
REMARK Flexibility Score: inf
ROOT
ATOM      1  C   UNL     1     -13.784  14.135   5.491  1.00  0.00     0.180 A 
ATOM      2  C   UNL     1     -13.962  12.972   6.267  1.00  0.00     0.208 A 
ATOM      3  C   UNL     1     -14.218  13.108   7.640  1.00  0.00     0.235 A 
ATOM      4  O   UNL     1     -14.393  12.082   8.354  1.00  0.00    -0.285 OA
ATOM      5  C   UNL     1     -14.269  14.390   8.209  1.00  0.00     0.069 A 
ATOM      6  C   UNL     1     -14.056  15.504   7.369  1.00  0.00     0.142 A 
ATOM      7  O   UNL     1     -13.825  15.332   6.071  1.00  0.00    -0.452 OA
ATOM      8  C   UNL     1     -14.089  16.799   7.900  1.00  0.00     0.094 A 
ATOM      9  C   UNL     1     -14.335  16.996   9.262  1.00  0.00     0.119 A 
ATOM     10  C   UNL     1     -14.550  15.892  10.099  1.00  0.00     0.047 A 
ATOM     11  C   UNL     1     -14.517  14.595   9.579  1.00  0.00     0.020 A 
ENDROOT
BRANCH   1  12
ATOM     12  C   UNL     1     -13.528  14.077   4.033  1.00  0.00     0.025 A 
ATOM     13  C   UNL     1     -13.536  12.855   3.337  1.00  0.00     0.016 A 
ATOM     14  C   UNL     1     -13.316  12.826   1.958  1.00  0.00     0.051 A 
ATOM     15  C   UNL     1     -13.098  14.016   1.252  1.00  0.00     0.157 A 
ATOM     16  C   UNL     1     -13.330  15.269   3.317  1.00  0.00     0.062 A 
ATOM     17  C   UNL     1     -13.108  15.243   1.935  1.00  0.00     0.158 A 
BRANCH  15  18
ATOM     18  O   UNL     1     -12.877  13.984  -0.124  1.00  0.00    -0.504 OA
ATOM     19  H   UNL     1     -13.402  13.365  -0.733  1.00  0.00     0.293 HD
ENDBRANCH  15  18
BRANCH  17  20
ATOM     20  O   UNL     1     -12.902  16.446   1.261  1.00  0.00    -0.504 OA
ATOM     21  H   UNL     1     -12.259  16.523   0.481  1.00  0.00     0.293 HD
ENDBRANCH  17  20
ENDBRANCH   1  12
BRANCH   2  22
ATOM     22  O   UNL     1     -13.857  11.708   5.682  1.00  0.00    -0.502 OA
ATOM     23  H   UNL     1     -14.298  11.481   4.799  1.00  0.00     0.293 HD
ENDBRANCH   2  22
BRANCH   9  24
ATOM     24  O   UNL     1     -14.365  18.291   9.774  1.00  0.00    -0.508 OA
ATOM     25  H   UNL     1     -15.156  18.906   9.613  1.00  0.00     0.293 HD
ENDBRANCH   9  24
TORSDOF 5
ENDMDL
