MODEL 1
REMARK VINA RESULT:    -3.304      0.000      0.000
REMARK INTER + INTRA:          -5.957
REMARK INTER:                  -5.043
REMARK INTRA:                  -0.915
REMARK UNBOUND:                -0.915
REMARK SMILES OC[C@@H]1O[C@@H](O[C@]2(CO)O[C@@H](CO)[C@H](O)[C@@H]2O)[C@H](O)[C@@H](O)[C@@H]1O
REMARK SMILES IDX 6 1 5 2 3 3 22 4 4 5 20 6 18 7 2 8 1 9 23 11 21 13 19 15
REMARK SMILES IDX 7 17 16 18 10 19 14 20 11 21 8 22 9 23 17 25 15 27 12 29
REMARK SMILES IDX 13 30
REMARK H PARENT 1 10 23 12 21 14 19 16 9 24 17 26 15 28 13 31
REMARK Flexibility Score: inf
ROOT
ATOM      1  O   UNL     1      10.206  -5.206  -1.430  1.00  0.00    -0.313 OA
ENDROOT
BRANCH   1   2
ATOM      2  C   UNL     1       8.849  -5.315  -1.852  1.00  0.00     0.285 C 
ATOM      3  C   UNL     1       8.521  -3.057  -2.646  1.00  0.00     0.178 C 
ATOM      4  C   UNL     1       8.813  -2.671  -1.164  1.00  0.00     0.177 C 
ATOM      5  O   UNL     1       8.622  -4.449  -2.955  1.00  0.00    -0.341 OA
ATOM      6  C   UNL     1       8.007  -3.554  -0.190  1.00  0.00     0.179 C 
ATOM      7  C   UNL     1       7.885  -5.019  -0.680  1.00  0.00     0.202 C 
BRANCH   3   8
ATOM      8  C   UNL     1       7.150  -2.547  -3.120  1.00  0.00     0.191 C 
BRANCH   8   9
ATOM      9  O   UNL     1       7.116  -1.149  -3.047  1.00  0.00    -0.394 OA
ATOM     10  H   UNL     1       6.902  -0.829  -3.961  1.00  0.00     0.210 HD
ENDBRANCH   8   9
ENDBRANCH   3   8
BRANCH   4  11
ATOM     11  O   UNL     1       8.519  -1.318  -0.923  1.00  0.00    -0.387 OA
ATOM     12  H   UNL     1       8.774  -1.132   0.019  1.00  0.00     0.211 HD
ENDBRANCH   4  11
BRANCH   6  13
ATOM     13  O   UNL     1       8.573  -3.498   1.097  1.00  0.00    -0.387 OA
ATOM     14  H   UNL     1       9.330  -2.856   1.066  1.00  0.00     0.211 HD
ENDBRANCH   6  13
BRANCH   7  15
ATOM     15  O   UNL     1       6.563  -5.265  -1.090  1.00  0.00    -0.385 OA
ATOM     16  H   UNL     1       6.196  -5.966  -0.490  1.00  0.00     0.211 HD
ENDBRANCH   7  15
ENDBRANCH   1   2
BRANCH   1  17
ATOM     17  C   UNL     1      11.141  -5.980  -2.182  1.00  0.00     0.224 C 
ATOM     18  C   UNL     1      12.009  -5.107  -3.124  1.00  0.00     0.208 C 
ATOM     19  O   UNL     1      12.007  -6.596  -1.244  1.00  0.00    -0.337 OA
ATOM     20  C   UNL     1      13.384  -5.714  -2.974  1.00  0.00     0.180 C 
ATOM     21  C   UNL     1      13.338  -6.247  -1.551  1.00  0.00     0.179 C 
BRANCH  17  22
ATOM     22  C   UNL     1      10.417  -7.127  -2.941  1.00  0.00     0.225 C 
BRANCH  22  23
ATOM     23  O   UNL     1      10.694  -8.375  -2.361  1.00  0.00    -0.391 OA
ATOM     24  H   UNL     1       9.833  -8.868  -2.311  1.00  0.00     0.210 HD
ENDBRANCH  22  23
ENDBRANCH  17  22
BRANCH  18  25
ATOM     25  O   UNL     1      12.024  -3.770  -2.682  1.00  0.00    -0.385 OA
ATOM     26  H   UNL     1      12.967  -3.549  -2.461  1.00  0.00     0.211 HD
ENDBRANCH  18  25
BRANCH  20  27
ATOM     27  O   UNL     1      14.409  -4.765  -3.124  1.00  0.00    -0.387 OA
ATOM     28  H   UNL     1      15.106  -4.999  -2.456  1.00  0.00     0.211 HD
ENDBRANCH  20  27
BRANCH  21  29
ATOM     29  C   UNL     1      14.249  -7.467  -1.356  1.00  0.00     0.191 C 
BRANCH  29  30
ATOM     30  O   UNL     1      15.597  -7.117  -1.522  1.00  0.00    -0.394 OA
ATOM     31  H   UNL     1      15.925  -6.822  -0.633  1.00  0.00     0.210 HD
ENDBRANCH  29  30
ENDBRANCH  21  29
ENDBRANCH   1  17
TORSDOF 13
ENDMDL
MODEL 2
REMARK VINA RESULT:    -2.941      1.940      6.151
REMARK INTER + INTRA:          -5.402
REMARK INTER:                  -5.381
REMARK INTRA:                  -0.022
REMARK UNBOUND:                -0.915
REMARK SMILES OC[C@@H]1O[C@@H](O[C@]2(CO)O[C@@H](CO)[C@H](O)[C@@H]2O)[C@H](O)[C@@H](O)[C@@H]1O
REMARK SMILES IDX 6 1 5 2 3 3 22 4 4 5 20 6 18 7 2 8 1 9 23 11 21 13 19 15
REMARK SMILES IDX 7 17 16 18 10 19 14 20 11 21 8 22 9 23 17 25 15 27 12 29
REMARK SMILES IDX 13 30
REMARK H PARENT 1 10 23 12 21 14 19 16 9 24 17 26 15 28 13 31
REMARK Flexibility Score: inf
ROOT
ATOM      1  O   UNL     1       9.318  -5.923  -2.402  1.00  0.00    -0.313 OA
ENDROOT
BRANCH   1   2
ATOM      2  C   UNL     1      10.301  -5.346  -1.545  1.00  0.00     0.285 C 
ATOM      3  C   UNL     1      12.262  -5.759  -2.893  1.00  0.00     0.178 C 
ATOM      4  C   UNL     1      11.882  -7.257  -2.689  1.00  0.00     0.177 C 
ATOM      5  O   UNL     1      11.358  -4.809  -2.327  1.00  0.00    -0.341 OA
ATOM      6  C   UNL     1      11.560  -7.554  -1.211  1.00  0.00     0.179 C 
ATOM      7  C   UNL     1      10.813  -6.384  -0.521  1.00  0.00     0.202 C 
BRANCH   3   8
ATOM      8  C   UNL     1      13.681  -5.447  -2.391  1.00  0.00     0.191 C 
BRANCH   8   9
ATOM      9  O   UNL     1      13.628  -4.430  -1.429  1.00  0.00    -0.394 OA
ATOM     10  H   UNL     1      12.872  -3.842  -1.690  1.00  0.00     0.210 HD
ENDBRANCH   8   9
ENDBRANCH   3   8
BRANCH   4  11
ATOM     11  O   UNL     1      12.913  -8.109  -3.124  1.00  0.00    -0.387 OA
ATOM     12  H   UNL     1      12.612  -9.038  -2.947  1.00  0.00     0.211 HD
ENDBRANCH   4  11
BRANCH   6  13
ATOM     13  O   UNL     1      10.830  -8.751  -1.104  1.00  0.00    -0.387 OA
ATOM     14  H   UNL     1      10.819  -9.014  -0.146  1.00  0.00     0.211 HD
ENDBRANCH   6  13
BRANCH   7  15
ATOM     15  O   UNL     1      11.677  -5.753   0.391  1.00  0.00    -0.385 OA
ATOM     16  H   UNL     1      12.059  -6.462   0.971  1.00  0.00     0.211 HD
ENDBRANCH   7  15
ENDBRANCH   1   2
BRANCH   1  17
ATOM     17  C   UNL     1       7.993  -5.956  -1.872  1.00  0.00     0.224 C 
ATOM     18  C   UNL     1       7.756  -4.858  -0.803  1.00  0.00     0.208 C 
ATOM     19  O   UNL     1       7.115  -5.702  -2.955  1.00  0.00    -0.337 OA
ATOM     20  C   UNL     1       6.372  -4.357  -1.137  1.00  0.00     0.180 C 
ATOM     21  C   UNL     1       6.305  -4.592  -2.637  1.00  0.00     0.179 C 
BRANCH  17  22
ATOM     22  C   UNL     1       7.650  -7.377  -1.343  1.00  0.00     0.225 C 
BRANCH  22  23
ATOM     23  O   UNL     1       8.221  -8.372  -2.152  1.00  0.00    -0.391 OA
ATOM     24  H   UNL     1       7.964  -9.247  -1.759  1.00  0.00     0.210 HD
ENDBRANCH  22  23
ENDBRANCH  17  22
BRANCH  18  25
ATOM     25  O   UNL     1       8.692  -3.816  -0.952  1.00  0.00    -0.385 OA
ATOM     26  H   UNL     1       9.531  -4.117  -0.513  1.00  0.00     0.211 HD
ENDBRANCH  18  25
BRANCH  20  27
ATOM     27  O   UNL     1       6.205  -2.995  -0.833  1.00  0.00    -0.387 OA
ATOM     28  H   UNL     1       6.760  -2.819  -0.029  1.00  0.00     0.211 HD
ENDBRANCH  20  27
BRANCH  21  29
ATOM     29  C   UNL     1       4.872  -4.844  -3.125  1.00  0.00     0.191 C 
BRANCH  29  30
ATOM     30  O   UNL     1       4.035  -3.767  -2.799  1.00  0.00    -0.394 OA
ATOM     31  H   UNL     1       4.465  -2.952  -3.167  1.00  0.00     0.210 HD
ENDBRANCH  29  30
ENDBRANCH  21  29
ENDBRANCH   1  17
TORSDOF 13
ENDMDL
MODEL 3
REMARK VINA RESULT:    -2.064      1.486      2.655
REMARK INTER + INTRA:          -4.065
REMARK INTER:                  -3.908
REMARK INTRA:                  -0.157
REMARK UNBOUND:                -0.915
REMARK SMILES OC[C@@H]1O[C@@H](O[C@]2(CO)O[C@@H](CO)[C@H](O)[C@@H]2O)[C@H](O)[C@@H](O)[C@@H]1O
REMARK SMILES IDX 6 1 5 2 3 3 22 4 4 5 20 6 18 7 2 8 1 9 23 11 21 13 19 15
REMARK SMILES IDX 7 17 16 18 10 19 14 20 11 21 8 22 9 23 17 25 15 27 12 29
REMARK SMILES IDX 13 30
REMARK H PARENT 1 10 23 12 21 14 19 16 9 24 17 26 15 28 13 31
REMARK Flexibility Score: inf
ROOT
ATOM      1  O   UNL     1       9.231  -5.350  -2.337  1.00  0.00    -0.313 OA
ENDROOT
BRANCH   1   2
ATOM      2  C   UNL     1       7.978  -5.434  -1.663  1.00  0.00     0.285 C 
ATOM      3  C   UNL     1       6.673  -4.020  -3.124  1.00  0.00     0.178 C 
ATOM      4  C   UNL     1       7.683  -2.917  -2.686  1.00  0.00     0.177 C 
ATOM      5  O   UNL     1       6.922  -5.329  -2.606  1.00  0.00    -0.341 OA
ATOM      6  C   UNL     1       7.885  -2.921  -1.158  1.00  0.00     0.179 C 
ATOM      7  C   UNL     1       7.875  -4.353  -0.562  1.00  0.00     0.202 C 
BRANCH   3   8
ATOM      8  C   UNL     1       5.219  -3.635  -2.805  1.00  0.00     0.191 C 
BRANCH   8   9
ATOM      9  O   UNL     1       4.452  -4.793  -2.624  1.00  0.00    -0.394 OA
ATOM     10  H   UNL     1       4.718  -5.417  -3.348  1.00  0.00     0.210 HD
ENDBRANCH   8   9
ENDBRANCH   3   8
BRANCH   4  11
ATOM     11  O   UNL     1       7.258  -1.642  -3.099  1.00  0.00    -0.387 OA
ATOM     12  H   UNL     1       8.007  -1.017  -2.916  1.00  0.00     0.211 HD
ENDBRANCH   4  11
BRANCH   6  13
ATOM     13  O   UNL     1       9.071  -2.244  -0.822  1.00  0.00    -0.387 OA
ATOM     14  H   UNL     1       8.879  -1.270  -0.844  1.00  0.00     0.211 HD
ENDBRANCH   6  13
BRANCH   7  15
ATOM     15  O   UNL     1       6.690  -4.544   0.171  1.00  0.00    -0.385 OA
ATOM     16  H   UNL     1       6.936  -5.027   1.003  1.00  0.00     0.211 HD
ENDBRANCH   7  15
ENDBRANCH   1   2
BRANCH   1  17
ATOM     17  C   UNL     1      10.306  -6.053  -1.712  1.00  0.00     0.224 C 
ATOM     18  C   UNL     1      10.241  -7.581  -1.969  1.00  0.00     0.208 C 
ATOM     19  O   UNL     1      11.503  -5.567  -2.295  1.00  0.00    -0.337 OA
ATOM     20  C   UNL     1      11.684  -7.940  -2.227  1.00  0.00     0.180 C 
ATOM     21  C   UNL     1      12.225  -6.654  -2.830  1.00  0.00     0.179 C 
BRANCH  17  22
ATOM     22  C   UNL     1      10.376  -5.711  -0.198  1.00  0.00     0.225 C 
BRANCH  22  23
ATOM     23  O   UNL     1      11.701  -5.719   0.265  1.00  0.00    -0.391 OA
ATOM     24  H   UNL     1      12.030  -6.652   0.182  1.00  0.00     0.210 HD
ENDBRANCH  22  23
ENDBRANCH  17  22
BRANCH  18  25
ATOM     25  O   UNL     1       9.465  -7.856  -3.112  1.00  0.00    -0.385 OA
ATOM     26  H   UNL     1      10.061  -7.742  -3.899  1.00  0.00     0.211 HD
ENDBRANCH  18  25
BRANCH  20  27
ATOM     27  O   UNL     1      11.818  -9.013  -3.125  1.00  0.00    -0.387 OA
ATOM     28  H   UNL     1      11.634  -9.838  -2.604  1.00  0.00     0.211 HD
ENDBRANCH  20  27
BRANCH  21  29
ATOM     29  C   UNL     1      13.722  -6.464  -2.552  1.00  0.00     0.191 C 
BRANCH  29  30
ATOM     30  O   UNL     1      13.925  -5.546  -1.511  1.00  0.00    -0.394 OA
ATOM     31  H   UNL     1      14.847  -5.696  -1.177  1.00  0.00     0.210 HD
ENDBRANCH  29  30
ENDBRANCH  21  29
ENDBRANCH   1  17
TORSDOF 13
ENDMDL
MODEL 4
REMARK VINA RESULT:    -1.903      1.325      2.336
REMARK INTER + INTRA:          -3.819
REMARK INTER:                  -2.807
REMARK INTRA:                  -1.012
REMARK UNBOUND:                -0.915
REMARK SMILES OC[C@@H]1O[C@@H](O[C@]2(CO)O[C@@H](CO)[C@H](O)[C@@H]2O)[C@H](O)[C@@H](O)[C@@H]1O
REMARK SMILES IDX 6 1 5 2 3 3 22 4 4 5 20 6 18 7 2 8 1 9 23 11 21 13 19 15
REMARK SMILES IDX 7 17 16 18 10 19 14 20 11 21 8 22 9 23 17 25 15 27 12 29
REMARK SMILES IDX 13 30
REMARK H PARENT 1 10 23 12 21 14 19 16 9 24 17 26 15 28 13 31
REMARK Flexibility Score: inf
ROOT
ATOM      1  O   UNL     1      11.034  -4.709  -1.315  1.00  0.00    -0.313 OA
ENDROOT
BRANCH   1   2
ATOM      2  C   UNL     1       9.819  -5.358  -1.682  1.00  0.00     0.285 C 
ATOM      3  C   UNL     1       8.665  -3.471  -2.653  1.00  0.00     0.178 C 
ATOM      4  C   UNL     1       8.787  -2.871  -1.219  1.00  0.00     0.177 C 
ATOM      5  O   UNL     1       9.284  -4.745  -2.846  1.00  0.00    -0.341 OA
ATOM      6  C   UNL     1       8.372  -3.899  -0.148  1.00  0.00     0.179 C 
ATOM      7  C   UNL     1       8.812  -5.341  -0.509  1.00  0.00     0.202 C 
BRANCH   3   8
ATOM      8  C   UNL     1       7.204  -3.558  -3.123  1.00  0.00     0.191 C 
BRANCH   8   9
ATOM      9  O   UNL     1       6.784  -4.894  -3.113  1.00  0.00    -0.394 OA
ATOM     10  H   UNL     1       7.532  -5.417  -2.723  1.00  0.00     0.210 HD
ENDBRANCH   8   9
ENDBRANCH   3   8
BRANCH   4  11
ATOM     11  O   UNL     1       8.004  -1.711  -1.083  1.00  0.00    -0.387 OA
ATOM     12  H   UNL     1       7.575  -1.550  -1.964  1.00  0.00     0.211 HD
ENDBRANCH   4  11
BRANCH   6  13
ATOM     13  O   UNL     1       8.873  -3.519   1.110  1.00  0.00    -0.387 OA
ATOM     14  H   UNL     1       8.479  -4.129   1.788  1.00  0.00     0.211 HD
ENDBRANCH   6  13
BRANCH   7  15
ATOM     15  O   UNL     1       7.681  -6.102  -0.853  1.00  0.00    -0.385 OA
ATOM     16  H   UNL     1       7.887  -6.561  -1.709  1.00  0.00     0.211 HD
ENDBRANCH   7  15
ENDBRANCH   1   2
BRANCH   1  17
ATOM     17  C   UNL     1      12.210  -5.219  -1.945  1.00  0.00     0.224 C 
ATOM     18  C   UNL     1      13.363  -5.460  -0.937  1.00  0.00     0.208 C 
ATOM     19  O   UNL     1      11.859  -6.471  -2.510  1.00  0.00    -0.337 OA
ATOM     20  C   UNL     1      13.942  -6.776  -1.397  1.00  0.00     0.180 C 
ATOM     21  C   UNL     1      12.727  -7.460  -2.003  1.00  0.00     0.179 C 
BRANCH  17  22
ATOM     22  C   UNL     1      12.640  -4.302  -3.124  1.00  0.00     0.225 C 
BRANCH  22  23
ATOM     23  O   UNL     1      13.437  -3.238  -2.677  1.00  0.00    -0.391 OA
ATOM     24  H   UNL     1      13.645  -2.678  -3.470  1.00  0.00     0.210 HD
ENDBRANCH  22  23
ENDBRANCH  17  22
BRANCH  18  25
ATOM     25  O   UNL     1      12.855  -5.591   0.371  1.00  0.00    -0.385 OA
ATOM     26  H   UNL     1      12.840  -4.680   0.767  1.00  0.00     0.211 HD
ENDBRANCH  18  25
BRANCH  20  27
ATOM     27  O   UNL     1      14.470  -7.532  -0.337  1.00  0.00    -0.387 OA
ATOM     28  H   UNL     1      14.495  -8.474  -0.651  1.00  0.00     0.211 HD
ENDBRANCH  20  27
BRANCH  21  29
ATOM     29  C   UNL     1      13.106  -8.436  -3.125  1.00  0.00     0.191 C 
BRANCH  29  30
ATOM     30  O   UNL     1      14.414  -8.912  -2.954  1.00  0.00    -0.394 OA
ATOM     31  H   UNL     1      14.817  -8.965  -3.860  1.00  0.00     0.210 HD
ENDBRANCH  29  30
ENDBRANCH  21  29
ENDBRANCH   1  17
TORSDOF 13
ENDMDL
MODEL 5
REMARK VINA RESULT:    -0.722      1.634      6.378
REMARK INTER + INTRA:          -2.017
REMARK INTER:                  -1.287
REMARK INTRA:                  -0.730
REMARK UNBOUND:                -0.915
REMARK SMILES OC[C@@H]1O[C@@H](O[C@]2(CO)O[C@@H](CO)[C@H](O)[C@@H]2O)[C@H](O)[C@@H](O)[C@@H]1O
REMARK SMILES IDX 6 1 5 2 3 3 22 4 4 5 20 6 18 7 2 8 1 9 23 11 21 13 19 15
REMARK SMILES IDX 7 17 16 18 10 19 14 20 11 21 8 22 9 23 17 25 15 27 12 29
REMARK SMILES IDX 13 30
REMARK H PARENT 1 10 23 12 21 14 19 16 9 24 17 26 15 28 13 31
REMARK Flexibility Score: inf
ROOT
ATOM      1  O   UNL     1      10.435  -5.353  -1.560  1.00  0.00    -0.313 OA
ENDROOT
BRANCH   1   2
ATOM      2  C   UNL     1      11.421  -5.395  -2.589  1.00  0.00     0.285 C 
ATOM      3  C   UNL     1      12.157  -7.678  -2.310  1.00  0.00     0.178 C 
ATOM      4  C   UNL     1      12.581  -7.193  -0.890  1.00  0.00     0.177 C 
ATOM      5  O   UNL     1      11.496  -6.708  -3.124  1.00  0.00    -0.341 OA
ATOM      6  C   UNL     1      13.349  -5.859  -0.964  1.00  0.00     0.179 C 
ATOM      7  C   UNL     1      12.789  -4.912  -2.057  1.00  0.00     0.202 C 
BRANCH   3   8
ATOM      8  C   UNL     1      13.340  -8.259  -3.101  1.00  0.00     0.191 C 
BRANCH   8   9
ATOM      9  O   UNL     1      14.522  -7.602  -2.735  1.00  0.00    -0.394 OA
ATOM     10  H   UNL     1      15.199  -7.849  -3.417  1.00  0.00     0.210 HD
ENDBRANCH   8   9
ENDBRANCH   3   8
BRANCH   4  11
ATOM     11  O   UNL     1      13.372  -8.154  -0.238  1.00  0.00    -0.387 OA
ATOM     12  H   UNL     1      14.185  -7.685   0.086  1.00  0.00     0.211 HD
ENDBRANCH   4  11
BRANCH   6  13
ATOM     13  O   UNL     1      13.353  -5.230   0.294  1.00  0.00    -0.387 OA
ATOM     14  H   UNL     1      14.194  -4.706   0.367  1.00  0.00     0.211 HD
ENDBRANCH   6  13
BRANCH   7  15
ATOM     15  O   UNL     1      13.705  -4.836  -3.122  1.00  0.00    -0.385 OA
ATOM     16  H   UNL     1      13.348  -4.171  -3.767  1.00  0.00     0.211 HD
ENDBRANCH   7  15
ENDBRANCH   1   2
BRANCH   1  17
ATOM     17  C   UNL     1       9.236  -4.655  -1.895  1.00  0.00     0.224 C 
ATOM     18  C   UNL     1       8.295  -5.495  -2.798  1.00  0.00     0.208 C 
ATOM     19  O   UNL     1       8.556  -4.405  -0.677  1.00  0.00    -0.337 OA
ATOM     20  C   UNL     1       6.930  -5.210  -2.218  1.00  0.00     0.180 C 
ATOM     21  C   UNL     1       7.257  -4.948  -0.757  1.00  0.00     0.179 C 
BRANCH  17  22
ATOM     22  C   UNL     1       9.565  -3.268  -2.515  1.00  0.00     0.225 C 
BRANCH  22  23
ATOM     23  O   UNL     1       9.163  -2.224  -1.668  1.00  0.00    -0.391 OA
ATOM     24  H   UNL     1       9.743  -1.445  -1.874  1.00  0.00     0.210 HD
ENDBRANCH  22  23
ENDBRANCH  17  22
BRANCH  18  25
ATOM     25  O   UNL     1       8.591  -6.866  -2.676  1.00  0.00    -0.385 OA
ATOM     26  H   UNL     1       8.210  -7.316  -3.476  1.00  0.00     0.211 HD
ENDBRANCH  18  25
BRANCH  20  27
ATOM     27  O   UNL     1       6.052  -6.298  -2.350  1.00  0.00    -0.387 OA
ATOM     28  H   UNL     1       5.147  -5.957  -2.125  1.00  0.00     0.211 HD
ENDBRANCH  20  27
BRANCH  21  29
ATOM     29  C   UNL     1       6.257  -3.990  -0.097  1.00  0.00     0.191 C 
BRANCH  29  30
ATOM     30  O   UNL     1       5.348  -3.489  -1.040  1.00  0.00    -0.394 OA
ATOM     31  H   UNL     1       5.622  -3.855  -1.921  1.00  0.00     0.210 HD
ENDBRANCH  29  30
ENDBRANCH  21  29
ENDBRANCH   1  17
TORSDOF 13
ENDMDL
MODEL 6
REMARK VINA RESULT:    -0.604      1.555      6.441
REMARK INTER + INTRA:          -1.836
REMARK INTER:                  -1.143
REMARK INTRA:                  -0.693
REMARK UNBOUND:                -0.915
REMARK SMILES OC[C@@H]1O[C@@H](O[C@]2(CO)O[C@@H](CO)[C@H](O)[C@@H]2O)[C@H](O)[C@@H](O)[C@@H]1O
REMARK SMILES IDX 6 1 5 2 3 3 22 4 4 5 20 6 18 7 2 8 1 9 23 11 21 13 19 15
REMARK SMILES IDX 7 17 16 18 10 19 14 20 11 21 8 22 9 23 17 25 15 27 12 29
REMARK SMILES IDX 13 30
REMARK H PARENT 1 10 23 12 21 14 19 16 9 24 17 26 15 28 13 31
REMARK Flexibility Score: inf
ROOT
ATOM      1  O   UNL     1      11.726  -7.116  -1.595  1.00  0.00    -0.313 OA
ENDROOT
BRANCH   1   2
ATOM      2  C   UNL     1      12.654  -6.738  -2.609  1.00  0.00     0.285 C 
ATOM      3  C   UNL     1      14.291  -8.484  -2.288  1.00  0.00     0.178 C 
ATOM      4  C   UNL     1      14.440  -7.855  -0.870  1.00  0.00     0.177 C 
ATOM      5  O   UNL     1      13.293  -7.896  -3.125  1.00  0.00    -0.341 OA
ATOM      6  C   UNL     1      14.565  -6.321  -0.951  1.00  0.00     0.179 C 
ATOM      7  C   UNL     1      13.674  -5.712  -2.064  1.00  0.00     0.202 C 
BRANCH   3   8
ATOM      8  C   UNL     1      15.624  -8.508  -3.055  1.00  0.00     0.191 C 
BRANCH   8   9
ATOM      9  O   UNL     1      16.491  -7.545  -2.523  1.00  0.00    -0.394 OA
ATOM     10  H   UNL     1      16.901  -7.082  -3.300  1.00  0.00     0.210 HD
ENDBRANCH   8   9
ENDBRANCH   3   8
BRANCH   4  11
ATOM     11  O   UNL     1      15.554  -8.381  -0.193  1.00  0.00    -0.387 OA
ATOM     12  H   UNL     1      15.248  -9.205   0.268  1.00  0.00     0.211 HD
ENDBRANCH   4  11
BRANCH   6  13
ATOM     13  O   UNL     1      14.276  -5.743   0.299  1.00  0.00    -0.387 OA
ATOM     14  H   UNL     1      15.072  -5.867   0.880  1.00  0.00     0.211 HD
ENDBRANCH   6  13
BRANCH   7  15
ATOM     15  O   UNL     1      14.488  -5.259  -3.117  1.00  0.00    -0.385 OA
ATOM     16  H   UNL     1      15.206  -4.705  -2.713  1.00  0.00     0.211 HD
ENDBRANCH   7  15
ENDBRANCH   1   2
BRANCH   1  17
ATOM     17  C   UNL     1      10.369  -6.751  -1.845  1.00  0.00     0.224 C 
ATOM     18  C   UNL     1       9.612  -6.362  -0.548  1.00  0.00     0.208 C 
ATOM     19  O   UNL     1      10.402  -5.610  -2.685  1.00  0.00    -0.337 OA
ATOM     20  C   UNL     1       8.805  -5.160  -0.977  1.00  0.00     0.180 C 
ATOM     21  C   UNL     1       9.681  -4.566  -2.068  1.00  0.00     0.179 C 
BRANCH  17  22
ATOM     22  C   UNL     1       9.639  -7.869  -2.641  1.00  0.00     0.225 C 
BRANCH  22  23
ATOM     23  O   UNL     1      10.441  -9.014  -2.762  1.00  0.00    -0.391 OA
ATOM     24  H   UNL     1      10.774  -9.036  -3.696  1.00  0.00     0.210 HD
ENDBRANCH  22  23
ENDBRANCH  17  22
BRANCH  18  25
ATOM     25  O   UNL     1      10.523  -5.993   0.461  1.00  0.00    -0.385 OA
ATOM     26  H   UNL     1      10.200  -6.404   1.306  1.00  0.00     0.211 HD
ENDBRANCH  18  25
BRANCH  20  27
ATOM     27  O   UNL     1       8.611  -4.242   0.069  1.00  0.00    -0.387 OA
ATOM     28  H   UNL     1       7.995  -3.546  -0.281  1.00  0.00     0.211 HD
ENDBRANCH  20  27
BRANCH  21  29
ATOM     29  C   UNL     1       8.865  -3.810  -3.125  1.00  0.00     0.191 C 
BRANCH  29  30
ATOM     30  O   UNL     1       8.041  -2.846  -2.526  1.00  0.00    -0.394 OA
ATOM     31  H   UNL     1       8.638  -2.122  -2.205  1.00  0.00     0.210 HD
ENDBRANCH  29  30
ENDBRANCH  21  29
ENDBRANCH   1  17
TORSDOF 13
ENDMDL
