MODEL 1
REMARK VINA RESULT:    -3.698      0.000      0.000
REMARK INTER + INTRA:          -4.284
REMARK INTER:                  -4.238
REMARK INTRA:                  -0.046
REMARK UNBOUND:                -0.046
REMARK SMILES O=C([O-])c1cc(O)c(O)c(O)c1
REMARK SMILES IDX 4 1 5 2 12 3 6 4 10 5 8 6 2 7 1 8 3 9 7 10 11 12 9 14
REMARK H PARENT 7 11 11 13 9 15
REMARK Flexibility Score: inf
ROOT
ATOM      1  C   UNL     1     -98.064  42.953  12.497  1.00  0.00     0.005 A 
ATOM      2  C   UNL     1     -97.756  41.618  12.192  1.00  0.00     0.060 A 
ATOM      3  C   UNL     1     -99.041  43.617  11.739  1.00  0.00     0.060 A 
ATOM      4  C   UNL     1     -98.415  40.958  11.147  1.00  0.00     0.162 A 
ATOM      5  C   UNL     1     -99.706  42.969  10.691  1.00  0.00     0.162 A 
ATOM      6  C   UNL     1     -99.391  41.623  10.391  1.00  0.00     0.200 A 
ENDROOT
BRANCH   1   7
ATOM      7  C   UNL     1     -97.364  43.646  13.603  1.00  0.00     0.072 C 
ATOM      8  O   UNL     1     -97.993  44.006  14.633  1.00  0.00    -0.545 OA
ATOM      9  O   UNL     1     -96.002  43.909  13.519  1.00  0.00    -0.545 OA
ENDBRANCH   1   7
BRANCH   4  10
ATOM     10  O   UNL     1     -98.103  39.631  10.851  1.00  0.00    -0.504 OA
ATOM     11  H   UNL     1     -98.233  39.249   9.921  1.00  0.00     0.293 HD
ENDBRANCH   4  10
BRANCH   5  12
ATOM     12  O   UNL     1    -100.666  43.695   9.983  1.00  0.00    -0.504 OA
ATOM     13  H   UNL     1    -100.450  44.350   9.245  1.00  0.00     0.293 HD
ENDBRANCH   5  12
BRANCH   6  14
ATOM     14  O   UNL     1    -100.016  40.917   9.360  1.00  0.00    -0.502 OA
ATOM     15  H   UNL     1    -100.887  40.418   9.464  1.00  0.00     0.293 HD
ENDBRANCH   6  14
TORSDOF 4
ENDMDL
MODEL 2
REMARK VINA RESULT:    -3.680      0.168      2.441
REMARK INTER + INTRA:          -4.263
REMARK INTER:                  -4.216
REMARK INTRA:                  -0.047
REMARK UNBOUND:                -0.046
REMARK SMILES O=C([O-])c1cc(O)c(O)c(O)c1
REMARK SMILES IDX 4 1 5 2 12 3 6 4 10 5 8 6 2 7 1 8 3 9 7 10 11 12 9 14
REMARK H PARENT 7 11 11 13 9 15
REMARK Flexibility Score: inf
ROOT
ATOM      1  C   UNL     1     -98.023  42.980  12.481  1.00  0.00     0.005 A 
ATOM      2  C   UNL     1     -98.994  43.701  11.771  1.00  0.00     0.060 A 
ATOM      3  C   UNL     1     -97.769  41.646  12.126  1.00  0.00     0.060 A 
ATOM      4  C   UNL     1     -99.701  43.099  10.721  1.00  0.00     0.162 A 
ATOM      5  C   UNL     1     -98.469  41.031  11.080  1.00  0.00     0.162 A 
ATOM      6  C   UNL     1     -99.446  41.766  10.368  1.00  0.00     0.200 A 
ENDROOT
BRANCH   1   7
ATOM      7  C   UNL     1     -97.279  43.621  13.589  1.00  0.00     0.072 C 
ATOM      8  O   UNL     1     -97.895  44.139  14.558  1.00  0.00    -0.545 OA
ATOM      9  O   UNL     1     -95.890  43.660  13.576  1.00  0.00    -0.545 OA
ENDBRANCH   1   7
BRANCH   4  10
ATOM     10  O   UNL     1    -100.664  43.824  10.020  1.00  0.00    -0.504 OA
ATOM     11  H   UNL     1    -100.557  44.816   9.840  1.00  0.00     0.293 HD
ENDBRANCH   4  10
BRANCH   5  12
ATOM     12  O   UNL     1     -98.161  39.702  10.785  1.00  0.00    -0.504 OA
ATOM     13  H   UNL     1     -98.689  38.910  11.123  1.00  0.00     0.293 HD
ENDBRANCH   5  12
BRANCH   6  14
ATOM     14  O   UNL     1    -100.179  41.215   9.315  1.00  0.00    -0.502 OA
ATOM     15  H   UNL     1    -101.168  41.015   9.357  1.00  0.00     0.293 HD
ENDBRANCH   6  14
TORSDOF 4
ENDMDL
MODEL 3
REMARK VINA RESULT:    -3.581      1.672      3.350
REMARK INTER + INTRA:          -4.150
REMARK INTER:                  -4.100
REMARK INTRA:                  -0.049
REMARK UNBOUND:                -0.046
REMARK SMILES O=C([O-])c1cc(O)c(O)c(O)c1
REMARK SMILES IDX 4 1 5 2 12 3 6 4 10 5 8 6 2 7 1 8 3 9 7 10 11 12 9 14
REMARK H PARENT 7 11 11 13 9 15
REMARK Flexibility Score: inf
ROOT
ATOM      1  C   UNL     1     -98.782  42.196  11.119  1.00  0.00     0.005 A 
ATOM      2  C   UNL     1     -99.123  43.556  11.177  1.00  0.00     0.060 A 
ATOM      3  C   UNL     1     -99.305  41.406  10.083  1.00  0.00     0.060 A 
ATOM      4  C   UNL     1     -99.973  44.118  10.215  1.00  0.00     0.162 A 
ATOM      5  C   UNL     1    -100.157  41.954   9.116  1.00  0.00     0.162 A 
ATOM      6  C   UNL     1    -100.494  43.327   9.182  1.00  0.00     0.200 A 
ENDROOT
BRANCH   1   7
ATOM      7  C   UNL     1     -97.884  41.608  12.138  1.00  0.00     0.072 C 
ATOM      8  O   UNL     1     -96.896  42.257  12.573  1.00  0.00    -0.545 OA
ATOM      9  O   UNL     1     -98.118  40.329  12.630  1.00  0.00    -0.545 OA
ENDBRANCH   1   7
BRANCH   4  10
ATOM     10  O   UNL     1    -100.306  45.470  10.280  1.00  0.00    -0.504 OA
ATOM     11  H   UNL     1    -100.709  45.958   9.488  1.00  0.00     0.293 HD
ENDBRANCH   4  10
BRANCH   5  12
ATOM     12  O   UNL     1    -100.637  41.107   8.117  1.00  0.00    -0.504 OA
ATOM     13  H   UNL     1    -100.880  40.138   8.264  1.00  0.00     0.293 HD
ENDBRANCH   5  12
BRANCH   6  14
ATOM     14  O   UNL     1    -101.337  43.938   8.250  1.00  0.00    -0.502 OA
ATOM     15  H   UNL     1    -101.011  44.460   7.450  1.00  0.00     0.293 HD
ENDBRANCH   6  14
TORSDOF 4
ENDMDL
MODEL 4
REMARK VINA RESULT:    -3.422      1.624      2.649
REMARK INTER + INTRA:          -3.968
REMARK INTER:                  -3.918
REMARK INTRA:                  -0.050
REMARK UNBOUND:                -0.046
REMARK SMILES O=C([O-])c1cc(O)c(O)c(O)c1
REMARK SMILES IDX 4 1 5 2 12 3 6 4 10 5 8 6 2 7 1 8 3 9 7 10 11 12 9 14
REMARK H PARENT 7 11 11 13 9 15
REMARK Flexibility Score: inf
ROOT
ATOM      1  C   UNL     1     -98.815  42.170  11.202  1.00  0.00     0.005 A 
ATOM      2  C   UNL     1     -99.410  41.299  10.276  1.00  0.00     0.060 A 
ATOM      3  C   UNL     1     -99.145  43.535  11.161  1.00  0.00     0.060 A 
ATOM      4  C   UNL     1    -100.320  41.782   9.327  1.00  0.00     0.162 A 
ATOM      5  C   UNL     1    -100.052  44.031  10.217  1.00  0.00     0.162 A 
ATOM      6  C   UNL     1    -100.648  43.145   9.289  1.00  0.00     0.200 A 
ENDROOT
BRANCH   1   7
ATOM      7  C   UNL     1     -97.854  41.654  12.202  1.00  0.00     0.072 C 
ATOM      8  O   UNL     1     -96.906  42.375  12.611  1.00  0.00    -0.545 OA
ATOM      9  O   UNL     1     -97.986  40.366  12.707  1.00  0.00    -0.545 OA
ENDBRANCH   1   7
BRANCH   4  10
ATOM     10  O   UNL     1    -100.907  40.908   8.412  1.00  0.00    -0.504 OA
ATOM     11  H   UNL     1    -101.486  41.245   7.651  1.00  0.00     0.293 HD
ENDBRANCH   4  10
BRANCH   5  12
ATOM     12  O   UNL     1    -100.330  45.399  10.239  1.00  0.00    -0.504 OA
ATOM     13  H   UNL     1    -101.121  45.824   9.777  1.00  0.00     0.293 HD
ENDBRANCH   5  12
BRANCH   6  14
ATOM     14  O   UNL     1    -101.560  43.573   8.322  1.00  0.00    -0.502 OA
ATOM     15  H   UNL     1    -101.353  44.263   7.615  1.00  0.00     0.293 HD
ENDBRANCH   6  14
TORSDOF 4
ENDMDL
MODEL 5
REMARK VINA RESULT:    -3.420      1.461      4.321
REMARK INTER + INTRA:          -3.965
REMARK INTER:                  -3.921
REMARK INTRA:                  -0.045
REMARK UNBOUND:                -0.046
REMARK SMILES O=C([O-])c1cc(O)c(O)c(O)c1
REMARK SMILES IDX 4 1 5 2 12 3 6 4 10 5 8 6 2 7 1 8 3 9 7 10 11 12 9 14
REMARK H PARENT 7 11 11 13 9 15
REMARK Flexibility Score: inf
ROOT
ATOM      1  C   UNL     1     -99.294  42.925   9.974  1.00  0.00     0.005 A 
ATOM      2  C   UNL     1     -99.074  43.627  11.168  1.00  0.00     0.060 A 
ATOM      3  C   UNL     1     -98.977  41.558   9.918  1.00  0.00     0.060 A 
ATOM      4  C   UNL     1     -98.547  42.974  12.291  1.00  0.00     0.162 A 
ATOM      5  C   UNL     1     -98.449  40.894  11.032  1.00  0.00     0.162 A 
ATOM      6  C   UNL     1     -98.232  41.609  12.234  1.00  0.00     0.200 A 
ENDROOT
BRANCH   1   7
ATOM      7  C   UNL     1     -99.850  43.620   8.791  1.00  0.00     0.072 C 
ATOM      8  O   UNL     1    -101.095  43.671   8.605  1.00  0.00    -0.545 OA
ATOM      9  O   UNL     1     -99.006  44.228   7.869  1.00  0.00    -0.545 OA
ENDBRANCH   1   7
BRANCH   4  10
ATOM     10  O   UNL     1     -98.333  43.680  13.474  1.00  0.00    -0.504 OA
ATOM     11  H   UNL     1     -99.051  43.754  14.186  1.00  0.00     0.293 HD
ENDBRANCH   4  10
BRANCH   5  12
ATOM     12  O   UNL     1     -98.160  39.534  10.901  1.00  0.00    -0.504 OA
ATOM     13  H   UNL     1     -97.337  39.172  10.443  1.00  0.00     0.293 HD
ENDBRANCH   5  12
BRANCH   6  14
ATOM     14  O   UNL     1     -97.709  41.008  13.381  1.00  0.00    -0.502 OA
ATOM     15  H   UNL     1     -98.086  40.172  13.803  1.00  0.00     0.293 HD
ENDBRANCH   6  14
TORSDOF 4
ENDMDL
MODEL 6
REMARK VINA RESULT:    -3.407      1.446      3.872
REMARK INTER + INTRA:          -3.951
REMARK INTER:                  -3.907
REMARK INTRA:                  -0.045
REMARK UNBOUND:                -0.046
REMARK SMILES O=C([O-])c1cc(O)c(O)c(O)c1
REMARK SMILES IDX 4 1 5 2 12 3 6 4 10 5 8 6 2 7 1 8 3 9 7 10 11 12 9 14
REMARK H PARENT 7 11 11 13 9 15
REMARK Flexibility Score: inf
ROOT
ATOM      1  C   UNL     1     -99.305  42.878   9.939  1.00  0.00     0.005 A 
ATOM      2  C   UNL     1     -98.998  41.510   9.882  1.00  0.00     0.060 A 
ATOM      3  C   UNL     1     -99.062  43.582  11.129  1.00  0.00     0.060 A 
ATOM      4  C   UNL     1     -98.455  40.856  10.996  1.00  0.00     0.162 A 
ATOM      5  C   UNL     1     -98.521  42.941  12.250  1.00  0.00     0.162 A 
ATOM      6  C   UNL     1     -98.213  41.561  12.183  1.00  0.00     0.200 A 
ENDROOT
BRANCH   1   7
ATOM      7  C   UNL     1     -99.879  43.564   8.759  1.00  0.00     0.072 C 
ATOM      8  O   UNL     1    -101.125  43.589   8.576  1.00  0.00    -0.545 OA
ATOM      9  O   UNL     1     -99.050  44.192   7.837  1.00  0.00    -0.545 OA
ENDBRANCH   1   7
BRANCH   4  10
ATOM     10  O   UNL     1     -98.152  39.497  10.930  1.00  0.00    -0.504 OA
ATOM     11  H   UNL     1     -97.276  39.130  11.284  1.00  0.00     0.293 HD
ENDBRANCH   4  10
BRANCH   5  12
ATOM     12  O   UNL     1     -98.307  43.706  13.397  1.00  0.00    -0.504 OA
ATOM     13  H   UNL     1     -97.705  44.517  13.433  1.00  0.00     0.293 HD
ENDBRANCH   5  12
BRANCH   6  14
ATOM     14  O   UNL     1     -97.671  40.860  13.263  1.00  0.00    -0.502 OA
ATOM     15  H   UNL     1     -97.162  39.993  13.176  1.00  0.00     0.293 HD
ENDBRANCH   6  14
TORSDOF 4
ENDMDL
MODEL 7
REMARK VINA RESULT:    -3.407     15.240     16.585
REMARK INTER + INTRA:          -3.951
REMARK INTER:                  -3.899
REMARK INTRA:                  -0.051
REMARK UNBOUND:                -0.046
REMARK SMILES O=C([O-])c1cc(O)c(O)c(O)c1
REMARK SMILES IDX 4 1 5 2 12 3 6 4 10 5 8 6 2 7 1 8 3 9 7 10 11 12 9 14
REMARK H PARENT 7 11 11 13 9 15
REMARK Flexibility Score: inf
ROOT
ATOM      1  C   UNL     1     -95.852  55.072   1.138  1.00  0.00     0.005 A 
ATOM      2  C   UNL     1     -96.193  53.986   1.958  1.00  0.00     0.060 A 
ATOM      3  C   UNL     1     -95.917  56.372   1.665  1.00  0.00     0.060 A 
ATOM      4  C   UNL     1     -96.592  54.195   3.285  1.00  0.00     0.162 A 
ATOM      5  C   UNL     1     -96.315  56.594   2.989  1.00  0.00     0.162 A 
ATOM      6  C   UNL     1     -96.656  55.493   3.810  1.00  0.00     0.200 A 
ENDROOT
BRANCH   1   7
ATOM      7  C   UNL     1     -95.431  54.846  -0.263  1.00  0.00     0.072 C 
ATOM      8  O   UNL     1     -95.557  55.756  -1.125  1.00  0.00    -0.545 OA
ATOM      9  O   UNL     1     -94.890  53.625  -0.648  1.00  0.00    -0.545 OA
ENDBRANCH   1   7
BRANCH   4  10
ATOM     10  O   UNL     1     -96.928  53.110   4.094  1.00  0.00    -0.504 OA
ATOM     11  H   UNL     1     -97.828  53.051   4.557  1.00  0.00     0.293 HD
ENDBRANCH   4  10
BRANCH   5  12
ATOM     12  O   UNL     1     -96.355  57.914   3.443  1.00  0.00    -0.504 OA
ATOM     13  H   UNL     1     -95.897  58.686   2.981  1.00  0.00     0.293 HD
ENDBRANCH   5  12
BRANCH   6  14
ATOM     14  O   UNL     1     -97.060  55.645   5.139  1.00  0.00    -0.502 OA
ATOM     15  H   UNL     1     -97.381  56.515   5.537  1.00  0.00     0.293 HD
ENDBRANCH   6  14
TORSDOF 4
ENDMDL
MODEL 8
REMARK VINA RESULT:    -3.398      2.217      4.396
REMARK INTER + INTRA:          -3.940
REMARK INTER:                  -3.890
REMARK INTRA:                  -0.050
REMARK UNBOUND:                -0.046
REMARK SMILES O=C([O-])c1cc(O)c(O)c(O)c1
REMARK SMILES IDX 4 1 5 2 12 3 6 4 10 5 8 6 2 7 1 8 3 9 7 10 11 12 9 14
REMARK H PARENT 7 11 11 13 9 15
REMARK Flexibility Score: inf
ROOT
ATOM      1  C   UNL     1     -99.048  43.119  12.894  1.00  0.00     0.005 A 
ATOM      2  C   UNL     1     -97.821  42.722  12.341  1.00  0.00     0.060 A 
ATOM      3  C   UNL     1     -99.201  43.107  14.290  1.00  0.00     0.060 A 
ATOM      4  C   UNL     1     -96.763  42.322  13.168  1.00  0.00     0.162 A 
ATOM      5  C   UNL     1     -98.153  42.708  15.128  1.00  0.00     0.162 A 
ATOM      6  C   UNL     1     -96.918  42.311  14.561  1.00  0.00     0.200 A 
ENDROOT
BRANCH   1   7
ATOM      7  C   UNL     1    -100.161  43.541  12.015  1.00  0.00     0.072 C 
ATOM      8  O   UNL     1    -101.355  43.290  12.328  1.00  0.00    -0.545 OA
ATOM      9  O   UNL     1     -99.905  44.223  10.831  1.00  0.00    -0.545 OA
ENDBRANCH   1   7
BRANCH   4  10
ATOM     10  O   UNL     1     -95.547  41.930  12.609  1.00  0.00    -0.504 OA
ATOM     11  H   UNL     1     -94.673  42.032  13.112  1.00  0.00     0.293 HD
ENDBRANCH   4  10
BRANCH   5  12
ATOM     12  O   UNL     1     -98.380  42.723  16.505  1.00  0.00    -0.504 OA
ATOM     13  H   UNL     1     -97.774  42.286  17.184  1.00  0.00     0.293 HD
ENDBRANCH   5  12
BRANCH   6  14
ATOM     14  O   UNL     1     -95.833  41.902  15.339  1.00  0.00    -0.502 OA
ATOM     15  H   UNL     1     -94.912  42.312  15.285  1.00  0.00     0.293 HD
ENDBRANCH   6  14
TORSDOF 4
ENDMDL
MODEL 9
REMARK VINA RESULT:    -3.394     15.253     16.740
REMARK INTER + INTRA:          -3.936
REMARK INTER:                  -3.884
REMARK INTRA:                  -0.052
REMARK UNBOUND:                -0.046
REMARK SMILES O=C([O-])c1cc(O)c(O)c(O)c1
REMARK SMILES IDX 4 1 5 2 12 3 6 4 10 5 8 6 2 7 1 8 3 9 7 10 11 12 9 14
REMARK H PARENT 7 11 11 13 9 15
REMARK Flexibility Score: inf
ROOT
ATOM      1  C   UNL     1     -95.858  55.068   1.119  1.00  0.00     0.005 A 
ATOM      2  C   UNL     1     -95.959  56.372   1.629  1.00  0.00     0.060 A 
ATOM      3  C   UNL     1     -96.164  53.984   1.957  1.00  0.00     0.060 A 
ATOM      4  C   UNL     1     -96.360  56.588   2.954  1.00  0.00     0.162 A 
ATOM      5  C   UNL     1     -96.564  54.186   3.283  1.00  0.00     0.162 A 
ATOM      6  C   UNL     1     -96.664  55.504   3.789  1.00  0.00     0.200 A 
ENDROOT
BRANCH   1   7
ATOM      7  C   UNL     1     -95.435  54.845  -0.282  1.00  0.00     0.072 C 
ATOM      8  O   UNL     1     -95.493  55.779  -1.125  1.00  0.00    -0.545 OA
ATOM      9  O   UNL     1     -94.965  53.601  -0.686  1.00  0.00    -0.545 OA
ENDBRANCH   1   7
BRANCH   4  10
ATOM     10  O   UNL     1     -96.458  57.887   3.452  1.00  0.00    -0.504 OA
ATOM     11  H   UNL     1     -95.920  58.191   4.255  1.00  0.00     0.293 HD
ENDBRANCH   4  10
BRANCH   5  12
ATOM     12  O   UNL     1     -96.851  53.059   4.055  1.00  0.00    -0.504 OA
ATOM     13  H   UNL     1     -96.723  52.108   3.739  1.00  0.00     0.293 HD
ENDBRANCH   5  12
BRANCH   6  14
ATOM     14  O   UNL     1     -97.057  55.777   5.101  1.00  0.00    -0.502 OA
ATOM     15  H   UNL     1     -97.690  56.520   5.359  1.00  0.00     0.293 HD
ENDBRANCH   6  14
TORSDOF 4
ENDMDL
