MODEL 1
REMARK VINA RESULT:    -3.065      0.000      0.000
REMARK INTER + INTRA:          -4.135
REMARK INTER:                  -3.960
REMARK INTRA:                  -0.175
REMARK UNBOUND:                -0.175
REMARK SMILES CCCCCCC(=O)[O-]
REMARK SMILES IDX 5 1 6 2 7 3 8 4 9 5 4 6 3 7 2 8 1 9
REMARK H PARENT
REMARK Flexibility Score: inf
ROOT
ATOM      1  C   UNL     1     -20.938  30.905 -41.703  1.00  0.00     0.006 C 
ENDROOT
BRANCH   1   2
ATOM      2  C   UNL     1     -19.741  30.557 -42.598  1.00  0.00     0.053 C 
BRANCH   2   3
ATOM      3  C   UNL     1     -18.779  31.700 -42.709  1.00  0.00     0.041 C 
ATOM      4  O   UNL     1     -18.350  32.060 -43.837  1.00  0.00    -0.550 OA
ATOM      5  O   UNL     1     -18.332  32.345 -41.564  1.00  0.00    -0.550 OA
ENDBRANCH   2   3
ENDBRANCH   1   2
BRANCH   1   6
ATOM      6  C   UNL     1     -21.087  29.927 -40.528  1.00  0.00     0.000 C 
BRANCH   6   7
ATOM      7  C   UNL     1     -22.140  28.855 -40.835  1.00  0.00    -0.000 C 
BRANCH   7   8
ATOM      8  C   UNL     1     -23.090  29.318 -41.946  1.00  0.00    -0.003 C 
ATOM      9  C   UNL     1     -24.383  28.508 -41.939  1.00  0.00     0.004 C 
ENDBRANCH   7   8
ENDBRANCH   6   7
ENDBRANCH   1   6
TORSDOF 5
ENDMDL
MODEL 2
REMARK VINA RESULT:    -3.049     11.811     13.496
REMARK INTER + INTRA:          -4.115
REMARK INTER:                  -3.924
REMARK INTRA:                  -0.191
REMARK UNBOUND:                -0.175
REMARK SMILES CCCCCCC(=O)[O-]
REMARK SMILES IDX 5 1 6 2 7 3 8 4 9 5 4 6 3 7 2 8 1 9
REMARK H PARENT
REMARK Flexibility Score: inf
ROOT
ATOM      1  C   UNL     1     -31.701  30.215 -34.461  1.00  0.00     0.006 C 
ENDROOT
BRANCH   1   2
ATOM      2  C   UNL     1     -30.251  29.981 -34.014  1.00  0.00     0.053 C 
BRANCH   2   3
ATOM      3  C   UNL     1     -29.453  31.247 -34.030  1.00  0.00     0.041 C 
ATOM      4  O   UNL     1     -29.155  31.824 -32.951  1.00  0.00    -0.550 OA
ATOM      5  O   UNL     1     -29.065  31.809 -35.240  1.00  0.00    -0.550 OA
ENDBRANCH   2   3
ENDBRANCH   1   2
BRANCH   1   6
ATOM      6  C   UNL     1     -32.279  29.008 -35.214  1.00  0.00     0.000 C 
BRANCH   6   7
ATOM      7  C   UNL     1     -33.768  28.826 -34.900  1.00  0.00    -0.000 C 
BRANCH   7   8
ATOM      8  C   UNL     1     -34.178  29.648 -33.673  1.00  0.00    -0.003 C 
ATOM      9  C   UNL     1     -35.424  30.480 -33.958  1.00  0.00     0.004 C 
ENDBRANCH   7   8
ENDBRANCH   6   7
ENDBRANCH   1   6
TORSDOF 5
ENDMDL
MODEL 3
REMARK VINA RESULT:    -3.042     12.595     13.872
REMARK INTER + INTRA:          -4.106
REMARK INTER:                  -3.995
REMARK INTRA:                  -0.111
REMARK UNBOUND:                -0.175
REMARK SMILES CCCCCCC(=O)[O-]
REMARK SMILES IDX 5 1 6 2 7 3 8 4 9 5 4 6 3 7 2 8 1 9
REMARK H PARENT
REMARK Flexibility Score: inf
ROOT
ATOM      1  C   UNL     1     -24.060  25.460 -29.334  1.00  0.00     0.006 C 
ENDROOT
BRANCH   1   2
ATOM      2  C   UNL     1     -24.660  26.602 -30.165  1.00  0.00     0.053 C 
BRANCH   2   3
ATOM      3  C   UNL     1     -23.838  26.894 -31.382  1.00  0.00     0.041 C 
ATOM      4  O   UNL     1     -22.582  26.813 -31.334  1.00  0.00    -0.550 OA
ATOM      5  O   UNL     1     -24.457  27.288 -32.561  1.00  0.00    -0.550 OA
ENDBRANCH   2   3
ENDBRANCH   1   2
BRANCH   1   6
ATOM      6  C   UNL     1     -24.398  24.079 -29.915  1.00  0.00     0.000 C 
BRANCH   6   7
ATOM      7  C   UNL     1     -24.712  23.075 -28.800  1.00  0.00    -0.000 C 
BRANCH   7   8
ATOM      8  C   UNL     1     -24.006  21.737 -29.048  1.00  0.00    -0.003 C 
ATOM      9  C   UNL     1     -24.421  20.695 -28.015  1.00  0.00     0.004 C 
ENDBRANCH   7   8
ENDBRANCH   6   7
ENDBRANCH   1   6
TORSDOF 5
ENDMDL
MODEL 4
REMARK VINA RESULT:    -3.012     12.198     13.238
REMARK INTER + INTRA:          -4.067
REMARK INTER:                  -3.698
REMARK INTRA:                  -0.369
REMARK UNBOUND:                -0.175
REMARK SMILES CCCCCCC(=O)[O-]
REMARK SMILES IDX 5 1 6 2 7 3 8 4 9 5 4 6 3 7 2 8 1 9
REMARK H PARENT
REMARK Flexibility Score: inf
ROOT
ATOM      1  C   UNL     1     -26.398  18.852 -38.545  1.00  0.00     0.006 C 
ENDROOT
BRANCH   1   2
ATOM      2  C   UNL     1     -27.784  19.022 -39.180  1.00  0.00     0.053 C 
BRANCH   2   3
ATOM      3  C   UNL     1     -28.072  20.455 -39.510  1.00  0.00     0.041 C 
ATOM      4  O   UNL     1     -29.251  20.827 -39.745  1.00  0.00    -0.550 OA
ATOM      5  O   UNL     1     -27.032  21.371 -39.590  1.00  0.00    -0.550 OA
ENDBRANCH   2   3
ENDBRANCH   1   2
BRANCH   1   6
ATOM      6  C   UNL     1     -26.481  18.533 -37.045  1.00  0.00     0.000 C 
BRANCH   6   7
ATOM      7  C   UNL     1     -25.433  19.327 -36.255  1.00  0.00    -0.000 C 
BRANCH   7   8
ATOM      8  C   UNL     1     -25.631  20.835 -36.440  1.00  0.00    -0.003 C 
ATOM      9  C   UNL     1     -26.984  21.285 -35.899  1.00  0.00     0.004 C 
ENDBRANCH   7   8
ENDBRANCH   6   7
ENDBRANCH   1   6
TORSDOF 5
ENDMDL
MODEL 5
REMARK VINA RESULT:    -3.010      3.359      5.212
REMARK INTER + INTRA:          -4.065
REMARK INTER:                  -3.921
REMARK INTRA:                  -0.143
REMARK UNBOUND:                -0.175
REMARK SMILES CCCCCCC(=O)[O-]
REMARK SMILES IDX 5 1 6 2 7 3 8 4 9 5 4 6 3 7 2 8 1 9
REMARK H PARENT
REMARK Flexibility Score: inf
ROOT
ATOM      1  C   UNL     1     -21.701  30.532 -42.585  1.00  0.00     0.006 C 
ENDROOT
BRANCH   1   2
ATOM      2  C   UNL     1     -22.472  29.206 -42.544  1.00  0.00     0.053 C 
BRANCH   2   3
ATOM      3  C   UNL     1     -23.868  29.391 -42.035  1.00  0.00     0.041 C 
ATOM      4  O   UNL     1     -24.240  30.511 -41.596  1.00  0.00    -0.550 OA
ATOM      5  O   UNL     1     -24.749  28.317 -42.016  1.00  0.00    -0.550 OA
ENDBRANCH   2   3
ENDBRANCH   1   2
BRANCH   1   6
ATOM      6  C   UNL     1     -20.531  30.554 -41.590  1.00  0.00     0.000 C 
BRANCH   6   7
ATOM      7  C   UNL     1     -19.187  30.430 -42.317  1.00  0.00    -0.000 C 
BRANCH   7   8
ATOM      8  C   UNL     1     -18.833  31.731 -43.046  1.00  0.00    -0.003 C 
ATOM      9  C   UNL     1     -17.514  32.306 -42.540  1.00  0.00     0.004 C 
ENDBRANCH   7   8
ENDBRANCH   6   7
ENDBRANCH   1   6
TORSDOF 5
ENDMDL
MODEL 6
REMARK VINA RESULT:    -2.999     12.608     13.903
REMARK INTER + INTRA:          -4.050
REMARK INTER:                  -3.829
REMARK INTRA:                  -0.221
REMARK UNBOUND:                -0.175
REMARK SMILES CCCCCCC(=O)[O-]
REMARK SMILES IDX 5 1 6 2 7 3 8 4 9 5 4 6 3 7 2 8 1 9
REMARK H PARENT
REMARK Flexibility Score: inf
ROOT
ATOM      1  C   UNL     1     -26.300  18.313 -37.242  1.00  0.00     0.006 C 
ENDROOT
BRANCH   1   2
ATOM      2  C   UNL     1     -25.506  19.158 -36.237  1.00  0.00     0.053 C 
BRANCH   2   3
ATOM      3  C   UNL     1     -25.774  18.738 -34.824  1.00  0.00     0.041 C 
ATOM      4  O   UNL     1     -26.384  19.510 -34.038  1.00  0.00    -0.550 OA
ATOM      5  O   UNL     1     -25.321  17.508 -34.367  1.00  0.00    -0.550 OA
ENDBRANCH   2   3
ENDBRANCH   1   2
BRANCH   1   6
ATOM      6  C   UNL     1     -26.533  19.054 -38.567  1.00  0.00     0.000 C 
BRANCH   6   7
ATOM      7  C   UNL     1     -26.105  20.522 -38.459  1.00  0.00    -0.000 C 
BRANCH   7   8
ATOM      8  C   UNL     1     -27.202  21.456 -38.984  1.00  0.00    -0.003 C 
ATOM      9  C   UNL     1     -28.244  20.684 -39.787  1.00  0.00     0.004 C 
ENDBRANCH   7   8
ENDBRANCH   6   7
ENDBRANCH   1   6
TORSDOF 5
ENDMDL
MODEL 7
REMARK VINA RESULT:    -2.971      5.476      7.050
REMARK INTER + INTRA:          -4.014
REMARK INTER:                  -3.878
REMARK INTRA:                  -0.136
REMARK UNBOUND:                -0.175
REMARK SMILES CCCCCCC(=O)[O-]
REMARK SMILES IDX 5 1 6 2 7 3 8 4 9 5 4 6 3 7 2 8 1 9
REMARK H PARENT
REMARK Flexibility Score: inf
ROOT
ATOM      1  C   UNL     1     -26.048  29.625 -41.856  1.00  0.00     0.006 C 
ENDROOT
BRANCH   1   2
ATOM      2  C   UNL     1     -26.297  28.125 -41.653  1.00  0.00     0.053 C 
BRANCH   2   3
ATOM      3  C   UNL     1     -27.724  27.757 -41.922  1.00  0.00     0.041 C 
ATOM      4  O   UNL     1     -28.054  27.263 -43.032  1.00  0.00    -0.550 OA
ATOM      5  O   UNL     1     -28.695  27.990 -40.958  1.00  0.00    -0.550 OA
ENDBRANCH   2   3
ENDBRANCH   1   2
BRANCH   1   6
ATOM      6  C   UNL     1     -24.599  30.022 -41.539  1.00  0.00     0.000 C 
BRANCH   6   7
ATOM      7  C   UNL     1     -23.624  28.906 -41.936  1.00  0.00    -0.000 C 
BRANCH   7   8
ATOM      8  C   UNL     1     -22.186  29.268 -41.551  1.00  0.00    -0.003 C 
ATOM      9  C   UNL     1     -21.485  30.019 -42.680  1.00  0.00     0.004 C 
ENDBRANCH   7   8
ENDBRANCH   6   7
ENDBRANCH   1   6
TORSDOF 5
ENDMDL
MODEL 8
REMARK VINA RESULT:    -2.970     11.697     12.808
REMARK INTER + INTRA:          -4.013
REMARK INTER:                  -3.572
REMARK INTRA:                  -0.441
REMARK UNBOUND:                -0.175
REMARK SMILES CCCCCCC(=O)[O-]
REMARK SMILES IDX 5 1 6 2 7 3 8 4 9 5 4 6 3 7 2 8 1 9
REMARK H PARENT
REMARK Flexibility Score: inf
ROOT
ATOM      1  C   UNL     1     -27.270  21.253 -39.276  1.00  0.00     0.006 C 
ENDROOT
BRANCH   1   2
ATOM      2  C   UNL     1     -28.463  21.460 -38.334  1.00  0.00     0.053 C 
BRANCH   2   3
ATOM      3  C   UNL     1     -28.069  22.198 -37.092  1.00  0.00     0.041 C 
ATOM      4  O   UNL     1     -28.219  21.664 -35.962  1.00  0.00    -0.550 OA
ATOM      5  O   UNL     1     -27.566  23.489 -37.181  1.00  0.00    -0.550 OA
ENDBRANCH   2   3
ENDBRANCH   1   2
BRANCH   1   6
ATOM      6  C   UNL     1     -26.114  20.507 -38.594  1.00  0.00     0.000 C 
BRANCH   6   7
ATOM      7  C   UNL     1     -26.440  19.017 -38.433  1.00  0.00    -0.000 C 
BRANCH   7   8
ATOM      8  C   UNL     1     -26.132  18.536 -37.011  1.00  0.00    -0.003 C 
ATOM      9  C   UNL     1     -25.353  19.589 -36.230  1.00  0.00     0.004 C 
ENDBRANCH   7   8
ENDBRANCH   6   7
ENDBRANCH   1   6
TORSDOF 5
ENDMDL
MODEL 9
REMARK VINA RESULT:    -2.969     12.124     12.968
REMARK INTER + INTRA:          -4.011
REMARK INTER:                  -3.636
REMARK INTRA:                  -0.375
REMARK UNBOUND:                -0.175
REMARK SMILES CCCCCCC(=O)[O-]
REMARK SMILES IDX 5 1 6 2 7 3 8 4 9 5 4 6 3 7 2 8 1 9
REMARK H PARENT
REMARK Flexibility Score: inf
ROOT
ATOM      1  C   UNL     1     -26.534  18.444 -36.962  1.00  0.00     0.006 C 
ENDROOT
BRANCH   1   2
ATOM      2  C   UNL     1     -25.446  19.145 -36.137  1.00  0.00     0.053 C 
BRANCH   2   3
ATOM      3  C   UNL     1     -25.434  20.624 -36.376  1.00  0.00     0.041 C 
ATOM      4  O   UNL     1     -24.375  21.198 -36.742  1.00  0.00    -0.550 OA
ATOM      5  O   UNL     1     -26.584  21.371 -36.162  1.00  0.00    -0.550 OA
ENDBRANCH   2   3
ENDBRANCH   1   2
BRANCH   1   6
ATOM      6  C   UNL     1     -26.311  18.606 -38.473  1.00  0.00     0.000 C 
BRANCH   6   7
ATOM      7  C   UNL     1     -27.601  19.047 -39.175  1.00  0.00    -0.000 C 
BRANCH   7   8
ATOM      8  C   UNL     1     -27.527  20.520 -39.589  1.00  0.00    -0.003 C 
ATOM      9  C   UNL     1     -28.784  21.275 -39.169  1.00  0.00     0.004 C 
ENDBRANCH   7   8
ENDBRANCH   6   7
ENDBRANCH   1   6
TORSDOF 5
ENDMDL
