MODEL 1
REMARK VINA RESULT:    -4.681      0.000      0.000
REMARK INTER + INTRA:          -5.319
REMARK INTER:                  -5.229
REMARK INTRA:                  -0.090
REMARK UNBOUND:                -0.090
REMARK SMILES CCc1ccc(O)cc1O
REMARK SMILES IDX 3 1 9 2 8 3 6 4 5 5 4 6 2 7 1 8 10 9 7 11
REMARK H PARENT 10 10 7 12
REMARK Flexibility Score: inf
ROOT
ATOM      1  C   UNL     1     -30.404 -20.425 -30.583  1.00  0.00    -0.006 A 
ATOM      2  C   UNL     1     -29.034 -20.098 -30.612  1.00  0.00     0.122 A 
ATOM      3  C   UNL     1     -28.384 -19.920 -31.842  1.00  0.00     0.092 A 
ATOM      4  C   UNL     1     -29.089 -20.055 -33.041  1.00  0.00     0.119 A 
ATOM      5  C   UNL     1     -30.454 -20.365 -33.014  1.00  0.00     0.047 A 
ATOM      6  C   UNL     1     -31.109 -20.545 -31.793  1.00  0.00     0.011 A 
ENDROOT
BRANCH   1   7
ATOM      7  C   UNL     1     -31.135 -20.591 -29.274  1.00  0.00     0.036 C 
ATOM      8  C   UNL     1     -32.482 -19.875 -29.312  1.00  0.00     0.009 C 
ENDBRANCH   1   7
BRANCH   2   9
ATOM      9  O   UNL     1     -28.323 -19.948 -29.421  1.00  0.00    -0.508 OA
ATOM     10  H   UNL     1     -27.673 -20.656 -29.097  1.00  0.00     0.293 HD
ENDBRANCH   2   9
BRANCH   4  11
ATOM     11  O   UNL     1     -28.426 -19.875 -34.253  1.00  0.00    -0.508 OA
ATOM     12  H   UNL     1     -27.496 -20.247 -34.408  1.00  0.00     0.293 HD
ENDBRANCH   4  11
TORSDOF 3
ENDMDL
MODEL 2
REMARK VINA RESULT:    -4.349      5.764      6.662
REMARK INTER + INTRA:          -4.948
REMARK INTER:                  -4.842
REMARK INTRA:                  -0.105
REMARK UNBOUND:                -0.090
REMARK SMILES CCc1ccc(O)cc1O
REMARK SMILES IDX 3 1 9 2 8 3 6 4 5 5 4 6 2 7 1 8 10 9 7 11
REMARK H PARENT 10 10 7 12
REMARK Flexibility Score: inf
ROOT
ATOM      1  C   UNL     1     -33.151 -22.240 -36.397  1.00  0.00    -0.006 A 
ATOM      2  C   UNL     1     -32.430 -23.175 -35.628  1.00  0.00     0.122 A 
ATOM      3  C   UNL     1     -31.509 -24.029 -36.250  1.00  0.00     0.092 A 
ATOM      4  C   UNL     1     -31.292 -23.953 -37.629  1.00  0.00     0.119 A 
ATOM      5  C   UNL     1     -31.996 -23.015 -38.392  1.00  0.00     0.047 A 
ATOM      6  C   UNL     1     -32.917 -22.160 -37.780  1.00  0.00     0.011 A 
ENDROOT
BRANCH   1   7
ATOM      7  C   UNL     1     -34.125 -21.288 -35.749  1.00  0.00     0.036 C 
ATOM      8  C   UNL     1     -33.435 -19.980 -35.373  1.00  0.00     0.009 C 
ENDBRANCH   1   7
BRANCH   2   9
ATOM      9  O   UNL     1     -32.629 -23.251 -34.248  1.00  0.00    -0.508 OA
ATOM     10  H   UNL     1     -33.511 -22.986 -33.824  1.00  0.00     0.293 HD
ENDBRANCH   2   9
BRANCH   4  11
ATOM     11  O   UNL     1     -30.373 -24.811 -38.229  1.00  0.00    -0.508 OA
ATOM     12  H   UNL     1     -29.627 -24.459 -38.819  1.00  0.00     0.293 HD
ENDBRANCH   4  11
TORSDOF 3
ENDMDL
MODEL 3
REMARK VINA RESULT:    -4.131      6.357      7.405
REMARK INTER + INTRA:          -4.704
REMARK INTER:                  -4.609
REMARK INTRA:                  -0.095
REMARK UNBOUND:                -0.090
REMARK SMILES CCc1ccc(O)cc1O
REMARK SMILES IDX 3 1 9 2 8 3 6 4 5 5 4 6 2 7 1 8 10 9 7 11
REMARK H PARENT 10 10 7 12
REMARK Flexibility Score: inf
ROOT
ATOM      1  C   UNL     1     -33.113 -22.158 -36.825  1.00  0.00    -0.006 A 
ATOM      2  C   UNL     1     -32.696 -22.256 -38.167  1.00  0.00     0.122 A 
ATOM      3  C   UNL     1     -31.776 -23.246 -38.542  1.00  0.00     0.092 A 
ATOM      4  C   UNL     1     -31.275 -24.143 -37.594  1.00  0.00     0.119 A 
ATOM      5  C   UNL     1     -31.699 -24.056 -36.263  1.00  0.00     0.047 A 
ATOM      6  C   UNL     1     -32.616 -23.072 -35.881  1.00  0.00     0.011 A 
ENDROOT
BRANCH   1   7
ATOM      7  C   UNL     1     -34.125 -21.123 -36.400  1.00  0.00     0.036 C 
ATOM      8  C   UNL     1     -33.523 -20.164 -35.378  1.00  0.00     0.009 C 
ENDBRANCH   1   7
BRANCH   2   9
ATOM      9  O   UNL     1     -33.199 -21.374 -39.125  1.00  0.00    -0.508 OA
ATOM     10  H   UNL     1     -32.596 -20.933 -39.809  1.00  0.00     0.293 HD
ENDBRANCH   2   9
BRANCH   4  11
ATOM     11  O   UNL     1     -30.361 -25.119 -37.986  1.00  0.00    -0.508 OA
ATOM     12  H   UNL     1     -29.830 -25.650 -37.306  1.00  0.00     0.293 HD
ENDBRANCH   4  11
TORSDOF 3
ENDMDL
MODEL 4
REMARK VINA RESULT:    -3.855      2.308      3.750
REMARK INTER + INTRA:          -4.396
REMARK INTER:                  -4.304
REMARK INTRA:                  -0.092
REMARK UNBOUND:                -0.090
REMARK SMILES CCc1ccc(O)cc1O
REMARK SMILES IDX 3 1 9 2 8 3 6 4 5 5 4 6 2 7 1 8 10 9 7 11
REMARK H PARENT 10 10 7 12
REMARK Flexibility Score: inf
ROOT
ATOM      1  C   UNL     1     -30.785 -21.843 -32.946  1.00  0.00    -0.006 A 
ATOM      2  C   UNL     1     -30.635 -22.485 -31.701  1.00  0.00     0.122 A 
ATOM      3  C   UNL     1     -29.995 -21.821 -30.645  1.00  0.00     0.092 A 
ATOM      4  C   UNL     1     -29.512 -20.521 -30.816  1.00  0.00     0.119 A 
ATOM      5  C   UNL     1     -29.674 -19.875 -32.047  1.00  0.00     0.047 A 
ATOM      6  C   UNL     1     -30.310 -20.530 -33.105  1.00  0.00     0.011 A 
ENDROOT
BRANCH   1   7
ATOM      7  C   UNL     1     -31.498 -22.521 -34.090  1.00  0.00     0.036 C 
ATOM      8  C   UNL     1     -32.560 -21.603 -34.687  1.00  0.00     0.009 C 
ENDBRANCH   1   7
BRANCH   2   9
ATOM      9  O   UNL     1     -31.125 -23.779 -31.516  1.00  0.00    -0.508 OA
ATOM     10  H   UNL     1     -30.858 -24.540 -32.130  1.00  0.00     0.293 HD
ENDBRANCH   2   9
BRANCH   4  11
ATOM     11  O   UNL     1     -28.878 -19.878 -29.754  1.00  0.00    -0.508 OA
ATOM     12  H   UNL     1     -28.506 -20.396 -28.967  1.00  0.00     0.293 HD
ENDBRANCH   4  11
TORSDOF 3
ENDMDL
MODEL 5
REMARK VINA RESULT:    -3.846      5.708      7.755
REMARK INTER + INTRA:          -4.386
REMARK INTER:                  -4.339
REMARK INTRA:                  -0.046
REMARK UNBOUND:                -0.090
REMARK SMILES CCc1ccc(O)cc1O
REMARK SMILES IDX 3 1 9 2 8 3 6 4 5 5 4 6 2 7 1 8 10 9 7 11
REMARK H PARENT 10 10 7 12
REMARK Flexibility Score: inf
ROOT
ATOM      1  C   UNL     1     -31.933 -23.667 -36.978  1.00  0.00    -0.006 A 
ATOM      2  C   UNL     1     -32.705 -22.762 -37.735  1.00  0.00     0.122 A 
ATOM      3  C   UNL     1     -33.423 -21.746 -37.089  1.00  0.00     0.092 A 
ATOM      4  C   UNL     1     -33.371 -21.617 -35.698  1.00  0.00     0.119 A 
ATOM      5  C   UNL     1     -32.593 -22.505 -34.946  1.00  0.00     0.047 A 
ATOM      6  C   UNL     1     -31.875 -23.521 -35.582  1.00  0.00     0.011 A 
ENDROOT
BRANCH   1   7
ATOM      7  C   UNL     1     -31.126 -24.750 -37.649  1.00  0.00     0.036 C 
ATOM      8  C   UNL     1     -32.007 -25.945 -37.997  1.00  0.00     0.009 C 
ENDBRANCH   1   7
BRANCH   2   9
ATOM      9  O   UNL     1     -32.754 -22.874 -39.125  1.00  0.00    -0.508 OA
ATOM     10  H   UNL     1     -32.747 -22.056 -39.724  1.00  0.00     0.293 HD
ENDBRANCH   2   9
BRANCH   4  11
ATOM     11  O   UNL     1     -34.092 -20.601 -35.074  1.00  0.00    -0.508 OA
ATOM     12  H   UNL     1     -33.846 -20.268 -34.149  1.00  0.00     0.293 HD
ENDBRANCH   4  11
TORSDOF 3
ENDMDL
MODEL 6
REMARK VINA RESULT:    -3.708     22.340     23.207
REMARK INTER + INTRA:          -4.232
REMARK INTER:                  -4.147
REMARK INTRA:                  -0.085
REMARK UNBOUND:                -0.090
REMARK SMILES CCc1ccc(O)cc1O
REMARK SMILES IDX 3 1 9 2 8 3 6 4 5 5 4 6 2 7 1 8 10 9 7 11
REMARK H PARENT 10 10 7 12
REMARK Flexibility Score: inf
ROOT
ATOM      1  C   UNL     1     -18.078 -38.900 -38.079  1.00  0.00    -0.006 A 
ATOM      2  C   UNL     1     -16.733 -39.016 -37.672  1.00  0.00     0.122 A 
ATOM      3  C   UNL     1     -15.814 -38.011 -38.007  1.00  0.00     0.092 A 
ATOM      4  C   UNL     1     -16.224 -36.890 -38.734  1.00  0.00     0.119 A 
ATOM      5  C   UNL     1     -17.562 -36.766 -39.125  1.00  0.00     0.047 A 
ATOM      6  C   UNL     1     -18.485 -37.763 -38.796  1.00  0.00     0.011 A 
ENDROOT
BRANCH   1   7
ATOM      7  C   UNL     1     -19.094 -39.950 -37.705  1.00  0.00     0.036 C 
ATOM      8  C   UNL     1     -20.219 -40.004 -38.734  1.00  0.00     0.009 C 
ENDBRANCH   1   7
BRANCH   2   9
ATOM      9  O   UNL     1     -16.316 -40.125 -36.936  1.00  0.00    -0.508 OA
ATOM     10  H   UNL     1     -16.965 -40.664 -36.373  1.00  0.00     0.293 HD
ENDBRANCH   2   9
BRANCH   4  11
ATOM     11  O   UNL     1     -15.296 -35.902 -39.057  1.00  0.00    -0.508 OA
ATOM     12  H   UNL     1     -15.549 -35.104 -39.627  1.00  0.00     0.293 HD
ENDBRANCH   4  11
TORSDOF 3
ENDMDL
MODEL 7
REMARK VINA RESULT:    -3.631      5.405      7.441
REMARK INTER + INTRA:          -4.146
REMARK INTER:                  -4.061
REMARK INTRA:                  -0.085
REMARK UNBOUND:                -0.090
REMARK SMILES CCc1ccc(O)cc1O
REMARK SMILES IDX 3 1 9 2 8 3 6 4 5 5 4 6 2 7 1 8 10 9 7 11
REMARK H PARENT 10 10 7 12
REMARK Flexibility Score: inf
ROOT
ATOM      1  C   UNL     1     -32.795 -22.407 -37.572  1.00  0.00    -0.006 A 
ATOM      2  C   UNL     1     -31.801 -23.354 -37.256  1.00  0.00     0.122 A 
ATOM      3  C   UNL     1     -31.492 -23.621 -35.914  1.00  0.00     0.092 A 
ATOM      4  C   UNL     1     -32.171 -22.960 -34.887  1.00  0.00     0.119 A 
ATOM      5  C   UNL     1     -33.169 -22.029 -35.199  1.00  0.00     0.047 A 
ATOM      6  C   UNL     1     -33.483 -21.757 -36.533  1.00  0.00     0.011 A 
ENDROOT
BRANCH   1   7
ATOM      7  C   UNL     1     -33.169 -22.123 -39.006  1.00  0.00     0.036 C 
ATOM      8  C   UNL     1     -34.125 -20.937 -39.091  1.00  0.00     0.009 C 
ENDBRANCH   1   7
BRANCH   2   9
ATOM      9  O   UNL     1     -31.126 -24.029 -38.274  1.00  0.00    -0.508 OA
ATOM     10  H   UNL     1     -30.180 -24.371 -38.147  1.00  0.00     0.293 HD
ENDBRANCH   2   9
BRANCH   4  11
ATOM     11  O   UNL     1     -31.850 -23.238 -33.560  1.00  0.00    -0.508 OA
ATOM     12  H   UNL     1     -31.189 -23.967 -33.317  1.00  0.00     0.293 HD
ENDBRANCH   4  11
TORSDOF 3
ENDMDL
MODEL 8
REMARK VINA RESULT:    -3.571      6.956      8.104
REMARK INTER + INTRA:          -4.079
REMARK INTER:                  -3.976
REMARK INTRA:                  -0.102
REMARK UNBOUND:                -0.090
REMARK SMILES CCc1ccc(O)cc1O
REMARK SMILES IDX 3 1 9 2 8 3 6 4 5 5 4 6 2 7 1 8 10 9 7 11
REMARK H PARENT 10 10 7 12
REMARK Flexibility Score: inf
ROOT
ATOM      1  C   UNL     1     -31.960 -23.880 -37.689  1.00  0.00    -0.006 A 
ATOM      2  C   UNL     1     -32.648 -23.343 -36.583  1.00  0.00     0.122 A 
ATOM      3  C   UNL     1     -33.364 -22.145 -36.720  1.00  0.00     0.092 A 
ATOM      4  C   UNL     1     -33.408 -21.484 -37.950  1.00  0.00     0.119 A 
ATOM      5  C   UNL     1     -32.738 -22.023 -39.054  1.00  0.00     0.047 A 
ATOM      6  C   UNL     1     -32.021 -23.216 -38.926  1.00  0.00     0.011 A 
ENDROOT
BRANCH   1   7
ATOM      7  C   UNL     1     -31.208 -25.183 -37.578  1.00  0.00     0.036 C 
ATOM      8  C   UNL     1     -31.898 -26.277 -38.387  1.00  0.00     0.009 C 
ENDBRANCH   1   7
BRANCH   2   9
ATOM      9  O   UNL     1     -32.621 -24.002 -35.353  1.00  0.00    -0.508 OA
ATOM     10  H   UNL     1     -32.312 -24.964 -35.273  1.00  0.00     0.293 HD
ENDBRANCH   2   9
BRANCH   4  11
ATOM     11  O   UNL     1     -34.125 -20.295 -38.067  1.00  0.00    -0.508 OA
ATOM     12  H   UNL     1     -34.015 -19.686 -38.869  1.00  0.00     0.293 HD
ENDBRANCH   4  11
TORSDOF 3
ENDMDL
