MODEL 1
REMARK VINA RESULT:    -5.248      0.000      0.000
REMARK INTER + INTRA:          -5.576
REMARK INTER:                  -5.555
REMARK INTRA:                  -0.022
REMARK UNBOUND:                -0.022
REMARK SMILES O=C([O-])c1cccnc1
REMARK SMILES IDX 4 1 5 2 9 3 6 4 8 5 7 6 2 7 1 8 3 9
REMARK H PARENT
REMARK Flexibility Score: inf
ROOT
ATOM      1  C   UNL     1      45.299  11.191  12.848  1.00  0.00     0.016 A 
ATOM      2  C   UNL     1      45.872  10.314  13.784  1.00  0.00     0.013 A 
ATOM      3  C   UNL     1      46.139  12.101  12.183  1.00  0.00     0.120 A 
ATOM      4  C   UNL     1      47.245  10.356  14.035  1.00  0.00     0.021 A 
ATOM      5  N   UNL     1      47.474  12.121  12.446  1.00  0.00    -0.264 NA
ATOM      6  C   UNL     1      48.038  11.277  13.349  1.00  0.00     0.111 A 
ENDROOT
BRANCH   1   7
ATOM      7  C   UNL     1      43.846  11.156  12.574  1.00  0.00     0.073 C 
ATOM      8  O   UNL     1      43.203  10.076  12.666  1.00  0.00    -0.545 OA
ATOM      9  O   UNL     1      43.170  12.315  12.212  1.00  0.00    -0.545 OA
ENDBRANCH   1   7
TORSDOF 1
ENDMDL
MODEL 2
REMARK VINA RESULT:    -4.969      3.050      3.612
REMARK INTER + INTRA:          -5.281
REMARK INTER:                  -5.263
REMARK INTRA:                  -0.018
REMARK UNBOUND:                -0.022
REMARK SMILES O=C([O-])c1cccnc1
REMARK SMILES IDX 4 1 5 2 9 3 6 4 8 5 7 6 2 7 1 8 3 9
REMARK H PARENT
REMARK Flexibility Score: inf
ROOT
ATOM      1  C   UNL     1      45.275  12.852  12.960  1.00  0.00     0.016 A 
ATOM      2  C   UNL     1      45.617  11.723  13.724  1.00  0.00     0.013 A 
ATOM      3  C   UNL     1      44.107  12.802  12.180  1.00  0.00     0.120 A 
ATOM      4  C   UNL     1      44.805  10.588  13.699  1.00  0.00     0.021 A 
ATOM      5  N   UNL     1      43.332  11.684  12.174  1.00  0.00    -0.264 NA
ATOM      6  C   UNL     1      43.655  10.587  12.908  1.00  0.00     0.111 A 
ENDROOT
BRANCH   1   7
ATOM      7  C   UNL     1      46.127  14.060  12.979  1.00  0.00     0.073 C 
ATOM      8  O   UNL     1      46.281  14.720  14.041  1.00  0.00    -0.545 OA
ATOM      9  O   UNL     1      46.773  14.484  11.823  1.00  0.00    -0.545 OA
ENDBRANCH   1   7
TORSDOF 1
ENDMDL
MODEL 3
REMARK VINA RESULT:    -4.893      8.407      9.116
REMARK INTER + INTRA:          -5.201
REMARK INTER:                  -5.180
REMARK INTRA:                  -0.021
REMARK UNBOUND:                -0.022
REMARK SMILES O=C([O-])c1cccnc1
REMARK SMILES IDX 4 1 5 2 9 3 6 4 8 5 7 6 2 7 1 8 3 9
REMARK H PARENT
REMARK Flexibility Score: inf
ROOT
ATOM      1  C   UNL     1      51.434  10.548   6.628  1.00  0.00     0.016 A 
ATOM      2  C   UNL     1      51.206  11.227   7.837  1.00  0.00     0.013 A 
ATOM      3  C   UNL     1      50.323  10.193   5.843  1.00  0.00     0.120 A 
ATOM      4  C   UNL     1      49.904  11.536   8.233  1.00  0.00     0.021 A 
ATOM      5  N   UNL     1      49.064  10.505   6.251  1.00  0.00    -0.264 NA
ATOM      6  C   UNL     1      48.834  11.162   7.419  1.00  0.00     0.111 A 
ENDROOT
BRANCH   1   7
ATOM      7  C   UNL     1      52.808  10.215   6.198  1.00  0.00     0.073 C 
ATOM      8  O   UNL     1      53.129  10.266   4.981  1.00  0.00    -0.545 OA
ATOM      9  O   UNL     1      53.767   9.843   7.133  1.00  0.00    -0.545 OA
ENDBRANCH   1   7
TORSDOF 1
ENDMDL
MODEL 4
REMARK VINA RESULT:    -4.892      1.148      1.610
REMARK INTER + INTRA:          -5.200
REMARK INTER:                  -5.184
REMARK INTRA:                  -0.016
REMARK UNBOUND:                -0.022
REMARK SMILES O=C([O-])c1cccnc1
REMARK SMILES IDX 4 1 5 2 9 3 6 4 8 5 7 6 2 7 1 8 3 9
REMARK H PARENT
REMARK Flexibility Score: inf
ROOT
ATOM      1  C   UNL     1      45.000  11.027  12.706  1.00  0.00     0.016 A 
ATOM      2  C   UNL     1      46.073  11.210  11.816  1.00  0.00     0.013 A 
ATOM      3  C   UNL     1      45.290  10.688  14.039  1.00  0.00     0.120 A 
ATOM      4  C   UNL     1      47.387  11.059  12.262  1.00  0.00     0.021 A 
ATOM      5  N   UNL     1      46.579  10.547  14.448  1.00  0.00    -0.264 NA
ATOM      6  C   UNL     1      47.623  10.722  13.596  1.00  0.00     0.111 A 
ENDROOT
BRANCH   1   7
ATOM      7  C   UNL     1      43.604  11.184  12.245  1.00  0.00     0.073 C 
ATOM      8  O   UNL     1      42.911  10.176  11.946  1.00  0.00    -0.545 OA
ATOM      9  O   UNL     1      43.037  12.449  12.138  1.00  0.00    -0.545 OA
ENDBRANCH   1   7
TORSDOF 1
ENDMDL
MODEL 5
REMARK VINA RESULT:    -4.838      2.644      3.523
REMARK INTER + INTRA:          -5.142
REMARK INTER:                  -5.120
REMARK INTRA:                  -0.023
REMARK UNBOUND:                -0.022
REMARK SMILES O=C([O-])c1cccnc1
REMARK SMILES IDX 4 1 5 2 9 3 6 4 8 5 7 6 2 7 1 8 3 9
REMARK H PARENT
REMARK Flexibility Score: inf
ROOT
ATOM      1  C   UNL     1      45.988  11.060  12.925  1.00  0.00     0.016 A 
ATOM      2  C   UNL     1      44.876  10.294  13.314  1.00  0.00     0.013 A 
ATOM      3  C   UNL     1      45.764  12.233  12.184  1.00  0.00     0.120 A 
ATOM      4  C   UNL     1      43.587  10.703  12.967  1.00  0.00     0.021 A 
ATOM      5  N   UNL     1      44.499  12.610  11.858  1.00  0.00    -0.264 NA
ATOM      6  C   UNL     1      43.417  11.876  12.230  1.00  0.00     0.111 A 
ENDROOT
BRANCH   1   7
ATOM      7  C   UNL     1      47.357  10.637  13.287  1.00  0.00     0.073 C 
ATOM      8  O   UNL     1      47.612   9.426  13.527  1.00  0.00    -0.545 OA
ATOM      9  O   UNL     1      48.384  11.570  13.367  1.00  0.00    -0.545 OA
ENDBRANCH   1   7
TORSDOF 1
ENDMDL
MODEL 6
REMARK VINA RESULT:    -4.829      7.798      8.381
REMARK INTER + INTRA:          -5.133
REMARK INTER:                  -5.111
REMARK INTRA:                  -0.022
REMARK UNBOUND:                -0.022
REMARK SMILES O=C([O-])c1cccnc1
REMARK SMILES IDX 4 1 5 2 9 3 6 4 8 5 7 6 2 7 1 8 3 9
REMARK H PARENT
REMARK Flexibility Score: inf
ROOT
ATOM      1  C   UNL     1      50.441  10.624   6.442  1.00  0.00     0.016 A 
ATOM      2  C   UNL     1      51.059  11.190   7.571  1.00  0.00     0.013 A 
ATOM      3  C   UNL     1      51.251   9.978   5.492  1.00  0.00     0.120 A 
ATOM      4  C   UNL     1      52.443  11.102   7.730  1.00  0.00     0.021 A 
ATOM      5  N   UNL     1      52.597   9.907   5.670  1.00  0.00    -0.264 NA
ATOM      6  C   UNL     1      53.203  10.450   6.758  1.00  0.00     0.111 A 
ENDROOT
BRANCH   1   7
ATOM      7  C   UNL     1      48.976  10.711   6.263  1.00  0.00     0.073 C 
ATOM      8  O   UNL     1      48.327  11.677   6.745  1.00  0.00    -0.545 OA
ATOM      9  O   UNL     1      48.294   9.726   5.557  1.00  0.00    -0.545 OA
ENDBRANCH   1   7
TORSDOF 1
ENDMDL
MODEL 7
REMARK VINA RESULT:    -4.708      1.283      1.555
REMARK INTER + INTRA:          -5.005
REMARK INTER:                  -4.986
REMARK INTRA:                  -0.019
REMARK UNBOUND:                -0.022
REMARK SMILES O=C([O-])c1cccnc1
REMARK SMILES IDX 4 1 5 2 9 3 6 4 8 5 7 6 2 7 1 8 3 9
REMARK H PARENT
REMARK Flexibility Score: inf
ROOT
ATOM      1  C   UNL     1      45.668  12.081  12.907  1.00  0.00     0.016 A 
ATOM      2  C   UNL     1      45.422  10.993  13.761  1.00  0.00     0.013 A 
ATOM      3  C   UNL     1      46.984  12.297  12.464  1.00  0.00     0.120 A 
ATOM      4  C   UNL     1      46.469  10.155  14.149  1.00  0.00     0.021 A 
ATOM      5  N   UNL     1      47.987  11.466  12.856  1.00  0.00    -0.264 NA
ATOM      6  C   UNL     1      47.759  10.411  13.682  1.00  0.00     0.111 A 
ENDROOT
BRANCH   1   7
ATOM      7  C   UNL     1      44.567  12.975  12.489  1.00  0.00     0.073 C 
ATOM      8  O   UNL     1      43.512  12.501  11.990  1.00  0.00    -0.545 OA
ATOM      9  O   UNL     1      44.681  14.351  12.644  1.00  0.00    -0.545 OA
ENDBRANCH   1   7
TORSDOF 1
ENDMDL
MODEL 8
REMARK VINA RESULT:    -4.706      2.741      3.276
REMARK INTER + INTRA:          -5.002
REMARK INTER:                  -4.986
REMARK INTRA:                  -0.016
REMARK UNBOUND:                -0.022
REMARK SMILES O=C([O-])c1cccnc1
REMARK SMILES IDX 4 1 5 2 9 3 6 4 8 5 7 6 2 7 1 8 3 9
REMARK H PARENT
REMARK Flexibility Score: inf
ROOT
ATOM      1  C   UNL     1      46.628  12.542  13.085  1.00  0.00     0.016 A 
ATOM      2  C   UNL     1      47.767  11.721  13.151  1.00  0.00     0.013 A 
ATOM      3  C   UNL     1      45.383  11.985  13.425  1.00  0.00     0.120 A 
ATOM      4  C   UNL     1      47.648  10.388  13.547  1.00  0.00     0.021 A 
ATOM      5  N   UNL     1      45.294  10.683  13.808  1.00  0.00    -0.264 NA
ATOM      6  C   UNL     1      46.390   9.881  13.875  1.00  0.00     0.111 A 
ENDROOT
BRANCH   1   7
ATOM      7  C   UNL     1      46.742  13.955  12.667  1.00  0.00     0.073 C 
ATOM      8  O   UNL     1      46.694  14.882  13.520  1.00  0.00    -0.545 OA
ATOM      9  O   UNL     1      46.903  14.282  11.326  1.00  0.00    -0.545 OA
ENDBRANCH   1   7
TORSDOF 1
ENDMDL
MODEL 9
REMARK VINA RESULT:    -4.673      6.172      6.824
REMARK INTER + INTRA:          -4.968
REMARK INTER:                  -4.952
REMARK INTRA:                  -0.017
REMARK UNBOUND:                -0.022
REMARK SMILES O=C([O-])c1cccnc1
REMARK SMILES IDX 4 1 5 2 9 3 6 4 8 5 7 6 2 7 1 8 3 9
REMARK H PARENT
REMARK Flexibility Score: inf
ROOT
ATOM      1  C   UNL     1      49.073  11.315   7.827  1.00  0.00     0.016 A 
ATOM      2  C   UNL     1      50.455  11.395   8.064  1.00  0.00     0.013 A 
ATOM      3  C   UNL     1      48.634  10.719   6.631  1.00  0.00     0.120 A 
ATOM      4  C   UNL     1      51.358  10.888   7.128  1.00  0.00     0.021 A 
ATOM      5  N   UNL     1      49.534  10.233   5.735  1.00  0.00    -0.264 NA
ATOM      6  C   UNL     1      50.873  10.305   5.956  1.00  0.00     0.111 A 
ENDROOT
BRANCH   1   7
ATOM      7  C   UNL     1      48.107  11.849   8.811  1.00  0.00     0.073 C 
ATOM      8  O   UNL     1      47.942  13.091   8.938  1.00  0.00    -0.545 OA
ATOM      9  O   UNL     1      47.366  10.985   9.609  1.00  0.00    -0.545 OA
ENDBRANCH   1   7
TORSDOF 1
ENDMDL
