MODEL 1
REMARK VINA RESULT:    -6.187      0.000      0.000
REMARK INTER + INTRA:          -6.187
REMARK INTER:                  -6.187
REMARK INTRA:                   0.000
REMARK UNBOUND:                 0.000
REMARK SMILES Cc1cccc2ccccc12
REMARK SMILES IDX 1 1 2 2 3 3 4 4 5 5 6 6 7 7 8 8 9 9 10 10 11 11
REMARK H PARENT
REMARK Flexibility Score: inf
ROOT
ATOM      1  C   UNL     1     -19.995  52.121  -1.317  1.00  0.00     0.045 C 
ATOM      2  C   UNL     1     -20.646  53.398  -1.785  1.00  0.00    -0.043 A 
ATOM      3  C   UNL     1     -22.014  53.594  -1.534  1.00  0.00     0.004 A 
ATOM      4  C   UNL     1     -22.657  54.760  -1.949  1.00  0.00     0.001 A 
ATOM      5  C   UNL     1     -21.948  55.752  -2.623  1.00  0.00     0.009 A 
ATOM      6  C   UNL     1     -20.582  55.587  -2.890  1.00  0.00    -0.018 A 
ATOM      7  C   UNL     1     -19.873  56.591  -3.569  1.00  0.00     0.009 A 
ATOM      8  C   UNL     1     -18.513  56.433  -3.837  1.00  0.00     0.001 A 
ATOM      9  C   UNL     1     -17.849  55.277  -3.432  1.00  0.00     0.001 A 
ATOM     10  C   UNL     1     -18.538  54.267  -2.755  1.00  0.00     0.009 A 
ATOM     11  C   UNL     1     -19.914  54.404  -2.472  1.00  0.00    -0.015 A 
ENDROOT
TORSDOF 0
ENDMDL
MODEL 2
REMARK VINA RESULT:    -6.036      0.740      2.543
REMARK INTER + INTRA:          -6.036
REMARK INTER:                  -6.036
REMARK INTRA:                   0.000
REMARK UNBOUND:                 0.000
REMARK SMILES Cc1cccc2ccccc12
REMARK SMILES IDX 1 1 2 2 3 3 4 4 5 5 6 6 7 7 8 8 9 9 10 10 11 11
REMARK H PARENT
REMARK Flexibility Score: inf
ROOT
ATOM      1  C   UNL     1     -22.843  55.664  -2.235  1.00  0.00     0.045 C 
ATOM      2  C   UNL     1     -21.665  54.725  -2.170  1.00  0.00    -0.043 A 
ATOM      3  C   UNL     1     -21.844  53.450  -1.607  1.00  0.00     0.004 A 
ATOM      4  C   UNL     1     -20.782  52.549  -1.527  1.00  0.00     0.001 A 
ATOM      5  C   UNL     1     -19.522  52.903  -2.007  1.00  0.00     0.009 A 
ATOM      6  C   UNL     1     -19.311  54.167  -2.574  1.00  0.00    -0.018 A 
ATOM      7  C   UNL     1     -18.039  54.516  -3.055  1.00  0.00     0.009 A 
ATOM      8  C   UNL     1     -17.823  55.773  -3.621  1.00  0.00     0.001 A 
ATOM      9  C   UNL     1     -18.868  56.690  -3.712  1.00  0.00     0.001 A 
ATOM     10  C   UNL     1     -20.140  56.360  -3.239  1.00  0.00     0.009 A 
ATOM     11  C   UNL     1     -20.384  55.095  -2.662  1.00  0.00    -0.015 A 
ENDROOT
TORSDOF 0
ENDMDL
MODEL 3
REMARK VINA RESULT:    -5.798      1.901      4.147
REMARK INTER + INTRA:          -5.798
REMARK INTER:                  -5.798
REMARK INTRA:                   0.000
REMARK UNBOUND:                 0.000
REMARK SMILES Cc1cccc2ccccc12
REMARK SMILES IDX 1 1 2 2 3 3 4 4 5 5 6 6 7 7 8 8 9 9 10 10 11 11
REMARK H PARENT
REMARK Flexibility Score: inf
ROOT
ATOM      1  C   UNL     1     -16.695  56.117   0.128  1.00  0.00     0.045 C 
ATOM      2  C   UNL     1     -17.342  55.803  -1.197  1.00  0.00    -0.043 A 
ATOM      3  C   UNL     1     -17.056  56.621  -2.303  1.00  0.00     0.004 A 
ATOM      4  C   UNL     1     -17.632  56.368  -3.547  1.00  0.00     0.001 A 
ATOM      5  C   UNL     1     -18.504  55.293  -3.713  1.00  0.00     0.009 A 
ATOM      6  C   UNL     1     -18.810  54.458  -2.630  1.00  0.00    -0.018 A 
ATOM      7  C   UNL     1     -19.689  53.377  -2.805  1.00  0.00     0.009 A 
ATOM      8  C   UNL     1     -19.997  52.542  -1.730  1.00  0.00     0.001 A 
ATOM      9  C   UNL     1     -19.434  52.775  -0.477  1.00  0.00     0.001 A 
ATOM     10  C   UNL     1     -18.557  53.845  -0.285  1.00  0.00     0.009 A 
ATOM     11  C   UNL     1     -18.230  54.704  -1.356  1.00  0.00    -0.015 A 
ENDROOT
TORSDOF 0
ENDMDL
MODEL 4
REMARK VINA RESULT:    -5.762      0.813      3.274
REMARK INTER + INTRA:          -5.762
REMARK INTER:                  -5.762
REMARK INTRA:                   0.000
REMARK UNBOUND:                 0.000
REMARK SMILES Cc1cccc2ccccc12
REMARK SMILES IDX 1 1 2 2 3 3 4 4 5 5 6 6 7 7 8 8 9 9 10 10 11 11
REMARK H PARENT
REMARK Flexibility Score: inf
ROOT
ATOM      1  C   UNL     1     -19.957  51.966  -1.210  1.00  0.00     0.045 C 
ATOM      2  C   UNL     1     -19.877  53.292  -1.923  1.00  0.00    -0.043 A 
ATOM      3  C   UNL     1     -18.660  53.674  -2.513  1.00  0.00     0.004 A 
ATOM      4  C   UNL     1     -18.541  54.891  -3.182  1.00  0.00     0.001 A 
ATOM      5  C   UNL     1     -19.634  55.751  -3.276  1.00  0.00     0.009 A 
ATOM      6  C   UNL     1     -20.861  55.400  -2.699  1.00  0.00    -0.018 A 
ATOM      7  C   UNL     1     -21.958  56.272  -2.798  1.00  0.00     0.009 A 
ATOM      8  C   UNL     1     -23.183  55.928  -2.226  1.00  0.00     0.001 A 
ATOM      9  C   UNL     1     -23.326  54.717  -1.552  1.00  0.00     0.001 A 
ATOM     10  C   UNL     1     -22.246  53.837  -1.443  1.00  0.00     0.009 A 
ATOM     11  C   UNL     1     -20.997  54.162  -2.014  1.00  0.00    -0.015 A 
ENDROOT
TORSDOF 0
ENDMDL
MODEL 5
REMARK VINA RESULT:    -5.751      1.961      2.687
REMARK INTER + INTRA:          -5.751
REMARK INTER:                  -5.751
REMARK INTRA:                   0.000
REMARK UNBOUND:                 0.000
REMARK SMILES Cc1cccc2ccccc12
REMARK SMILES IDX 1 1 2 2 3 3 4 4 5 5 6 6 7 7 8 8 9 9 10 10 11 11
REMARK H PARENT
REMARK Flexibility Score: inf
ROOT
ATOM      1  C   UNL     1     -17.716  54.381   0.864  1.00  0.00     0.045 C 
ATOM      2  C   UNL     1     -18.324  54.121  -0.491  1.00  0.00    -0.043 A 
ATOM      3  C   UNL     1     -19.183  53.021  -0.649  1.00  0.00     0.004 A 
ATOM      4  C   UNL     1     -19.767  52.742  -1.884  1.00  0.00     0.001 A 
ATOM      5  C   UNL     1     -19.506  53.556  -2.985  1.00  0.00     0.009 A 
ATOM      6  C   UNL     1     -18.653  54.661  -2.860  1.00  0.00    -0.018 A 
ATOM      7  C   UNL     1     -18.395  55.477  -3.974  1.00  0.00     0.009 A 
ATOM      8  C   UNL     1     -17.547  56.579  -3.856  1.00  0.00     0.001 A 
ATOM      9  C   UNL     1     -16.951  56.877  -2.632  1.00  0.00     0.001 A 
ATOM     10  C   UNL     1     -17.197  56.077  -1.513  1.00  0.00     0.009 A 
ATOM     11  C   UNL     1     -18.051  54.957  -1.608  1.00  0.00    -0.015 A 
ENDROOT
TORSDOF 0
ENDMDL
MODEL 6
REMARK VINA RESULT:    -5.675      0.951      3.796
REMARK INTER + INTRA:          -5.675
REMARK INTER:                  -5.675
REMARK INTRA:                   0.000
REMARK UNBOUND:                 0.000
REMARK SMILES Cc1cccc2ccccc12
REMARK SMILES IDX 1 1 2 2 3 3 4 4 5 5 6 6 7 7 8 8 9 9 10 10 11 11
REMARK H PARENT
REMARK Flexibility Score: inf
ROOT
ATOM      1  C   UNL     1     -18.492  56.455  -3.673  1.00  0.00     0.045 C 
ATOM      2  C   UNL     1     -19.265  55.310  -3.069  1.00  0.00    -0.043 A 
ATOM      3  C   UNL     1     -18.609  54.085  -2.857  1.00  0.00     0.004 A 
ATOM      4  C   UNL     1     -19.284  53.000  -2.302  1.00  0.00     0.001 A 
ATOM      5  C   UNL     1     -20.627  53.114  -1.947  1.00  0.00     0.009 A 
ATOM      6  C   UNL     1     -21.310  54.322  -2.146  1.00  0.00    -0.018 A 
ATOM      7  C   UNL     1     -22.663  54.429  -1.785  1.00  0.00     0.009 A 
ATOM      8  C   UNL     1     -23.349  55.629  -1.981  1.00  0.00     0.001 A 
ATOM      9  C   UNL     1     -22.695  56.728  -2.535  1.00  0.00     0.001 A 
ATOM     10  C   UNL     1     -21.349  56.639  -2.899  1.00  0.00     0.009 A 
ATOM     11  C   UNL     1     -20.634  55.436  -2.711  1.00  0.00    -0.015 A 
ENDROOT
TORSDOF 0
ENDMDL
MODEL 7
REMARK VINA RESULT:    -5.650      0.855      4.124
REMARK INTER + INTRA:          -5.650
REMARK INTER:                  -5.650
REMARK INTRA:                   0.000
REMARK UNBOUND:                 0.000
REMARK SMILES Cc1cccc2ccccc12
REMARK SMILES IDX 1 1 2 2 3 3 4 4 5 5 6 6 7 7 8 8 9 9 10 10 11 11
REMARK H PARENT
REMARK Flexibility Score: inf
ROOT
ATOM      1  C   UNL     1     -21.440  56.925  -3.215  1.00  0.00     0.045 C 
ATOM      2  C   UNL     1     -20.189  56.091  -3.103  1.00  0.00    -0.043 A 
ATOM      3  C   UNL     1     -18.988  56.596  -3.630  1.00  0.00     0.004 A 
ATOM      4  C   UNL     1     -17.807  55.859  -3.549  1.00  0.00     0.001 A 
ATOM      5  C   UNL     1     -17.801  54.605  -2.940  1.00  0.00     0.009 A 
ATOM      6  C   UNL     1     -18.982  54.074  -2.405  1.00  0.00    -0.018 A 
ATOM      7  C   UNL     1     -18.968  52.810  -1.793  1.00  0.00     0.009 A 
ATOM      8  C   UNL     1     -20.140  52.275  -1.258  1.00  0.00     0.001 A 
ATOM      9  C   UNL     1     -21.333  52.993  -1.328  1.00  0.00     0.001 A 
ATOM     10  C   UNL     1     -21.366  54.252  -1.932  1.00  0.00     0.009 A 
ATOM     11  C   UNL     1     -20.193  54.814  -2.481  1.00  0.00    -0.015 A 
ENDROOT
TORSDOF 0
ENDMDL
MODEL 8
REMARK VINA RESULT:    -5.618      0.853      3.337
REMARK INTER + INTRA:          -5.618
REMARK INTER:                  -5.618
REMARK INTRA:                   0.000
REMARK UNBOUND:                 0.000
REMARK SMILES Cc1cccc2ccccc12
REMARK SMILES IDX 1 1 2 2 3 3 4 4 5 5 6 6 7 7 8 8 9 9 10 10 11 11
REMARK H PARENT
REMARK Flexibility Score: inf
ROOT
ATOM      1  C   UNL     1     -17.865  55.644  -3.669  1.00  0.00     0.045 C 
ATOM      2  C   UNL     1     -19.300  55.592  -3.211  1.00  0.00    -0.043 A 
ATOM      3  C   UNL     1     -20.176  56.617  -3.607  1.00  0.00     0.004 A 
ATOM      4  C   UNL     1     -21.512  56.610  -3.207  1.00  0.00     0.001 A 
ATOM      5  C   UNL     1     -21.999  55.580  -2.405  1.00  0.00     0.009 A 
ATOM      6  C   UNL     1     -21.152  54.543  -1.993  1.00  0.00    -0.018 A 
ATOM      7  C   UNL     1     -21.651  53.508  -1.184  1.00  0.00     0.009 A 
ATOM      8  C   UNL     1     -20.811  52.473  -0.771  1.00  0.00     0.001 A 
ATOM      9  C   UNL     1     -19.473  52.459  -1.159  1.00  0.00     0.001 A 
ATOM     10  C   UNL     1     -18.959  53.479  -1.963  1.00  0.00     0.009 A 
ATOM     11  C   UNL     1     -19.788  54.538  -2.393  1.00  0.00    -0.015 A 
ENDROOT
TORSDOF 0
ENDMDL
MODEL 9
REMARK VINA RESULT:    -5.523      1.978      4.406
REMARK INTER + INTRA:          -5.523
REMARK INTER:                  -5.523
REMARK INTRA:                   0.000
REMARK UNBOUND:                 0.000
REMARK SMILES Cc1cccc2ccccc12
REMARK SMILES IDX 1 1 2 2 3 3 4 4 5 5 6 6 7 7 8 8 9 9 10 10 11 11
REMARK H PARENT
REMARK Flexibility Score: inf
ROOT
ATOM      1  C   UNL     1     -18.009  56.561  -3.616  1.00  0.00     0.045 C 
ATOM      2  C   UNL     1     -17.958  55.963  -2.233  1.00  0.00    -0.043 A 
ATOM      3  C   UNL     1     -17.187  56.601  -1.246  1.00  0.00     0.004 A 
ATOM      4  C   UNL     1     -17.111  56.083   0.046  1.00  0.00     0.001 A 
ATOM      5  C   UNL     1     -17.803  54.920   0.379  1.00  0.00     0.009 A 
ATOM      6  C   UNL     1     -18.580  54.260  -0.582  1.00  0.00    -0.018 A 
ATOM      7  C   UNL     1     -19.274  53.088  -0.239  1.00  0.00     0.009 A 
ATOM      8  C   UNL     1     -20.050  52.427  -1.191  1.00  0.00     0.001 A 
ATOM      9  C   UNL     1     -20.141  52.925  -2.490  1.00  0.00     0.001 A 
ATOM     10  C   UNL     1     -19.458  54.090  -2.849  1.00  0.00     0.009 A 
ATOM     11  C   UNL     1     -18.667  54.777  -1.903  1.00  0.00    -0.015 A 
ENDROOT
TORSDOF 0
ENDMDL
