MODEL 1
REMARK VINA RESULT:    -4.878      0.000      0.000
REMARK INTER + INTRA:          -6.162
REMARK INTER:                  -5.876
REMARK INTRA:                  -0.286
REMARK UNBOUND:                -0.286
REMARK SMILES C=CCc1ccc(O)c(OC)c1
REMARK SMILES IDX 9 1 7 2 6 3 5 4 4 5 12 6 10 7 11 8 8 9 3 11 2 12 1 13
REMARK H PARENT 8 10
REMARK Flexibility Score: inf
ROOT
ATOM      1  C   UNL     1     178.981 191.018 199.075  1.00  0.00     0.160 A 
ATOM      2  C   UNL     1     179.990 190.064 198.849  1.00  0.00     0.157 A 
ATOM      3  C   UNL     1     180.845 189.688 199.890  1.00  0.00     0.050 A 
ATOM      4  C   UNL     1     180.703 190.249 201.160  1.00  0.00     0.008 A 
ATOM      5  C   UNL     1     179.695 191.192 201.407  1.00  0.00    -0.040 A 
ATOM      6  C   UNL     1     178.843 191.580 200.360  1.00  0.00     0.054 A 
ENDROOT
BRANCH   1   7
ATOM      7  O   UNL     1     178.141 191.382 198.011  1.00  0.00    -0.493 OA
ATOM      8  C   UNL     1     178.312 192.544 197.207  1.00  0.00     0.278 C 
ENDBRANCH   1   7
BRANCH   2   9
ATOM      9  O   UNL     1     180.162 189.482 197.593  1.00  0.00    -0.504 OA
ATOM     10  H   UNL     1     180.533 188.547 197.478  1.00  0.00     0.293 HD
ENDBRANCH   2   9
BRANCH   5  11
ATOM     11  C   UNL     1     179.558 191.821 202.767  1.00  0.00     0.062 C 
BRANCH  11  12
ATOM     12  C   UNL     1     180.757 192.669 203.087  1.00  0.00    -0.030 C 
ATOM     13  C   UNL     1     181.033 193.782 202.399  1.00  0.00     0.004 C 
ENDBRANCH  11  12
ENDBRANCH   5  11
TORSDOF 4
ENDMDL
MODEL 2
REMARK VINA RESULT:    -4.675     12.253     14.466
REMARK INTER + INTRA:          -5.918
REMARK INTER:                  -5.716
REMARK INTRA:                  -0.202
REMARK UNBOUND:                -0.286
REMARK SMILES C=CCc1ccc(O)c(OC)c1
REMARK SMILES IDX 9 1 7 2 6 3 5 4 4 5 12 6 10 7 11 8 8 9 3 11 2 12 1 13
REMARK H PARENT 8 10
REMARK Flexibility Score: inf
ROOT
ATOM      1  C   UNL     1     184.612 189.431 188.443  1.00  0.00     0.160 A 
ATOM      2  C   UNL     1     184.198 190.575 189.148  1.00  0.00     0.157 A 
ATOM      3  C   UNL     1     184.659 191.839 188.767  1.00  0.00     0.050 A 
ATOM      4  C   UNL     1     185.528 191.977 187.683  1.00  0.00     0.008 A 
ATOM      5  C   UNL     1     185.942 190.848 186.961  1.00  0.00    -0.040 A 
ATOM      6  C   UNL     1     185.489 189.577 187.350  1.00  0.00     0.054 A 
ENDROOT
BRANCH   1   7
ATOM      7  O   UNL     1     184.138 188.174 188.851  1.00  0.00    -0.493 OA
ATOM      8  C   UNL     1     183.230 187.371 188.105  1.00  0.00     0.278 C 
ENDBRANCH   1   7
BRANCH   2   9
ATOM      9  O   UNL     1     183.331 190.476 190.236  1.00  0.00    -0.504 OA
ATOM     10  H   UNL     1     182.511 191.063 190.329  1.00  0.00     0.293 HD
ENDBRANCH   2   9
BRANCH   5  11
ATOM     11  C   UNL     1     186.902 190.991 185.811  1.00  0.00     0.062 C 
BRANCH  11  12
ATOM     12  C   UNL     1     186.769 189.836 184.858  1.00  0.00    -0.030 C 
ATOM     13  C   UNL     1     187.821 189.086 184.513  1.00  0.00     0.004 C 
ENDBRANCH  11  12
ENDBRANCH   5  11
TORSDOF 4
ENDMDL
MODEL 3
REMARK VINA RESULT:    -4.566     10.684     12.537
REMARK INTER + INTRA:          -5.786
REMARK INTER:                  -5.563
REMARK INTRA:                  -0.223
REMARK UNBOUND:                -0.286
REMARK SMILES C=CCc1ccc(O)c(OC)c1
REMARK SMILES IDX 9 1 7 2 6 3 5 4 4 5 12 6 10 7 11 8 8 9 3 11 2 12 1 13
REMARK H PARENT 8 10
REMARK Flexibility Score: inf
ROOT
ATOM      1  C   UNL     1     184.323 190.839 189.573  1.00  0.00     0.160 A 
ATOM      2  C   UNL     1     184.360 190.808 188.168  1.00  0.00     0.157 A 
ATOM      3  C   UNL     1     185.094 191.768 187.464  1.00  0.00     0.050 A 
ATOM      4  C   UNL     1     185.799 192.761 188.147  1.00  0.00     0.008 A 
ATOM      5  C   UNL     1     185.782 192.800 189.550  1.00  0.00    -0.040 A 
ATOM      6  C   UNL     1     185.037 191.844 190.257  1.00  0.00     0.054 A 
ENDROOT
BRANCH   1   7
ATOM      7  O   UNL     1     183.573 189.867 190.254  1.00  0.00    -0.493 OA
ATOM      8  C   UNL     1     184.071 189.058 191.315  1.00  0.00     0.278 C 
ENDBRANCH   1   7
BRANCH   2   9
ATOM      9  O   UNL     1     183.668 189.832 187.450  1.00  0.00    -0.504 OA
ATOM     10  H   UNL     1     184.135 189.035 187.035  1.00  0.00     0.293 HD
ENDBRANCH   2   9
BRANCH   5  11
ATOM     11  C   UNL     1     186.517 193.886 190.288  1.00  0.00     0.062 C 
BRANCH  11  12
ATOM     12  C   UNL     1     186.493 195.172 189.510  1.00  0.00    -0.030 C 
ATOM     13  C   UNL     1     187.559 195.978 189.453  1.00  0.00     0.004 C 
ENDBRANCH  11  12
ENDBRANCH   5  11
TORSDOF 4
ENDMDL
MODEL 4
REMARK VINA RESULT:    -4.508     13.014     14.351
REMARK INTER + INTRA:          -5.716
REMARK INTER:                  -5.529
REMARK INTRA:                  -0.188
REMARK UNBOUND:                -0.286
REMARK SMILES C=CCc1ccc(O)c(OC)c1
REMARK SMILES IDX 9 1 7 2 6 3 5 4 4 5 12 6 10 7 11 8 8 9 3 11 2 12 1 13
REMARK H PARENT 8 10
REMARK Flexibility Score: inf
ROOT
ATOM      1  C   UNL     1     186.501 190.873 186.631  1.00  0.00     0.160 A 
ATOM      2  C   UNL     1     185.327 190.107 186.514  1.00  0.00     0.157 A 
ATOM      3  C   UNL     1     184.236 190.364 187.351  1.00  0.00     0.050 A 
ATOM      4  C   UNL     1     184.300 191.383 188.303  1.00  0.00     0.008 A 
ATOM      5  C   UNL     1     185.458 192.164 188.425  1.00  0.00    -0.040 A 
ATOM      6  C   UNL     1     186.559 191.900 187.594  1.00  0.00     0.054 A 
ENDROOT
BRANCH   1   7
ATOM      7  O   UNL     1     187.583 190.589 185.782  1.00  0.00    -0.493 OA
ATOM      8  C   UNL     1     187.762 191.149 184.486  1.00  0.00     0.278 C 
ENDBRANCH   1   7
BRANCH   2   9
ATOM      9  O   UNL     1     185.226 189.081 185.575  1.00  0.00    -0.504 OA
ATOM     10  H   UNL     1     186.020 188.508 185.314  1.00  0.00     0.293 HD
ENDBRANCH   2   9
BRANCH   5  11
ATOM     11  C   UNL     1     185.541 193.243 189.471  1.00  0.00     0.062 C 
BRANCH  11  12
ATOM     12  C   UNL     1     186.769 194.087 189.272  1.00  0.00    -0.030 C 
ATOM     13  C   UNL     1     186.797 195.378 189.617  1.00  0.00     0.004 C 
ENDBRANCH  11  12
ENDBRANCH   5  11
TORSDOF 4
ENDMDL
MODEL 5
REMARK VINA RESULT:    -4.493     12.631     14.786
REMARK INTER + INTRA:          -5.699
REMARK INTER:                  -5.468
REMARK INTRA:                  -0.231
REMARK UNBOUND:                -0.286
REMARK SMILES C=CCc1ccc(O)c(OC)c1
REMARK SMILES IDX 9 1 7 2 6 3 5 4 4 5 12 6 10 7 11 8 8 9 3 11 2 12 1 13
REMARK H PARENT 8 10
REMARK Flexibility Score: inf
ROOT
ATOM      1  C   UNL     1     185.253 191.848 188.535  1.00  0.00     0.160 A 
ATOM      2  C   UNL     1     184.336 190.786 188.634  1.00  0.00     0.157 A 
ATOM      3  C   UNL     1     184.341 189.765 187.679  1.00  0.00     0.050 A 
ATOM      4  C   UNL     1     185.256 189.786 186.624  1.00  0.00     0.008 A 
ATOM      5  C   UNL     1     186.185 190.831 186.517  1.00  0.00    -0.040 A 
ATOM      6  C   UNL     1     186.174 191.864 187.468  1.00  0.00     0.054 A 
ENDROOT
BRANCH   1   7
ATOM      7  O   UNL     1     185.222 192.863 189.504  1.00  0.00    -0.493 OA
ATOM      8  C   UNL     1     185.995 194.057 189.450  1.00  0.00     0.278 C 
ENDBRANCH   1   7
BRANCH   2   9
ATOM      9  O   UNL     1     183.407 190.731 189.673  1.00  0.00    -0.504 OA
ATOM     10  H   UNL     1     183.278 189.901 190.239  1.00  0.00     0.293 HD
ENDBRANCH   2   9
BRANCH   5  11
ATOM     11  C   UNL     1     187.153 190.873 185.366  1.00  0.00     0.062 C 
BRANCH  11  12
ATOM     12  C   UNL     1     187.124 189.581 184.597  1.00  0.00    -0.030 C 
ATOM     13  C   UNL     1     188.203 188.796 184.503  1.00  0.00     0.004 C 
ENDBRANCH  11  12
ENDBRANCH   5  11
TORSDOF 4
ENDMDL
MODEL 6
REMARK VINA RESULT:    -4.430     10.617     12.467
REMARK INTER + INTRA:          -5.623
REMARK INTER:                  -5.411
REMARK INTRA:                  -0.212
REMARK UNBOUND:                -0.286
REMARK SMILES C=CCc1ccc(O)c(OC)c1
REMARK SMILES IDX 9 1 7 2 6 3 5 4 4 5 12 6 10 7 11 8 8 9 3 11 2 12 1 13
REMARK H PARENT 8 10
REMARK Flexibility Score: inf
ROOT
ATOM      1  C   UNL     1     183.905 188.560 189.430  1.00  0.00     0.160 A 
ATOM      2  C   UNL     1     183.951 188.435 188.030  1.00  0.00     0.157 A 
ATOM      3  C   UNL     1     184.347 189.521 187.242  1.00  0.00     0.050 A 
ATOM      4  C   UNL     1     184.704 190.733 187.836  1.00  0.00     0.008 A 
ATOM      5  C   UNL     1     184.674 190.872 189.231  1.00  0.00    -0.040 A 
ATOM      6  C   UNL     1     184.266 189.787 190.023  1.00  0.00     0.054 A 
ENDROOT
BRANCH   1   7
ATOM      7  O   UNL     1     183.498 187.456 190.196  1.00  0.00    -0.493 OA
ATOM      8  C   UNL     1     182.440 187.479 191.148  1.00  0.00     0.278 C 
ENDBRANCH   1   7
BRANCH   2   9
ATOM      9  O   UNL     1     183.603 187.240 187.401  1.00  0.00    -0.504 OA
ATOM     10  H   UNL     1     182.641 186.998 187.197  1.00  0.00     0.293 HD
ENDBRANCH   2   9
BRANCH   5  11
ATOM     11  C   UNL     1     185.030 192.186 189.873  1.00  0.00     0.062 C 
BRANCH  11  12
ATOM     12  C   UNL     1     185.757 193.074 188.903  1.00  0.00    -0.030 C 
ATOM     13  C   UNL     1     186.165 194.301 189.244  1.00  0.00     0.004 C 
ENDBRANCH  11  12
ENDBRANCH   5  11
TORSDOF 4
ENDMDL
MODEL 7
REMARK VINA RESULT:    -4.358      1.487      2.140
REMARK INTER + INTRA:          -5.536
REMARK INTER:                  -5.443
REMARK INTRA:                  -0.093
REMARK UNBOUND:                -0.286
REMARK SMILES C=CCc1ccc(O)c(OC)c1
REMARK SMILES IDX 9 1 7 2 6 3 5 4 4 5 12 6 10 7 11 8 8 9 3 11 2 12 1 13
REMARK H PARENT 8 10
REMARK Flexibility Score: inf
ROOT
ATOM      1  C   UNL     1     180.367 190.046 199.913  1.00  0.00     0.160 A 
ATOM      2  C   UNL     1     181.262 189.098 200.441  1.00  0.00     0.157 A 
ATOM      3  C   UNL     1     181.813 189.288 201.713  1.00  0.00     0.050 A 
ATOM      4  C   UNL     1     181.479 190.413 202.469  1.00  0.00     0.008 A 
ATOM      5  C   UNL     1     180.579 191.362 201.962  1.00  0.00    -0.040 A 
ATOM      6  C   UNL     1     180.033 191.180 200.681  1.00  0.00     0.054 A 
ENDROOT
BRANCH   1   7
ATOM      7  O   UNL     1     179.833 189.834 198.632  1.00  0.00    -0.493 OA
ATOM      8  C   UNL     1     178.487 190.114 198.260  1.00  0.00     0.278 C 
ENDBRANCH   1   7
BRANCH   2   9
ATOM      9  O   UNL     1     181.619 187.962 199.716  1.00  0.00    -0.504 OA
ATOM     10  H   UNL     1     181.001 187.166 199.620  1.00  0.00     0.293 HD
ENDBRANCH   2   9
BRANCH   5  11
ATOM     11  C   UNL     1     180.239 192.591 202.762  1.00  0.00     0.062 C 
BRANCH  11  12
ATOM     12  C   UNL     1     178.781 192.605 203.125  1.00  0.00    -0.030 C 
ATOM     13  C   UNL     1     177.883 193.280 202.399  1.00  0.00     0.004 C 
ENDBRANCH  11  12
ENDBRANCH   5  11
TORSDOF 4
ENDMDL
MODEL 8
REMARK VINA RESULT:    -4.238     13.516     15.126
REMARK INTER + INTRA:          -5.391
REMARK INTER:                  -5.174
REMARK INTRA:                  -0.217
REMARK UNBOUND:                -0.286
REMARK SMILES C=CCc1ccc(O)c(OC)c1
REMARK SMILES IDX 9 1 7 2 6 3 5 4 4 5 12 6 10 7 11 8 8 9 3 11 2 12 1 13
REMARK H PARENT 8 10
REMARK Flexibility Score: inf
ROOT
ATOM      1  C   UNL     1     187.170 190.835 185.863  1.00  0.00     0.160 A 
ATOM      2  C   UNL     1     186.310 189.832 185.382  1.00  0.00     0.157 A 
ATOM      3  C   UNL     1     185.091 189.587 186.023  1.00  0.00     0.050 A 
ATOM      4  C   UNL     1     184.715 190.337 187.139  1.00  0.00     0.008 A 
ATOM      5  C   UNL     1     185.556 191.350 187.624  1.00  0.00    -0.040 A 
ATOM      6  C   UNL     1     186.785 191.589 186.989  1.00  0.00     0.054 A 
ENDROOT
BRANCH   1   7
ATOM      7  O   UNL     1     188.390 191.055 185.204  1.00  0.00    -0.493 OA
ATOM      8  C   UNL     1     189.654 190.589 185.665  1.00  0.00     0.278 C 
ENDBRANCH   1   7
BRANCH   2   9
ATOM      9  O   UNL     1     186.652 189.062 184.270  1.00  0.00    -0.504 OA
ATOM     10  H   UNL     1     185.986 188.455 183.809  1.00  0.00     0.293 HD
ENDBRANCH   2   9
BRANCH   5  11
ATOM     11  C   UNL     1     185.167 192.141 188.844  1.00  0.00     0.062 C 
BRANCH  11  12
ATOM     12  C   UNL     1     186.271 193.077 189.248  1.00  0.00    -0.030 C 
ATOM     13  C   UNL     1     186.035 194.364 189.523  1.00  0.00     0.004 C 
ENDBRANCH  11  12
ENDBRANCH   5  11
TORSDOF 4
ENDMDL
MODEL 9
REMARK VINA RESULT:    -4.038     10.384     11.469
REMARK INTER + INTRA:          -5.151
REMARK INTER:                  -4.948
REMARK INTRA:                  -0.203
REMARK UNBOUND:                -0.286
REMARK SMILES C=CCc1ccc(O)c(OC)c1
REMARK SMILES IDX 9 1 7 2 6 3 5 4 4 5 12 6 10 7 11 8 8 9 3 11 2 12 1 13
REMARK H PARENT 8 10
REMARK Flexibility Score: inf
ROOT
ATOM      1  C   UNL     1     183.804 188.130 190.320  1.00  0.00     0.160 A 
ATOM      2  C   UNL     1     184.404 187.551 191.453  1.00  0.00     0.157 A 
ATOM      3  C   UNL     1     185.242 188.316 192.270  1.00  0.00     0.050 A 
ATOM      4  C   UNL     1     185.487 189.658 191.974  1.00  0.00     0.008 A 
ATOM      5  C   UNL     1     184.888 190.255 190.855  1.00  0.00    -0.040 A 
ATOM      6  C   UNL     1     184.055 189.485 190.026  1.00  0.00     0.054 A 
ENDROOT
BRANCH   1   7
ATOM      7  O   UNL     1     182.972 187.337 189.514  1.00  0.00    -0.493 OA
ATOM      8  C   UNL     1     183.162 187.125 188.119  1.00  0.00     0.278 C 
ENDBRANCH   1   7
BRANCH   2   9
ATOM      9  O   UNL     1     184.183 186.214 191.781  1.00  0.00    -0.504 OA
ATOM     10  H   UNL     1     183.806 185.933 192.678  1.00  0.00     0.293 HD
ENDBRANCH   2   9
BRANCH   5  11
ATOM     11  C   UNL     1     185.173 191.693 190.516  1.00  0.00     0.062 C 
BRANCH  11  12
ATOM     12  C   UNL     1     184.921 191.958 189.058  1.00  0.00    -0.030 C 
ATOM     13  C   UNL     1     185.730 192.743 188.337  1.00  0.00     0.004 C 
ENDBRANCH  11  12
ENDBRANCH   5  11
TORSDOF 4
ENDMDL
