MODEL 1
REMARK VINA RESULT:    -2.620      0.000      0.000
REMARK INTER + INTRA:          -3.604
REMARK INTER:                  -3.385
REMARK INTRA:                  -0.219
REMARK UNBOUND:                -0.219
REMARK SMILES CCCCCCC(=O)[O-]
REMARK SMILES IDX 5 1 6 2 7 3 8 4 9 5 4 6 3 7 2 8 1 9
REMARK H PARENT
REMARK Flexibility Score: inf
ROOT
ATOM      1  C   UNL     1     171.207 151.980 153.320  1.00  0.00     0.006 C 
ENDROOT
BRANCH   1   2
ATOM      2  C   UNL     1     172.607 152.448 152.915  1.00  0.00     0.053 C 
BRANCH   2   3
ATOM      3  C   UNL     1     172.654 152.759 151.452  1.00  0.00     0.041 C 
ATOM      4  O   UNL     1     172.418 153.927 151.045  1.00  0.00    -0.550 OA
ATOM      5  O   UNL     1     172.909 151.747 150.535  1.00  0.00    -0.550 OA
ENDBRANCH   2   3
ENDBRANCH   1   2
BRANCH   1   6
ATOM      6  C   UNL     1     170.900 152.357 154.778  1.00  0.00     0.000 C 
BRANCH   6   7
ATOM      7  C   UNL     1     171.360 151.270 155.771  1.00  0.00    -0.000 C 
BRANCH   7   8
ATOM      8  C   UNL     1     172.657 151.627 156.517  1.00  0.00    -0.003 C 
ATOM      9  C   UNL     1     172.669 153.059 157.044  1.00  0.00     0.004 C 
ENDBRANCH   7   8
ENDBRANCH   6   7
ENDBRANCH   1   6
TORSDOF 5
ENDMDL
MODEL 2
REMARK VINA RESULT:    -2.530     17.562     18.279
REMARK INTER + INTRA:          -3.489
REMARK INTER:                  -3.301
REMARK INTRA:                  -0.187
REMARK UNBOUND:                -0.219
REMARK SMILES CCCCCCC(=O)[O-]
REMARK SMILES IDX 5 1 6 2 7 3 8 4 9 5 4 6 3 7 2 8 1 9
REMARK H PARENT
REMARK Flexibility Score: inf
ROOT
ATOM      1  C   UNL     1     169.532 169.220 150.726  1.00  0.00     0.006 C 
ENDROOT
BRANCH   1   2
ATOM      2  C   UNL     1     170.259 170.524 150.387  1.00  0.00     0.053 C 
BRANCH   2   3
ATOM      3  C   UNL     1     171.144 170.337 149.196  1.00  0.00     0.041 C 
ATOM      4  O   UNL     1     170.985 171.048 148.169  1.00  0.00    -0.550 OA
ATOM      5  O   UNL     1     172.114 169.341 149.200  1.00  0.00    -0.550 OA
ENDBRANCH   2   3
ENDBRANCH   1   2
BRANCH   1   6
ATOM      6  C   UNL     1     168.594 169.408 151.929  1.00  0.00     0.000 C 
BRANCH   6   7
ATOM      7  C   UNL     1     168.463 170.890 152.339  1.00  0.00    -0.000 C 
BRANCH   7   8
ATOM      8  C   UNL     1     168.280 171.097 153.852  1.00  0.00    -0.003 C 
ATOM      9  C   UNL     1     167.628 169.903 154.544  1.00  0.00     0.004 C 
ENDBRANCH   7   8
ENDBRANCH   6   7
ENDBRANCH   1   6
TORSDOF 5
ENDMDL
MODEL 3
REMARK VINA RESULT:    -2.508      9.224     10.607
REMARK INTER + INTRA:          -3.460
REMARK INTER:                  -3.328
REMARK INTRA:                  -0.131
REMARK UNBOUND:                -0.219
REMARK SMILES CCCCCCC(=O)[O-]
REMARK SMILES IDX 5 1 6 2 7 3 8 4 9 5 4 6 3 7 2 8 1 9
REMARK H PARENT
REMARK Flexibility Score: inf
ROOT
ATOM      1  C   UNL     1     172.326 156.168 143.591  1.00  0.00     0.006 C 
ENDROOT
BRANCH   1   2
ATOM      2  C   UNL     1     172.806 155.340 144.786  1.00  0.00     0.053 C 
BRANCH   2   3
ATOM      3  C   UNL     1     172.028 154.066 144.889  1.00  0.00     0.041 C 
ATOM      4  O   UNL     1     172.189 153.155 144.035  1.00  0.00    -0.550 OA
ATOM      5  O   UNL     1     171.087 153.906 145.899  1.00  0.00    -0.550 OA
ENDBRANCH   2   3
ENDBRANCH   1   2
BRANCH   1   6
ATOM      6  C   UNL     1     171.277 157.204 144.023  1.00  0.00     0.000 C 
BRANCH   6   7
ATOM      7  C   UNL     1     171.887 158.610 144.204  1.00  0.00    -0.000 C 
BRANCH   7   8
ATOM      8  C   UNL     1     171.073 159.518 145.142  1.00  0.00    -0.003 C 
ATOM      9  C   UNL     1     171.943 160.483 145.943  1.00  0.00     0.004 C 
ENDBRANCH   7   8
ENDBRANCH   6   7
ENDBRANCH   1   6
TORSDOF 5
ENDMDL
MODEL 4
REMARK VINA RESULT:    -2.492     18.140     18.920
REMARK INTER + INTRA:          -3.440
REMARK INTER:                  -3.042
REMARK INTRA:                  -0.398
REMARK UNBOUND:                -0.219
REMARK SMILES CCCCCCC(=O)[O-]
REMARK SMILES IDX 5 1 6 2 7 3 8 4 9 5 4 6 3 7 2 8 1 9
REMARK H PARENT
REMARK Flexibility Score: inf
ROOT
ATOM      1  C   UNL     1     168.400 169.449 149.801  1.00  0.00     0.006 C 
ENDROOT
BRANCH   1   2
ATOM      2  C   UNL     1     167.592 170.708 149.473  1.00  0.00     0.053 C 
BRANCH   2   3
ATOM      3  C   UNL     1     166.134 170.472 149.708  1.00  0.00     0.041 C 
ATOM      4  O   UNL     1     165.448 169.847 148.857  1.00  0.00    -0.550 OA
ATOM      5  O   UNL     1     165.520 170.987 150.843  1.00  0.00    -0.550 OA
ENDBRANCH   2   3
ENDBRANCH   1   2
BRANCH   1   6
ATOM      6  C   UNL     1     168.711 169.370 151.304  1.00  0.00     0.000 C 
BRANCH   6   7
ATOM      7  C   UNL     1     169.067 170.748 151.899  1.00  0.00    -0.000 C 
BRANCH   7   8
ATOM      8  C   UNL     1     168.290 171.084 153.183  1.00  0.00    -0.003 C 
ATOM      9  C   UNL     1     167.540 169.885 153.759  1.00  0.00     0.004 C 
ENDBRANCH   7   8
ENDBRANCH   6   7
ENDBRANCH   1   6
TORSDOF 5
ENDMDL
MODEL 5
REMARK VINA RESULT:    -2.483     11.482     12.852
REMARK INTER + INTRA:          -3.427
REMARK INTER:                  -3.038
REMARK INTRA:                  -0.389
REMARK UNBOUND:                -0.219
REMARK SMILES CCCCCCC(=O)[O-]
REMARK SMILES IDX 5 1 6 2 7 3 8 4 9 5 4 6 3 7 2 8 1 9
REMARK H PARENT
REMARK Flexibility Score: inf
ROOT
ATOM      1  C   UNL     1     172.388 161.526 144.629  1.00  0.00     0.006 C 
ENDROOT
BRANCH   1   2
ATOM      2  C   UNL     1     172.843 162.923 145.062  1.00  0.00     0.053 C 
BRANCH   2   3
ATOM      3  C   UNL     1     171.662 163.789 145.367  1.00  0.00     0.041 C 
ATOM      4  O   UNL     1     170.778 163.986 144.492  1.00  0.00    -0.550 OA
ATOM      5  O   UNL     1     171.563 164.421 146.600  1.00  0.00    -0.550 OA
ENDBRANCH   2   3
ENDBRANCH   1   2
BRANCH   1   6
ATOM      6  C   UNL     1     172.111 160.634 145.850  1.00  0.00     0.000 C 
BRANCH   6   7
ATOM      7  C   UNL     1     170.638 160.179 145.918  1.00  0.00    -0.000 C 
BRANCH   7   8
ATOM      8  C   UNL     1     169.779 161.017 146.880  1.00  0.00    -0.003 C 
ATOM      9  C   UNL     1     170.369 161.106 148.285  1.00  0.00     0.004 C 
ENDBRANCH   7   8
ENDBRANCH   6   7
ENDBRANCH   1   6
TORSDOF 5
ENDMDL
MODEL 6
REMARK VINA RESULT:    -2.475     17.886     18.632
REMARK INTER + INTRA:          -3.418
REMARK INTER:                  -3.046
REMARK INTRA:                  -0.372
REMARK UNBOUND:                -0.219
REMARK SMILES CCCCCCC(=O)[O-]
REMARK SMILES IDX 5 1 6 2 7 3 8 4 9 5 4 6 3 7 2 8 1 9
REMARK H PARENT
REMARK Flexibility Score: inf
ROOT
ATOM      1  C   UNL     1     165.362 170.334 151.186  1.00  0.00     0.006 C 
ENDROOT
BRANCH   1   2
ATOM      2  C   UNL     1     165.244 170.606 149.683  1.00  0.00     0.053 C 
BRANCH   2   3
ATOM      3  C   UNL     1     165.827 169.474 148.898  1.00  0.00     0.041 C 
ATOM      4  O   UNL     1     165.202 168.387 148.793  1.00  0.00    -0.550 OA
ATOM      5  O   UNL     1     167.086 169.604 148.324  1.00  0.00    -0.550 OA
ENDBRANCH   2   3
ENDBRANCH   1   2
BRANCH   1   6
ATOM      6  C   UNL     1     166.595 171.036 151.777  1.00  0.00     0.000 C 
BRANCH   6   7
ATOM      7  C   UNL     1     167.410 170.104 152.698  1.00  0.00    -0.000 C 
BRANCH   7   8
ATOM      8  C   UNL     1     167.926 168.839 151.992  1.00  0.00    -0.003 C 
ATOM      9  C   UNL     1     169.210 169.076 151.202  1.00  0.00     0.004 C 
ENDBRANCH   7   8
ENDBRANCH   6   7
ENDBRANCH   1   6
TORSDOF 5
ENDMDL
MODEL 7
REMARK VINA RESULT:    -2.457     18.156     18.816
REMARK INTER + INTRA:          -3.393
REMARK INTER:                  -3.011
REMARK INTRA:                  -0.383
REMARK UNBOUND:                -0.219
REMARK SMILES CCCCCCC(=O)[O-]
REMARK SMILES IDX 5 1 6 2 7 3 8 4 9 5 4 6 3 7 2 8 1 9
REMARK H PARENT
REMARK Flexibility Score: inf
ROOT
ATOM      1  C   UNL     1     168.638 170.456 152.268  1.00  0.00     0.006 C 
ENDROOT
BRANCH   1   2
ATOM      2  C   UNL     1     167.652 169.421 151.720  1.00  0.00     0.053 C 
BRANCH   2   3
ATOM      3  C   UNL     1     166.592 170.088 150.901  1.00  0.00     0.041 C 
ATOM      4  O   UNL     1     165.397 169.696 150.971  1.00  0.00    -0.550 OA
ATOM      5  O   UNL     1     166.932 171.109 150.023  1.00  0.00    -0.550 OA
ENDBRANCH   2   3
ENDBRANCH   1   2
BRANCH   1   6
ATOM      6  C   UNL     1     168.097 171.107 153.551  1.00  0.00     0.000 C 
BRANCH   6   7
ATOM      7  C   UNL     1     167.824 170.070 154.660  1.00  0.00    -0.000 C 
BRANCH   7   8
ATOM      8  C   UNL     1     166.510 170.315 155.421  1.00  0.00    -0.003 C 
ATOM      9  C   UNL     1     165.290 170.372 154.505  1.00  0.00     0.004 C 
ENDBRANCH   7   8
ENDBRANCH   6   7
ENDBRANCH   1   6
TORSDOF 5
ENDMDL
MODEL 8
REMARK VINA RESULT:    -0.860      4.975      5.831
REMARK INTER + INTRA:          -1.330
REMARK INTER:                  -1.009
REMARK INTRA:                  -0.321
REMARK UNBOUND:                -0.219
REMARK SMILES CCCCCCC(=O)[O-]
REMARK SMILES IDX 5 1 6 2 7 3 8 4 9 5 4 6 3 7 2 8 1 9
REMARK H PARENT
REMARK Flexibility Score: inf
ROOT
ATOM      1  C   UNL     1     167.620 152.153 154.927  1.00  0.00     0.006 C 
ENDROOT
BRANCH   1   2
ATOM      2  C   UNL     1     167.816 151.514 153.549  1.00  0.00     0.053 C 
BRANCH   2   3
ATOM      3  C   UNL     1     167.415 152.467 152.468  1.00  0.00     0.041 C 
ATOM      4  O   UNL     1     166.211 152.551 152.111  1.00  0.00    -0.550 OA
ATOM      5  O   UNL     1     168.381 153.226 151.817  1.00  0.00    -0.550 OA
ENDBRANCH   2   3
ENDBRANCH   1   2
BRANCH   1   6
ATOM      6  C   UNL     1     166.344 151.625 155.602  1.00  0.00     0.000 C 
BRANCH   6   7
ATOM      7  C   UNL     1     165.253 152.710 155.716  1.00  0.00    -0.000 C 
BRANCH   7   8
ATOM      8  C   UNL     1     165.799 154.145 155.615  1.00  0.00    -0.003 C 
ATOM      9  C   UNL     1     165.431 155.011 156.817  1.00  0.00     0.004 C 
ENDBRANCH   7   8
ENDBRANCH   6   7
ENDBRANCH   1   6
TORSDOF 5
ENDMDL
