MODEL 1
REMARK VINA RESULT:    -3.235      0.000      0.000
REMARK INTER + INTRA:          -5.679
REMARK INTER:                  -4.749
REMARK INTRA:                  -0.931
REMARK UNBOUND:                -0.931
REMARK SMILES CCCCCC(=O)CCCCC
REMARK SMILES IDX 6 1 7 2 5 3 4 4 3 5 2 6 1 7 8 8 9 9 10 10 11 11 12 12
REMARK H PARENT
REMARK Flexibility Score: inf
ROOT
ATOM      1  C   UNL     1      12.556  -4.347  -3.622  1.00  0.00     0.132 C 
ATOM      2  O   UNL     1      12.915  -3.231  -3.972  1.00  0.00    -0.300 OA
ENDROOT
BRANCH   1   3
ATOM      3  C   UNL     1      13.551  -5.273  -2.968  1.00  0.00     0.075 C 
BRANCH   3   4
ATOM      4  C   UNL     1      13.016  -5.900  -1.669  1.00  0.00     0.008 C 
BRANCH   4   5
ATOM      5  C   UNL     1      12.759  -4.895  -0.532  1.00  0.00     0.000 C 
BRANCH   5   6
ATOM      6  C   UNL     1      14.054  -4.382   0.119  1.00  0.00    -0.003 C 
ATOM      7  C   UNL     1      15.000  -5.534   0.442  1.00  0.00     0.004 C 
ENDBRANCH   5   6
ENDBRANCH   4   5
ENDBRANCH   3   4
ENDBRANCH   1   3
BRANCH   1   8
ATOM      8  C   UNL     1      11.115  -4.754  -3.808  1.00  0.00     0.075 C 
BRANCH   8   9
ATOM      9  C   UNL     1      10.164  -3.615  -3.415  1.00  0.00     0.008 C 
BRANCH   9  10
ATOM     10  C   UNL     1       9.211  -4.009  -2.276  1.00  0.00     0.000 C 
BRANCH  10  11
ATOM     11  C   UNL     1       9.356  -5.484  -1.872  1.00  0.00    -0.003 C 
ATOM     12  C   UNL     1       9.039  -5.682  -0.393  1.00  0.00     0.004 C 
ENDBRANCH  10  11
ENDBRANCH   9  10
ENDBRANCH   8   9
ENDBRANCH   1   8
TORSDOF 8
ENDMDL
MODEL 2
REMARK VINA RESULT:    -3.027      0.866      4.146
REMARK INTER + INTRA:          -5.373
REMARK INTER:                  -4.468
REMARK INTRA:                  -0.905
REMARK UNBOUND:                -0.931
REMARK SMILES CCCCCC(=O)CCCCC
REMARK SMILES IDX 6 1 7 2 5 3 4 4 3 5 2 6 1 7 8 8 9 9 10 10 11 11 12 12
REMARK H PARENT
REMARK Flexibility Score: inf
ROOT
ATOM      1  C   UNL     1      11.930  -4.143  -3.584  1.00  0.00     0.132 C 
ATOM      2  O   UNL     1      12.759  -3.269  -3.799  1.00  0.00    -0.300 OA
ENDROOT
BRANCH   1   3
ATOM      3  C   UNL     1      10.481  -3.760  -3.408  1.00  0.00     0.075 C 
BRANCH   3   4
ATOM      4  C   UNL     1       9.514  -4.822  -3.960  1.00  0.00     0.008 C 
BRANCH   4   5
ATOM      5  C   UNL     1       8.727  -5.592  -2.883  1.00  0.00     0.000 C 
BRANCH   5   6
ATOM      6  C   UNL     1       8.588  -4.810  -1.568  1.00  0.00    -0.003 C 
ATOM      7  C   UNL     1       8.966  -5.677  -0.371  1.00  0.00     0.004 C 
ENDBRANCH   5   6
ENDBRANCH   4   5
ENDBRANCH   3   4
ENDBRANCH   1   3
BRANCH   1   8
ATOM      8  C   UNL     1      12.367  -5.586  -3.550  1.00  0.00     0.075 C 
BRANCH   8   9
ATOM      9  C   UNL     1      13.257  -5.866  -2.331  1.00  0.00     0.008 C 
BRANCH   9  10
ATOM     10  C   UNL     1      12.515  -5.662  -1.001  1.00  0.00     0.000 C 
BRANCH  10  11
ATOM     11  C   UNL     1      13.102  -4.509  -0.172  1.00  0.00    -0.003 C 
ATOM     12  C   UNL     1      14.560  -4.777   0.186  1.00  0.00     0.004 C 
ENDBRANCH  10  11
ENDBRANCH   9  10
ENDBRANCH   8   9
ENDBRANCH   1   8
TORSDOF 8
ENDMDL
MODEL 3
REMARK VINA RESULT:    -2.807     10.371     12.656
REMARK INTER + INTRA:          -5.050
REMARK INTER:                  -3.693
REMARK INTRA:                  -1.357
REMARK UNBOUND:                -0.931
REMARK SMILES CCCCCC(=O)CCCCC
REMARK SMILES IDX 6 1 7 2 5 3 4 4 3 5 2 6 1 7 8 8 9 9 10 10 11 11 12 12
REMARK H PARENT
REMARK Flexibility Score: inf
ROOT
ATOM      1  C   UNL     1       9.013   7.020  -7.789  1.00  0.00     0.132 C 
ATOM      2  O   UNL     1      10.044   7.298  -7.192  1.00  0.00    -0.300 OA
ENDROOT
BRANCH   1   3
ATOM      3  C   UNL     1       7.682   7.363  -7.165  1.00  0.00     0.075 C 
BRANCH   3   4
ATOM      4  C   UNL     1       6.660   6.219  -7.278  1.00  0.00     0.008 C 
BRANCH   4   5
ATOM      5  C   UNL     1       6.731   5.183  -6.142  1.00  0.00     0.000 C 
BRANCH   5   6
ATOM      6  C   UNL     1       5.992   3.877  -6.473  1.00  0.00    -0.003 C 
ATOM      7  C   UNL     1       5.430   3.910  -7.891  1.00  0.00     0.004 C 
ENDBRANCH   5   6
ENDBRANCH   4   5
ENDBRANCH   3   4
ENDBRANCH   1   3
BRANCH   1   8
ATOM      8  C   UNL     1       9.095   6.385  -9.154  1.00  0.00     0.075 C 
BRANCH   8   9
ATOM      9  C   UNL     1       9.851   5.050  -9.100  1.00  0.00     0.008 C 
BRANCH   9  10
ATOM     10  C   UNL     1       8.911   3.837  -9.183  1.00  0.00     0.000 C 
BRANCH  10  11
ATOM     11  C   UNL     1       9.201   2.792  -8.095  1.00  0.00    -0.003 C 
ATOM     12  C   UNL     1       9.869   3.434  -6.882  1.00  0.00     0.004 C 
ENDBRANCH  10  11
ENDBRANCH   9  10
ENDBRANCH   8   9
ENDBRANCH   1   8
TORSDOF 8
ENDMDL
MODEL 4
REMARK VINA RESULT:    -2.730     11.572     13.356
REMARK INTER + INTRA:          -4.937
REMARK INTER:                  -3.593
REMARK INTRA:                  -1.344
REMARK UNBOUND:                -0.931
REMARK SMILES CCCCCC(=O)CCCCC
REMARK SMILES IDX 6 1 7 2 5 3 4 4 3 5 2 6 1 7 8 8 9 9 10 10 11 11 12 12
REMARK H PARENT
REMARK Flexibility Score: inf
ROOT
ATOM      1  C   UNL     1      16.005   0.440   7.251  1.00  0.00     0.132 C 
ATOM      2  O   UNL     1      15.585   0.018   6.182  1.00  0.00    -0.300 OA
ENDROOT
BRANCH   1   3
ATOM      3  C   UNL     1      16.035   1.928   7.499  1.00  0.00     0.075 C 
BRANCH   3   4
ATOM      4  C   UNL     1      16.530   2.286   8.910  1.00  0.00     0.008 C 
BRANCH   4   5
ATOM      5  C   UNL     1      17.918   2.950   8.952  1.00  0.00     0.000 C 
BRANCH   5   6
ATOM      6  C   UNL     1      18.393   3.435   7.573  1.00  0.00    -0.003 C 
ATOM      7  C   UNL     1      19.911   3.579   7.535  1.00  0.00     0.004 C 
ENDBRANCH   5   6
ENDBRANCH   4   5
ENDBRANCH   3   4
ENDBRANCH   1   3
BRANCH   1   8
ATOM      8  C   UNL     1      16.436  -0.538   8.315  1.00  0.00     0.075 C 
BRANCH   8   9
ATOM      9  C   UNL     1      17.774  -1.198   7.950  1.00  0.00     0.008 C 
BRANCH   9  10
ATOM     10  C   UNL     1      18.966  -0.553   8.674  1.00  0.00     0.000 C 
BRANCH  10  11
ATOM     11  C   UNL     1      20.096  -0.159   7.711  1.00  0.00    -0.003 C 
ATOM     12  C   UNL     1      19.564   0.044   6.295  1.00  0.00     0.004 C 
ENDBRANCH  10  11
ENDBRANCH   9  10
ENDBRANCH   8   9
ENDBRANCH   1   8
TORSDOF 8
ENDMDL
MODEL 5
REMARK VINA RESULT:    -2.726     11.517     13.186
REMARK INTER + INTRA:          -4.931
REMARK INTER:                  -3.599
REMARK INTRA:                  -1.332
REMARK UNBOUND:                -0.931
REMARK SMILES CCCCCC(=O)CCCCC
REMARK SMILES IDX 6 1 7 2 5 3 4 4 3 5 2 6 1 7 8 8 9 9 10 10 11 11 12 12
REMARK H PARENT
REMARK Flexibility Score: inf
ROOT
ATOM      1  C   UNL     1      15.913   0.464   7.220  1.00  0.00     0.132 C 
ATOM      2  O   UNL     1      15.538   0.098   6.115  1.00  0.00    -0.300 OA
ENDROOT
BRANCH   1   3
ATOM      3  C   UNL     1      16.287  -0.571   8.253  1.00  0.00     0.075 C 
BRANCH   3   4
ATOM      4  C   UNL     1      17.579  -1.326   7.899  1.00  0.00     0.008 C 
BRANCH   4   5
ATOM      5  C   UNL     1      18.814  -0.899   8.712  1.00  0.00     0.000 C 
BRANCH   5   6
ATOM      6  C   UNL     1      19.777  -0.003   7.917  1.00  0.00    -0.003 C 
ATOM      7  C   UNL     1      19.454  -0.040   6.426  1.00  0.00     0.004 C 
ENDBRANCH   5   6
ENDBRANCH   4   5
ENDBRANCH   3   4
ENDBRANCH   1   3
BRANCH   1   8
ATOM      8  C   UNL     1      16.040   1.938   7.510  1.00  0.00     0.075 C 
BRANCH   8   9
ATOM      9  C   UNL     1      16.545   2.180   8.939  1.00  0.00     0.008 C 
BRANCH   9  10
ATOM     10  C   UNL     1      17.856   2.982   8.974  1.00  0.00     0.000 C 
BRANCH  10  11
ATOM     11  C   UNL     1      18.267   3.496   7.586  1.00  0.00    -0.003 C 
ATOM     12  C   UNL     1      19.777   3.701   7.503  1.00  0.00     0.004 C 
ENDBRANCH  10  11
ENDBRANCH   9  10
ENDBRANCH   8   9
ENDBRANCH   1   8
TORSDOF 8
ENDMDL
MODEL 6
REMARK VINA RESULT:    -2.719     11.745     13.961
REMARK INTER + INTRA:          -4.921
REMARK INTER:                  -3.518
REMARK INTRA:                  -1.403
REMARK UNBOUND:                -0.931
REMARK SMILES CCCCCC(=O)CCCCC
REMARK SMILES IDX 6 1 7 2 5 3 4 4 3 5 2 6 1 7 8 8 9 9 10 10 11 11 12 12
REMARK H PARENT
REMARK Flexibility Score: inf
ROOT
ATOM      1  C   UNL     1      19.725   3.390   7.437  1.00  0.00     0.132 C 
ATOM      2  O   UNL     1      20.411   4.290   6.970  1.00  0.00    -0.300 OA
ENDROOT
BRANCH   1   3
ATOM      3  C   UNL     1      18.273   3.654   7.751  1.00  0.00     0.075 C 
BRANCH   3   4
ATOM      4  C   UNL     1      17.813   2.974   9.052  1.00  0.00     0.008 C 
BRANCH   4   5
ATOM      5  C   UNL     1      16.720   1.906   8.862  1.00  0.00     0.000 C 
BRANCH   5   6
ATOM      6  C   UNL     1      16.149   1.878   7.436  1.00  0.00    -0.003 C 
ATOM      7  C   UNL     1      15.798   0.455   7.013  1.00  0.00     0.004 C 
ENDBRANCH   5   6
ENDBRANCH   4   5
ENDBRANCH   3   4
ENDBRANCH   1   3
BRANCH   1   8
ATOM      8  C   UNL     1      20.333   2.025   7.640  1.00  0.00     0.075 C 
BRANCH   8   9
ATOM      9  C   UNL     1      20.027   1.101   6.453  1.00  0.00     0.008 C 
BRANCH   9  10
ATOM     10  C   UNL     1      19.391  -0.229   6.889  1.00  0.00     0.000 C 
BRANCH  10  11
ATOM     11  C   UNL     1      19.655  -0.549   8.368  1.00  0.00    -0.003 C 
ATOM     12  C   UNL     1      18.492  -1.327   8.977  1.00  0.00     0.004 C 
ENDBRANCH  10  11
ENDBRANCH   9  10
ENDBRANCH   8   9
ENDBRANCH   1   8
TORSDOF 8
ENDMDL
MODEL 7
REMARK VINA RESULT:    -2.702     10.385     12.117
REMARK INTER + INTRA:          -4.896
REMARK INTER:                  -3.787
REMARK INTRA:                  -1.108
REMARK UNBOUND:                -0.931
REMARK SMILES CCCCCC(=O)CCCCC
REMARK SMILES IDX 6 1 7 2 5 3 4 4 3 5 2 6 1 7 8 8 9 9 10 10 11 11 12 12
REMARK H PARENT
REMARK Flexibility Score: inf
ROOT
ATOM      1  C   UNL     1       8.795   2.622  -8.184  1.00  0.00     0.132 C 
ATOM      2  O   UNL     1       9.443   1.585  -8.136  1.00  0.00    -0.300 OA
ENDROOT
BRANCH   1   3
ATOM      3  C   UNL     1       9.470   3.932  -7.860  1.00  0.00     0.075 C 
BRANCH   3   4
ATOM      4  C   UNL     1       9.659   4.826  -9.098  1.00  0.00     0.008 C 
BRANCH   4   5
ATOM      5  C   UNL     1       9.123   6.260  -8.939  1.00  0.00     0.000 C 
BRANCH   5   6
ATOM      6  C   UNL     1       9.661   6.966  -7.685  1.00  0.00    -0.003 C 
ATOM      7  C   UNL     1      10.575   8.128  -8.060  1.00  0.00     0.004 C 
ENDBRANCH   5   6
ENDBRANCH   4   5
ENDBRANCH   3   4
ENDBRANCH   1   3
BRANCH   1   8
ATOM      8  C   UNL     1       7.350   2.572  -8.614  1.00  0.00     0.075 C 
BRANCH   8   9
ATOM      9  C   UNL     1       6.445   3.280  -7.595  1.00  0.00     0.008 C 
BRANCH   9  10
ATOM     10  C   UNL     1       5.649   4.437  -8.218  1.00  0.00     0.000 C 
BRANCH  10  11
ATOM     11  C   UNL     1       5.813   5.751  -7.438  1.00  0.00    -0.003 C 
ATOM     12  C   UNL     1       6.509   5.511  -6.101  1.00  0.00     0.004 C 
ENDBRANCH  10  11
ENDBRANCH   9  10
ENDBRANCH   8   9
ENDBRANCH   1   8
TORSDOF 8
ENDMDL
MODEL 8
REMARK VINA RESULT:    -2.693     10.777     12.619
REMARK INTER + INTRA:          -4.882
REMARK INTER:                  -3.478
REMARK INTRA:                  -1.404
REMARK UNBOUND:                -0.931
REMARK SMILES CCCCCC(=O)CCCCC
REMARK SMILES IDX 6 1 7 2 5 3 4 4 3 5 2 6 1 7 8 8 9 9 10 10 11 11 12 12
REMARK H PARENT
REMARK Flexibility Score: inf
ROOT
ATOM      1  C   UNL     1       9.113   3.345  -8.380  1.00  0.00     0.132 C 
ATOM      2  O   UNL     1       9.149   2.125  -8.459  1.00  0.00    -0.300 OA
ENDROOT
BRANCH   1   3
ATOM      3  C   UNL     1       9.186   4.170  -9.642  1.00  0.00     0.075 C 
BRANCH   3   4
ATOM      4  C   UNL     1       9.972   5.479  -9.453  1.00  0.00     0.008 C 
BRANCH   4   5
ATOM      5  C   UNL     1       9.245   6.739  -9.956  1.00  0.00     0.000 C 
BRANCH   5   6
ATOM      6  C   UNL     1       9.144   7.840  -8.888  1.00  0.00    -0.003 C 
ATOM      7  C   UNL     1      10.069   7.549  -7.711  1.00  0.00     0.004 C 
ENDBRANCH   5   6
ENDBRANCH   4   5
ENDBRANCH   3   4
ENDBRANCH   1   3
BRANCH   1   8
ATOM      8  C   UNL     1       8.949   3.996  -7.030  1.00  0.00     0.075 C 
BRANCH   8   9
ATOM      9  C   UNL     1       7.465   4.158  -6.670  1.00  0.00     0.008 C 
BRANCH   9  10
ATOM     10  C   UNL     1       6.994   5.618  -6.755  1.00  0.00     0.000 C 
BRANCH  10  11
ATOM     11  C   UNL     1       6.121   5.884  -7.991  1.00  0.00    -0.003 C 
ATOM     12  C   UNL     1       5.583   4.580  -8.573  1.00  0.00     0.004 C 
ENDBRANCH  10  11
ENDBRANCH   9  10
ENDBRANCH   8   9
ENDBRANCH   1   8
TORSDOF 8
ENDMDL
MODEL 9
REMARK VINA RESULT:    -2.675      1.467      2.373
REMARK INTER + INTRA:          -4.857
REMARK INTER:                  -3.993
REMARK INTRA:                  -0.864
REMARK UNBOUND:                -0.931
REMARK SMILES CCCCCC(=O)CCCCC
REMARK SMILES IDX 6 1 7 2 5 3 4 4 3 5 2 6 1 7 8 8 9 9 10 10 11 11 12 12
REMARK H PARENT
REMARK Flexibility Score: inf
ROOT
ATOM      1  C   UNL     1      10.663  -4.670  -3.101  1.00  0.00     0.132 C 
ATOM      2  O   UNL     1       9.939  -3.694  -3.244  1.00  0.00    -0.300 OA
ENDROOT
BRANCH   1   3
ATOM      3  C   UNL     1      11.990  -4.717  -3.817  1.00  0.00     0.075 C 
BRANCH   3   4
ATOM      4  C   UNL     1      13.128  -4.072  -3.007  1.00  0.00     0.008 C 
BRANCH   4   5
ATOM      5  C   UNL     1      14.165  -5.068  -2.457  1.00  0.00     0.000 C 
BRANCH   5   6
ATOM      6  C   UNL     1      13.859  -5.522  -1.021  1.00  0.00    -0.003 C 
ATOM      7  C   UNL     1      13.521  -4.331  -0.130  1.00  0.00     0.004 C 
ENDBRANCH   5   6
ENDBRANCH   4   5
ENDBRANCH   3   4
ENDBRANCH   1   3
BRANCH   1   8
ATOM      8  C   UNL     1      10.236  -5.780  -2.174  1.00  0.00     0.075 C 
BRANCH   8   9
ATOM      9  C   UNL     1       9.975  -5.248  -0.757  1.00  0.00     0.008 C 
BRANCH   9  10
ATOM     10  C   UNL     1       8.591  -5.650  -0.223  1.00  0.00     0.000 C 
BRANCH  10  11
ATOM     11  C   UNL     1       7.524  -5.694  -1.328  1.00  0.00    -0.003 C 
ATOM     12  C   UNL     1       6.837  -4.341  -1.482  1.00  0.00     0.004 C 
ENDBRANCH  10  11
ENDBRANCH   9  10
ENDBRANCH   8   9
ENDBRANCH   1   8
TORSDOF 8
ENDMDL
