MODEL 1
REMARK VINA RESULT:    -5.880      0.000      0.000
REMARK INTER + INTRA:          -6.399
REMARK INTER:                  -6.395
REMARK INTRA:                  -0.004
REMARK UNBOUND:                -0.004
REMARK SMILES COc1cc2ccc(=O)oc2cc1O
REMARK SMILES IDX 3 1 13 2 12 3 11 4 5 5 4 6 6 7 7 8 8 9 9 10 10 11 2 12 1 13
REMARK SMILES IDX 14 14
REMARK H PARENT 14 15
REMARK Flexibility Score: inf
ROOT
ATOM      1  C   UNL     1      -3.611   8.955   0.494  1.00  0.00     0.161 A 
ATOM      2  C   UNL     1      -3.583   7.612   0.072  1.00  0.00     0.161 A 
ATOM      3  C   UNL     1      -2.370   6.915   0.020  1.00  0.00     0.098 A 
ATOM      4  C   UNL     1      -1.178   7.541   0.385  1.00  0.00     0.142 A 
ATOM      5  C   UNL     1      -1.195   8.886   0.810  1.00  0.00     0.022 A 
ATOM      6  C   UNL     1      -2.407   9.588   0.864  1.00  0.00     0.062 A 
ATOM      7  C   UNL     1       0.016   9.486   1.170  1.00  0.00     0.019 A 
ATOM      8  C   UNL     1       1.195   8.746   1.099  1.00  0.00     0.094 A 
ATOM      9  C   UNL     1       1.135   7.416   0.669  1.00  0.00     0.336 A 
ATOM     10  O   UNL     1       2.189   6.731   0.598  1.00  0.00    -0.246 OA
ATOM     11  O   UNL     1      -0.030   6.870   0.332  1.00  0.00    -0.423 OA
ENDROOT
BRANCH   1  12
ATOM     12  O   UNL     1      -4.845   9.625   0.535  1.00  0.00    -0.493 OA
ATOM     13  C   UNL     1      -5.793   9.508   1.592  1.00  0.00     0.278 C 
ENDBRANCH   1  12
BRANCH   2  14
ATOM     14  O   UNL     1      -4.753   6.951  -0.302  1.00  0.00    -0.504 OA
ATOM     15  H   UNL     1      -4.793   6.339  -1.108  1.00  0.00     0.293 HD
ENDBRANCH   2  14
TORSDOF 2
ENDMDL
MODEL 2
REMARK VINA RESULT:    -5.741      1.270      5.424
REMARK INTER + INTRA:          -6.249
REMARK INTER:                  -6.184
REMARK INTRA:                  -0.064
REMARK UNBOUND:                -0.004
REMARK SMILES COc1cc2ccc(=O)oc2cc1O
REMARK SMILES IDX 3 1 13 2 12 3 11 4 5 5 4 6 6 7 7 8 8 9 9 10 10 11 2 12 1 13
REMARK SMILES IDX 14 14
REMARK H PARENT 14 15
REMARK Flexibility Score: inf
ROOT
ATOM      1  C   UNL     1       0.584   7.729   0.805  1.00  0.00     0.161 A 
ATOM      2  C   UNL     1       0.433   9.063   1.232  1.00  0.00     0.161 A 
ATOM      3  C   UNL     1      -0.825   9.677   1.197  1.00  0.00     0.098 A 
ATOM      4  C   UNL     1      -1.942   8.974   0.740  1.00  0.00     0.142 A 
ATOM      5  C   UNL     1      -1.802   7.638   0.311  1.00  0.00     0.022 A 
ATOM      6  C   UNL     1      -0.544   7.020   0.345  1.00  0.00     0.062 A 
ATOM      7  C   UNL     1      -2.939   6.961  -0.141  1.00  0.00     0.019 A 
ATOM      8  C   UNL     1      -4.168   7.620  -0.155  1.00  0.00     0.094 A 
ATOM      9  C   UNL     1      -4.231   8.945   0.286  1.00  0.00     0.336 A 
ATOM     10  O   UNL     1      -5.331   9.557   0.280  1.00  0.00    -0.246 OA
ATOM     11  O   UNL     1      -3.134   9.566   0.711  1.00  0.00    -0.423 OA
ENDROOT
BRANCH   1  12
ATOM     12  O   UNL     1       1.859   7.145   0.854  1.00  0.00    -0.493 OA
ATOM     13  C   UNL     1       2.753   7.063  -0.252  1.00  0.00     0.278 C 
ENDBRANCH   1  12
BRANCH   2  14
ATOM     14  O   UNL     1       1.524   9.798   1.694  1.00  0.00    -0.504 OA
ATOM     15  H   UNL     1       1.554  10.809   1.646  1.00  0.00     0.293 HD
ENDBRANCH   2  14
TORSDOF 2
ENDMDL
MODEL 3
REMARK VINA RESULT:    -5.217     12.466     14.115
REMARK INTER + INTRA:          -5.678
REMARK INTER:                  -5.630
REMARK INTRA:                  -0.047
REMARK UNBOUND:                -0.004
REMARK SMILES COc1cc2ccc(=O)oc2cc1O
REMARK SMILES IDX 3 1 13 2 12 3 11 4 5 5 4 6 6 7 7 8 8 9 9 10 10 11 2 12 1 13
REMARK SMILES IDX 14 14
REMARK H PARENT 14 15
REMARK Flexibility Score: inf
ROOT
ATOM      1  C   UNL     1      -0.813  -1.328  -9.295  1.00  0.00     0.161 A 
ATOM      2  C   UNL     1      -1.648  -2.462  -9.265  1.00  0.00     0.161 A 
ATOM      3  C   UNL     1      -3.038  -2.313  -9.180  1.00  0.00     0.098 A 
ATOM      4  C   UNL     1      -3.610  -1.041  -9.125  1.00  0.00     0.142 A 
ATOM      5  C   UNL     1      -2.784   0.101  -9.156  1.00  0.00     0.022 A 
ATOM      6  C   UNL     1      -1.392  -0.044  -9.241  1.00  0.00     0.062 A 
ATOM      7  C   UNL     1      -3.387   1.362  -9.100  1.00  0.00     0.019 A 
ATOM      8  C   UNL     1      -4.776   1.453  -9.016  1.00  0.00     0.094 A 
ATOM      9  C   UNL     1      -5.531   0.277  -8.991  1.00  0.00     0.336 A 
ATOM     10  O   UNL     1      -6.786   0.339  -8.915  1.00  0.00    -0.246 OA
ATOM     11  O   UNL     1      -4.932  -0.910  -9.045  1.00  0.00    -0.423 OA
ENDROOT
BRANCH   1  12
ATOM     12  O   UNL     1       0.576  -1.514  -9.381  1.00  0.00    -0.493 OA
ATOM     13  C   UNL     1       1.541  -0.713  -8.705  1.00  0.00     0.278 C 
ENDBRANCH   1  12
BRANCH   2  14
ATOM     14  O   UNL     1      -1.115  -3.750  -9.317  1.00  0.00    -0.504 OA
ATOM     15  H   UNL     1      -0.420  -4.019 -10.003  1.00  0.00     0.293 HD
ENDBRANCH   2  14
TORSDOF 2
ENDMDL
MODEL 4
REMARK VINA RESULT:    -4.875      7.747      9.964
REMARK INTER + INTRA:          -5.306
REMARK INTER:                  -5.249
REMARK INTRA:                  -0.056
REMARK UNBOUND:                -0.004
REMARK SMILES COc1cc2ccc(=O)oc2cc1O
REMARK SMILES IDX 3 1 13 2 12 3 11 4 5 5 4 6 6 7 7 8 8 9 9 10 10 11 2 12 1 13
REMARK SMILES IDX 14 14
REMARK H PARENT 14 15
REMARK Flexibility Score: inf
ROOT
ATOM      1  C   UNL     1       1.831  -1.639  -1.048  1.00  0.00     0.161 A 
ATOM      2  C   UNL     1       2.244  -0.493  -1.756  1.00  0.00     0.161 A 
ATOM      3  C   UNL     1       1.871   0.781  -1.312  1.00  0.00     0.098 A 
ATOM      4  C   UNL     1       1.087   0.930  -0.167  1.00  0.00     0.142 A 
ATOM      5  C   UNL     1       0.668  -0.210   0.549  1.00  0.00     0.022 A 
ATOM      6  C   UNL     1       1.039  -1.489   0.109  1.00  0.00     0.062 A 
ATOM      7  C   UNL     1      -0.116  -0.028   1.692  1.00  0.00     0.019 A 
ATOM      8  C   UNL     1      -0.459   1.263   2.089  1.00  0.00     0.094 A 
ATOM      9  C   UNL     1      -0.007   2.347   1.330  1.00  0.00     0.336 A 
ATOM     10  O   UNL     1      -0.306   3.521   1.672  1.00  0.00    -0.246 OA
ATOM     11  O   UNL     1       0.738   2.146   0.246  1.00  0.00    -0.423 OA
ENDROOT
BRANCH   1  12
ATOM     12  O   UNL     1       2.222  -2.902  -1.520  1.00  0.00    -0.493 OA
ATOM     13  C   UNL     1       2.971  -3.851  -0.765  1.00  0.00     0.278 C 
ENDBRANCH   1  12
BRANCH   2  14
ATOM     14  O   UNL     1       3.027  -0.601  -2.904  1.00  0.00    -0.504 OA
ATOM     15  H   UNL     1       4.027  -0.756  -2.864  1.00  0.00     0.293 HD
ENDBRANCH   2  14
TORSDOF 2
ENDMDL
MODEL 5
REMARK VINA RESULT:    -4.845      1.386      4.873
REMARK INTER + INTRA:          -5.273
REMARK INTER:                  -5.212
REMARK INTRA:                  -0.062
REMARK UNBOUND:                -0.004
REMARK SMILES COc1cc2ccc(=O)oc2cc1O
REMARK SMILES IDX 3 1 13 2 12 3 11 4 5 5 4 6 6 7 7 8 8 9 9 10 10 11 2 12 1 13
REMARK SMILES IDX 14 14
REMARK H PARENT 14 15
REMARK Flexibility Score: inf
ROOT
ATOM      1  C   UNL     1      -0.387   8.790   1.133  1.00  0.00     0.161 A 
ATOM      2  C   UNL     1      -0.508   7.484   0.619  1.00  0.00     0.161 A 
ATOM      3  C   UNL     1      -1.697   7.076   0.003  1.00  0.00     0.098 A 
ATOM      4  C   UNL     1      -2.774   7.957  -0.109  1.00  0.00     0.142 A 
ATOM      5  C   UNL     1      -2.664   9.266   0.401  1.00  0.00     0.022 A 
ATOM      6  C   UNL     1      -1.475   9.680   1.019  1.00  0.00     0.062 A 
ATOM      7  C   UNL     1      -3.760  10.125   0.274  1.00  0.00     0.019 A 
ATOM      8  C   UNL     1      -4.920   9.667  -0.349  1.00  0.00     0.094 A 
ATOM      9  C   UNL     1      -4.957   8.355  -0.832  1.00  0.00     0.336 A 
ATOM     10  O   UNL     1      -5.995   7.923  -1.397  1.00  0.00    -0.246 OA
ATOM     11  O   UNL     1      -3.900   7.559  -0.697  1.00  0.00    -0.423 OA
ENDROOT
BRANCH   1  12
ATOM     12  O   UNL     1       0.819   9.167   1.745  1.00  0.00    -0.493 OA
ATOM     13  C   UNL     1       1.732  10.120   1.211  1.00  0.00     0.278 C 
ENDBRANCH   1  12
BRANCH   2  14
ATOM     14  O   UNL     1       0.546   6.575   0.712  1.00  0.00    -0.504 OA
ATOM     15  H   UNL     1       0.964   6.147  -0.105  1.00  0.00     0.293 HD
ENDBRANCH   2  14
TORSDOF 2
ENDMDL
MODEL 6
REMARK VINA RESULT:    -4.805      7.376      8.793
REMARK INTER + INTRA:          -5.230
REMARK INTER:                  -5.184
REMARK INTRA:                  -0.045
REMARK UNBOUND:                -0.004
REMARK SMILES COc1cc2ccc(=O)oc2cc1O
REMARK SMILES IDX 3 1 13 2 12 3 11 4 5 5 4 6 6 7 7 8 8 9 9 10 10 11 2 12 1 13
REMARK SMILES IDX 14 14
REMARK H PARENT 14 15
REMARK Flexibility Score: inf
ROOT
ATOM      1  C   UNL     1       0.250   2.031   1.142  1.00  0.00     0.161 A 
ATOM      2  C   UNL     1      -0.076   0.946   1.979  1.00  0.00     0.161 A 
ATOM      3  C   UNL     1       0.250  -0.361   1.596  1.00  0.00     0.098 A 
ATOM      4  C   UNL     1       0.901  -0.602   0.384  1.00  0.00     0.142 A 
ATOM      5  C   UNL     1       1.231   0.478  -0.460  1.00  0.00     0.022 A 
ATOM      6  C   UNL     1       0.907   1.788  -0.081  1.00  0.00     0.062 A 
ATOM      7  C   UNL     1       1.882   0.204  -1.667  1.00  0.00     0.019 A 
ATOM      8  C   UNL     1       2.184  -1.116  -1.999  1.00  0.00     0.094 A 
ATOM      9  C   UNL     1       1.825  -2.136  -1.111  1.00  0.00     0.336 A 
ATOM     10  O   UNL     1       2.088  -3.334  -1.393  1.00  0.00    -0.246 OA
ATOM     11  O   UNL     1       1.206  -1.848   0.031  1.00  0.00    -0.423 OA
ENDROOT
BRANCH   1  12
ATOM     12  O   UNL     1      -0.092   3.329   1.556  1.00  0.00    -0.493 OA
ATOM     13  C   UNL     1       0.621   4.507   1.191  1.00  0.00     0.278 C 
ENDBRANCH   1  12
BRANCH   2  14
ATOM     14  O   UNL     1      -0.726   1.145   3.196  1.00  0.00    -0.504 OA
ATOM     15  H   UNL     1      -1.735   1.189   3.269  1.00  0.00     0.293 HD
ENDBRANCH   2  14
TORSDOF 2
ENDMDL
MODEL 7
REMARK VINA RESULT:    -4.753      1.717      2.558
REMARK INTER + INTRA:          -5.174
REMARK INTER:                  -5.249
REMARK INTRA:                   0.075
REMARK UNBOUND:                -0.004
REMARK SMILES COc1cc2ccc(=O)oc2cc1O
REMARK SMILES IDX 3 1 13 2 12 3 11 4 5 5 4 6 6 7 7 8 8 9 9 10 10 11 2 12 1 13
REMARK SMILES IDX 14 14
REMARK H PARENT 14 15
REMARK Flexibility Score: inf
ROOT
ATOM      1  C   UNL     1      -3.803   8.288   0.074  1.00  0.00     0.161 A 
ATOM      2  C   UNL     1      -3.925   9.490   0.797  1.00  0.00     0.161 A 
ATOM      3  C   UNL     1      -2.797  10.081   1.379  1.00  0.00     0.098 A 
ATOM      4  C   UNL     1      -1.540   9.486   1.248  1.00  0.00     0.142 A 
ATOM      5  C   UNL     1      -1.407   8.283   0.525  1.00  0.00     0.022 A 
ATOM      6  C   UNL     1      -2.534   7.688  -0.059  1.00  0.00     0.062 A 
ATOM      7  C   UNL     1      -0.136   7.712   0.412  1.00  0.00     0.019 A 
ATOM      8  C   UNL     1       0.955   8.342   1.010  1.00  0.00     0.094 A 
ATOM      9  C   UNL     1       0.746   9.534   1.711  1.00  0.00     0.336 A 
ATOM     10  O   UNL     1       1.717  10.119   2.259  1.00  0.00    -0.246 OA
ATOM     11  O   UNL     1      -0.474  10.056   1.804  1.00  0.00    -0.423 OA
ENDROOT
BRANCH   1  12
ATOM     12  O   UNL     1      -4.955   7.722  -0.496  1.00  0.00    -0.493 OA
ATOM     13  C   UNL     1      -5.641   8.253  -1.626  1.00  0.00     0.278 C 
ENDBRANCH   1  12
BRANCH   2  14
ATOM     14  O   UNL     1      -5.163  10.114   0.951  1.00  0.00    -0.504 OA
ATOM     15  H   UNL     1      -5.487  10.834   0.316  1.00  0.00     0.293 HD
ENDBRANCH   2  14
TORSDOF 2
ENDMDL
MODEL 8
REMARK VINA RESULT:    -4.612     12.493     12.659
REMARK INTER + INTRA:          -5.020
REMARK INTER:                  -4.967
REMARK INTRA:                  -0.053
REMARK UNBOUND:                -0.004
REMARK SMILES COc1cc2ccc(=O)oc2cc1O
REMARK SMILES IDX 3 1 13 2 12 3 11 4 5 5 4 6 6 7 7 8 8 9 9 10 10 11 2 12 1 13
REMARK SMILES IDX 14 14
REMARK H PARENT 14 15
REMARK Flexibility Score: inf
ROOT
ATOM      1  C   UNL     1      -6.415   1.588  -8.828  1.00  0.00     0.161 A 
ATOM      2  C   UNL     1      -6.581   0.375  -8.130  1.00  0.00     0.161 A 
ATOM      3  C   UNL     1      -5.519  -0.530  -8.028  1.00  0.00     0.098 A 
ATOM      4  C   UNL     1      -4.285  -0.243  -8.614  1.00  0.00     0.142 A 
ATOM      5  C   UNL     1      -4.108   0.968  -9.315  1.00  0.00     0.022 A 
ATOM      6  C   UNL     1      -5.169   1.878  -9.420  1.00  0.00     0.062 A 
ATOM      7  C   UNL     1      -2.861   1.228  -9.891  1.00  0.00     0.019 A 
ATOM      8  C   UNL     1      -1.836   0.291  -9.759  1.00  0.00     0.094 A 
ATOM      9  C   UNL     1      -2.085  -0.888  -9.049  1.00  0.00     0.336 A 
ATOM     10  O   UNL     1      -1.174  -1.747  -8.918  1.00  0.00    -0.246 OA
ATOM     11  O   UNL     1      -3.281  -1.110  -8.510  1.00  0.00    -0.423 OA
ENDROOT
BRANCH   1  12
ATOM     12  O   UNL     1      -7.501   2.473  -8.912  1.00  0.00    -0.493 OA
ATOM     13  C   UNL     1      -7.995   3.035 -10.125  1.00  0.00     0.278 C 
ENDBRANCH   1  12
BRANCH   2  14
ATOM     14  O   UNL     1      -7.798   0.052  -7.531  1.00  0.00    -0.504 OA
ATOM     15  H   UNL     1      -8.658  -0.023  -8.061  1.00  0.00     0.293 HD
ENDBRANCH   2  14
TORSDOF 2
ENDMDL
MODEL 9
REMARK VINA RESULT:    -4.536     12.365     12.774
REMARK INTER + INTRA:          -4.937
REMARK INTER:                  -4.943
REMARK INTRA:                   0.005
REMARK UNBOUND:                -0.004
REMARK SMILES COc1cc2ccc(=O)oc2cc1O
REMARK SMILES IDX 3 1 13 2 12 3 11 4 5 5 4 6 6 7 7 8 8 9 9 10 10 11 2 12 1 13
REMARK SMILES IDX 14 14
REMARK H PARENT 14 15
REMARK Flexibility Score: inf
ROOT
ATOM      1  C   UNL     1      -4.282   1.017  -9.060  1.00  0.00     0.161 A 
ATOM      2  C   UNL     1      -4.395  -0.327  -8.655  1.00  0.00     0.161 A 
ATOM      3  C   UNL     1      -3.263  -1.150  -8.620  1.00  0.00     0.098 A 
ATOM      4  C   UNL     1      -2.012  -0.648  -8.984  1.00  0.00     0.142 A 
ATOM      5  C   UNL     1      -1.888   0.696  -9.390  1.00  0.00     0.022 A 
ATOM      6  C   UNL     1      -3.019   1.524  -9.427  1.00  0.00     0.062 A 
ATOM      7  C   UNL     1      -0.622   1.169  -9.749  1.00  0.00     0.019 A 
ATOM      8  C   UNL     1       0.472   0.307  -9.695  1.00  0.00     0.094 A 
ATOM      9  C   UNL     1       0.273  -1.014  -9.282  1.00  0.00     0.336 A 
ATOM     10  O   UNL     1       1.248  -1.809  -9.227  1.00  0.00    -0.246 OA
ATOM     11  O   UNL     1      -0.942  -1.439  -8.946  1.00  0.00    -0.423 OA
ENDROOT
BRANCH   1  12
ATOM     12  O   UNL     1      -5.437   1.815  -9.084  1.00  0.00    -0.493 OA
ATOM     13  C   UNL     1      -6.410   1.797 -10.125  1.00  0.00     0.278 C 
ENDBRANCH   1  12
BRANCH   2  14
ATOM     14  O   UNL     1      -5.627  -0.865  -8.284  1.00  0.00    -0.504 OA
ATOM     15  H   UNL     1      -5.875  -1.029  -7.316  1.00  0.00     0.293 HD
ENDBRANCH   2  14
TORSDOF 2
ENDMDL
