MODEL 1
REMARK VINA RESULT:    -4.261      0.000      0.000
REMARK INTER + INTRA:         -10.143
REMARK INTER:                  -8.246
REMARK INTRA:                  -1.897
REMARK UNBOUND:                -1.897
REMARK SMILES CCCCCCCCCCCCCCCCCC(=O)[O-]
REMARK SMILES IDX 10 1 11 2 12 3 13 4 14 5 15 6 16 7 17 8 18 9 19 10 20 11
REMARK SMILES IDX 9 12 8 13 7 14 6 15 5 16 4 17 3 18 2 19 1 20
REMARK H PARENT
REMARK Flexibility Score: inf
ROOT
ATOM      1  C   UNL     1      22.622 -13.278   1.012  1.00  0.00     0.000 C 
ENDROOT
BRANCH   1   2
ATOM      2  C   UNL     1      24.077 -13.224   1.502  1.00  0.00     0.000 C 
BRANCH   2   3
ATOM      3  C   UNL     1      24.191 -12.917   3.006  1.00  0.00     0.000 C 
BRANCH   3   4
ATOM      4  C   UNL     1      25.495 -13.398   3.677  1.00  0.00     0.000 C 
BRANCH   4   5
ATOM      5  C   UNL     1      25.531 -13.270   5.210  1.00  0.00     0.000 C 
BRANCH   5   6
ATOM      6  C   UNL     1      25.903 -11.856   5.683  1.00  0.00     0.000 C 
BRANCH   6   7
ATOM      7  C   UNL     1      25.364 -11.533   7.090  1.00  0.00     0.006 C 
BRANCH   7   8
ATOM      8  C   UNL     1      25.274 -10.027   7.396  1.00  0.00     0.053 C 
BRANCH   8   9
ATOM      9  C   UNL     1      24.051  -9.671   8.183  1.00  0.00     0.041 C 
ATOM     10  O   UNL     1      23.367 -10.574   8.735  1.00  0.00    -0.550 OA
ATOM     11  O   UNL     1      23.654  -8.344   8.294  1.00  0.00    -0.550 OA
ENDBRANCH   8   9
ENDBRANCH   7   8
ENDBRANCH   6   7
ENDBRANCH   5   6
ENDBRANCH   4   5
ENDBRANCH   3   4
ENDBRANCH   2   3
ENDBRANCH   1   2
BRANCH   1  12
ATOM     12  C   UNL     1      21.726 -13.995   2.033  1.00  0.00     0.000 C 
BRANCH  12  13
ATOM     13  C   UNL     1      21.505 -15.478   1.692  1.00  0.00    -0.000 C 
BRANCH  13  14
ATOM     14  C   UNL     1      22.386 -16.417   2.535  1.00  0.00    -0.000 C 
BRANCH  14  15
ATOM     15  C   UNL     1      22.480 -15.977   4.005  1.00  0.00    -0.000 C 
BRANCH  15  16
ATOM     16  C   UNL     1      21.179 -16.230   4.784  1.00  0.00    -0.000 C 
BRANCH  16  17
ATOM     17  C   UNL     1      21.257 -15.619   6.192  1.00  0.00    -0.000 C 
BRANCH  17  18
ATOM     18  C   UNL     1      22.229 -14.431   6.269  1.00  0.00    -0.000 C 
BRANCH  18  19
ATOM     19  C   UNL     1      22.020 -13.575   7.526  1.00  0.00    -0.003 C 
ATOM     20  C   UNL     1      21.427 -14.404   8.663  1.00  0.00     0.004 C 
ENDBRANCH  18  19
ENDBRANCH  17  18
ENDBRANCH  16  17
ENDBRANCH  15  16
ENDBRANCH  14  15
ENDBRANCH  13  14
ENDBRANCH  12  13
ENDBRANCH   1  12
TORSDOF 16
ENDMDL
MODEL 2
REMARK VINA RESULT:    -4.222      1.599      4.413
REMARK INTER + INTRA:         -10.068
REMARK INTER:                  -7.705
REMARK INTRA:                  -2.363
REMARK UNBOUND:                -1.897
REMARK SMILES CCCCCCCCCCCCCCCCCC(=O)[O-]
REMARK SMILES IDX 10 1 11 2 12 3 13 4 14 5 15 6 16 7 17 8 18 9 19 10 20 11
REMARK SMILES IDX 9 12 8 13 7 14 6 15 5 16 4 17 3 18 2 19 1 20
REMARK H PARENT
REMARK Flexibility Score: inf
ROOT
ATOM      1  C   UNL     1      21.778 -14.374   2.397  1.00  0.00     0.000 C 
ENDROOT
BRANCH   1   2
ATOM      2  C   UNL     1      21.464 -15.857   2.153  1.00  0.00     0.000 C 
BRANCH   2   3
ATOM      3  C   UNL     1      22.720 -16.746   2.171  1.00  0.00     0.000 C 
BRANCH   3   4
ATOM      4  C   UNL     1      23.687 -16.491   3.347  1.00  0.00     0.000 C 
BRANCH   4   5
ATOM      5  C   UNL     1      23.261 -17.104   4.693  1.00  0.00     0.000 C 
BRANCH   5   6
ATOM      6  C   UNL     1      23.178 -16.065   5.823  1.00  0.00     0.000 C 
BRANCH   6   7
ATOM      7  C   UNL     1      21.730 -15.662   6.163  1.00  0.00     0.006 C 
BRANCH   7   8
ATOM      8  C   UNL     1      21.573 -14.193   6.592  1.00  0.00     0.053 C 
BRANCH   8   9
ATOM      9  C   UNL     1      21.544 -14.027   8.080  1.00  0.00     0.041 C 
ATOM     10  O   UNL     1      21.385 -12.884   8.587  1.00  0.00    -0.550 OA
ATOM     11  O   UNL     1      21.711 -15.129   8.908  1.00  0.00    -0.550 OA
ENDBRANCH   8   9
ENDBRANCH   7   8
ENDBRANCH   6   7
ENDBRANCH   5   6
ENDBRANCH   4   5
ENDBRANCH   3   4
ENDBRANCH   2   3
ENDBRANCH   1   2
BRANCH   1  12
ATOM     12  C   UNL     1      21.958 -13.626   1.068  1.00  0.00     0.000 C 
BRANCH  12  13
ATOM     13  C   UNL     1      23.084 -12.581   1.121  1.00  0.00    -0.000 C 
BRANCH  13  14
ATOM     14  C   UNL     1      24.378 -13.136   1.745  1.00  0.00    -0.000 C 
BRANCH  14  15
ATOM     15  C   UNL     1      24.843 -12.320   2.962  1.00  0.00    -0.000 C 
BRANCH  15  16
ATOM     16  C   UNL     1      24.585 -13.042   4.294  1.00  0.00    -0.000 C 
BRANCH  16  17
ATOM     17  C   UNL     1      25.790 -12.898   5.237  1.00  0.00    -0.000 C 
BRANCH  17  18
ATOM     18  C   UNL     1      25.622 -11.745   6.240  1.00  0.00    -0.000 C 
BRANCH  18  19
ATOM     19  C   UNL     1      24.659 -12.093   7.385  1.00  0.00    -0.003 C 
ATOM     20  C   UNL     1      24.464 -10.901   8.319  1.00  0.00     0.004 C 
ENDBRANCH  18  19
ENDBRANCH  17  18
ENDBRANCH  16  17
ENDBRANCH  15  16
ENDBRANCH  14  15
ENDBRANCH  13  14
ENDBRANCH  12  13
ENDBRANCH   1  12
TORSDOF 16
ENDMDL
MODEL 3
REMARK VINA RESULT:    -4.194      1.507      4.666
REMARK INTER + INTRA:         -10.015
REMARK INTER:                  -8.190
REMARK INTRA:                  -1.825
REMARK UNBOUND:                -1.897
REMARK SMILES CCCCCCCCCCCCCCCCCC(=O)[O-]
REMARK SMILES IDX 10 1 11 2 12 3 13 4 14 5 15 6 16 7 17 8 18 9 19 10 20 11
REMARK SMILES IDX 9 12 8 13 7 14 6 15 5 16 4 17 3 18 2 19 1 20
REMARK H PARENT
REMARK Flexibility Score: inf
ROOT
ATOM      1  C   UNL     1      23.285 -13.097   1.406  1.00  0.00     0.000 C 
ENDROOT
BRANCH   1   2
ATOM      2  C   UNL     1      21.885 -13.670   1.671  1.00  0.00     0.000 C 
BRANCH   2   3
ATOM      3  C   UNL     1      21.801 -15.187   1.417  1.00  0.00     0.000 C 
BRANCH   3   4
ATOM      4  C   UNL     1      21.509 -16.044   2.666  1.00  0.00     0.000 C 
BRANCH   4   5
ATOM      5  C   UNL     1      21.719 -15.334   4.016  1.00  0.00     0.000 C 
BRANCH   5   6
ATOM      6  C   UNL     1      22.141 -16.297   5.137  1.00  0.00     0.000 C 
BRANCH   6   7
ATOM      7  C   UNL     1      21.547 -15.918   6.508  1.00  0.00     0.006 C 
BRANCH   7   8
ATOM      8  C   UNL     1      21.522 -14.405   6.783  1.00  0.00     0.053 C 
BRANCH   8   9
ATOM      9  C   UNL     1      21.503 -14.085   8.246  1.00  0.00     0.041 C 
ATOM     10  O   UNL     1      21.636 -15.005   9.097  1.00  0.00    -0.550 OA
ATOM     11  O   UNL     1      21.320 -12.776   8.672  1.00  0.00    -0.550 OA
ENDBRANCH   8   9
ENDBRANCH   7   8
ENDBRANCH   6   7
ENDBRANCH   5   6
ENDBRANCH   4   5
ENDBRANCH   3   4
ENDBRANCH   2   3
ENDBRANCH   1   2
BRANCH   1  12
ATOM     12  C   UNL     1      24.111 -13.048   2.700  1.00  0.00     0.000 C 
BRANCH  12  13
ATOM     13  C   UNL     1      25.182 -14.149   2.765  1.00  0.00    -0.000 C 
BRANCH  13  14
ATOM     14  C   UNL     1      25.464 -14.615   4.204  1.00  0.00    -0.000 C 
BRANCH  14  15
ATOM     15  C   UNL     1      24.847 -13.682   5.259  1.00  0.00    -0.000 C 
BRANCH  15  16
ATOM     16  C   UNL     1      25.815 -12.578   5.714  1.00  0.00    -0.000 C 
BRANCH  16  17
ATOM     17  C   UNL     1      25.276 -11.856   6.959  1.00  0.00    -0.000 C 
BRANCH  17  18
ATOM     18  C   UNL     1      25.873 -10.451   7.133  1.00  0.00    -0.000 C 
BRANCH  18  19
ATOM     19  C   UNL     1      24.898  -9.472   7.802  1.00  0.00    -0.003 C 
ATOM     20  C   UNL     1      23.822 -10.218   8.588  1.00  0.00     0.004 C 
ENDBRANCH  18  19
ENDBRANCH  17  18
ENDBRANCH  16  17
ENDBRANCH  15  16
ENDBRANCH  14  15
ENDBRANCH  13  14
ENDBRANCH  12  13
ENDBRANCH   1  12
TORSDOF 16
ENDMDL
MODEL 4
REMARK VINA RESULT:    -4.168      1.144      1.846
REMARK INTER + INTRA:          -9.965
REMARK INTER:                  -7.121
REMARK INTRA:                  -2.843
REMARK UNBOUND:                -1.897
REMARK SMILES CCCCCCCCCCCCCCCCCC(=O)[O-]
REMARK SMILES IDX 10 1 11 2 12 3 13 4 14 5 15 6 16 7 17 8 18 9 19 10 20 11
REMARK SMILES IDX 9 12 8 13 7 14 6 15 5 16 4 17 3 18 2 19 1 20
REMARK H PARENT
REMARK Flexibility Score: inf
ROOT
ATOM      1  C   UNL     1      21.849 -14.366   2.664  1.00  0.00     0.000 C 
ENDROOT
BRANCH   1   2
ATOM      2  C   UNL     1      22.479 -13.606   1.488  1.00  0.00     0.000 C 
BRANCH   2   3
ATOM      3  C   UNL     1      23.722 -12.794   1.897  1.00  0.00     0.000 C 
BRANCH   3   4
ATOM      4  C   UNL     1      25.006 -13.624   2.109  1.00  0.00     0.000 C 
BRANCH   4   5
ATOM      5  C   UNL     1      25.653 -13.490   3.499  1.00  0.00     0.000 C 
BRANCH   5   6
ATOM      6  C   UNL     1      24.697 -12.902   4.549  1.00  0.00     0.000 C 
BRANCH   6   7
ATOM      7  C   UNL     1      25.419 -12.034   5.598  1.00  0.00     0.006 C 
BRANCH   7   8
ATOM      8  C   UNL     1      24.911 -12.238   7.036  1.00  0.00     0.053 C 
BRANCH   8   9
ATOM      9  C   UNL     1      24.712 -10.946   7.766  1.00  0.00     0.041 C 
ATOM     10  O   UNL     1      25.585 -10.040   7.701  1.00  0.00    -0.550 OA
ATOM     11  O   UNL     1      23.571 -10.747   8.533  1.00  0.00    -0.550 OA
ENDBRANCH   8   9
ENDBRANCH   7   8
ENDBRANCH   6   7
ENDBRANCH   5   6
ENDBRANCH   4   5
ENDBRANCH   3   4
ENDBRANCH   2   3
ENDBRANCH   1   2
BRANCH   1  12
ATOM     12  C   UNL     1      21.541 -15.819   2.275  1.00  0.00     0.000 C 
BRANCH  12  13
ATOM     13  C   UNL     1      22.810 -16.665   2.085  1.00  0.00    -0.000 C 
BRANCH  13  14
ATOM     14  C   UNL     1      23.157 -17.501   3.329  1.00  0.00    -0.000 C 
BRANCH  14  15
ATOM     15  C   UNL     1      24.197 -16.816   4.230  1.00  0.00    -0.000 C 
BRANCH  15  16
ATOM     16  C   UNL     1      23.576 -16.200   5.493  1.00  0.00    -0.000 C 
BRANCH  16  17
ATOM     17  C   UNL     1      22.200 -16.821   5.785  1.00  0.00    -0.000 C 
BRANCH  17  18
ATOM     18  C   UNL     1      21.136 -15.767   6.126  1.00  0.00    -0.000 C 
BRANCH  18  19
ATOM     19  C   UNL     1      21.727 -14.360   6.291  1.00  0.00    -0.003 C 
ATOM     20  C   UNL     1      21.601 -13.876   7.734  1.00  0.00     0.004 C 
ENDBRANCH  18  19
ENDBRANCH  17  18
ENDBRANCH  16  17
ENDBRANCH  15  16
ENDBRANCH  14  15
ENDBRANCH  13  14
ENDBRANCH  12  13
ENDBRANCH   1  12
TORSDOF 16
ENDMDL
MODEL 5
REMARK VINA RESULT:    -4.131      1.283      2.217
REMARK INTER + INTRA:          -9.892
REMARK INTER:                  -7.221
REMARK INTRA:                  -2.672
REMARK UNBOUND:                -1.897
REMARK SMILES CCCCCCCCCCCCCCCCCC(=O)[O-]
REMARK SMILES IDX 10 1 11 2 12 3 13 4 14 5 15 6 16 7 17 8 18 9 19 10 20 11
REMARK SMILES IDX 9 12 8 13 7 14 6 15 5 16 4 17 3 18 2 19 1 20
REMARK H PARENT
REMARK Flexibility Score: inf
ROOT
ATOM      1  C   UNL     1      21.829 -13.991   2.157  1.00  0.00     0.000 C 
ENDROOT
BRANCH   1   2
ATOM      2  C   UNL     1      22.153 -13.207   0.876  1.00  0.00     0.000 C 
BRANCH   2   3
ATOM      3  C   UNL     1      23.467 -12.411   0.978  1.00  0.00     0.000 C 
BRANCH   3   4
ATOM      4  C   UNL     1      24.111 -12.386   2.380  1.00  0.00     0.000 C 
BRANCH   4   5
ATOM      5  C   UNL     1      25.635 -12.169   2.400  1.00  0.00     0.000 C 
BRANCH   5   6
ATOM      6  C   UNL     1      26.246 -12.354   3.798  1.00  0.00     0.000 C 
BRANCH   6   7
ATOM      7  C   UNL     1      25.622 -11.420   4.853  1.00  0.00     0.006 C 
BRANCH   7   8
ATOM      8  C   UNL     1      25.979 -11.787   6.304  1.00  0.00     0.053 C 
BRANCH   8   9
ATOM      9  C   UNL     1      25.164 -11.030   7.307  1.00  0.00     0.041 C 
ATOM     10  O   UNL     1      24.280 -11.623   7.982  1.00  0.00    -0.550 OA
ATOM     11  O   UNL     1      25.367  -9.667   7.485  1.00  0.00    -0.550 OA
ENDBRANCH   8   9
ENDBRANCH   7   8
ENDBRANCH   6   7
ENDBRANCH   5   6
ENDBRANCH   4   5
ENDBRANCH   3   4
ENDBRANCH   2   3
ENDBRANCH   1   2
BRANCH   1  12
ATOM     12  C   UNL     1      21.791 -15.501   1.879  1.00  0.00     0.000 C 
BRANCH  12  13
ATOM     13  C   UNL     1      23.182 -16.153   1.939  1.00  0.00    -0.000 C 
BRANCH  13  14
ATOM     14  C   UNL     1      23.574 -16.579   3.365  1.00  0.00    -0.000 C 
BRANCH  14  15
ATOM     15  C   UNL     1      24.786 -15.800   3.902  1.00  0.00    -0.000 C 
BRANCH  15  16
ATOM     16  C   UNL     1      24.519 -15.155   5.271  1.00  0.00    -0.000 C 
BRANCH  16  17
ATOM     17  C   UNL     1      23.136 -14.485   5.299  1.00  0.00    -0.000 C 
BRANCH  17  18
ATOM     18  C   UNL     1      22.521 -14.457   6.707  1.00  0.00    -0.000 C 
BRANCH  18  19
ATOM     19  C   UNL     1      21.110 -15.062   6.749  1.00  0.00    -0.003 C 
ATOM     20  C   UNL     1      20.874 -15.988   5.558  1.00  0.00     0.004 C 
ENDBRANCH  18  19
ENDBRANCH  17  18
ENDBRANCH  16  17
ENDBRANCH  15  16
ENDBRANCH  14  15
ENDBRANCH  13  14
ENDBRANCH  12  13
ENDBRANCH   1  12
TORSDOF 16
ENDMDL
MODEL 6
REMARK VINA RESULT:    -4.119      8.389     12.691
REMARK INTER + INTRA:          -9.870
REMARK INTER:                  -7.394
REMARK INTRA:                  -2.476
REMARK UNBOUND:                -1.897
REMARK SMILES CCCCCCCCCCCCCCCCCC(=O)[O-]
REMARK SMILES IDX 10 1 11 2 12 3 13 4 14 5 15 6 16 7 17 8 18 9 19 10 20 11
REMARK SMILES IDX 9 12 8 13 7 14 6 15 5 16 4 17 3 18 2 19 1 20
REMARK H PARENT
REMARK Flexibility Score: inf
ROOT
ATOM      1  C   UNL     1      29.027  -3.038  11.778  1.00  0.00     0.000 C 
ENDROOT
BRANCH   1   2
ATOM      2  C   UNL     1      29.659  -1.832  12.488  1.00  0.00     0.000 C 
BRANCH   2   3
ATOM      3  C   UNL     1      29.047  -0.490  12.046  1.00  0.00     0.000 C 
BRANCH   3   4
ATOM      4  C   UNL     1      27.562  -0.551  11.631  1.00  0.00     0.000 C 
BRANCH   4   5
ATOM      5  C   UNL     1      27.269  -0.143  10.176  1.00  0.00     0.000 C 
BRANCH   5   6
ATOM      6  C   UNL     1      25.869  -0.572   9.707  1.00  0.00     0.000 C 
BRANCH   6   7
ATOM      7  C   UNL     1      25.372  -1.856  10.398  1.00  0.00     0.006 C 
BRANCH   7   8
ATOM      8  C   UNL     1      24.547  -2.779   9.485  1.00  0.00     0.053 C 
BRANCH   8   9
ATOM      9  C   UNL     1      23.078  -2.713   9.774  1.00  0.00     0.041 C 
ATOM     10  O   UNL     1      22.482  -3.712  10.258  1.00  0.00    -0.550 OA
ATOM     11  O   UNL     1      22.363  -1.556   9.492  1.00  0.00    -0.550 OA
ENDBRANCH   8   9
ENDBRANCH   7   8
ENDBRANCH   6   7
ENDBRANCH   5   6
ENDBRANCH   4   5
ENDBRANCH   3   4
ENDBRANCH   2   3
ENDBRANCH   1   2
BRANCH   1  12
ATOM     12  C   UNL     1      29.986  -3.619  10.728  1.00  0.00     0.000 C 
BRANCH  12  13
ATOM     13  C   UNL     1      29.632  -3.187   9.295  1.00  0.00    -0.000 C 
BRANCH  13  14
ATOM     14  C   UNL     1      28.249  -3.695   8.849  1.00  0.00    -0.000 C 
BRANCH  14  15
ATOM     15  C   UNL     1      27.752  -3.005   7.568  1.00  0.00    -0.000 C 
BRANCH  15  16
ATOM     16  C   UNL     1      27.197  -3.999   6.536  1.00  0.00    -0.000 C 
BRANCH  16  17
ATOM     17  C   UNL     1      26.896  -5.357   7.191  1.00  0.00    -0.000 C 
BRANCH  17  18
ATOM     18  C   UNL     1      25.648  -6.034   6.602  1.00  0.00    -0.000 C 
BRANCH  18  19
ATOM     19  C   UNL     1      24.356  -5.262   6.908  1.00  0.00    -0.003 C 
ATOM     20  C   UNL     1      23.370  -6.129   7.687  1.00  0.00     0.004 C 
ENDBRANCH  18  19
ENDBRANCH  17  18
ENDBRANCH  16  17
ENDBRANCH  15  16
ENDBRANCH  14  15
ENDBRANCH  13  14
ENDBRANCH  12  13
ENDBRANCH   1  12
TORSDOF 16
ENDMDL
MODEL 7
REMARK VINA RESULT:    -4.105      7.584     12.846
REMARK INTER + INTRA:          -9.843
REMARK INTER:                  -7.871
REMARK INTRA:                  -1.972
REMARK UNBOUND:                -1.897
REMARK SMILES CCCCCCCCCCCCCCCCCC(=O)[O-]
REMARK SMILES IDX 10 1 11 2 12 3 13 4 14 5 15 6 16 7 17 8 18 9 19 10 20 11
REMARK SMILES IDX 9 12 8 13 7 14 6 15 5 16 4 17 3 18 2 19 1 20
REMARK H PARENT
REMARK Flexibility Score: inf
ROOT
ATOM      1  C   UNL     1      28.624  -2.758  11.755  1.00  0.00     0.000 C 
ENDROOT
BRANCH   1   2
ATOM      2  C   UNL     1      29.298  -3.382  10.524  1.00  0.00     0.000 C 
BRANCH   2   3
ATOM      3  C   UNL     1      28.377  -3.413   9.290  1.00  0.00     0.000 C 
BRANCH   3   4
ATOM      4  C   UNL     1      28.545  -4.647   8.379  1.00  0.00     0.000 C 
BRANCH   4   5
ATOM      5  C   UNL     1      27.762  -4.598   7.055  1.00  0.00     0.000 C 
BRANCH   5   6
ATOM      6  C   UNL     1      27.006  -5.903   6.760  1.00  0.00     0.000 C 
BRANCH   6   7
ATOM      7  C   UNL     1      25.485  -5.697   6.619  1.00  0.00     0.006 C 
BRANCH   7   8
ATOM      8  C   UNL     1      24.687  -7.005   6.478  1.00  0.00     0.053 C 
BRANCH   8   9
ATOM      9  C   UNL     1      23.689  -7.193   7.579  1.00  0.00     0.041 C 
ATOM     10  O   UNL     1      23.526  -8.329   8.099  1.00  0.00    -0.550 OA
ATOM     11  O   UNL     1      22.926  -6.119   8.019  1.00  0.00    -0.550 OA
ENDBRANCH   8   9
ENDBRANCH   7   8
ENDBRANCH   6   7
ENDBRANCH   5   6
ENDBRANCH   4   5
ENDBRANCH   3   4
ENDBRANCH   2   3
ENDBRANCH   1   2
BRANCH   1  12
ATOM     12  C   UNL     1      29.355  -1.479  12.191  1.00  0.00     0.000 C 
BRANCH  12  13
ATOM     13  C   UNL     1      28.471  -0.226  12.091  1.00  0.00    -0.000 C 
BRANCH  13  14
ATOM     14  C   UNL     1      28.253   0.231  10.637  1.00  0.00    -0.000 C 
BRANCH  14  15
ATOM     15  C   UNL     1      26.771   0.216  10.230  1.00  0.00    -0.000 C 
BRANCH  15  16
ATOM     16  C   UNL     1      25.845  -0.227  11.374  1.00  0.00    -0.000 C 
BRANCH  16  17
ATOM     17  C   UNL     1      24.894  -1.341  10.909  1.00  0.00    -0.000 C 
BRANCH  17  18
ATOM     18  C   UNL     1      25.208  -1.831   9.487  1.00  0.00    -0.000 C 
BRANCH  18  19
ATOM     19  C   UNL     1      24.343  -3.028   9.069  1.00  0.00    -0.003 C 
ATOM     20  C   UNL     1      23.060  -3.094   9.893  1.00  0.00     0.004 C 
ENDBRANCH  18  19
ENDBRANCH  17  18
ENDBRANCH  16  17
ENDBRANCH  15  16
ENDBRANCH  14  15
ENDBRANCH  13  14
ENDBRANCH  12  13
ENDBRANCH   1  12
TORSDOF 16
ENDMDL
MODEL 8
REMARK VINA RESULT:    -4.034      1.961      5.666
REMARK INTER + INTRA:          -9.705
REMARK INTER:                  -8.331
REMARK INTRA:                  -1.374
REMARK UNBOUND:                -1.897
REMARK SMILES CCCCCCCCCCCCCCCCCC(=O)[O-]
REMARK SMILES IDX 10 1 11 2 12 3 13 4 14 5 15 6 16 7 17 8 18 9 19 10 20 11
REMARK SMILES IDX 9 12 8 13 7 14 6 15 5 16 4 17 3 18 2 19 1 20
REMARK H PARENT
REMARK Flexibility Score: inf
ROOT
ATOM      1  C   UNL     1      24.557 -11.316   2.597  1.00  0.00     0.000 C 
ENDROOT
BRANCH   1   2
ATOM      2  C   UNL     1      24.285 -12.810   2.828  1.00  0.00     0.000 C 
BRANCH   2   3
ATOM      3  C   UNL     1      23.241 -13.386   1.854  1.00  0.00     0.000 C 
BRANCH   3   4
ATOM      4  C   UNL     1      22.038 -14.085   2.521  1.00  0.00     0.000 C 
BRANCH   4   5
ATOM      5  C   UNL     1      22.302 -14.643   3.932  1.00  0.00     0.000 C 
BRANCH   5   6
ATOM      6  C   UNL     1      21.572 -15.971   4.194  1.00  0.00     0.000 C 
BRANCH   6   7
ATOM      7  C   UNL     1      21.104 -16.119   5.655  1.00  0.00     0.006 C 
BRANCH   7   8
ATOM      8  C   UNL     1      22.225 -15.940   6.693  1.00  0.00     0.053 C 
BRANCH   8   9
ATOM      9  C   UNL     1      21.839 -15.014   7.805  1.00  0.00     0.041 C 
ATOM     10  O   UNL     1      21.790 -15.434   8.992  1.00  0.00    -0.550 OA
ATOM     11  O   UNL     1      21.515 -13.691   7.530  1.00  0.00    -0.550 OA
ENDBRANCH   8   9
ENDBRANCH   7   8
ENDBRANCH   6   7
ENDBRANCH   5   6
ENDBRANCH   4   5
ENDBRANCH   3   4
ENDBRANCH   2   3
ENDBRANCH   1   2
BRANCH   1  12
ATOM     12  C   UNL     1      25.432 -10.739   3.720  1.00  0.00     0.000 C 
BRANCH  12  13
ATOM     13  C   UNL     1      26.047 -11.827   4.614  1.00  0.00    -0.000 C 
BRANCH  13  14
ATOM     14  C   UNL     1      25.982 -11.471   6.110  1.00  0.00    -0.000 C 
BRANCH  14  15
ATOM     15  C   UNL     1      24.870 -12.232   6.850  1.00  0.00    -0.000 C 
BRANCH  15  16
ATOM     16  C   UNL     1      24.294 -11.438   8.033  1.00  0.00    -0.000 C 
BRANCH  16  17
ATOM     17  C   UNL     1      24.920 -10.037   8.109  1.00  0.00    -0.000 C 
BRANCH  17  18
ATOM     18  C   UNL     1      23.868  -8.917   8.103  1.00  0.00    -0.000 C 
BRANCH  18  19
ATOM     19  C   UNL     1      24.330  -7.674   7.330  1.00  0.00    -0.003 C 
ATOM     20  C   UNL     1      23.290  -6.560   7.407  1.00  0.00     0.004 C 
ENDBRANCH  18  19
ENDBRANCH  17  18
ENDBRANCH  16  17
ENDBRANCH  15  16
ENDBRANCH  14  15
ENDBRANCH  13  14
ENDBRANCH  12  13
ENDBRANCH   1  12
TORSDOF 16
ENDMDL
MODEL 9
REMARK VINA RESULT:    -3.970      1.992      4.209
REMARK INTER + INTRA:          -9.581
REMARK INTER:                  -8.029
REMARK INTRA:                  -1.552
REMARK UNBOUND:                -1.897
REMARK SMILES CCCCCCCCCCCCCCCCCC(=O)[O-]
REMARK SMILES IDX 10 1 11 2 12 3 13 4 14 5 15 6 16 7 17 8 18 9 19 10 20 11
REMARK SMILES IDX 9 12 8 13 7 14 6 15 5 16 4 17 3 18 2 19 1 20
REMARK H PARENT
REMARK Flexibility Score: inf
ROOT
ATOM      1  C   UNL     1      25.618 -10.839   4.357  1.00  0.00     0.000 C 
ENDROOT
BRANCH   1   2
ATOM      2  C   UNL     1      26.063 -11.759   5.504  1.00  0.00     0.000 C 
BRANCH   2   3
ATOM      3  C   UNL     1      24.889 -12.230   6.383  1.00  0.00     0.000 C 
BRANCH   3   4
ATOM      4  C   UNL     1      24.869 -11.652   7.813  1.00  0.00     0.000 C 
BRANCH   4   5
ATOM      5  C   UNL     1      25.114 -10.136   7.914  1.00  0.00     0.000 C 
BRANCH   5   6
ATOM      6  C   UNL     1      23.860  -9.355   8.338  1.00  0.00     0.000 C 
BRANCH   6   7
ATOM      7  C   UNL     1      23.768  -7.964   7.682  1.00  0.00     0.006 C 
BRANCH   7   8
ATOM      8  C   UNL     1      24.896  -7.670   6.678  1.00  0.00     0.053 C 
BRANCH   8   9
ATOM      9  C   UNL     1      25.428  -6.275   6.801  1.00  0.00     0.041 C 
ATOM     10  O   UNL     1      26.667  -6.077   6.916  1.00  0.00    -0.550 OA
ATOM     11  O   UNL     1      24.555  -5.194   6.808  1.00  0.00    -0.550 OA
ENDBRANCH   8   9
ENDBRANCH   7   8
ENDBRANCH   6   7
ENDBRANCH   5   6
ENDBRANCH   4   5
ENDBRANCH   3   4
ENDBRANCH   2   3
ENDBRANCH   1   2
BRANCH   1  12
ATOM     12  C   UNL     1      25.179 -11.659   3.135  1.00  0.00     0.000 C 
BRANCH  12  13
ATOM     13  C   UNL     1      24.588 -10.789   2.015  1.00  0.00    -0.000 C 
BRANCH  13  14
ATOM     14  C   UNL     1      23.709 -11.594   1.041  1.00  0.00    -0.000 C 
BRANCH  14  15
ATOM     15  C   UNL     1      23.583 -13.072   1.445  1.00  0.00    -0.000 C 
BRANCH  15  16
ATOM     16  C   UNL     1      22.157 -13.616   1.265  1.00  0.00    -0.000 C 
BRANCH  16  17
ATOM     17  C   UNL     1      21.758 -14.509   2.451  1.00  0.00    -0.000 C 
BRANCH  17  18
ATOM     18  C   UNL     1      22.703 -14.353   3.652  1.00  0.00    -0.000 C 
BRANCH  18  19
ATOM     19  C   UNL     1      22.325 -15.268   4.826  1.00  0.00    -0.003 C 
ATOM     20  C   UNL     1      21.815 -14.456   6.013  1.00  0.00     0.004 C 
ENDBRANCH  18  19
ENDBRANCH  17  18
ENDBRANCH  16  17
ENDBRANCH  15  16
ENDBRANCH  14  15
ENDBRANCH  13  14
ENDBRANCH  12  13
ENDBRANCH   1  12
TORSDOF 16
ENDMDL
