MODEL 1
REMARK VINA RESULT:    -4.441      0.000      0.000
REMARK INTER + INTRA:          -5.229
REMARK INTER:                  -5.090
REMARK INTRA:                  -0.139
REMARK UNBOUND:                -0.139
REMARK SMILES COc1ccc(C(C)=O)cc1O
REMARK SMILES IDX 6 1 10 2 11 3 3 4 4 5 5 6 7 7 8 8 9 9 12 10 2 12 1 13
REMARK H PARENT 12 11
REMARK Flexibility Score: inf
ROOT
ATOM      1  C   UNL     1      29.053  31.698  23.932  1.00  0.00     0.021 A 
ATOM      2  C   UNL     1      29.098  31.518  25.326  1.00  0.00     0.062 A 
ATOM      3  C   UNL     1      29.078  30.232  25.885  1.00  0.00     0.158 A 
ATOM      4  C   UNL     1      29.013  29.104  25.058  1.00  0.00     0.160 A 
ATOM      5  C   UNL     1      28.968  29.278  23.663  1.00  0.00     0.051 A 
ATOM      6  C   UNL     1      28.988  30.559  23.107  1.00  0.00     0.016 A 
ENDROOT
BRANCH   1   7
ATOM      7  C   UNL     1      29.075  33.070  23.356  1.00  0.00     0.159 C 
ATOM      8  C   UNL     1      29.125  33.309  21.876  1.00  0.00     0.093 C 
ATOM      9  O   UNL     1      29.052  34.072  24.123  1.00  0.00    -0.295 OA
ENDBRANCH   1   7
BRANCH   3  10
ATOM     10  O   UNL     1      29.124  30.068  27.269  1.00  0.00    -0.504 OA
ATOM     11  H   UNL     1      29.598  30.734  27.867  1.00  0.00     0.293 HD
ENDBRANCH   3  10
BRANCH   4  12
ATOM     12  O   UNL     1      28.996  27.834  25.655  1.00  0.00    -0.493 OA
ATOM     13  C   UNL     1      27.843  27.003  25.750  1.00  0.00     0.278 C 
ENDBRANCH   4  12
TORSDOF 3
ENDMDL
MODEL 2
REMARK VINA RESULT:    -3.847      1.522      2.306
REMARK INTER + INTRA:          -4.548
REMARK INTER:                  -4.430
REMARK INTRA:                  -0.119
REMARK UNBOUND:                -0.139
REMARK SMILES COc1ccc(C(C)=O)cc1O
REMARK SMILES IDX 6 1 10 2 11 3 3 4 4 5 5 6 7 7 8 8 9 9 12 10 2 12 1 13
REMARK H PARENT 12 11
REMARK Flexibility Score: inf
ROOT
ATOM      1  C   UNL     1      28.550  31.486  24.396  1.00  0.00     0.021 A 
ATOM      2  C   UNL     1      27.660  30.590  23.776  1.00  0.00     0.062 A 
ATOM      3  C   UNL     1      27.351  29.358  24.371  1.00  0.00     0.158 A 
ATOM      4  C   UNL     1      27.927  29.003  25.597  1.00  0.00     0.160 A 
ATOM      5  C   UNL     1      28.817  29.894  26.222  1.00  0.00     0.051 A 
ATOM      6  C   UNL     1      29.125  31.121  25.628  1.00  0.00     0.016 A 
ENDROOT
BRANCH   1   7
ATOM      7  C   UNL     1      28.867  32.788  23.750  1.00  0.00     0.159 C 
ATOM      8  C   UNL     1      29.118  34.031  24.551  1.00  0.00     0.093 C 
ATOM      9  O   UNL     1      28.929  32.865  22.492  1.00  0.00    -0.295 OA
ENDBRANCH   1   7
BRANCH   3  10
ATOM     10  O   UNL     1      26.467  28.480  23.747  1.00  0.00    -0.504 OA
ATOM     11  H   UNL     1      26.296  28.518  22.749  1.00  0.00     0.293 HD
ENDBRANCH   3  10
BRANCH   4  12
ATOM     12  O   UNL     1      27.592  27.761  26.161  1.00  0.00    -0.493 OA
ATOM     13  C   UNL     1      28.335  26.562  25.969  1.00  0.00     0.278 C 
ENDBRANCH   4  12
TORSDOF 3
ENDMDL
MODEL 3
REMARK VINA RESULT:    -3.482      1.546      5.099
REMARK INTER + INTRA:          -4.129
REMARK INTER:                  -4.034
REMARK INTRA:                  -0.095
REMARK UNBOUND:                -0.139
REMARK SMILES COc1ccc(C(C)=O)cc1O
REMARK SMILES IDX 6 1 10 2 11 3 3 4 4 5 5 6 7 7 8 8 9 9 12 10 2 12 1 13
REMARK H PARENT 12 11
REMARK Flexibility Score: inf
ROOT
ATOM      1  C   UNL     1      28.433  27.500  25.547  1.00  0.00     0.021 A 
ATOM      2  C   UNL     1      28.571  28.269  26.717  1.00  0.00     0.062 A 
ATOM      3  C   UNL     1      28.801  29.650  26.646  1.00  0.00     0.158 A 
ATOM      4  C   UNL     1      28.895  30.286  25.401  1.00  0.00     0.160 A 
ATOM      5  C   UNL     1      28.758  29.523  24.228  1.00  0.00     0.051 A 
ATOM      6  C   UNL     1      28.529  28.146  24.300  1.00  0.00     0.016 A 
ENDROOT
BRANCH   1   7
ATOM      7  C   UNL     1      28.190  26.035  25.641  1.00  0.00     0.159 C 
ATOM      8  C   UNL     1      26.856  25.476  26.037  1.00  0.00     0.093 C 
ATOM      9  O   UNL     1      29.124  25.227  25.383  1.00  0.00    -0.295 OA
ENDBRANCH   1   7
BRANCH   3  10
ATOM     10  O   UNL     1      28.935  30.401  27.813  1.00  0.00    -0.504 OA
ATOM     11  H   UNL     1      29.767  30.947  27.999  1.00  0.00     0.293 HD
ENDBRANCH   3  10
BRANCH   4  12
ATOM     12  O   UNL     1      29.125  31.671  25.371  1.00  0.00    -0.493 OA
ATOM     13  C   UNL     1      29.057  32.474  24.197  1.00  0.00     0.278 C 
ENDBRANCH   4  12
TORSDOF 3
ENDMDL
MODEL 4
REMARK VINA RESULT:    -3.353      2.229      5.974
REMARK INTER + INTRA:          -3.982
REMARK INTER:                  -3.968
REMARK INTRA:                  -0.014
REMARK UNBOUND:                -0.139
REMARK SMILES COc1ccc(C(C)=O)cc1O
REMARK SMILES IDX 6 1 10 2 11 3 3 4 4 5 5 6 7 7 8 8 9 9 12 10 2 12 1 13
REMARK H PARENT 12 11
REMARK Flexibility Score: inf
ROOT
ATOM      1  C   UNL     1      27.800  26.260  25.787  1.00  0.00     0.021 A 
ATOM      2  C   UNL     1      26.979  27.119  25.033  1.00  0.00     0.062 A 
ATOM      3  C   UNL     1      27.218  28.500  25.004  1.00  0.00     0.158 A 
ATOM      4  C   UNL     1      28.284  29.046  25.730  1.00  0.00     0.160 A 
ATOM      5  C   UNL     1      29.109  28.193  26.485  1.00  0.00     0.051 A 
ATOM      6  C   UNL     1      28.870  26.817  26.513  1.00  0.00     0.016 A 
ENDROOT
BRANCH   1   7
ATOM      7  C   UNL     1      27.531  24.797  25.805  1.00  0.00     0.159 C 
ATOM      8  C   UNL     1      28.204  23.855  24.852  1.00  0.00     0.093 C 
ATOM      9  O   UNL     1      26.716  24.320  26.642  1.00  0.00    -0.295 OA
ENDBRANCH   1   7
BRANCH   3  10
ATOM     10  O   UNL     1      26.397  29.339  24.252  1.00  0.00    -0.504 OA
ATOM     11  H   UNL     1      25.509  29.021  23.884  1.00  0.00     0.293 HD
ENDBRANCH   3  10
BRANCH   4  12
ATOM     12  O   UNL     1      28.492  30.433  25.676  1.00  0.00    -0.493 OA
ATOM     13  C   UNL     1      29.125  31.112  24.595  1.00  0.00     0.278 C 
ENDBRANCH   4  12
TORSDOF 3
ENDMDL
MODEL 5
REMARK VINA RESULT:    -3.143      2.926      4.502
REMARK INTER + INTRA:          -3.741
REMARK INTER:                  -3.639
REMARK INTRA:                  -0.102
REMARK UNBOUND:                -0.139
REMARK SMILES COc1ccc(C(C)=O)cc1O
REMARK SMILES IDX 6 1 10 2 11 3 3 4 4 5 5 6 7 7 8 8 9 9 12 10 2 12 1 13
REMARK H PARENT 12 11
REMARK Flexibility Score: inf
ROOT
ATOM      1  C   UNL     1      28.096  27.954  25.410  1.00  0.00     0.021 A 
ATOM      2  C   UNL     1      26.969  27.383  26.029  1.00  0.00     0.062 A 
ATOM      3  C   UNL     1      26.869  25.995  26.200  1.00  0.00     0.158 A 
ATOM      4  C   UNL     1      27.897  25.154  25.754  1.00  0.00     0.160 A 
ATOM      5  C   UNL     1      29.027  25.719  25.135  1.00  0.00     0.051 A 
ATOM      6  C   UNL     1      29.125  27.102  24.965  1.00  0.00     0.016 A 
ENDROOT
BRANCH   1   7
ATOM      7  C   UNL     1      28.185  29.429  25.238  1.00  0.00     0.159 C 
ATOM      8  C   UNL     1      28.921  30.299  26.213  1.00  0.00     0.093 C 
ATOM      9  O   UNL     1      27.630  29.979  24.247  1.00  0.00    -0.295 OA
ENDBRANCH   1   7
BRANCH   3  10
ATOM     10  O   UNL     1      25.747  25.442  26.815  1.00  0.00    -0.504 OA
ATOM     11  H   UNL     1      25.015  24.993  26.278  1.00  0.00     0.293 HD
ENDBRANCH   3  10
BRANCH   4  12
ATOM     12  O   UNL     1      27.761  23.769  25.943  1.00  0.00    -0.493 OA
ATOM     13  C   UNL     1      27.207  22.875  24.983  1.00  0.00     0.278 C 
ENDBRANCH   4  12
TORSDOF 3
ENDMDL
