MODEL 1
REMARK VINA RESULT:    -5.642      0.000      0.000
REMARK INTER + INTRA:         -16.091
REMARK INTER:                 -12.899
REMARK INTRA:                  -3.192
REMARK UNBOUND:                -3.192
REMARK SMILES CCCCCCCCCCCCCCCCCCCCCCCC(=O)[O-]
REMARK SMILES IDX 13 1 14 2 15 3 16 4 17 5 18 6 19 7 20 8 21 9 22 10 23 11
REMARK SMILES IDX 24 12 25 13 26 14 12 15 11 16 10 17 9 18 8 19 7 20 6 21 5 22
REMARK SMILES IDX 4 23 3 24 2 25 1 26
REMARK H PARENT
REMARK Flexibility Score: inf
ROOT
ATOM      1  C   UNL     1      -6.377 -14.290  27.413  1.00  0.00     0.000 C 
ENDROOT
BRANCH   1   2
ATOM      2  C   UNL     1      -7.525 -14.980  26.656  1.00  0.00     0.000 C 
BRANCH   2   3
ATOM      3  C   UNL     1      -8.822 -14.145  26.596  1.00  0.00     0.000 C 
BRANCH   3   4
ATOM      4  C   UNL     1      -9.971 -14.908  25.914  1.00  0.00     0.000 C 
BRANCH   4   5
ATOM      5  C   UNL     1     -10.890 -15.619  26.921  1.00  0.00     0.000 C 
BRANCH   5   6
ATOM      6  C   UNL     1     -12.351 -15.679  26.441  1.00  0.00     0.000 C 
BRANCH   6   7
ATOM      7  C   UNL     1     -13.340 -16.026  27.570  1.00  0.00     0.000 C 
BRANCH   7   8
ATOM      8  C   UNL     1     -12.722 -16.128  28.978  1.00  0.00     0.000 C 
BRANCH   8   9
ATOM      9  C   UNL     1     -12.984 -17.487  29.651  1.00  0.00     0.000 C 
BRANCH   9  10
ATOM     10  C   UNL     1     -12.017 -18.585  29.167  1.00  0.00     0.006 C 
BRANCH  10  11
ATOM     11  C   UNL     1     -10.533 -18.219  29.328  1.00  0.00     0.053 C 
BRANCH  11  12
ATOM     12  C   UNL     1     -10.070 -18.308  30.748  1.00  0.00     0.041 C 
ATOM     13  O   UNL     1      -9.103 -17.605  31.145  1.00  0.00    -0.550 OA
ATOM     14  O   UNL     1     -10.706 -19.169  31.634  1.00  0.00    -0.550 OA
ENDBRANCH  11  12
ENDBRANCH  10  11
ENDBRANCH   9  10
ENDBRANCH   8   9
ENDBRANCH   7   8
ENDBRANCH   6   7
ENDBRANCH   5   6
ENDBRANCH   4   5
ENDBRANCH   3   4
ENDBRANCH   2   3
ENDBRANCH   1   2
BRANCH   1  15
ATOM     15  C   UNL     1      -6.798 -13.784  28.802  1.00  0.00     0.000 C 
BRANCH  15  16
ATOM     16  C   UNL     1      -7.033 -14.921  29.812  1.00  0.00     0.000 C 
BRANCH  16  17
ATOM     17  C   UNL     1      -7.123 -14.483  31.285  1.00  0.00     0.000 C 
BRANCH  17  18
ATOM     18  C   UNL     1      -6.947 -12.969  31.475  1.00  0.00    -0.000 C 
BRANCH  18  19
ATOM     19  C   UNL     1      -5.769 -12.666  32.413  1.00  0.00    -0.000 C 
BRANCH  19  20
ATOM     20  C   UNL     1      -4.918 -11.477  31.935  1.00  0.00    -0.000 C 
BRANCH  20  21
ATOM     21  C   UNL     1      -5.317 -10.905  30.561  1.00  0.00    -0.000 C 
BRANCH  21  22
ATOM     22  C   UNL     1      -4.138 -10.783  29.570  1.00  0.00    -0.000 C 
BRANCH  22  23
ATOM     23  C   UNL     1      -3.072 -11.868  29.795  1.00  0.00    -0.000 C 
BRANCH  23  24
ATOM     24  C   UNL     1      -3.054 -12.925  28.678  1.00  0.00    -0.000 C 
BRANCH  24  25
ATOM     25  C   UNL     1      -3.264 -14.364  29.192  1.00  0.00    -0.003 C 
ATOM     26  C   UNL     1      -3.145 -14.460  30.713  1.00  0.00     0.004 C 
ENDBRANCH  24  25
ENDBRANCH  23  24
ENDBRANCH  22  23
ENDBRANCH  21  22
ENDBRANCH  20  21
ENDBRANCH  19  20
ENDBRANCH  18  19
ENDBRANCH  17  18
ENDBRANCH  16  17
ENDBRANCH  15  16
ENDBRANCH   1  15
TORSDOF 22
ENDMDL
MODEL 2
REMARK VINA RESULT:    -5.470      2.420      3.264
REMARK INTER + INTRA:         -15.696
REMARK INTER:                 -13.866
REMARK INTRA:                  -1.830
REMARK UNBOUND:                -3.192
REMARK SMILES CCCCCCCCCCCCCCCCCCCCCCCC(=O)[O-]
REMARK SMILES IDX 13 1 14 2 15 3 16 4 17 5 18 6 19 7 20 8 21 9 22 10 23 11
REMARK SMILES IDX 24 12 25 13 26 14 12 15 11 16 10 17 9 18 8 19 7 20 6 21 5 22
REMARK SMILES IDX 4 23 3 24 2 25 1 26
REMARK H PARENT
REMARK Flexibility Score: inf
ROOT
ATOM      1  C   UNL     1      -8.169 -15.201  26.473  1.00  0.00     0.000 C 
ENDROOT
BRANCH   1   2
ATOM      2  C   UNL     1      -9.514 -14.539  26.127  1.00  0.00     0.000 C 
BRANCH   2   3
ATOM      3  C   UNL     1     -10.743 -15.378  26.533  1.00  0.00     0.000 C 
BRANCH   3   4
ATOM      4  C   UNL     1     -10.505 -16.162  27.836  1.00  0.00     0.000 C 
BRANCH   4   5
ATOM      5  C   UNL     1     -11.621 -17.177  28.130  1.00  0.00     0.000 C 
BRANCH   5   6
ATOM      6  C   UNL     1     -12.768 -16.568  28.954  1.00  0.00     0.000 C 
BRANCH   6   7
ATOM      7  C   UNL     1     -13.433 -17.584  29.901  1.00  0.00     0.000 C 
BRANCH   7   8
ATOM      8  C   UNL     1     -12.934 -17.551  31.358  1.00  0.00     0.000 C 
BRANCH   8   9
ATOM      9  C   UNL     1     -12.570 -18.945  31.900  1.00  0.00     0.000 C 
BRANCH   9  10
ATOM     10  C   UNL     1     -13.002 -19.142  33.366  1.00  0.00     0.006 C 
BRANCH  10  11
ATOM     11  C   UNL     1     -12.438 -20.417  34.012  1.00  0.00     0.053 C 
BRANCH  11  12
ATOM     12  C   UNL     1     -13.396 -21.565  33.951  1.00  0.00     0.041 C 
ATOM     13  O   UNL     1     -14.450 -21.477  33.267  1.00  0.00    -0.550 OA
ATOM     14  O   UNL     1     -13.125 -22.734  34.652  1.00  0.00    -0.550 OA
ENDBRANCH  11  12
ENDBRANCH  10  11
ENDBRANCH   9  10
ENDBRANCH   8   9
ENDBRANCH   7   8
ENDBRANCH   6   7
ENDBRANCH   5   6
ENDBRANCH   4   5
ENDBRANCH   3   4
ENDBRANCH   2   3
ENDBRANCH   1   2
BRANCH   1  15
ATOM     15  C   UNL     1      -7.134 -14.203  27.015  1.00  0.00     0.000 C 
BRANCH  15  16
ATOM     16  C   UNL     1      -6.505 -14.650  28.348  1.00  0.00     0.000 C 
BRANCH  16  17
ATOM     17  C   UNL     1      -7.390 -14.448  29.591  1.00  0.00     0.000 C 
BRANCH  17  18
ATOM     18  C   UNL     1      -6.844 -15.156  30.840  1.00  0.00    -0.000 C 
BRANCH  18  19
ATOM     19  C   UNL     1      -6.609 -14.154  31.981  1.00  0.00    -0.000 C 
BRANCH  19  20
ATOM     20  C   UNL     1      -6.816 -12.694  31.543  1.00  0.00    -0.000 C 
BRANCH  20  21
ATOM     21  C   UNL     1      -5.519 -11.881  31.367  1.00  0.00    -0.000 C 
BRANCH  21  22
ATOM     22  C   UNL     1      -4.774 -11.600  32.691  1.00  0.00    -0.000 C 
BRANCH  22  23
ATOM     23  C   UNL     1      -3.250 -11.510  32.496  1.00  0.00    -0.000 C 
BRANCH  23  24
ATOM     24  C   UNL     1      -2.549 -12.869  32.658  1.00  0.00    -0.000 C 
BRANCH  24  25
ATOM     25  C   UNL     1      -2.054 -13.467  31.324  1.00  0.00    -0.003 C 
ATOM     26  C   UNL     1      -3.078 -14.413  30.697  1.00  0.00     0.004 C 
ENDBRANCH  24  25
ENDBRANCH  23  24
ENDBRANCH  22  23
ENDBRANCH  21  22
ENDBRANCH  20  21
ENDBRANCH  19  20
ENDBRANCH  18  19
ENDBRANCH  17  18
ENDBRANCH  16  17
ENDBRANCH  15  16
ENDBRANCH   1  15
TORSDOF 22
ENDMDL
MODEL 3
REMARK VINA RESULT:    -5.412      2.464      7.691
REMARK INTER + INTRA:         -15.563
REMARK INTER:                 -13.089
REMARK INTRA:                  -2.475
REMARK UNBOUND:                -3.192
REMARK SMILES CCCCCCCCCCCCCCCCCCCCCCCC(=O)[O-]
REMARK SMILES IDX 13 1 14 2 15 3 16 4 17 5 18 6 19 7 20 8 21 9 22 10 23 11
REMARK SMILES IDX 24 12 25 13 26 14 12 15 11 16 10 17 9 18 8 19 7 20 6 21 5 22
REMARK SMILES IDX 4 23 3 24 2 25 1 26
REMARK H PARENT
REMARK Flexibility Score: inf
ROOT
ATOM      1  C   UNL     1      -9.849 -18.198  30.685  1.00  0.00     0.000 C 
ENDROOT
BRANCH   1   2
ATOM      2  C   UNL     1      -9.583 -16.688  30.814  1.00  0.00     0.000 C 
BRANCH   2   3
ATOM      3  C   UNL     1      -8.251 -16.348  31.515  1.00  0.00     0.000 C 
BRANCH   3   4
ATOM      4  C   UNL     1      -7.514 -15.187  30.825  1.00  0.00     0.000 C 
BRANCH   4   5
ATOM      5  C   UNL     1      -6.450 -14.541  31.727  1.00  0.00     0.000 C 
BRANCH   5   6
ATOM      6  C   UNL     1      -6.734 -13.054  31.998  1.00  0.00     0.000 C 
BRANCH   6   7
ATOM      7  C   UNL     1      -6.119 -12.121  30.937  1.00  0.00     0.000 C 
BRANCH   7   8
ATOM      8  C   UNL     1      -4.942 -11.255  31.423  1.00  0.00     0.000 C 
BRANCH   8   9
ATOM      9  C   UNL     1      -4.425 -11.669  32.812  1.00  0.00     0.000 C 
BRANCH   9  10
ATOM     10  C   UNL     1      -3.261 -12.677  32.736  1.00  0.00     0.006 C 
BRANCH  10  11
ATOM     11  C   UNL     1      -2.323 -12.450  31.540  1.00  0.00     0.053 C 
BRANCH  11  12
ATOM     12  C   UNL     1      -2.406 -13.547  30.527  1.00  0.00     0.041 C 
ATOM     13  O   UNL     1      -1.866 -13.411  29.397  1.00  0.00    -0.550 OA
ATOM     14  O   UNL     1      -3.083 -14.723  30.830  1.00  0.00    -0.550 OA
ENDBRANCH  11  12
ENDBRANCH  10  11
ENDBRANCH   9  10
ENDBRANCH   8   9
ENDBRANCH   7   8
ENDBRANCH   6   7
ENDBRANCH   5   6
ENDBRANCH   4   5
ENDBRANCH   3   4
ENDBRANCH   2   3
ENDBRANCH   1   2
BRANCH   1  15
ATOM     15  C   UNL     1     -11.247 -18.602  31.179  1.00  0.00     0.000 C 
BRANCH  15  16
ATOM     16  C   UNL     1     -12.308 -18.591  30.063  1.00  0.00     0.000 C 
BRANCH  16  17
ATOM     17  C   UNL     1     -13.241 -17.366  30.057  1.00  0.00     0.000 C 
BRANCH  17  18
ATOM     18  C   UNL     1     -12.878 -16.337  28.976  1.00  0.00    -0.000 C 
BRANCH  18  19
ATOM     19  C   UNL     1     -12.016 -16.976  27.877  1.00  0.00    -0.000 C 
BRANCH  19  20
ATOM     20  C   UNL     1     -10.710 -16.205  27.620  1.00  0.00    -0.000 C 
BRANCH  20  21
ATOM     21  C   UNL     1     -10.761 -15.219  26.437  1.00  0.00    -0.000 C 
BRANCH  21  22
ATOM     22  C   UNL     1      -9.371 -14.845  25.876  1.00  0.00    -0.000 C 
BRANCH  22  23
ATOM     23  C   UNL     1      -8.264 -14.953  26.938  1.00  0.00    -0.000 C 
BRANCH  23  24
ATOM     24  C   UNL     1      -7.058 -14.049  26.635  1.00  0.00    -0.000 C 
BRANCH  24  25
ATOM     25  C   UNL     1      -6.133 -13.830  27.850  1.00  0.00    -0.003 C 
ATOM     26  C   UNL     1      -4.900 -14.732  27.810  1.00  0.00     0.004 C 
ENDBRANCH  24  25
ENDBRANCH  23  24
ENDBRANCH  22  23
ENDBRANCH  21  22
ENDBRANCH  20  21
ENDBRANCH  19  20
ENDBRANCH  18  19
ENDBRANCH  17  18
ENDBRANCH  16  17
ENDBRANCH  15  16
ENDBRANCH   1  15
TORSDOF 22
ENDMDL
MODEL 4
REMARK VINA RESULT:    -5.386      1.360      2.832
REMARK INTER + INTRA:         -15.505
REMARK INTER:                 -12.575
REMARK INTRA:                  -2.929
REMARK UNBOUND:                -3.192
REMARK SMILES CCCCCCCCCCCCCCCCCCCCCCCC(=O)[O-]
REMARK SMILES IDX 13 1 14 2 15 3 16 4 17 5 18 6 19 7 20 8 21 9 22 10 23 11
REMARK SMILES IDX 24 12 25 13 26 14 12 15 11 16 10 17 9 18 8 19 7 20 6 21 5 22
REMARK SMILES IDX 4 23 3 24 2 25 1 26
REMARK H PARENT
REMARK Flexibility Score: inf
ROOT
ATOM      1  C   UNL     1      -7.056 -14.781  30.981  1.00  0.00     0.000 C 
ENDROOT
BRANCH   1   2
ATOM      2  C   UNL     1      -7.497 -14.885  29.511  1.00  0.00     0.000 C 
BRANCH   2   3
ATOM      3  C   UNL     1      -6.839 -13.837  28.589  1.00  0.00     0.000 C 
BRANCH   3   4
ATOM      4  C   UNL     1      -6.699 -14.344  27.143  1.00  0.00     0.000 C 
BRANCH   4   5
ATOM      5  C   UNL     1      -7.872 -15.239  26.712  1.00  0.00     0.000 C 
BRANCH   5   6
ATOM      6  C   UNL     1      -9.094 -14.426  26.252  1.00  0.00     0.000 C 
BRANCH   6   7
ATOM      7  C   UNL     1     -10.410 -15.223  26.330  1.00  0.00     0.000 C 
BRANCH   7   8
ATOM      8  C   UNL     1     -10.668 -15.939  27.669  1.00  0.00     0.000 C 
BRANCH   8   9
ATOM      9  C   UNL     1     -11.998 -16.713  27.690  1.00  0.00     0.000 C 
BRANCH   9  10
ATOM     10  C   UNL     1     -12.893 -16.322  28.883  1.00  0.00     0.006 C 
BRANCH  10  11
ATOM     11  C   UNL     1     -13.196 -17.487  29.838  1.00  0.00     0.053 C 
BRANCH  11  12
ATOM     12  C   UNL     1     -12.417 -17.405  31.112  1.00  0.00     0.041 C 
ATOM     13  O   UNL     1     -11.326 -16.776  31.149  1.00  0.00    -0.550 OA
ATOM     14  O   UNL     1     -12.894 -18.026  32.260  1.00  0.00    -0.550 OA
ENDBRANCH  11  12
ENDBRANCH  10  11
ENDBRANCH   9  10
ENDBRANCH   8   9
ENDBRANCH   7   8
ENDBRANCH   6   7
ENDBRANCH   5   6
ENDBRANCH   4   5
ENDBRANCH   3   4
ENDBRANCH   2   3
ENDBRANCH   1   2
BRANCH   1  15
ATOM     15  C   UNL     1      -5.617 -14.265  31.137  1.00  0.00     0.000 C 
BRANCH  15  16
ATOM     16  C   UNL     1      -5.361 -13.594  32.499  1.00  0.00     0.000 C 
BRANCH  16  17
ATOM     17  C   UNL     1      -5.189 -12.065  32.455  1.00  0.00     0.000 C 
BRANCH  17  18
ATOM     18  C   UNL     1      -6.137 -11.380  31.461  1.00  0.00    -0.000 C 
BRANCH  18  19
ATOM     19  C   UNL     1      -5.353 -10.747  30.301  1.00  0.00    -0.000 C 
BRANCH  19  20
ATOM     20  C   UNL     1      -3.914 -10.369  30.691  1.00  0.00    -0.000 C 
BRANCH  20  21
ATOM     21  C   UNL     1      -2.814 -11.157  29.954  1.00  0.00    -0.000 C 
BRANCH  21  22
ATOM     22  C   UNL     1      -3.358 -12.235  28.991  1.00  0.00    -0.000 C 
BRANCH  22  23
ATOM     23  C   UNL     1      -2.545 -13.540  29.056  1.00  0.00    -0.000 C 
BRANCH  23  24
ATOM     24  C   UNL     1      -3.241 -14.711  28.343  1.00  0.00    -0.000 C 
BRANCH  24  25
ATOM     25  C   UNL     1      -2.413 -15.302  27.183  1.00  0.00    -0.003 C 
ATOM     26  C   UNL     1      -2.269 -14.324  26.017  1.00  0.00     0.004 C 
ENDBRANCH  24  25
ENDBRANCH  23  24
ENDBRANCH  22  23
ENDBRANCH  21  22
ENDBRANCH  20  21
ENDBRANCH  19  20
ENDBRANCH  18  19
ENDBRANCH  17  18
ENDBRANCH  16  17
ENDBRANCH  15  16
ENDBRANCH   1  15
TORSDOF 22
ENDMDL
MODEL 5
REMARK VINA RESULT:    -5.344      2.501      8.333
REMARK INTER + INTRA:         -15.408
REMARK INTER:                 -12.466
REMARK INTRA:                  -2.942
REMARK UNBOUND:                -3.192
REMARK SMILES CCCCCCCCCCCCCCCCCCCCCCCC(=O)[O-]
REMARK SMILES IDX 13 1 14 2 15 3 16 4 17 5 18 6 19 7 20 8 21 9 22 10 23 11
REMARK SMILES IDX 24 12 25 13 26 14 12 15 11 16 10 17 9 18 8 19 7 20 6 21 5 22
REMARK SMILES IDX 4 23 3 24 2 25 1 26
REMARK H PARENT
REMARK Flexibility Score: inf
ROOT
ATOM      1  C   UNL     1      -6.536 -14.679  27.731  1.00  0.00     0.000 C 
ENDROOT
BRANCH   1   2
ATOM      2  C   UNL     1      -7.290 -14.202  28.984  1.00  0.00     0.000 C 
BRANCH   2   3
ATOM      3  C   UNL     1      -6.427 -13.360  29.946  1.00  0.00     0.000 C 
BRANCH   3   4
ATOM      4  C   UNL     1      -7.123 -13.134  31.300  1.00  0.00     0.000 C 
BRANCH   4   5
ATOM      5  C   UNL     1      -6.278 -13.621  32.489  1.00  0.00     0.000 C 
BRANCH   5   6
ATOM      6  C   UNL     1      -4.783 -13.302  32.318  1.00  0.00     0.000 C 
BRANCH   6   7
ATOM      7  C   UNL     1      -4.370 -11.977  32.987  1.00  0.00     0.000 C 
BRANCH   7   8
ATOM      8  C   UNL     1      -3.321 -11.152  32.220  1.00  0.00     0.000 C 
BRANCH   8   9
ATOM      9  C   UNL     1      -3.648 -11.006  30.723  1.00  0.00     0.000 C 
BRANCH   9  10
ATOM     10  C   UNL     1      -2.543 -11.583  29.816  1.00  0.00     0.006 C 
BRANCH  10  11
ATOM     11  C   UNL     1      -3.045 -12.657  28.837  1.00  0.00     0.053 C 
BRANCH  11  12
ATOM     12  C   UNL     1      -2.675 -14.042  29.263  1.00  0.00     0.041 C 
ATOM     13  O   UNL     1      -2.993 -15.031  28.551  1.00  0.00    -0.550 OA
ATOM     14  O   UNL     1      -1.980 -14.242  30.450  1.00  0.00    -0.550 OA
ENDBRANCH  11  12
ENDBRANCH  10  11
ENDBRANCH   9  10
ENDBRANCH   8   9
ENDBRANCH   7   8
ENDBRANCH   6   7
ENDBRANCH   5   6
ENDBRANCH   4   5
ENDBRANCH   3   4
ENDBRANCH   2   3
ENDBRANCH   1   2
BRANCH   1  15
ATOM     15  C   UNL     1      -7.477 -15.090  26.588  1.00  0.00     0.000 C 
BRANCH  15  16
ATOM     16  C   UNL     1      -8.802 -14.306  26.586  1.00  0.00     0.000 C 
BRANCH  16  17
ATOM     17  C   UNL     1     -10.072 -15.163  26.442  1.00  0.00     0.000 C 
BRANCH  17  18
ATOM     18  C   UNL     1     -10.522 -15.802  27.764  1.00  0.00    -0.000 C 
BRANCH  18  19
ATOM     19  C   UNL     1     -11.779 -16.660  27.560  1.00  0.00    -0.000 C 
BRANCH  19  20
ATOM     20  C   UNL     1     -12.941 -16.241  28.477  1.00  0.00    -0.000 C 
BRANCH  20  21
ATOM     21  C   UNL     1     -13.263 -17.235  29.611  1.00  0.00    -0.000 C 
BRANCH  21  22
ATOM     22  C   UNL     1     -12.197 -17.274  30.727  1.00  0.00    -0.000 C 
BRANCH  22  23
ATOM     23  C   UNL     1     -11.438 -18.612  30.763  1.00  0.00    -0.000 C 
BRANCH  23  24
ATOM     24  C   UNL     1      -9.919 -18.430  30.920  1.00  0.00    -0.000 C 
BRANCH  24  25
ATOM     25  C   UNL     1      -9.460 -16.964  30.783  1.00  0.00    -0.003 C 
ATOM     26  C   UNL     1      -8.232 -16.659  31.640  1.00  0.00     0.004 C 
ENDBRANCH  24  25
ENDBRANCH  23  24
ENDBRANCH  22  23
ENDBRANCH  21  22
ENDBRANCH  20  21
ENDBRANCH  19  20
ENDBRANCH  18  19
ENDBRANCH  17  18
ENDBRANCH  16  17
ENDBRANCH  15  16
ENDBRANCH   1  15
TORSDOF 22
ENDMDL
MODEL 6
REMARK VINA RESULT:    -5.328      2.562      4.074
REMARK INTER + INTRA:         -15.371
REMARK INTER:                 -13.250
REMARK INTRA:                  -2.121
REMARK UNBOUND:                -3.192
REMARK SMILES CCCCCCCCCCCCCCCCCCCCCCCC(=O)[O-]
REMARK SMILES IDX 13 1 14 2 15 3 16 4 17 5 18 6 19 7 20 8 21 9 22 10 23 11
REMARK SMILES IDX 24 12 25 13 26 14 12 15 11 16 10 17 9 18 8 19 7 20 6 21 5 22
REMARK SMILES IDX 4 23 3 24 2 25 1 26
REMARK H PARENT
REMARK Flexibility Score: inf
ROOT
ATOM      1  C   UNL     1      -9.004 -14.328  26.197  1.00  0.00     0.000 C 
ENDROOT
BRANCH   1   2
ATOM      2  C   UNL     1     -10.313 -15.131  26.289  1.00  0.00     0.000 C 
BRANCH   2   3
ATOM      3  C   UNL     1     -10.422 -15.999  27.561  1.00  0.00     0.000 C 
BRANCH   3   4
ATOM      4  C   UNL     1     -11.824 -16.612  27.724  1.00  0.00     0.000 C 
BRANCH   4   5
ATOM      5  C   UNL     1     -12.526 -16.153  29.012  1.00  0.00     0.000 C 
BRANCH   5   6
ATOM      6  C   UNL     1     -13.483 -17.220  29.571  1.00  0.00     0.000 C 
BRANCH   6   7
ATOM      7  C   UNL     1     -12.747 -18.398  30.237  1.00  0.00     0.000 C 
BRANCH   7   8
ATOM      8  C   UNL     1     -12.466 -18.233  31.742  1.00  0.00     0.000 C 
BRANCH   8   9
ATOM      9  C   UNL     1     -11.542 -19.327  32.305  1.00  0.00     0.000 C 
BRANCH   9  10
ATOM     10  C   UNL     1     -12.213 -20.155  33.418  1.00  0.00     0.006 C 
BRANCH  10  11
ATOM     11  C   UNL     1     -13.396 -19.443  34.093  1.00  0.00     0.053 C 
BRANCH  11  12
ATOM     12  C   UNL     1     -14.370 -20.398  34.705  1.00  0.00     0.041 C 
ATOM     13  O   UNL     1     -15.563 -20.047  34.905  1.00  0.00    -0.550 OA
ATOM     14  O   UNL     1     -13.960 -21.679  35.058  1.00  0.00    -0.550 OA
ENDBRANCH  11  12
ENDBRANCH  10  11
ENDBRANCH   9  10
ENDBRANCH   8   9
ENDBRANCH   7   8
ENDBRANCH   6   7
ENDBRANCH   5   6
ENDBRANCH   4   5
ENDBRANCH   3   4
ENDBRANCH   2   3
ENDBRANCH   1   2
BRANCH   1  15
ATOM     15  C   UNL     1      -7.853 -14.970  26.989  1.00  0.00     0.000 C 
BRANCH  15  16
ATOM     16  C   UNL     1      -6.609 -14.067  27.084  1.00  0.00     0.000 C 
BRANCH  16  17
ATOM     17  C   UNL     1      -5.407 -14.683  27.822  1.00  0.00     0.000 C 
BRANCH  17  18
ATOM     18  C   UNL     1      -4.525 -13.635  28.518  1.00  0.00    -0.000 C 
BRANCH  18  19
ATOM     19  C   UNL     1      -5.365 -12.442  28.996  1.00  0.00    -0.000 C 
BRANCH  19  20
ATOM     20  C   UNL     1      -4.544 -11.420  29.801  1.00  0.00    -0.000 C 
BRANCH  20  21
ATOM     21  C   UNL     1      -3.932 -11.964  31.107  1.00  0.00    -0.000 C 
BRANCH  21  22
ATOM     22  C   UNL     1      -4.938 -12.059  32.275  1.00  0.00    -0.000 C 
BRANCH  22  23
ATOM     23  C   UNL     1      -5.311 -13.514  32.607  1.00  0.00    -0.000 C 
BRANCH  23  24
ATOM     24  C   UNL     1      -6.725 -13.889  32.130  1.00  0.00    -0.000 C 
BRANCH  24  25
ATOM     25  C   UNL     1      -6.746 -15.078  31.148  1.00  0.00    -0.003 C 
ATOM     26  C   UNL     1      -8.160 -15.420  30.682  1.00  0.00     0.004 C 
ENDBRANCH  24  25
ENDBRANCH  23  24
ENDBRANCH  22  23
ENDBRANCH  21  22
ENDBRANCH  20  21
ENDBRANCH  19  20
ENDBRANCH  18  19
ENDBRANCH  17  18
ENDBRANCH  16  17
ENDBRANCH  15  16
ENDBRANCH   1  15
TORSDOF 22
ENDMDL
MODEL 7
REMARK VINA RESULT:    -5.318      1.564      2.956
REMARK INTER + INTRA:         -15.349
REMARK INTER:                 -12.601
REMARK INTRA:                  -2.748
REMARK UNBOUND:                -3.192
REMARK SMILES CCCCCCCCCCCCCCCCCCCCCCCC(=O)[O-]
REMARK SMILES IDX 13 1 14 2 15 3 16 4 17 5 18 6 19 7 20 8 21 9 22 10 23 11
REMARK SMILES IDX 24 12 25 13 26 14 12 15 11 16 10 17 9 18 8 19 7 20 6 21 5 22
REMARK SMILES IDX 4 23 3 24 2 25 1 26
REMARK H PARENT
REMARK Flexibility Score: inf
ROOT
ATOM      1  C   UNL     1      -7.529 -14.347  30.708  1.00  0.00     0.000 C 
ENDROOT
BRANCH   1   2
ATOM      2  C   UNL     1      -7.578 -14.862  29.259  1.00  0.00     0.000 C 
BRANCH   2   3
ATOM      3  C   UNL     1      -6.561 -14.178  28.321  1.00  0.00     0.000 C 
BRANCH   3   4
ATOM      4  C   UNL     1      -6.886 -14.424  26.837  1.00  0.00     0.000 C 
BRANCH   4   5
ATOM      5  C   UNL     1      -8.188 -15.216  26.638  1.00  0.00     0.000 C 
BRANCH   5   6
ATOM      6  C   UNL     1      -9.251 -14.415  25.868  1.00  0.00     0.000 C 
BRANCH   6   7
ATOM      7  C   UNL     1     -10.691 -14.840  26.215  1.00  0.00     0.000 C 
BRANCH   7   8
ATOM      8  C   UNL     1     -10.811 -16.069  27.135  1.00  0.00     0.000 C 
BRANCH   8   9
ATOM      9  C   UNL     1     -12.247 -16.307  27.637  1.00  0.00     0.000 C 
BRANCH   9  10
ATOM     10  C   UNL     1     -12.382 -16.113  29.160  1.00  0.00     0.006 C 
BRANCH  10  11
ATOM     11  C   UNL     1     -11.318 -16.864  29.976  1.00  0.00     0.053 C 
BRANCH  11  12
ATOM     12  C   UNL     1     -11.824 -18.160  30.527  1.00  0.00     0.041 C 
ATOM     13  O   UNL     1     -11.123 -18.821  31.340  1.00  0.00    -0.550 OA
ATOM     14  O   UNL     1     -13.069 -18.640  30.141  1.00  0.00    -0.550 OA
ENDBRANCH  11  12
ENDBRANCH  10  11
ENDBRANCH   9  10
ENDBRANCH   8   9
ENDBRANCH   7   8
ENDBRANCH   6   7
ENDBRANCH   5   6
ENDBRANCH   4   5
ENDBRANCH   3   4
ENDBRANCH   2   3
ENDBRANCH   1   2
BRANCH   1  15
ATOM     15  C   UNL     1      -6.126 -14.440  31.327  1.00  0.00     0.000 C 
BRANCH  15  16
ATOM     16  C   UNL     1      -6.014 -13.711  32.678  1.00  0.00     0.000 C 
BRANCH  16  17
ATOM     17  C   UNL     1      -5.379 -12.310  32.618  1.00  0.00     0.000 C 
BRANCH  17  18
ATOM     18  C   UNL     1      -6.040 -11.392  31.579  1.00  0.00    -0.000 C 
BRANCH  18  19
ATOM     19  C   UNL     1      -4.983 -10.672  30.731  1.00  0.00    -0.000 C 
BRANCH  19  20
ATOM     20  C   UNL     1      -4.477 -11.527  29.556  1.00  0.00    -0.000 C 
BRANCH  20  21
ATOM     21  C   UNL     1      -3.044 -12.069  29.719  1.00  0.00    -0.000 C 
BRANCH  21  22
ATOM     22  C   UNL     1      -2.970 -13.605  29.856  1.00  0.00    -0.000 C 
BRANCH  22  23
ATOM     23  C   UNL     1      -2.214 -14.042  31.123  1.00  0.00    -0.000 C 
BRANCH  23  24
ATOM     24  C   UNL     1      -2.059 -12.904  32.146  1.00  0.00    -0.000 C 
BRANCH  24  25
ATOM     25  C   UNL     1      -0.616 -12.737  32.664  1.00  0.00    -0.003 C 
ATOM     26  C   UNL     1      -0.311 -13.664  33.840  1.00  0.00     0.004 C 
ENDBRANCH  24  25
ENDBRANCH  23  24
ENDBRANCH  22  23
ENDBRANCH  21  22
ENDBRANCH  20  21
ENDBRANCH  19  20
ENDBRANCH  18  19
ENDBRANCH  17  18
ENDBRANCH  16  17
ENDBRANCH  15  16
ENDBRANCH   1  15
TORSDOF 22
ENDMDL
MODEL 8
REMARK VINA RESULT:    -5.265      3.305      8.713
REMARK INTER + INTRA:         -15.229
REMARK INTER:                 -12.432
REMARK INTRA:                  -2.796
REMARK UNBOUND:                -3.192
REMARK SMILES CCCCCCCCCCCCCCCCCCCCCCCC(=O)[O-]
REMARK SMILES IDX 13 1 14 2 15 3 16 4 17 5 18 6 19 7 20 8 21 9 22 10 23 11
REMARK SMILES IDX 24 12 25 13 26 14 12 15 11 16 10 17 9 18 8 19 7 20 6 21 5 22
REMARK SMILES IDX 4 23 3 24 2 25 1 26
REMARK H PARENT
REMARK Flexibility Score: inf
ROOT
ATOM      1  C   UNL     1      -7.026 -14.655  28.943  1.00  0.00     0.000 C 
ENDROOT
BRANCH   1   2
ATOM      2  C   UNL     1      -6.646 -13.428  29.790  1.00  0.00     0.000 C 
BRANCH   2   3
ATOM      3  C   UNL     1      -7.160 -13.492  31.243  1.00  0.00     0.000 C 
BRANCH   3   4
ATOM      4  C   UNL     1      -6.339 -12.597  32.188  1.00  0.00     0.000 C 
BRANCH   4   5
ATOM      5  C   UNL     1      -5.494 -11.557  31.435  1.00  0.00     0.000 C 
BRANCH   5   6
ATOM      6  C   UNL     1      -4.011 -11.602  31.839  1.00  0.00     0.000 C 
BRANCH   6   7
ATOM      7  C   UNL     1      -3.501 -13.032  32.098  1.00  0.00     0.000 C 
BRANCH   7   8
ATOM      8  C   UNL     1      -2.429 -13.537  31.113  1.00  0.00     0.000 C 
BRANCH   8   9
ATOM      9  C   UNL     1      -3.023 -14.316  29.926  1.00  0.00     0.000 C 
BRANCH   9  10
ATOM     10  C   UNL     1      -3.200 -13.438  28.671  1.00  0.00     0.006 C 
BRANCH  10  11
ATOM     11  C   UNL     1      -2.842 -14.154  27.359  1.00  0.00     0.053 C 
BRANCH  11  12
ATOM     12  C   UNL     1      -1.621 -13.584  26.708  1.00  0.00     0.041 C 
ATOM     13  O   UNL     1      -1.513 -13.585  25.453  1.00  0.00    -0.550 OA
ATOM     14  O   UNL     1      -0.600 -13.054  27.487  1.00  0.00    -0.550 OA
ENDBRANCH  11  12
ENDBRANCH  10  11
ENDBRANCH   9  10
ENDBRANCH   8   9
ENDBRANCH   7   8
ENDBRANCH   6   7
ENDBRANCH   5   6
ENDBRANCH   4   5
ENDBRANCH   3   4
ENDBRANCH   2   3
ENDBRANCH   1   2
BRANCH   1  15
ATOM     15  C   UNL     1      -6.532 -14.554  27.491  1.00  0.00     0.000 C 
BRANCH  15  16
ATOM     16  C   UNL     1      -7.595 -14.979  26.462  1.00  0.00     0.000 C 
BRANCH  16  17
ATOM     17  C   UNL     1      -8.990 -15.275  27.042  1.00  0.00     0.000 C 
BRANCH  17  18
ATOM     18  C   UNL     1     -10.133 -14.719  26.180  1.00  0.00    -0.000 C 
BRANCH  18  19
ATOM     19  C   UNL     1     -11.402 -15.570  26.335  1.00  0.00    -0.000 C 
BRANCH  19  20
ATOM     20  C   UNL     1     -11.503 -16.243  27.715  1.00  0.00    -0.000 C 
BRANCH  20  21
ATOM     21  C   UNL     1     -12.921 -16.278  28.317  1.00  0.00    -0.000 C 
BRANCH  21  22
ATOM     22  C   UNL     1     -13.029 -17.113  29.612  1.00  0.00    -0.000 C 
BRANCH  22  23
ATOM     23  C   UNL     1     -12.085 -18.328  29.603  1.00  0.00    -0.000 C 
BRANCH  23  24
ATOM     24  C   UNL     1     -11.350 -18.519  30.941  1.00  0.00    -0.000 C 
BRANCH  24  25
ATOM     25  C   UNL     1      -9.831 -18.267  30.847  1.00  0.00    -0.003 C 
ATOM     26  C   UNL     1      -9.494 -16.779  30.759  1.00  0.00     0.004 C 
ENDBRANCH  24  25
ENDBRANCH  23  24
ENDBRANCH  22  23
ENDBRANCH  21  22
ENDBRANCH  20  21
ENDBRANCH  19  20
ENDBRANCH  18  19
ENDBRANCH  17  18
ENDBRANCH  16  17
ENDBRANCH  15  16
ENDBRANCH   1  15
TORSDOF 22
ENDMDL
MODEL 9
REMARK VINA RESULT:    -5.253      3.118      8.497
REMARK INTER + INTRA:         -15.200
REMARK INTER:                 -12.554
REMARK INTRA:                  -2.646
REMARK UNBOUND:                -3.192
REMARK SMILES CCCCCCCCCCCCCCCCCCCCCCCC(=O)[O-]
REMARK SMILES IDX 13 1 14 2 15 3 16 4 17 5 18 6 19 7 20 8 21 9 22 10 23 11
REMARK SMILES IDX 24 12 25 13 26 14 12 15 11 16 10 17 9 18 8 19 7 20 6 21 5 22
REMARK SMILES IDX 4 23 3 24 2 25 1 26
REMARK H PARENT
REMARK Flexibility Score: inf
ROOT
ATOM      1  C   UNL     1      -7.129 -14.951  30.874  1.00  0.00     0.000 C 
ENDROOT
BRANCH   1   2
ATOM      2  C   UNL     1      -5.809 -14.244  31.231  1.00  0.00     0.000 C 
BRANCH   2   3
ATOM      3  C   UNL     1      -5.814 -13.584  32.625  1.00  0.00     0.000 C 
BRANCH   3   4
ATOM      4  C   UNL     1      -5.438 -12.094  32.562  1.00  0.00     0.000 C 
BRANCH   4   5
ATOM      5  C   UNL     1      -5.731 -11.465  31.190  1.00  0.00     0.000 C 
BRANCH   5   6
ATOM      6  C   UNL     1      -4.498 -10.774  30.585  1.00  0.00     0.000 C 
BRANCH   6   7
ATOM      7  C   UNL     1      -4.064 -11.388  29.240  1.00  0.00     0.000 C 
BRANCH   7   8
ATOM      8  C   UNL     1      -3.160 -12.631  29.346  1.00  0.00     0.000 C 
BRANCH   8   9
ATOM      9  C   UNL     1      -2.447 -12.970  28.025  1.00  0.00     0.000 C 
BRANCH   9  10
ATOM     10  C   UNL     1      -2.910 -14.315  27.431  1.00  0.00     0.006 C 
BRANCH  10  11
ATOM     11  C   UNL     1      -2.483 -14.526  25.969  1.00  0.00     0.053 C 
BRANCH  11  12
ATOM     12  C   UNL     1      -1.405 -15.553  25.826  1.00  0.00     0.041 C 
ATOM     13  O   UNL     1      -1.164 -16.068  24.702  1.00  0.00    -0.550 OA
ATOM     14  O   UNL     1      -0.667 -15.945  26.937  1.00  0.00    -0.550 OA
ENDBRANCH  11  12
ENDBRANCH  10  11
ENDBRANCH   9  10
ENDBRANCH   8   9
ENDBRANCH   7   8
ENDBRANCH   6   7
ENDBRANCH   5   6
ENDBRANCH   4   5
ENDBRANCH   3   4
ENDBRANCH   2   3
ENDBRANCH   1   2
BRANCH   1  15
ATOM     15  C   UNL     1      -7.526 -14.765  29.401  1.00  0.00     0.000 C 
BRANCH  15  16
ATOM     16  C   UNL     1      -6.388 -14.193  28.537  1.00  0.00     0.000 C 
BRANCH  16  17
ATOM     17  C   UNL     1      -6.645 -14.207  27.020  1.00  0.00     0.000 C 
BRANCH  17  18
ATOM     18  C   UNL     1      -7.853 -15.068  26.621  1.00  0.00    -0.000 C 
BRANCH  18  19
ATOM     19  C   UNL     1      -9.012 -14.191  26.122  1.00  0.00    -0.000 C 
BRANCH  19  20
ATOM     20  C   UNL     1     -10.373 -14.904  26.193  1.00  0.00    -0.000 C 
BRANCH  20  21
ATOM     21  C   UNL     1     -10.534 -15.875  27.378  1.00  0.00    -0.000 C 
BRANCH  21  22
ATOM     22  C   UNL     1     -11.999 -16.272  27.665  1.00  0.00    -0.000 C 
BRANCH  22  23
ATOM     23  C   UNL     1     -12.103 -17.482  28.608  1.00  0.00    -0.000 C 
BRANCH  23  24
ATOM     24  C   UNL     1     -10.733 -17.956  29.120  1.00  0.00    -0.000 C 
BRANCH  24  25
ATOM     25  C   UNL     1     -10.588 -17.872  30.654  1.00  0.00    -0.003 C 
ATOM     26  C   UNL     1      -9.717 -18.993  31.217  1.00  0.00     0.004 C 
ENDBRANCH  24  25
ENDBRANCH  23  24
ENDBRANCH  22  23
ENDBRANCH  21  22
ENDBRANCH  20  21
ENDBRANCH  19  20
ENDBRANCH  18  19
ENDBRANCH  17  18
ENDBRANCH  16  17
ENDBRANCH  15  16
ENDBRANCH   1  15
TORSDOF 22
ENDMDL
