MODEL 1
REMARK VINA RESULT:    -3.991      0.000      0.000
REMARK INTER + INTRA:          -5.018
REMARK INTER:                  -4.924
REMARK INTRA:                  -0.093
REMARK UNBOUND:                -0.093
REMARK SMILES CCCCCC(=O)[O-]
REMARK SMILES IDX 4 1 5 2 6 3 7 4 8 5 3 6 2 7 1 8
REMARK H PARENT
REMARK Flexibility Score: inf
ROOT
ATOM      1  C   UNL     1      19.025  24.613   8.257  1.00  0.00     0.006 C 
ENDROOT
BRANCH   1   2
ATOM      2  C   UNL     1      17.771  25.489   8.328  1.00  0.00     0.053 C 
BRANCH   2   3
ATOM      3  C   UNL     1      18.133  26.891   8.703  1.00  0.00     0.041 C 
ATOM      4  O   UNL     1      19.327  27.282   8.617  1.00  0.00    -0.550 OA
ATOM      5  O   UNL     1      17.144  27.780   9.104  1.00  0.00    -0.550 OA
ENDBRANCH   2   3
ENDBRANCH   1   2
BRANCH   1   6
ATOM      6  C   UNL     1      18.914  23.586   7.120  1.00  0.00     0.000 C 
BRANCH   6   7
ATOM      7  C   UNL     1      20.226  22.824   6.882  1.00  0.00    -0.003 C 
ATOM      8  C   UNL     1      21.300  23.156   7.918  1.00  0.00     0.004 C 
ENDBRANCH   6   7
ENDBRANCH   1   6
TORSDOF 4
ENDMDL
MODEL 2
REMARK VINA RESULT:    -3.938      3.029      4.515
REMARK INTER + INTRA:          -4.953
REMARK INTER:                  -4.827
REMARK INTRA:                  -0.126
REMARK UNBOUND:                -0.093
REMARK SMILES CCCCCC(=O)[O-]
REMARK SMILES IDX 4 1 5 2 6 3 7 4 8 5 3 6 2 7 1 8
REMARK H PARENT
REMARK Flexibility Score: inf
ROOT
ATOM      1  C   UNL     1      18.776  24.660   8.685  1.00  0.00     0.006 C 
ENDROOT
BRANCH   1   2
ATOM      2  C   UNL     1      20.050  23.896   8.309  1.00  0.00     0.053 C 
BRANCH   2   3
ATOM      3  C   UNL     1      20.520  23.062   9.459  1.00  0.00     0.041 C 
ATOM      4  O   UNL     1      21.729  23.089   9.809  1.00  0.00    -0.550 OA
ATOM      5  O   UNL     1      19.612  22.291  10.173  1.00  0.00    -0.550 OA
ENDBRANCH   2   3
ENDBRANCH   1   2
BRANCH   1   6
ATOM      6  C   UNL     1      19.083  25.775   9.696  1.00  0.00     0.000 C 
BRANCH   6   7
ATOM      7  C   UNL     1      18.939  27.178   9.088  1.00  0.00    -0.003 C 
ATOM      8  C   UNL     1      17.481  27.585   8.877  1.00  0.00     0.004 C 
ENDBRANCH   6   7
ENDBRANCH   1   6
TORSDOF 4
ENDMDL
MODEL 3
REMARK VINA RESULT:    -3.918      0.791      1.472
REMARK INTER + INTRA:          -4.928
REMARK INTER:                  -4.843
REMARK INTRA:                  -0.084
REMARK UNBOUND:                -0.093
REMARK SMILES CCCCCC(=O)[O-]
REMARK SMILES IDX 4 1 5 2 6 3 7 4 8 5 3 6 2 7 1 8
REMARK H PARENT
REMARK Flexibility Score: inf
ROOT
ATOM      1  C   UNL     1      19.335  24.476   8.750  1.00  0.00     0.006 C 
ENDROOT
BRANCH   1   2
ATOM      2  C   UNL     1      18.069  25.190   8.265  1.00  0.00     0.053 C 
BRANCH   2   3
ATOM      3  C   UNL     1      18.027  26.593   8.784  1.00  0.00     0.041 C 
ATOM      4  O   UNL     1      16.949  27.074   9.222  1.00  0.00    -0.550 OA
ATOM      5  O   UNL     1      19.189  27.352   8.826  1.00  0.00    -0.550 OA
ENDBRANCH   2   3
ENDBRANCH   1   2
BRANCH   1   6
ATOM      6  C   UNL     1      19.891  23.545   7.662  1.00  0.00     0.000 C 
BRANCH   6   7
ATOM      7  C   UNL     1      21.326  23.083   7.957  1.00  0.00    -0.003 C 
ATOM      8  C   UNL     1      21.605  22.939   9.453  1.00  0.00     0.004 C 
ENDBRANCH   6   7
ENDBRANCH   1   6
TORSDOF 4
ENDMDL
MODEL 4
REMARK VINA RESULT:    -3.882      1.270      1.666
REMARK INTER + INTRA:          -4.884
REMARK INTER:                  -4.779
REMARK INTRA:                  -0.104
REMARK UNBOUND:                -0.093
REMARK SMILES CCCCCC(=O)[O-]
REMARK SMILES IDX 4 1 5 2 6 3 7 4 8 5 3 6 2 7 1 8
REMARK H PARENT
REMARK Flexibility Score: inf
ROOT
ATOM      1  C   UNL     1      19.334  24.880   8.684  1.00  0.00     0.006 C 
ENDROOT
BRANCH   1   2
ATOM      2  C   UNL     1      18.022  25.630   8.435  1.00  0.00     0.053 C 
BRANCH   2   3
ATOM      3  C   UNL     1      18.123  27.040   8.927  1.00  0.00     0.041 C 
ATOM      4  O   UNL     1      19.250  27.543   9.179  1.00  0.00    -0.550 OA
ATOM      5  O   UNL     1      16.977  27.813   9.061  1.00  0.00    -0.550 OA
ENDBRANCH   2   3
ENDBRANCH   1   2
BRANCH   1   6
ATOM      6  C   UNL     1      19.212  23.950   9.901  1.00  0.00     0.000 C 
BRANCH   6   7
ATOM      7  C   UNL     1      20.552  23.304  10.286  1.00  0.00    -0.003 C 
ATOM      8  C   UNL     1      21.430  22.994   9.074  1.00  0.00     0.004 C 
ENDBRANCH   6   7
ENDBRANCH   1   6
TORSDOF 4
ENDMDL
MODEL 5
REMARK VINA RESULT:    -3.865      1.167      1.540
REMARK INTER + INTRA:          -4.863
REMARK INTER:                  -4.648
REMARK INTRA:                  -0.215
REMARK UNBOUND:                -0.093
REMARK SMILES CCCCCC(=O)[O-]
REMARK SMILES IDX 4 1 5 2 6 3 7 4 8 5 3 6 2 7 1 8
REMARK H PARENT
REMARK Flexibility Score: inf
ROOT
ATOM      1  C   UNL     1      18.926  23.643   8.402  1.00  0.00     0.006 C 
ENDROOT
BRANCH   1   2
ATOM      2  C   UNL     1      18.330  25.008   8.042  1.00  0.00     0.053 C 
BRANCH   2   3
ATOM      3  C   UNL     1      18.880  26.072   8.940  1.00  0.00     0.041 C 
ATOM      4  O   UNL     1      19.015  27.250   8.517  1.00  0.00    -0.550 OA
ATOM      5  O   UNL     1      19.198  25.772  10.258  1.00  0.00    -0.550 OA
ENDBRANCH   2   3
ENDBRANCH   1   2
BRANCH   1   6
ATOM      6  C   UNL     1      19.975  23.212   7.365  1.00  0.00     0.000 C 
BRANCH   6   7
ATOM      7  C   UNL     1      21.393  23.148   7.953  1.00  0.00    -0.003 C 
ATOM      8  C   UNL     1      21.398  23.001   9.474  1.00  0.00     0.004 C 
ENDBRANCH   6   7
ENDBRANCH   1   6
TORSDOF 4
ENDMDL
MODEL 6
REMARK VINA RESULT:    -3.818      2.695      4.367
REMARK INTER + INTRA:          -4.804
REMARK INTER:                  -4.709
REMARK INTRA:                  -0.095
REMARK UNBOUND:                -0.093
REMARK SMILES CCCCCC(=O)[O-]
REMARK SMILES IDX 4 1 5 2 6 3 7 4 8 5 3 6 2 7 1 8
REMARK H PARENT
REMARK Flexibility Score: inf
ROOT
ATOM      1  C   UNL     1      18.871  24.619   8.478  1.00  0.00     0.006 C 
ENDROOT
BRANCH   1   2
ATOM      2  C   UNL     1      18.963  23.605   7.334  1.00  0.00     0.053 C 
BRANCH   2   3
ATOM      3  C   UNL     1      20.359  23.077   7.214  1.00  0.00     0.041 C 
ATOM      4  O   UNL     1      20.675  22.338   6.244  1.00  0.00    -0.550 OA
ATOM      5  O   UNL     1      21.321  23.440   8.146  1.00  0.00    -0.550 OA
ENDBRANCH   2   3
ENDBRANCH   1   2
BRANCH   1   6
ATOM      6  C   UNL     1      17.540  25.384   8.428  1.00  0.00     0.000 C 
BRANCH   6   7
ATOM      7  C   UNL     1      17.712  26.886   8.702  1.00  0.00    -0.003 C 
ATOM      8  C   UNL     1      19.157  27.267   9.025  1.00  0.00     0.004 C 
ENDBRANCH   6   7
ENDBRANCH   1   6
TORSDOF 4
ENDMDL
MODEL 7
REMARK VINA RESULT:    -3.817      3.375      4.497
REMARK INTER + INTRA:          -4.803
REMARK INTER:                  -4.637
REMARK INTRA:                  -0.166
REMARK UNBOUND:                -0.093
REMARK SMILES CCCCCC(=O)[O-]
REMARK SMILES IDX 4 1 5 2 6 3 7 4 8 5 3 6 2 7 1 8
REMARK H PARENT
REMARK Flexibility Score: inf
ROOT
ATOM      1  C   UNL     1      20.193  23.936   8.547  1.00  0.00     0.006 C 
ENDROOT
BRANCH   1   2
ATOM      2  C   UNL     1      20.326  23.429   9.987  1.00  0.00     0.053 C 
BRANCH   2   3
ATOM      3  C   UNL     1      19.487  22.207  10.190  1.00  0.00     0.041 C 
ATOM      4  O   UNL     1      19.457  21.305   9.311  1.00  0.00    -0.550 OA
ATOM      5  O   UNL     1      18.776  22.041  11.372  1.00  0.00    -0.550 OA
ENDBRANCH   2   3
ENDBRANCH   1   2
BRANCH   1   6
ATOM      6  C   UNL     1      18.899  24.743   8.367  1.00  0.00     0.000 C 
BRANCH   6   7
ATOM      7  C   UNL     1      18.749  25.858   9.413  1.00  0.00    -0.003 C 
ATOM      8  C   UNL     1      19.040  27.247   8.845  1.00  0.00     0.004 C 
ENDBRANCH   6   7
ENDBRANCH   1   6
TORSDOF 4
ENDMDL
MODEL 8
REMARK VINA RESULT:    -3.814      0.992      1.548
REMARK INTER + INTRA:          -4.799
REMARK INTER:                  -4.718
REMARK INTRA:                  -0.081
REMARK UNBOUND:                -0.093
REMARK SMILES CCCCCC(=O)[O-]
REMARK SMILES IDX 4 1 5 2 6 3 7 4 8 5 3 6 2 7 1 8
REMARK H PARENT
REMARK Flexibility Score: inf
ROOT
ATOM      1  C   UNL     1      18.929  24.282   8.032  1.00  0.00     0.006 C 
ENDROOT
BRANCH   1   2
ATOM      2  C   UNL     1      19.084  25.079   9.331  1.00  0.00     0.053 C 
BRANCH   2   3
ATOM      3  C   UNL     1      18.441  26.424   9.200  1.00  0.00     0.041 C 
ATOM      4  O   UNL     1      19.151  27.458   9.098  1.00  0.00    -0.550 OA
ATOM      5  O   UNL     1      17.057  26.529   9.143  1.00  0.00    -0.550 OA
ENDBRANCH   2   3
ENDBRANCH   1   2
BRANCH   1   6
ATOM      6  C   UNL     1      20.215  23.509   7.705  1.00  0.00     0.000 C 
BRANCH   6   7
ATOM      7  C   UNL     1      20.039  22.541   6.525  1.00  0.00    -0.003 C 
ATOM      8  C   UNL     1      18.688  22.697   5.829  1.00  0.00     0.004 C 
ENDBRANCH   6   7
ENDBRANCH   1   6
TORSDOF 4
ENDMDL
MODEL 9
REMARK VINA RESULT:    -3.732      2.114      3.026
REMARK INTER + INTRA:          -4.698
REMARK INTER:                  -4.459
REMARK INTRA:                  -0.239
REMARK UNBOUND:                -0.093
REMARK SMILES CCCCCC(=O)[O-]
REMARK SMILES IDX 4 1 5 2 6 3 7 4 8 5 3 6 2 7 1 8
REMARK H PARENT
REMARK Flexibility Score: inf
ROOT
ATOM      1  C   UNL     1      20.658  22.354   9.123  1.00  0.00     0.006 C 
ENDROOT
BRANCH   1   2
ATOM      2  C   UNL     1      20.370  23.369  10.233  1.00  0.00     0.053 C 
BRANCH   2   3
ATOM      3  C   UNL     1      19.138  24.156   9.915  1.00  0.00     0.041 C 
ATOM      4  O   UNL     1      18.068  23.564   9.613  1.00  0.00    -0.550 OA
ATOM      5  O   UNL     1      19.158  25.542   9.999  1.00  0.00    -0.550 OA
ENDBRANCH   2   3
ENDBRANCH   1   2
BRANCH   1   6
ATOM      6  C   UNL     1      21.164  23.057   7.854  1.00  0.00     0.000 C 
BRANCH   6   7
ATOM      7  C   UNL     1      20.617  22.420   6.568  1.00  0.00    -0.003 C 
ATOM      8  C   UNL     1      19.155  22.781   6.304  1.00  0.00     0.004 C 
ENDBRANCH   6   7
ENDBRANCH   1   6
TORSDOF 4
ENDMDL
