MODEL 1
REMARK VINA RESULT:    -3.392      0.000      0.000
REMARK INTER + INTRA:          -7.741
REMARK INTER:                  -5.970
REMARK INTRA:                  -1.771
REMARK UNBOUND:                -1.771
REMARK SMILES CCCCCCCCCCCCCCC(=O)[O-]
REMARK SMILES IDX 9 1 10 2 11 3 12 4 13 5 14 6 15 7 16 8 17 9 8 10 7 11 6 12
REMARK SMILES IDX 5 13 4 14 3 15 2 16 1 17
REMARK H PARENT
REMARK Flexibility Score: inf
ROOT
ATOM      1  C   UNL     1      -4.936  -4.879   7.117  1.00  0.00     0.000 C 
ENDROOT
BRANCH   1   2
ATOM      2  C   UNL     1      -4.534  -5.158   8.577  1.00  0.00     0.000 C 
BRANCH   2   3
ATOM      3  C   UNL     1      -4.783  -6.601   9.061  1.00  0.00     0.000 C 
BRANCH   3   4
ATOM      4  C   UNL     1      -5.293  -7.576   7.982  1.00  0.00     0.000 C 
BRANCH   4   5
ATOM      5  C   UNL     1      -4.369  -8.779   7.702  1.00  0.00     0.006 C 
BRANCH   5   6
ATOM      6  C   UNL     1      -3.752  -8.792   6.295  1.00  0.00     0.053 C 
BRANCH   6   7
ATOM      7  C   UNL     1      -2.663  -7.775   6.151  1.00  0.00     0.041 C 
ATOM      8  O   UNL     1      -1.630  -7.847   6.870  1.00  0.00    -0.550 OA
ATOM      9  O   UNL     1      -2.771  -6.766   5.202  1.00  0.00    -0.550 OA
ENDBRANCH   6   7
ENDBRANCH   5   6
ENDBRANCH   4   5
ENDBRANCH   3   4
ENDBRANCH   2   3
ENDBRANCH   1   2
BRANCH   1  10
ATOM     10  C   UNL     1      -5.971  -3.748   6.990  1.00  0.00     0.000 C 
BRANCH  10  11
ATOM     11  C   UNL     1      -6.439  -3.222   8.356  1.00  0.00    -0.000 C 
BRANCH  11  12
ATOM     12  C   UNL     1      -7.944  -3.439   8.593  1.00  0.00    -0.000 C 
BRANCH  12  13
ATOM     13  C   UNL     1      -8.361  -4.910   8.428  1.00  0.00    -0.000 C 
BRANCH  13  14
ATOM     14  C   UNL     1      -9.597  -5.077   7.533  1.00  0.00    -0.000 C 
BRANCH  14  15
ATOM     15  C   UNL     1      -9.786  -3.857   6.622  1.00  0.00    -0.000 C 
BRANCH  15  16
ATOM     16  C   UNL     1      -9.956  -4.283   5.160  1.00  0.00    -0.003 C 
ATOM     17  C   UNL     1      -8.639  -4.789   4.577  1.00  0.00     0.004 C 
ENDBRANCH  15  16
ENDBRANCH  14  15
ENDBRANCH  13  14
ENDBRANCH  12  13
ENDBRANCH  11  12
ENDBRANCH  10  11
ENDBRANCH   1  10
TORSDOF 13
ENDMDL
MODEL 2
REMARK VINA RESULT:    -3.196      1.260      2.040
REMARK INTER + INTRA:          -7.396
REMARK INTER:                  -5.286
REMARK INTRA:                  -2.110
REMARK UNBOUND:                -1.771
REMARK SMILES CCCCCCCCCCCCCCC(=O)[O-]
REMARK SMILES IDX 9 1 10 2 11 3 12 4 13 5 14 6 15 7 16 8 17 9 8 10 7 11 6 12
REMARK SMILES IDX 5 13 4 14 3 15 2 16 1 17
REMARK H PARENT
REMARK Flexibility Score: inf
ROOT
ATOM      1  C   UNL     1      -4.857  -5.060   7.627  1.00  0.00     0.000 C 
ENDROOT
BRANCH   1   2
ATOM      2  C   UNL     1      -4.856  -5.171   9.162  1.00  0.00     0.000 C 
BRANCH   2   3
ATOM      3  C   UNL     1      -4.108  -6.394   9.730  1.00  0.00     0.000 C 
BRANCH   3   4
ATOM      4  C   UNL     1      -3.102  -7.054   8.766  1.00  0.00     0.000 C 
BRANCH   4   5
ATOM      5  C   UNL     1      -3.502  -8.458   8.270  1.00  0.00     0.006 C 
BRANCH   5   6
ATOM      6  C   UNL     1      -3.763  -8.548   6.759  1.00  0.00     0.053 C 
BRANCH   6   7
ATOM      7  C   UNL     1      -2.626  -7.990   5.960  1.00  0.00     0.041 C 
ATOM      8  O   UNL     1      -1.521  -8.595   5.922  1.00  0.00    -0.550 OA
ATOM      9  O   UNL     1      -2.794  -6.819   5.230  1.00  0.00    -0.550 OA
ENDBRANCH   6   7
ENDBRANCH   5   6
ENDBRANCH   4   5
ENDBRANCH   3   4
ENDBRANCH   2   3
ENDBRANCH   1   2
BRANCH   1  10
ATOM     10  C   UNL     1      -5.700  -3.879   7.116  1.00  0.00     0.000 C 
BRANCH  10  11
ATOM     11  C   UNL     1      -6.372  -3.098   8.256  1.00  0.00    -0.000 C 
BRANCH  11  12
ATOM     12  C   UNL     1      -7.886  -3.359   8.346  1.00  0.00    -0.000 C 
BRANCH  12  13
ATOM     13  C   UNL     1      -8.405  -4.222   7.184  1.00  0.00    -0.000 C 
BRANCH  13  14
ATOM     14  C   UNL     1      -9.043  -5.535   7.661  1.00  0.00    -0.000 C 
BRANCH  14  15
ATOM     15  C   UNL     1      -8.367  -6.041   8.942  1.00  0.00    -0.000 C 
BRANCH  15  16
ATOM     16  C   UNL     1      -7.855  -7.474   8.764  1.00  0.00    -0.003 C 
ATOM     17  C   UNL     1      -7.353  -7.707   7.342  1.00  0.00     0.004 C 
ENDBRANCH  15  16
ENDBRANCH  14  15
ENDBRANCH  13  14
ENDBRANCH  12  13
ENDBRANCH  11  12
ENDBRANCH  10  11
ENDBRANCH   1  10
TORSDOF 13
ENDMDL
MODEL 3
REMARK VINA RESULT:    -3.064      2.435      5.716
REMARK INTER + INTRA:          -7.163
REMARK INTER:                  -5.092
REMARK INTRA:                  -2.071
REMARK UNBOUND:                -1.771
REMARK SMILES CCCCCCCCCCCCCCC(=O)[O-]
REMARK SMILES IDX 9 1 10 2 11 3 12 4 13 5 14 6 15 7 16 8 17 9 8 10 7 11 6 12
REMARK SMILES IDX 5 13 4 14 3 15 2 16 1 17
REMARK H PARENT
REMARK Flexibility Score: inf
ROOT
ATOM      1  C   UNL     1      -5.833  -3.712   7.011  1.00  0.00     0.000 C 
ENDROOT
BRANCH   1   2
ATOM      2  C   UNL     1      -6.418  -3.103   8.298  1.00  0.00     0.000 C 
BRANCH   2   3
ATOM      3  C   UNL     1      -7.932  -3.316   8.495  1.00  0.00     0.000 C 
BRANCH   3   4
ATOM      4  C   UNL     1      -8.369  -4.782   8.689  1.00  0.00     0.000 C 
BRANCH   4   5
ATOM      5  C   UNL     1      -9.378  -5.304   7.647  1.00  0.00     0.006 C 
BRANCH   5   6
ATOM      6  C   UNL     1      -8.745  -5.760   6.323  1.00  0.00     0.053 C 
BRANCH   6   7
ATOM      7  C   UNL     1      -8.971  -4.768   5.224  1.00  0.00     0.041 C 
ATOM      8  O   UNL     1      -9.889  -3.911   5.323  1.00  0.00    -0.550 OA
ATOM      9  O   UNL     1      -8.147  -4.767   4.105  1.00  0.00    -0.550 OA
ENDBRANCH   6   7
ENDBRANCH   5   6
ENDBRANCH   4   5
ENDBRANCH   3   4
ENDBRANCH   2   3
ENDBRANCH   1   2
BRANCH   1  10
ATOM     10  C   UNL     1      -4.982  -4.965   7.277  1.00  0.00     0.000 C 
BRANCH  10  11
ATOM     11  C   UNL     1      -4.579  -5.100   8.755  1.00  0.00    -0.000 C 
BRANCH  11  12
ATOM     12  C   UNL     1      -5.079  -6.409   9.390  1.00  0.00    -0.000 C 
BRANCH  12  13
ATOM     13  C   UNL     1      -5.569  -7.423   8.344  1.00  0.00    -0.000 C 
BRANCH  13  14
ATOM     14  C   UNL     1      -4.547  -8.538   8.078  1.00  0.00    -0.000 C 
BRANCH  14  15
ATOM     15  C   UNL     1      -4.075  -8.513   6.619  1.00  0.00    -0.000 C 
BRANCH  15  16
ATOM     16  C   UNL     1      -2.716  -7.817   6.493  1.00  0.00    -0.003 C 
ATOM     17  C   UNL     1      -1.920  -7.923   7.791  1.00  0.00     0.004 C 
ENDBRANCH  15  16
ENDBRANCH  14  15
ENDBRANCH  13  14
ENDBRANCH  12  13
ENDBRANCH  11  12
ENDBRANCH  10  11
ENDBRANCH   1  10
TORSDOF 13
ENDMDL
MODEL 4
REMARK VINA RESULT:    -3.055     19.076     21.054
REMARK INTER + INTRA:          -7.148
REMARK INTER:                  -5.399
REMARK INTRA:                  -1.748
REMARK UNBOUND:                -1.771
REMARK SMILES CCCCCCCCCCCCCCC(=O)[O-]
REMARK SMILES IDX 9 1 10 2 11 3 12 4 13 5 14 6 15 7 16 8 17 9 8 10 7 11 6 12
REMARK SMILES IDX 5 13 4 14 3 15 2 16 1 17
REMARK H PARENT
REMARK Flexibility Score: inf
ROOT
ATOM      1  C   UNL     1       9.403   1.704  -7.289  1.00  0.00     0.000 C 
ENDROOT
BRANCH   1   2
ATOM      2  C   UNL     1       8.174   2.581  -7.589  1.00  0.00     0.000 C 
BRANCH   2   3
ATOM      3  C   UNL     1       7.230   2.035  -8.679  1.00  0.00     0.000 C 
BRANCH   3   4
ATOM      4  C   UNL     1       6.400   3.101  -9.422  1.00  0.00     0.000 C 
BRANCH   4   5
ATOM      5  C   UNL     1       5.590   4.047  -8.512  1.00  0.00     0.006 C 
BRANCH   5   6
ATOM      6  C   UNL     1       4.546   3.342  -7.633  1.00  0.00     0.053 C 
BRANCH   6   7
ATOM      7  C   UNL     1       4.777   3.594  -6.176  1.00  0.00     0.041 C 
ATOM      8  O   UNL     1       5.418   4.614  -5.803  1.00  0.00    -0.550 OA
ATOM      9  O   UNL     1       4.258   2.724  -5.226  1.00  0.00    -0.550 OA
ENDBRANCH   6   7
ENDBRANCH   5   6
ENDBRANCH   4   5
ENDBRANCH   3   4
ENDBRANCH   2   3
ENDBRANCH   1   2
BRANCH   1  10
ATOM     10  C   UNL     1       9.209   0.810  -6.052  1.00  0.00     0.000 C 
BRANCH  10  11
ATOM     11  C   UNL     1       8.428  -0.475  -6.371  1.00  0.00    -0.000 C 
BRANCH  11  12
ATOM     12  C   UNL     1       7.133  -0.604  -5.550  1.00  0.00    -0.000 C 
BRANCH  12  13
ATOM     13  C   UNL     1       5.875  -0.307  -6.382  1.00  0.00    -0.000 C 
BRANCH  13  14
ATOM     14  C   UNL     1       5.564  -1.414  -7.400  1.00  0.00    -0.000 C 
BRANCH  14  15
ATOM     15  C   UNL     1       5.121  -0.819  -8.742  1.00  0.00    -0.000 C 
BRANCH  15  16
ATOM     16  C   UNL     1       6.054  -1.261  -9.874  1.00  0.00    -0.003 C 
ATOM     17  C   UNL     1       7.185  -2.138  -9.346  1.00  0.00     0.004 C 
ENDBRANCH  15  16
ENDBRANCH  14  15
ENDBRANCH  13  14
ENDBRANCH  12  13
ENDBRANCH  11  12
ENDBRANCH  10  11
ENDBRANCH   1  10
TORSDOF 13
ENDMDL
MODEL 5
REMARK VINA RESULT:    -3.032     19.074     21.086
REMARK INTER + INTRA:          -7.108
REMARK INTER:                  -6.023
REMARK INTRA:                  -1.084
REMARK UNBOUND:                -1.771
REMARK SMILES CCCCCCCCCCCCCCC(=O)[O-]
REMARK SMILES IDX 9 1 10 2 11 3 12 4 13 5 14 6 15 7 16 8 17 9 8 10 7 11 6 12
REMARK SMILES IDX 5 13 4 14 3 15 2 16 1 17
REMARK H PARENT
REMARK Flexibility Score: inf
ROOT
ATOM      1  C   UNL     1       5.142   4.141  -5.677  1.00  0.00     0.000 C 
ENDROOT
BRANCH   1   2
ATOM      2  C   UNL     1       6.088   5.069  -6.460  1.00  0.00     0.000 C 
BRANCH   2   3
ATOM      3  C   UNL     1       6.377   6.427  -5.790  1.00  0.00     0.000 C 
BRANCH   3   4
ATOM      4  C   UNL     1       6.622   6.369  -4.269  1.00  0.00     0.000 C 
BRANCH   4   5
ATOM      5  C   UNL     1       6.103   7.587  -3.479  1.00  0.00     0.006 C 
BRANCH   5   6
ATOM      6  C   UNL     1       6.466   7.577  -1.986  1.00  0.00     0.053 C 
BRANCH   6   7
ATOM      7  C   UNL     1       6.380   8.943  -1.379  1.00  0.00     0.041 C 
ATOM      8  O   UNL     1       7.391   9.696  -1.369  1.00  0.00    -0.550 OA
ATOM      9  O   UNL     1       5.178   9.399  -0.855  1.00  0.00    -0.550 OA
ENDBRANCH   6   7
ENDBRANCH   5   6
ENDBRANCH   4   5
ENDBRANCH   3   4
ENDBRANCH   2   3
ENDBRANCH   1   2
BRANCH   1  10
ATOM     10  C   UNL     1       4.165   3.378  -6.589  1.00  0.00     0.000 C 
BRANCH  10  11
ATOM     11  C   UNL     1       4.569   3.445  -8.070  1.00  0.00    -0.000 C 
BRANCH  11  12
ATOM     12  C   UNL     1       5.134   2.112  -8.593  1.00  0.00    -0.000 C 
BRANCH  12  13
ATOM     13  C   UNL     1       6.670   2.071  -8.567  1.00  0.00    -0.000 C 
BRANCH  13  14
ATOM     14  C   UNL     1       7.223   1.391  -7.306  1.00  0.00    -0.000 C 
BRANCH  14  15
ATOM     15  C   UNL     1       6.268   0.300  -6.806  1.00  0.00    -0.000 C 
BRANCH  15  16
ATOM     16  C   UNL     1       6.689  -0.208  -5.423  1.00  0.00    -0.003 C 
ATOM     17  C   UNL     1       6.803  -1.730  -5.407  1.00  0.00     0.004 C 
ENDBRANCH  15  16
ENDBRANCH  14  15
ENDBRANCH  13  14
ENDBRANCH  12  13
ENDBRANCH  11  12
ENDBRANCH  10  11
ENDBRANCH   1  10
TORSDOF 13
ENDMDL
MODEL 6
REMARK VINA RESULT:    -3.018      1.137      2.227
REMARK INTER + INTRA:          -7.083
REMARK INTER:                  -5.389
REMARK INTRA:                  -1.694
REMARK UNBOUND:                -1.771
REMARK SMILES CCCCCCCCCCCCCCC(=O)[O-]
REMARK SMILES IDX 9 1 10 2 11 3 12 4 13 5 14 6 15 7 16 8 17 9 8 10 7 11 6 12
REMARK SMILES IDX 5 13 4 14 3 15 2 16 1 17
REMARK H PARENT
REMARK Flexibility Score: inf
ROOT
ATOM      1  C   UNL     1      -4.100  -7.062   9.271  1.00  0.00     0.000 C 
ENDROOT
BRANCH   1   2
ATOM      2  C   UNL     1      -5.425  -7.827   9.101  1.00  0.00     0.000 C 
BRANCH   2   3
ATOM      3  C   UNL     1      -5.337  -9.109   8.249  1.00  0.00     0.000 C 
BRANCH   3   4
ATOM      4  C   UNL     1      -5.711  -8.936   6.763  1.00  0.00     0.000 C 
BRANCH   4   5
ATOM      5  C   UNL     1      -4.596  -9.302   5.764  1.00  0.00     0.006 C 
BRANCH   5   6
ATOM      6  C   UNL     1      -3.194  -9.398   6.384  1.00  0.00     0.053 C 
BRANCH   6   7
ATOM      7  C   UNL     1      -2.372  -8.177   6.105  1.00  0.00     0.041 C 
ATOM      8  O   UNL     1      -2.670  -7.420   5.143  1.00  0.00    -0.550 OA
ATOM      9  O   UNL     1      -1.298  -7.856   6.926  1.00  0.00    -0.550 OA
ENDBRANCH   6   7
ENDBRANCH   5   6
ENDBRANCH   4   5
ENDBRANCH   3   4
ENDBRANCH   2   3
ENDBRANCH   1   2
BRANCH   1  10
ATOM     10  C   UNL     1      -4.200  -5.592   8.829  1.00  0.00     0.000 C 
BRANCH  10  11
ATOM     11  C   UNL     1      -4.573  -5.447   7.345  1.00  0.00    -0.000 C 
BRANCH  11  12
ATOM     12  C   UNL     1      -5.673  -4.397   7.108  1.00  0.00    -0.000 C 
BRANCH  12  13
ATOM     13  C   UNL     1      -6.992  -4.755   7.812  1.00  0.00    -0.000 C 
BRANCH  13  14
ATOM     14  C   UNL     1      -7.990  -5.456   6.879  1.00  0.00    -0.000 C 
BRANCH  14  15
ATOM     15  C   UNL     1      -8.737  -4.437   6.009  1.00  0.00    -0.000 C 
BRANCH  15  16
ATOM     16  C   UNL     1      -8.571  -4.758   4.520  1.00  0.00    -0.003 C 
ATOM     17  C   UNL     1      -9.257  -6.073   4.160  1.00  0.00     0.004 C 
ENDBRANCH  15  16
ENDBRANCH  14  15
ENDBRANCH  13  14
ENDBRANCH  12  13
ENDBRANCH  11  12
ENDBRANCH  10  11
ENDBRANCH   1  10
TORSDOF 13
ENDMDL
MODEL 7
REMARK VINA RESULT:    -3.008     19.150     21.098
REMARK INTER + INTRA:          -7.065
REMARK INTER:                  -5.946
REMARK INTRA:                  -1.119
REMARK UNBOUND:                -1.771
REMARK SMILES CCCCCCCCCCCCCCC(=O)[O-]
REMARK SMILES IDX 9 1 10 2 11 3 12 4 13 5 14 6 15 7 16 8 17 9 8 10 7 11 6 12
REMARK SMILES IDX 5 13 4 14 3 15 2 16 1 17
REMARK H PARENT
REMARK Flexibility Score: inf
ROOT
ATOM      1  C   UNL     1       5.214   2.328  -6.562  1.00  0.00     0.000 C 
ENDROOT
BRANCH   1   2
ATOM      2  C   UNL     1       4.879   3.769  -6.136  1.00  0.00     0.000 C 
BRANCH   2   3
ATOM      3  C   UNL     1       5.568   4.874  -6.961  1.00  0.00     0.000 C 
BRANCH   3   4
ATOM      4  C   UNL     1       6.628   5.696  -6.201  1.00  0.00     0.000 C 
BRANCH   4   5
ATOM      5  C   UNL     1       6.245   6.075  -4.756  1.00  0.00     0.006 C 
BRANCH   5   6
ATOM      6  C   UNL     1       6.466   7.555  -4.408  1.00  0.00     0.053 C 
BRANCH   6   7
ATOM      7  C   UNL     1       5.963   7.890  -3.038  1.00  0.00     0.041 C 
ATOM      8  O   UNL     1       6.367   7.238  -2.038  1.00  0.00    -0.550 OA
ATOM      9  O   UNL     1       5.075   8.943  -2.859  1.00  0.00    -0.550 OA
ENDBRANCH   6   7
ENDBRANCH   5   6
ENDBRANCH   4   5
ENDBRANCH   3   4
ENDBRANCH   2   3
ENDBRANCH   1   2
BRANCH   1  10
ATOM     10  C   UNL     1       5.977   2.264  -7.897  1.00  0.00     0.000 C 
BRANCH  10  11
ATOM     11  C   UNL     1       5.118   1.695  -9.038  1.00  0.00    -0.000 C 
BRANCH  11  12
ATOM     12  C   UNL     1       5.787   0.503  -9.747  1.00  0.00    -0.000 C 
BRANCH  12  13
ATOM     13  C   UNL     1       6.917  -0.121  -8.913  1.00  0.00    -0.000 C 
BRANCH  13  14
ATOM     14  C   UNL     1       6.554  -1.512  -8.372  1.00  0.00    -0.000 C 
BRANCH  14  15
ATOM     15  C   UNL     1       5.744  -1.403  -7.075  1.00  0.00    -0.000 C 
BRANCH  15  16
ATOM     16  C   UNL     1       6.622  -1.691  -5.852  1.00  0.00    -0.003 C 
ATOM     17  C   UNL     1       7.488  -0.484  -5.500  1.00  0.00     0.004 C 
ENDBRANCH  15  16
ENDBRANCH  14  15
ENDBRANCH  13  14
ENDBRANCH  12  13
ENDBRANCH  11  12
ENDBRANCH  10  11
ENDBRANCH   1  10
TORSDOF 13
ENDMDL
MODEL 8
REMARK VINA RESULT:    -2.942     19.288     21.303
REMARK INTER + INTRA:          -6.949
REMARK INTER:                  -6.139
REMARK INTRA:                  -0.811
REMARK UNBOUND:                -1.771
REMARK SMILES CCCCCCCCCCCCCCC(=O)[O-]
REMARK SMILES IDX 9 1 10 2 11 3 12 4 13 5 14 6 15 7 16 8 17 9 8 10 7 11 6 12
REMARK SMILES IDX 5 13 4 14 3 15 2 16 1 17
REMARK H PARENT
REMARK Flexibility Score: inf
ROOT
ATOM      1  C   UNL     1       7.740   5.916  -6.037  1.00  0.00     0.000 C 
ENDROOT
BRANCH   1   2
ATOM      2  C   UNL     1       7.730   6.654  -4.686  1.00  0.00     0.000 C 
BRANCH   2   3
ATOM      3  C   UNL     1       6.389   6.612  -3.926  1.00  0.00     0.000 C 
BRANCH   3   4
ATOM      4  C   UNL     1       6.427   7.189  -2.497  1.00  0.00     0.000 C 
BRANCH   4   5
ATOM      5  C   UNL     1       5.792   8.586  -2.341  1.00  0.00     0.006 C 
BRANCH   5   6
ATOM      6  C   UNL     1       6.453   9.468  -1.270  1.00  0.00     0.053 C 
BRANCH   6   7
ATOM      7  C   UNL     1       5.766   9.348   0.055  1.00  0.00     0.041 C 
ATOM      8  O   UNL     1       4.575   9.739   0.189  1.00  0.00    -0.550 OA
ATOM      9  O   UNL     1       6.426   8.776   1.135  1.00  0.00    -0.550 OA
ENDBRANCH   6   7
ENDBRANCH   5   6
ENDBRANCH   4   5
ENDBRANCH   3   4
ENDBRANCH   2   3
ENDBRANCH   1   2
BRANCH   1  10
ATOM     10  C   UNL     1       6.336   5.475  -6.485  1.00  0.00     0.000 C 
BRANCH  10  11
ATOM     11  C   UNL     1       6.358   4.161  -7.282  1.00  0.00    -0.000 C 
BRANCH  11  12
ATOM     12  C   UNL     1       7.738   3.480  -7.265  1.00  0.00    -0.000 C 
BRANCH  12  13
ATOM     13  C   UNL     1       7.646   1.955  -7.437  1.00  0.00    -0.000 C 
BRANCH  13  14
ATOM     14  C   UNL     1       6.228   1.485  -7.793  1.00  0.00    -0.000 C 
BRANCH  14  15
ATOM     15  C   UNL     1       5.878   0.185  -7.057  1.00  0.00    -0.000 C 
BRANCH  15  16
ATOM     16  C   UNL     1       6.495   0.164  -5.655  1.00  0.00    -0.003 C 
ATOM     17  C   UNL     1       7.199  -1.162  -5.382  1.00  0.00     0.004 C 
ENDBRANCH  15  16
ENDBRANCH  14  15
ENDBRANCH  13  14
ENDBRANCH  12  13
ENDBRANCH  11  12
ENDBRANCH  10  11
ENDBRANCH   1  10
TORSDOF 13
ENDMDL
MODEL 9
REMARK VINA RESULT:    -2.941     19.100     21.230
REMARK INTER + INTRA:          -6.948
REMARK INTER:                  -4.748
REMARK INTRA:                  -2.200
REMARK UNBOUND:                -1.771
REMARK SMILES CCCCCCCCCCCCCCC(=O)[O-]
REMARK SMILES IDX 9 1 10 2 11 3 12 4 13 5 14 6 15 7 16 8 17 9 8 10 7 11 6 12
REMARK SMILES IDX 5 13 4 14 3 15 2 16 1 17
REMARK H PARENT
REMARK Flexibility Score: inf
ROOT
ATOM      1  C   UNL     1       8.553   0.412  -6.090  1.00  0.00     0.000 C 
ENDROOT
BRANCH   1   2
ATOM      2  C   UNL     1       9.522  -0.268  -7.073  1.00  0.00     0.000 C 
BRANCH   2   3
ATOM      3  C   UNL     1       9.148  -0.134  -8.562  1.00  0.00     0.000 C 
BRANCH   3   4
ATOM      4  C   UNL     1       8.550  -1.402  -9.205  1.00  0.00     0.000 C 
BRANCH   4   5
ATOM      5  C   UNL     1       7.121  -1.238  -9.761  1.00  0.00     0.006 C 
BRANCH   5   6
ATOM      6  C   UNL     1       6.044  -2.003  -8.977  1.00  0.00     0.053 C 
BRANCH   6   7
ATOM      7  C   UNL     1       4.662  -1.645  -9.428  1.00  0.00     0.041 C 
ATOM      8  O   UNL     1       3.740  -2.503  -9.388  1.00  0.00    -0.550 OA
ATOM      9  O   UNL     1       4.382  -0.355  -9.861  1.00  0.00    -0.550 OA
ENDBRANCH   6   7
ENDBRANCH   5   6
ENDBRANCH   4   5
ENDBRANCH   3   4
ENDBRANCH   2   3
ENDBRANCH   1   2
BRANCH   1  10
ATOM     10  C   UNL     1       7.348  -0.474  -5.731  1.00  0.00     0.000 C 
BRANCH  10  11
ATOM     11  C   UNL     1       6.006   0.248  -5.933  1.00  0.00    -0.000 C 
BRANCH  11  12
ATOM     12  C   UNL     1       6.027   1.217  -7.128  1.00  0.00    -0.000 C 
BRANCH  12  13
ATOM     13  C   UNL     1       5.492   2.612  -6.766  1.00  0.00    -0.000 C 
BRANCH  13  14
ATOM     14  C   UNL     1       6.465   3.737  -7.149  1.00  0.00    -0.000 C 
BRANCH  14  15
ATOM     15  C   UNL     1       7.285   3.356  -8.388  1.00  0.00    -0.000 C 
BRANCH  15  16
ATOM     16  C   UNL     1       8.787   3.459  -8.106  1.00  0.00    -0.003 C 
ATOM     17  C   UNL     1       9.054   4.225  -6.813  1.00  0.00     0.004 C 
ENDBRANCH  15  16
ENDBRANCH  14  15
ENDBRANCH  13  14
ENDBRANCH  12  13
ENDBRANCH  11  12
ENDBRANCH  10  11
ENDBRANCH   1  10
TORSDOF 13
ENDMDL
