MODEL 1
REMARK VINA RESULT:    -4.828      0.000      0.000
REMARK INTER + INTRA:         -18.211
REMARK INTER:                 -12.590
REMARK INTRA:                  -5.621
REMARK UNBOUND:                -5.621
REMARK SMILES CCCCCCCCCCCCCCCCCCCCCCCCCCCCCO
REMARK SMILES IDX 16 1 15 2 14 3 13 4 12 5 11 6 10 7 9 8 8 9 7 10 6 11 5 12
REMARK SMILES IDX 4 13 3 14 2 15 1 16 17 17 18 18 19 19 20 20 21 21 22 22
REMARK SMILES IDX 23 23 24 24 25 25 26 26 27 27 28 28 29 29 30 30
REMARK H PARENT 30 31
REMARK Flexibility Score: inf
ROOT
ATOM      1  C   UNL     1     170.600 168.830 198.719  1.00  0.00     0.000 C 
ENDROOT
BRANCH   1   2
ATOM      2  C   UNL     1     171.766 168.556 199.684  1.00  0.00     0.000 C 
BRANCH   2   3
ATOM      3  C   UNL     1     173.119 168.442 198.966  1.00  0.00     0.000 C 
BRANCH   3   4
ATOM      4  C   UNL     1     173.282 169.490 197.852  1.00  0.00     0.000 C 
BRANCH   4   5
ATOM      5  C   UNL     1     174.755 169.797 197.519  1.00  0.00     0.000 C 
BRANCH   5   6
ATOM      6  C   UNL     1     175.063 171.264 197.163  1.00  0.00     0.000 C 
BRANCH   6   7
ATOM      7  C   UNL     1     175.516 172.101 198.372  1.00  0.00     0.000 C 
BRANCH   7   8
ATOM      8  C   UNL     1     176.201 171.252 199.459  1.00  0.00    -0.000 C 
BRANCH   8   9
ATOM      9  C   UNL     1     175.552 171.325 200.857  1.00  0.00    -0.000 C 
BRANCH   9  10
ATOM     10  C   UNL     1     174.033 171.569 200.864  1.00  0.00    -0.000 C 
BRANCH  10  11
ATOM     11  C   UNL     1     173.458 171.696 202.285  1.00  0.00    -0.000 C 
BRANCH  11  12
ATOM     12  C   UNL     1     172.637 172.983 202.494  1.00  0.00    -0.000 C 
BRANCH  12  13
ATOM     13  C   UNL     1     172.504 173.451 203.956  1.00  0.00    -0.000 C 
BRANCH  13  14
ATOM     14  C   UNL     1     171.760 172.479 204.893  1.00  0.00    -0.000 C 
BRANCH  14  15
ATOM     15  C   UNL     1     170.584 171.739 204.222  1.00  0.00    -0.003 C 
ATOM     16  C   UNL     1     170.806 170.229 204.132  1.00  0.00     0.004 C 
ENDBRANCH  14  15
ENDBRANCH  13  14
ENDBRANCH  12  13
ENDBRANCH  11  12
ENDBRANCH  10  11
ENDBRANCH   9  10
ENDBRANCH   8   9
ENDBRANCH   7   8
ENDBRANCH   6   7
ENDBRANCH   5   6
ENDBRANCH   4   5
ENDBRANCH   3   4
ENDBRANCH   2   3
ENDBRANCH   1   2
BRANCH   1  17
ATOM     17  C   UNL     1     169.756 170.040 199.154  1.00  0.00     0.000 C 
BRANCH  17  18
ATOM     18  C   UNL     1     170.425 170.843 200.286  1.00  0.00     0.000 C 
BRANCH  18  19
ATOM     19  C   UNL     1     169.664 172.145 200.614  1.00  0.00     0.000 C 
BRANCH  19  20
ATOM     20  C   UNL     1     168.397 172.362 199.763  1.00  0.00     0.000 C 
BRANCH  20  21
ATOM     21  C   UNL     1     168.303 173.733 199.072  1.00  0.00     0.000 C 
BRANCH  21  22
ATOM     22  C   UNL     1     168.401 173.695 197.534  1.00  0.00     0.000 C 
BRANCH  22  23
ATOM     23  C   UNL     1     168.585 172.276 196.955  1.00  0.00     0.000 C 
BRANCH  23  24
ATOM     24  C   UNL     1     169.592 172.246 195.795  1.00  0.00     0.000 C 
BRANCH  24  25
ATOM     25  C   UNL     1     170.975 171.781 196.272  1.00  0.00     0.000 C 
BRANCH  25  26
ATOM     26  C   UNL     1     171.942 172.953 196.506  1.00  0.00     0.000 C 
BRANCH  26  27
ATOM     27  C   UNL     1     172.076 173.319 197.995  1.00  0.00     0.002 C 
BRANCH  27  28
ATOM     28  C   UNL     1     172.192 174.836 198.225  1.00  0.00     0.028 C 
BRANCH  28  29
ATOM     29  C   UNL     1     173.621 175.306 198.530  1.00  0.00     0.156 C 
BRANCH  29  30
ATOM     30  O   UNL     1     173.692 176.705 198.583  1.00  0.00    -0.396 OA
ATOM     31  H   UNL     1     174.552 176.962 198.162  1.00  0.00     0.210 HD
ENDBRANCH  29  30
ENDBRANCH  28  29
ENDBRANCH  27  28
ENDBRANCH  26  27
ENDBRANCH  25  26
ENDBRANCH  24  25
ENDBRANCH  23  24
ENDBRANCH  22  23
ENDBRANCH  21  22
ENDBRANCH  20  21
ENDBRANCH  19  20
ENDBRANCH  18  19
ENDBRANCH  17  18
ENDBRANCH   1  17
TORSDOF 28
ENDMDL
MODEL 2
REMARK VINA RESULT:    -4.758      1.909      5.490
REMARK INTER + INTRA:         -18.028
REMARK INTER:                 -12.989
REMARK INTRA:                  -5.039
REMARK UNBOUND:                -5.621
REMARK SMILES CCCCCCCCCCCCCCCCCCCCCCCCCCCCCO
REMARK SMILES IDX 16 1 15 2 14 3 13 4 12 5 11 6 10 7 9 8 8 9 7 10 6 11 5 12
REMARK SMILES IDX 4 13 3 14 2 15 1 16 17 17 18 18 19 19 20 20 21 21 22 22
REMARK SMILES IDX 23 23 24 24 25 25 26 26 27 27 28 28 29 29 30 30
REMARK H PARENT 30 31
REMARK Flexibility Score: inf
ROOT
ATOM      1  C   UNL     1     170.908 170.331 203.498  1.00  0.00     0.000 C 
ENDROOT
BRANCH   1   2
ATOM      2  C   UNL     1     171.649 170.010 202.188  1.00  0.00     0.000 C 
BRANCH   2   3
ATOM      3  C   UNL     1     170.866 170.443 200.940  1.00  0.00     0.000 C 
BRANCH   3   4
ATOM      4  C   UNL     1     171.668 170.238 199.644  1.00  0.00     0.000 C 
BRANCH   4   5
ATOM      5  C   UNL     1     171.922 168.754 199.315  1.00  0.00     0.000 C 
BRANCH   5   6
ATOM      6  C   UNL     1     170.732 167.998 198.694  1.00  0.00     0.000 C 
BRANCH   6   7
ATOM      7  C   UNL     1     170.010 168.797 197.596  1.00  0.00     0.000 C 
BRANCH   7   8
ATOM      8  C   UNL     1     170.854 168.948 196.318  1.00  0.00    -0.000 C 
BRANCH   8   9
ATOM      9  C   UNL     1     170.680 170.284 195.567  1.00  0.00    -0.000 C 
BRANCH   9  10
ATOM     10  C   UNL     1     171.983 171.047 195.271  1.00  0.00    -0.000 C 
BRANCH  10  11
ATOM     11  C   UNL     1     173.045 170.858 196.368  1.00  0.00    -0.000 C 
BRANCH  11  12
ATOM     12  C   UNL     1     174.262 171.787 196.199  1.00  0.00    -0.000 C 
BRANCH  12  13
ATOM     13  C   UNL     1     175.312 171.709 197.325  1.00  0.00    -0.000 C 
BRANCH  13  14
ATOM     14  C   UNL     1     175.231 170.453 198.215  1.00  0.00    -0.000 C 
BRANCH  14  15
ATOM     15  C   UNL     1     175.937 170.606 199.578  1.00  0.00    -0.003 C 
ATOM     16  C   UNL     1     175.069 171.304 200.625  1.00  0.00     0.004 C 
ENDBRANCH  14  15
ENDBRANCH  13  14
ENDBRANCH  12  13
ENDBRANCH  11  12
ENDBRANCH  10  11
ENDBRANCH   9  10
ENDBRANCH   8   9
ENDBRANCH   7   8
ENDBRANCH   6   7
ENDBRANCH   5   6
ENDBRANCH   4   5
ENDBRANCH   3   4
ENDBRANCH   2   3
ENDBRANCH   1   2
BRANCH   1  17
ATOM     17  C   UNL     1     171.847 170.912 204.569  1.00  0.00     0.000 C 
BRANCH  17  18
ATOM     18  C   UNL     1     171.656 172.430 204.754  1.00  0.00     0.000 C 
BRANCH  18  19
ATOM     19  C   UNL     1     172.716 173.253 203.992  1.00  0.00     0.000 C 
BRANCH  19  20
ATOM     20  C   UNL     1     172.142 174.101 202.839  1.00  0.00     0.000 C 
BRANCH  20  21
ATOM     21  C   UNL     1     172.287 173.481 201.440  1.00  0.00     0.000 C 
BRANCH  21  22
ATOM     22  C   UNL     1     172.312 174.494 200.278  1.00  0.00     0.000 C 
BRANCH  22  23
ATOM     23  C   UNL     1     172.793 173.895 198.939  1.00  0.00     0.000 C 
BRANCH  23  24
ATOM     24  C   UNL     1     172.121 174.560 197.728  1.00  0.00     0.000 C 
BRANCH  24  25
ATOM     25  C   UNL     1     170.922 173.736 197.237  1.00  0.00     0.000 C 
BRANCH  25  26
ATOM     26  C   UNL     1     169.845 173.560 198.319  1.00  0.00     0.000 C 
BRANCH  26  27
ATOM     27  C   UNL     1     168.679 172.671 197.852  1.00  0.00     0.002 C 
BRANCH  27  28
ATOM     28  C   UNL     1     168.113 171.793 198.981  1.00  0.00     0.028 C 
BRANCH  28  29
ATOM     29  C   UNL     1     167.058 172.499 199.843  1.00  0.00     0.156 C 
BRANCH  29  30
ATOM     30  O   UNL     1     166.656 173.709 199.259  1.00  0.00    -0.396 OA
ATOM     31  H   UNL     1     166.783 173.608 198.281  1.00  0.00     0.210 HD
ENDBRANCH  29  30
ENDBRANCH  28  29
ENDBRANCH  27  28
ENDBRANCH  26  27
ENDBRANCH  25  26
ENDBRANCH  24  25
ENDBRANCH  23  24
ENDBRANCH  22  23
ENDBRANCH  21  22
ENDBRANCH  20  21
ENDBRANCH  19  20
ENDBRANCH  18  19
ENDBRANCH  17  18
ENDBRANCH   1  17
TORSDOF 28
ENDMDL
MODEL 3
REMARK VINA RESULT:    -4.742      2.673      6.200
REMARK INTER + INTRA:         -17.986
REMARK INTER:                 -12.838
REMARK INTRA:                  -5.148
REMARK UNBOUND:                -5.621
REMARK SMILES CCCCCCCCCCCCCCCCCCCCCCCCCCCCCO
REMARK SMILES IDX 16 1 15 2 14 3 13 4 12 5 11 6 10 7 9 8 8 9 7 10 6 11 5 12
REMARK SMILES IDX 4 13 3 14 2 15 1 16 17 17 18 18 19 19 20 20 21 21 22 22
REMARK SMILES IDX 23 23 24 24 25 25 26 26 27 27 28 28 29 29 30 30
REMARK H PARENT 30 31
REMARK Flexibility Score: inf
ROOT
ATOM      1  C   UNL     1     168.235 171.717 198.133  1.00  0.00     0.000 C 
ENDROOT
BRANCH   1   2
ATOM      2  C   UNL     1     168.606 172.372 196.792  1.00  0.00     0.000 C 
BRANCH   2   3
ATOM      3  C   UNL     1     169.723 171.622 196.052  1.00  0.00     0.000 C 
BRANCH   3   4
ATOM      4  C   UNL     1     170.939 172.519 195.760  1.00  0.00     0.000 C 
BRANCH   4   5
ATOM      5  C   UNL     1     172.262 171.735 195.664  1.00  0.00     0.000 C 
BRANCH   5   6
ATOM      6  C   UNL     1     173.543 172.568 195.856  1.00  0.00     0.000 C 
BRANCH   6   7
ATOM      7  C   UNL     1     173.378 173.713 196.871  1.00  0.00     0.000 C 
BRANCH   7   8
ATOM      8  C   UNL     1     174.490 173.730 197.934  1.00  0.00    -0.000 C 
BRANCH   8   9
ATOM      9  C   UNL     1     175.443 172.517 197.909  1.00  0.00    -0.000 C 
BRANCH   9  10
ATOM     10  C   UNL     1     175.772 171.912 199.285  1.00  0.00    -0.000 C 
BRANCH  10  11
ATOM     11  C   UNL     1     175.417 170.418 199.379  1.00  0.00    -0.000 C 
BRANCH  11  12
ATOM     12  C   UNL     1     174.503 169.940 198.234  1.00  0.00    -0.000 C 
BRANCH  12  13
ATOM     13  C   UNL     1     173.437 168.900 198.632  1.00  0.00    -0.000 C 
BRANCH  13  14
ATOM     14  C   UNL     1     172.002 169.219 198.169  1.00  0.00    -0.000 C 
BRANCH  14  15
ATOM     15  C   UNL     1     170.971 168.130 198.533  1.00  0.00    -0.003 C 
ATOM     16  C   UNL     1     169.604 168.366 197.889  1.00  0.00     0.004 C 
ENDBRANCH  14  15
ENDBRANCH  13  14
ENDBRANCH  12  13
ENDBRANCH  11  12
ENDBRANCH  10  11
ENDBRANCH   9  10
ENDBRANCH   8   9
ENDBRANCH   7   8
ENDBRANCH   6   7
ENDBRANCH   5   6
ENDBRANCH   4   5
ENDBRANCH   3   4
ENDBRANCH   2   3
ENDBRANCH   1   2
BRANCH   1  17
ATOM     17  C   UNL     1     168.869 172.444 199.331  1.00  0.00     0.000 C 
BRANCH  17  18
ATOM     18  C   UNL     1     169.550 173.763 198.921  1.00  0.00     0.000 C 
BRANCH  18  19
ATOM     19  C   UNL     1     171.005 173.857 199.428  1.00  0.00     0.000 C 
BRANCH  19  20
ATOM     20  C   UNL     1     171.615 172.502 199.837  1.00  0.00     0.000 C 
BRANCH  20  21
ATOM     21  C   UNL     1     172.583 172.556 201.030  1.00  0.00     0.000 C 
BRANCH  21  22
ATOM     22  C   UNL     1     172.866 171.198 201.702  1.00  0.00     0.000 C 
BRANCH  22  23
ATOM     23  C   UNL     1     171.645 170.256 201.741  1.00  0.00     0.000 C 
BRANCH  23  24
ATOM     24  C   UNL     1     171.225 169.904 203.177  1.00  0.00     0.000 C 
BRANCH  24  25
ATOM     25  C   UNL     1     170.713 171.143 203.925  1.00  0.00     0.000 C 
BRANCH  25  26
ATOM     26  C   UNL     1     171.482 171.402 205.232  1.00  0.00     0.000 C 
BRANCH  26  27
ATOM     27  C   UNL     1     170.836 172.506 206.086  1.00  0.00     0.002 C 
BRANCH  27  28
ATOM     28  C   UNL     1     170.893 172.201 207.593  1.00  0.00     0.028 C 
BRANCH  28  29
ATOM     29  C   UNL     1     172.001 171.210 207.980  1.00  0.00     0.156 C 
BRANCH  29  30
ATOM     30  O   UNL     1     171.476 170.115 208.681  1.00  0.00    -0.396 OA
ATOM     31  H   UNL     1     170.525 170.034 208.410  1.00  0.00     0.210 HD
ENDBRANCH  29  30
ENDBRANCH  28  29
ENDBRANCH  27  28
ENDBRANCH  26  27
ENDBRANCH  25  26
ENDBRANCH  24  25
ENDBRANCH  23  24
ENDBRANCH  22  23
ENDBRANCH  21  22
ENDBRANCH  20  21
ENDBRANCH  19  20
ENDBRANCH  18  19
ENDBRANCH  17  18
ENDBRANCH   1  17
TORSDOF 28
ENDMDL
MODEL 4
REMARK VINA RESULT:    -4.706      2.590      6.414
REMARK INTER + INTRA:         -17.893
REMARK INTER:                 -13.176
REMARK INTRA:                  -4.717
REMARK UNBOUND:                -5.621
REMARK SMILES CCCCCCCCCCCCCCCCCCCCCCCCCCCCCO
REMARK SMILES IDX 16 1 15 2 14 3 13 4 12 5 11 6 10 7 9 8 8 9 7 10 6 11 5 12
REMARK SMILES IDX 4 13 3 14 2 15 1 16 17 17 18 18 19 19 20 20 21 21 22 22
REMARK SMILES IDX 23 23 24 24 25 25 26 26 27 27 28 28 29 29 30 30
REMARK H PARENT 30 31
REMARK Flexibility Score: inf
ROOT
ATOM      1  C   UNL     1     170.270 173.486 197.435  1.00  0.00     0.000 C 
ENDROOT
BRANCH   1   2
ATOM      2  C   UNL     1     170.730 172.705 196.192  1.00  0.00     0.000 C 
BRANCH   2   3
ATOM      3  C   UNL     1     170.129 171.294 196.119  1.00  0.00     0.000 C 
BRANCH   3   4
ATOM      4  C   UNL     1     171.104 170.271 195.510  1.00  0.00     0.000 C 
BRANCH   4   5
ATOM      5  C   UNL     1     170.929 168.852 196.084  1.00  0.00     0.000 C 
BRANCH   5   6
ATOM      6  C   UNL     1     170.234 168.770 197.456  1.00  0.00     0.000 C 
BRANCH   6   7
ATOM      7  C   UNL     1     171.111 168.126 198.544  1.00  0.00     0.000 C 
BRANCH   7   8
ATOM      8  C   UNL     1     172.527 168.725 198.599  1.00  0.00    -0.000 C 
BRANCH   8   9
ATOM      9  C   UNL     1     172.732 169.838 199.648  1.00  0.00    -0.000 C 
BRANCH   9  10
ATOM     10  C   UNL     1     173.157 171.204 199.083  1.00  0.00    -0.000 C 
BRANCH  10  11
ATOM     11  C   UNL     1     174.044 171.080 197.832  1.00  0.00    -0.000 C 
BRANCH  11  12
ATOM     12  C   UNL     1     174.209 172.410 197.072  1.00  0.00    -0.000 C 
BRANCH  12  13
ATOM     13  C   UNL     1     174.480 173.644 197.955  1.00  0.00    -0.000 C 
BRANCH  13  14
ATOM     14  C   UNL     1     173.777 174.941 197.508  1.00  0.00    -0.000 C 
BRANCH  14  15
ATOM     15  C   UNL     1     173.081 175.703 198.654  1.00  0.00    -0.003 C 
ATOM     16  C   UNL     1     172.531 174.775 199.738  1.00  0.00     0.004 C 
ENDBRANCH  14  15
ENDBRANCH  13  14
ENDBRANCH  12  13
ENDBRANCH  11  12
ENDBRANCH  10  11
ENDBRANCH   9  10
ENDBRANCH   8   9
ENDBRANCH   7   8
ENDBRANCH   6   7
ENDBRANCH   5   6
ENDBRANCH   4   5
ENDBRANCH   3   4
ENDBRANCH   2   3
ENDBRANCH   1   2
BRANCH   1  17
ATOM     17  C   UNL     1     168.737 173.561 197.539  1.00  0.00     0.000 C 
BRANCH  17  18
ATOM     18  C   UNL     1     168.231 173.248 198.960  1.00  0.00     0.000 C 
BRANCH  18  19
ATOM     19  C   UNL     1     168.254 171.738 199.275  1.00  0.00     0.000 C 
BRANCH  19  20
ATOM     20  C   UNL     1     169.518 171.274 200.025  1.00  0.00     0.000 C 
BRANCH  20  21
ATOM     21  C   UNL     1     170.112 172.304 201.000  1.00  0.00     0.000 C 
BRANCH  21  22
ATOM     22  C   UNL     1     170.057 171.902 202.487  1.00  0.00     0.000 C 
BRANCH  22  23
ATOM     23  C   UNL     1     170.831 170.606 202.812  1.00  0.00     0.000 C 
BRANCH  23  24
ATOM     24  C   UNL     1     171.100 170.450 204.316  1.00  0.00     0.000 C 
BRANCH  24  25
ATOM     25  C   UNL     1     172.314 171.283 204.753  1.00  0.00     0.000 C 
BRANCH  25  26
ATOM     26  C   UNL     1     171.914 172.529 205.560  1.00  0.00     0.000 C 
BRANCH  26  27
ATOM     27  C   UNL     1     170.653 172.300 206.411  1.00  0.00     0.002 C 
BRANCH  27  28
ATOM     28  C   UNL     1     170.932 172.391 207.922  1.00  0.00     0.028 C 
BRANCH  28  29
ATOM     29  C   UNL     1     169.800 173.053 208.720  1.00  0.00     0.156 C 
BRANCH  29  30
ATOM     30  O   UNL     1     168.713 173.366 207.891  1.00  0.00    -0.396 OA
ATOM     31  H   UNL     1     168.695 172.679 207.176  1.00  0.00     0.210 HD
ENDBRANCH  29  30
ENDBRANCH  28  29
ENDBRANCH  27  28
ENDBRANCH  26  27
ENDBRANCH  25  26
ENDBRANCH  24  25
ENDBRANCH  23  24
ENDBRANCH  22  23
ENDBRANCH  21  22
ENDBRANCH  20  21
ENDBRANCH  19  20
ENDBRANCH  18  19
ENDBRANCH  17  18
ENDBRANCH   1  17
TORSDOF 28
ENDMDL
MODEL 5
REMARK VINA RESULT:    -4.688      1.882      5.495
REMARK INTER + INTRA:         -17.845
REMARK INTER:                 -12.095
REMARK INTRA:                  -5.750
REMARK UNBOUND:                -5.621
REMARK SMILES CCCCCCCCCCCCCCCCCCCCCCCCCCCCCO
REMARK SMILES IDX 16 1 15 2 14 3 13 4 12 5 11 6 10 7 9 8 8 9 7 10 6 11 5 12
REMARK SMILES IDX 4 13 3 14 2 15 1 16 17 17 18 18 19 19 20 20 21 21 22 22
REMARK SMILES IDX 23 23 24 24 25 25 26 26 27 27 28 28 29 29 30 30
REMARK H PARENT 30 31
REMARK Flexibility Score: inf
ROOT
ATOM      1  C   UNL     1     170.824 170.244 203.961  1.00  0.00     0.000 C 
ENDROOT
BRANCH   1   2
ATOM      2  C   UNL     1     171.625 171.125 204.935  1.00  0.00     0.000 C 
BRANCH   2   3
ATOM      3  C   UNL     1     172.925 171.664 204.319  1.00  0.00     0.000 C 
BRANCH   3   4
ATOM      4  C   UNL     1     172.892 173.189 204.121  1.00  0.00     0.000 C 
BRANCH   4   5
ATOM      5  C   UNL     1     171.988 173.629 202.953  1.00  0.00     0.000 C 
BRANCH   5   6
ATOM      6  C   UNL     1     172.567 173.402 201.543  1.00  0.00     0.000 C 
BRANCH   6   7
ATOM      7  C   UNL     1     171.613 173.838 200.417  1.00  0.00     0.000 C 
BRANCH   7   8
ATOM      8  C   UNL     1     172.036 175.163 199.759  1.00  0.00    -0.000 C 
BRANCH   8   9
ATOM      9  C   UNL     1     171.526 175.375 198.319  1.00  0.00    -0.000 C 
BRANCH   9  10
ATOM     10  C   UNL     1     172.204 174.504 197.247  1.00  0.00    -0.000 C 
BRANCH  10  11
ATOM     11  C   UNL     1     173.718 174.350 197.475  1.00  0.00    -0.000 C 
BRANCH  11  12
ATOM     12  C   UNL     1     174.249 172.954 197.099  1.00  0.00    -0.000 C 
BRANCH  12  13
ATOM     13  C   UNL     1     174.011 171.853 198.151  1.00  0.00    -0.000 C 
BRANCH  13  14
ATOM     14  C   UNL     1     174.905 170.605 198.012  1.00  0.00    -0.000 C 
BRANCH  14  15
ATOM     15  C   UNL     1     175.589 170.176 199.327  1.00  0.00    -0.003 C 
ATOM     16  C   UNL     1     175.476 171.230 200.429  1.00  0.00     0.004 C 
ENDBRANCH  14  15
ENDBRANCH  13  14
ENDBRANCH  12  13
ENDBRANCH  11  12
ENDBRANCH  10  11
ENDBRANCH   9  10
ENDBRANCH   8   9
ENDBRANCH   7   8
ENDBRANCH   6   7
ENDBRANCH   5   6
ENDBRANCH   4   5
ENDBRANCH   3   4
ENDBRANCH   2   3
ENDBRANCH   1   2
BRANCH   1  17
ATOM     17  C   UNL     1     171.617 169.921 202.683  1.00  0.00     0.000 C 
BRANCH  17  18
ATOM     18  C   UNL     1     170.877 170.365 201.407  1.00  0.00     0.000 C 
BRANCH  18  19
ATOM     19  C   UNL     1     171.694 170.092 200.127  1.00  0.00     0.000 C 
BRANCH  19  20
ATOM     20  C   UNL     1     172.184 168.636 199.994  1.00  0.00     0.000 C 
BRANCH  20  21
ATOM     21  C   UNL     1     171.908 167.978 198.632  1.00  0.00     0.000 C 
BRANCH  21  22
ATOM     22  C   UNL     1     170.458 168.112 198.125  1.00  0.00     0.000 C 
BRANCH  22  23
ATOM     23  C   UNL     1     170.342 168.777 196.737  1.00  0.00     0.000 C 
BRANCH  23  24
ATOM     24  C   UNL     1     171.539 169.689 196.425  1.00  0.00     0.000 C 
BRANCH  24  25
ATOM     25  C   UNL     1     171.079 171.118 196.105  1.00  0.00     0.000 C 
BRANCH  25  26
ATOM     26  C   UNL     1     169.630 171.384 196.544  1.00  0.00     0.000 C 
BRANCH  26  27
ATOM     27  C   UNL     1     169.548 172.128 197.888  1.00  0.00     0.002 C 
BRANCH  27  28
ATOM     28  C   UNL     1     168.427 171.593 198.796  1.00  0.00     0.028 C 
BRANCH  28  29
ATOM     29  C   UNL     1     167.760 172.675 199.657  1.00  0.00     0.156 C 
BRANCH  29  30
ATOM     30  O   UNL     1     167.095 173.617 198.859  1.00  0.00    -0.396 OA
ATOM     31  H   UNL     1     166.962 174.422 199.422  1.00  0.00     0.210 HD
ENDBRANCH  29  30
ENDBRANCH  28  29
ENDBRANCH  27  28
ENDBRANCH  26  27
ENDBRANCH  25  26
ENDBRANCH  24  25
ENDBRANCH  23  24
ENDBRANCH  22  23
ENDBRANCH  21  22
ENDBRANCH  20  21
ENDBRANCH  19  20
ENDBRANCH  18  19
ENDBRANCH  17  18
ENDBRANCH   1  17
TORSDOF 28
ENDMDL
MODEL 6
REMARK VINA RESULT:    -4.676      2.369      6.364
REMARK INTER + INTRA:         -17.814
REMARK INTER:                 -12.570
REMARK INTRA:                  -5.244
REMARK UNBOUND:                -5.621
REMARK SMILES CCCCCCCCCCCCCCCCCCCCCCCCCCCCCO
REMARK SMILES IDX 16 1 15 2 14 3 13 4 12 5 11 6 10 7 9 8 8 9 7 10 6 11 5 12
REMARK SMILES IDX 4 13 3 14 2 15 1 16 17 17 18 18 19 19 20 20 21 21 22 22
REMARK SMILES IDX 23 23 24 24 25 25 26 26 27 27 28 28 29 29 30 30
REMARK H PARENT 30 31
REMARK Flexibility Score: inf
ROOT
ATOM      1  C   UNL     1     168.421 173.658 197.809  1.00  0.00     0.000 C 
ENDROOT
BRANCH   1   2
ATOM      2  C   UNL     1     168.707 172.299 197.148  1.00  0.00     0.000 C 
BRANCH   2   3
ATOM      3  C   UNL     1     170.002 172.299 196.321  1.00  0.00     0.000 C 
BRANCH   3   4
ATOM      4  C   UNL     1     170.772 170.973 196.437  1.00  0.00     0.000 C 
BRANCH   4   5
ATOM      5  C   UNL     1     169.951 169.851 197.101  1.00  0.00     0.000 C 
BRANCH   5   6
ATOM      6  C   UNL     1     170.717 168.543 197.379  1.00  0.00     0.000 C 
BRANCH   6   7
ATOM      7  C   UNL     1     171.073 168.349 198.863  1.00  0.00     0.000 C 
BRANCH   7   8
ATOM      8  C   UNL     1     172.590 168.376 199.119  1.00  0.00    -0.000 C 
BRANCH   8   9
ATOM      9  C   UNL     1     173.435 169.019 197.999  1.00  0.00    -0.000 C 
BRANCH   9  10
ATOM     10  C   UNL     1     174.417 170.109 198.462  1.00  0.00    -0.000 C 
BRANCH  10  11
ATOM     11  C   UNL     1     174.181 171.458 197.761  1.00  0.00    -0.000 C 
BRANCH  11  12
ATOM     12  C   UNL     1     175.041 172.599 198.337  1.00  0.00    -0.000 C 
BRANCH  12  13
ATOM     13  C   UNL     1     174.255 173.743 199.007  1.00  0.00    -0.000 C 
BRANCH  13  14
ATOM     14  C   UNL     1     172.737 173.744 198.741  1.00  0.00    -0.000 C 
BRANCH  14  15
ATOM     15  C   UNL     1     171.948 174.736 199.619  1.00  0.00    -0.003 C 
ATOM     16  C   UNL     1     171.247 175.824 198.805  1.00  0.00     0.004 C 
ENDBRANCH  14  15
ENDBRANCH  13  14
ENDBRANCH  12  13
ENDBRANCH  11  12
ENDBRANCH  10  11
ENDBRANCH   9  10
ENDBRANCH   8   9
ENDBRANCH   7   8
ENDBRANCH   6   7
ENDBRANCH   5   6
ENDBRANCH   4   5
ENDBRANCH   3   4
ENDBRANCH   2   3
ENDBRANCH   1   2
BRANCH   1  17
ATOM     17  C   UNL     1     167.987 173.511 199.277  1.00  0.00     0.000 C 
BRANCH  17  18
ATOM     18  C   UNL     1     168.372 172.142 199.868  1.00  0.00     0.000 C 
BRANCH  18  19
ATOM     19  C   UNL     1     169.543 172.240 200.869  1.00  0.00     0.000 C 
BRANCH  19  20
ATOM     20  C   UNL     1     170.783 171.420 200.465  1.00  0.00     0.000 C 
BRANCH  20  21
ATOM     21  C   UNL     1     171.652 170.933 201.637  1.00  0.00     0.000 C 
BRANCH  21  22
ATOM     22  C   UNL     1     173.134 171.352 201.567  1.00  0.00     0.000 C 
BRANCH  22  23
ATOM     23  C   UNL     1     173.642 172.059 202.842  1.00  0.00     0.000 C 
BRANCH  23  24
ATOM     24  C   UNL     1     172.641 173.097 203.371  1.00  0.00     0.000 C 
BRANCH  24  25
ATOM     25  C   UNL     1     172.400 172.918 204.877  1.00  0.00     0.000 C 
BRANCH  25  26
ATOM     26  C   UNL     1     171.159 172.062 205.178  1.00  0.00     0.000 C 
BRANCH  26  27
ATOM     27  C   UNL     1     171.181 171.470 206.598  1.00  0.00     0.002 C 
BRANCH  27  28
ATOM     28  C   UNL     1     172.197 172.171 207.517  1.00  0.00     0.028 C 
BRANCH  28  29
ATOM     29  C   UNL     1     173.130 171.202 208.258  1.00  0.00     0.156 C 
BRANCH  29  30
ATOM     30  O   UNL     1     173.957 170.513 207.361  1.00  0.00    -0.396 OA
ATOM     31  H   UNL     1     174.175 171.147 206.631  1.00  0.00     0.210 HD
ENDBRANCH  29  30
ENDBRANCH  28  29
ENDBRANCH  27  28
ENDBRANCH  26  27
ENDBRANCH  25  26
ENDBRANCH  24  25
ENDBRANCH  23  24
ENDBRANCH  22  23
ENDBRANCH  21  22
ENDBRANCH  20  21
ENDBRANCH  19  20
ENDBRANCH  18  19
ENDBRANCH  17  18
ENDBRANCH   1  17
TORSDOF 28
ENDMDL
MODEL 7
REMARK VINA RESULT:    -4.671      2.684      7.042
REMARK INTER + INTRA:         -17.800
REMARK INTER:                 -13.668
REMARK INTRA:                  -4.132
REMARK UNBOUND:                -5.621
REMARK SMILES CCCCCCCCCCCCCCCCCCCCCCCCCCCCCO
REMARK SMILES IDX 16 1 15 2 14 3 13 4 12 5 11 6 10 7 9 8 8 9 7 10 6 11 5 12
REMARK SMILES IDX 4 13 3 14 2 15 1 16 17 17 18 18 19 19 20 20 21 21 22 22
REMARK SMILES IDX 23 23 24 24 25 25 26 26 27 27 28 28 29 29 30 30
REMARK H PARENT 30 31
REMARK Flexibility Score: inf
ROOT
ATOM      1  C   UNL     1     174.836 170.477 198.105  1.00  0.00     0.000 C 
ENDROOT
BRANCH   1   2
ATOM      2  C   UNL     1     175.096 171.615 197.102  1.00  0.00     0.000 C 
BRANCH   2   3
ATOM      3  C   UNL     1     174.015 172.705 197.147  1.00  0.00     0.000 C 
BRANCH   3   4
ATOM      4  C   UNL     1     174.449 173.928 197.974  1.00  0.00     0.000 C 
BRANCH   4   5
ATOM      5  C   UNL     1     173.746 175.230 197.545  1.00  0.00     0.000 C 
BRANCH   5   6
ATOM      6  C   UNL     1     173.296 176.152 198.696  1.00  0.00     0.000 C 
BRANCH   6   7
ATOM      7  C   UNL     1     172.093 175.600 199.481  1.00  0.00     0.000 C 
BRANCH   7   8
ATOM      8  C   UNL     1     170.880 175.307 198.581  1.00  0.00    -0.000 C 
BRANCH   8   9
ATOM      9  C   UNL     1     170.537 173.813 198.404  1.00  0.00    -0.000 C 
BRANCH   9  10
ATOM     10  C   UNL     1     169.116 173.410 198.836  1.00  0.00    -0.000 C 
BRANCH  10  11
ATOM     11  C   UNL     1     168.502 172.331 197.928  1.00  0.00    -0.000 C 
BRANCH  11  12
ATOM     12  C   UNL     1     168.335 170.970 198.632  1.00  0.00    -0.000 C 
BRANCH  12  13
ATOM     13  C   UNL     1     169.174 169.818 198.045  1.00  0.00    -0.000 C 
BRANCH  13  14
ATOM     14  C   UNL     1     170.664 170.139 197.814  1.00  0.00    -0.000 C 
BRANCH  14  15
ATOM     15  C   UNL     1     171.593 168.912 197.919  1.00  0.00    -0.003 C 
ATOM     16  C   UNL     1     171.569 168.263 199.304  1.00  0.00     0.004 C 
ENDBRANCH  14  15
ENDBRANCH  13  14
ENDBRANCH  12  13
ENDBRANCH  11  12
ENDBRANCH  10  11
ENDBRANCH   9  10
ENDBRANCH   8   9
ENDBRANCH   7   8
ENDBRANCH   6   7
ENDBRANCH   5   6
ENDBRANCH   4   5
ENDBRANCH   3   4
ENDBRANCH   2   3
ENDBRANCH   1   2
BRANCH   1  17
ATOM     17  C   UNL     1     175.796 170.530 199.306  1.00  0.00     0.000 C 
BRANCH  17  18
ATOM     18  C   UNL     1     175.183 171.263 200.514  1.00  0.00     0.000 C 
BRANCH  18  19
ATOM     19  C   UNL     1     173.654 171.073 200.605  1.00  0.00     0.000 C 
BRANCH  19  20
ATOM     20  C   UNL     1     172.859 172.393 200.625  1.00  0.00     0.000 C 
BRANCH  20  21
ATOM     21  C   UNL     1     171.770 172.481 201.707  1.00  0.00     0.000 C 
BRANCH  21  22
ATOM     22  C   UNL     1     171.941 173.637 202.712  1.00  0.00     0.000 C 
BRANCH  22  23
ATOM     23  C   UNL     1     172.714 173.245 203.989  1.00  0.00     0.000 C 
BRANCH  23  24
ATOM     24  C   UNL     1     172.870 171.723 204.131  1.00  0.00     0.000 C 
BRANCH  24  25
ATOM     25  C   UNL     1     172.213 171.216 205.423  1.00  0.00     0.000 C 
BRANCH  25  26
ATOM     26  C   UNL     1     170.971 172.034 205.813  1.00  0.00     0.000 C 
BRANCH  26  27
ATOM     27  C   UNL     1     170.958 172.410 207.305  1.00  0.00     0.002 C 
BRANCH  27  28
ATOM     28  C   UNL     1     172.265 172.033 208.024  1.00  0.00     0.028 C 
BRANCH  28  29
ATOM     29  C   UNL     1     172.997 173.232 208.642  1.00  0.00     0.156 C 
BRANCH  29  30
ATOM     30  O   UNL     1     172.875 173.233 210.039  1.00  0.00    -0.396 OA
ATOM     31  H   UNL     1     171.927 173.025 210.241  1.00  0.00     0.210 HD
ENDBRANCH  29  30
ENDBRANCH  28  29
ENDBRANCH  27  28
ENDBRANCH  26  27
ENDBRANCH  25  26
ENDBRANCH  24  25
ENDBRANCH  23  24
ENDBRANCH  22  23
ENDBRANCH  21  22
ENDBRANCH  20  21
ENDBRANCH  19  20
ENDBRANCH  18  19
ENDBRANCH  17  18
ENDBRANCH   1  17
TORSDOF 28
ENDMDL
MODEL 8
REMARK VINA RESULT:    -4.632      2.790      6.334
REMARK INTER + INTRA:         -17.700
REMARK INTER:                 -12.972
REMARK INTRA:                  -4.727
REMARK UNBOUND:                -5.621
REMARK SMILES CCCCCCCCCCCCCCCCCCCCCCCCCCCCCO
REMARK SMILES IDX 16 1 15 2 14 3 13 4 12 5 11 6 10 7 9 8 8 9 7 10 6 11 5 12
REMARK SMILES IDX 4 13 3 14 2 15 1 16 17 17 18 18 19 19 20 20 21 21 22 22
REMARK SMILES IDX 23 23 24 24 25 25 26 26 27 27 28 28 29 29 30 30
REMARK H PARENT 30 31
REMARK Flexibility Score: inf
ROOT
ATOM      1  C   UNL     1     172.131 169.741 197.091  1.00  0.00     0.000 C 
ENDROOT
BRANCH   1   2
ATOM      2  C   UNL     1     171.245 169.609 195.840  1.00  0.00     0.000 C 
BRANCH   2   3
ATOM      3  C   UNL     1     171.255 170.874 194.968  1.00  0.00     0.000 C 
BRANCH   3   4
ATOM      4  C   UNL     1     171.277 172.164 195.806  1.00  0.00     0.000 C 
BRANCH   4   5
ATOM      5  C   UNL     1     172.050 173.313 195.131  1.00  0.00     0.000 C 
BRANCH   5   6
ATOM      6  C   UNL     1     173.074 174.039 196.024  1.00  0.00     0.000 C 
BRANCH   6   7
ATOM      7  C   UNL     1     173.801 173.101 197.003  1.00  0.00     0.000 C 
BRANCH   7   8
ATOM      8  C   UNL     1     174.402 173.848 198.206  1.00  0.00    -0.000 C 
BRANCH   8   9
ATOM      9  C   UNL     1     173.654 175.131 198.625  1.00  0.00    -0.000 C 
BRANCH   9  10
ATOM     10  C   UNL     1     172.399 174.908 199.487  1.00  0.00    -0.000 C 
BRANCH  10  11
ATOM     11  C   UNL     1     171.151 175.598 198.909  1.00  0.00    -0.000 C 
BRANCH  11  12
ATOM     12  C   UNL     1     170.155 174.612 198.271  1.00  0.00    -0.000 C 
BRANCH  12  13
ATOM     13  C   UNL     1     169.841 173.357 199.108  1.00  0.00    -0.000 C 
BRANCH  13  14
ATOM     14  C   UNL     1     168.356 173.158 199.467  1.00  0.00    -0.000 C 
BRANCH  14  15
ATOM     15  C   UNL     1     167.838 171.726 199.218  1.00  0.00    -0.003 C 
ATOM     16  C   UNL     1     168.583 171.010 198.091  1.00  0.00     0.004 C 
ENDBRANCH  14  15
ENDBRANCH  13  14
ENDBRANCH  12  13
ENDBRANCH  11  12
ENDBRANCH  10  11
ENDBRANCH   9  10
ENDBRANCH   8   9
ENDBRANCH   7   8
ENDBRANCH   6   7
ENDBRANCH   5   6
ENDBRANCH   4   5
ENDBRANCH   3   4
ENDBRANCH   2   3
ENDBRANCH   1   2
BRANCH   1  17
ATOM     17  C   UNL     1     171.636 168.859 198.250  1.00  0.00     0.000 C 
BRANCH  17  18
ATOM     18  C   UNL     1     172.183 169.322 199.613  1.00  0.00     0.000 C 
BRANCH  18  19
ATOM     19  C   UNL     1     172.385 170.850 199.679  1.00  0.00     0.000 C 
BRANCH  19  20
ATOM     20  C   UNL     1     173.576 171.288 200.555  1.00  0.00     0.000 C 
BRANCH  20  21
ATOM     21  C   UNL     1     173.205 171.752 201.973  1.00  0.00     0.000 C 
BRANCH  21  22
ATOM     22  C   UNL     1     171.987 172.693 202.053  1.00  0.00     0.000 C 
BRANCH  22  23
ATOM     23  C   UNL     1     170.846 172.161 202.946  1.00  0.00     0.000 C 
BRANCH  23  24
ATOM     24  C   UNL     1     171.063 170.698 203.361  1.00  0.00     0.000 C 
BRANCH  24  25
ATOM     25  C   UNL     1     170.896 170.520 204.876  1.00  0.00     0.000 C 
BRANCH  25  26
ATOM     26  C   UNL     1     171.120 171.829 205.652  1.00  0.00     0.000 C 
BRANCH  26  27
ATOM     27  C   UNL     1     171.529 171.585 207.115  1.00  0.00     0.002 C 
BRANCH  27  28
ATOM     28  C   UNL     1     172.923 170.948 207.243  1.00  0.00     0.028 C 
BRANCH  28  29
ATOM     29  C   UNL     1     173.456 170.912 208.683  1.00  0.00     0.156 C 
BRANCH  29  30
ATOM     30  O   UNL     1     174.506 169.992 208.811  1.00  0.00    -0.396 OA
ATOM     31  H   UNL     1     174.400 169.562 209.698  1.00  0.00     0.210 HD
ENDBRANCH  29  30
ENDBRANCH  28  29
ENDBRANCH  27  28
ENDBRANCH  26  27
ENDBRANCH  25  26
ENDBRANCH  24  25
ENDBRANCH  23  24
ENDBRANCH  22  23
ENDBRANCH  21  22
ENDBRANCH  20  21
ENDBRANCH  19  20
ENDBRANCH  18  19
ENDBRANCH  17  18
ENDBRANCH   1  17
TORSDOF 28
ENDMDL
MODEL 9
REMARK VINA RESULT:    -4.579      2.731      7.053
REMARK INTER + INTRA:         -17.562
REMARK INTER:                 -12.940
REMARK INTRA:                  -4.622
REMARK UNBOUND:                -5.621
REMARK SMILES CCCCCCCCCCCCCCCCCCCCCCCCCCCCCO
REMARK SMILES IDX 16 1 15 2 14 3 13 4 12 5 11 6 10 7 9 8 8 9 7 10 6 11 5 12
REMARK SMILES IDX 4 13 3 14 2 15 1 16 17 17 18 18 19 19 20 20 21 21 22 22
REMARK SMILES IDX 23 23 24 24 25 25 26 26 27 27 28 28 29 29 30 30
REMARK H PARENT 30 31
REMARK Flexibility Score: inf
ROOT
ATOM      1  C   UNL     1     167.987 172.550 199.298  1.00  0.00     0.000 C 
ENDROOT
BRANCH   1   2
ATOM      2  C   UNL     1     168.633 173.345 198.150  1.00  0.00     0.000 C 
BRANCH   2   3
ATOM      3  C   UNL     1     168.745 172.530 196.852  1.00  0.00     0.000 C 
BRANCH   3   4
ATOM      4  C   UNL     1     170.187 172.076 196.568  1.00  0.00     0.000 C 
BRANCH   4   5
ATOM      5  C   UNL     1     170.349 170.544 196.557  1.00  0.00     0.000 C 
BRANCH   5   6
ATOM      6  C   UNL     1     169.910 169.820 197.845  1.00  0.00     0.000 C 
BRANCH   6   7
ATOM      7  C   UNL     1     171.091 169.349 198.711  1.00  0.00     0.000 C 
BRANCH   7   8
ATOM      8  C   UNL     1     172.356 169.059 197.883  1.00  0.00    -0.000 C 
BRANCH   8   9
ATOM      9  C   UNL     1     173.676 169.568 198.499  1.00  0.00    -0.000 C 
BRANCH   9  10
ATOM     10  C   UNL     1     174.555 170.415 197.561  1.00  0.00    -0.000 C 
BRANCH  10  11
ATOM     11  C   UNL     1     173.883 171.736 197.149  1.00  0.00    -0.000 C 
BRANCH  11  12
ATOM     12  C   UNL     1     173.569 172.654 198.346  1.00  0.00    -0.000 C 
BRANCH  12  13
ATOM     13  C   UNL     1     174.485 173.887 198.488  1.00  0.00    -0.000 C 
BRANCH  13  14
ATOM     14  C   UNL     1     173.843 175.232 198.097  1.00  0.00    -0.000 C 
BRANCH  14  15
ATOM     15  C   UNL     1     172.308 175.175 197.951  1.00  0.00    -0.003 C 
ATOM     16  C   UNL     1     171.578 175.993 199.017  1.00  0.00     0.004 C 
ENDBRANCH  14  15
ENDBRANCH  13  14
ENDBRANCH  12  13
ENDBRANCH  11  12
ENDBRANCH  10  11
ENDBRANCH   9  10
ENDBRANCH   8   9
ENDBRANCH   7   8
ENDBRANCH   6   7
ENDBRANCH   5   6
ENDBRANCH   4   5
ENDBRANCH   3   4
ENDBRANCH   2   3
ENDBRANCH   1   2
BRANCH   1  17
ATOM     17  C   UNL     1     168.938 172.384 200.496  1.00  0.00     0.000 C 
BRANCH  17  18
ATOM     18  C   UNL     1     170.404 172.673 200.124  1.00  0.00     0.000 C 
BRANCH  18  19
ATOM     19  C   UNL     1     171.333 172.685 201.357  1.00  0.00     0.000 C 
BRANCH  19  20
ATOM     20  C   UNL     1     172.164 171.398 201.528  1.00  0.00     0.000 C 
BRANCH  20  21
ATOM     21  C   UNL     1     171.661 170.438 202.619  1.00  0.00     0.000 C 
BRANCH  21  22
ATOM     22  C   UNL     1     170.497 170.976 203.474  1.00  0.00     0.000 C 
BRANCH  22  23
ATOM     23  C   UNL     1     170.752 170.897 204.994  1.00  0.00     0.000 C 
BRANCH  23  24
ATOM     24  C   UNL     1     171.826 171.894 205.457  1.00  0.00     0.000 C 
BRANCH  24  25
ATOM     25  C   UNL     1     172.972 171.177 206.185  1.00  0.00     0.000 C 
BRANCH  25  26
ATOM     26  C   UNL     1     172.799 171.188 207.713  1.00  0.00     0.000 C 
BRANCH  26  27
ATOM     27  C   UNL     1     172.702 172.613 208.285  1.00  0.00     0.002 C 
BRANCH  27  28
ATOM     28  C   UNL     1     171.486 172.800 209.209  1.00  0.00     0.028 C 
BRANCH  28  29
ATOM     29  C   UNL     1     170.215 172.101 208.706  1.00  0.00     0.156 C 
BRANCH  29  30
ATOM     30  O   UNL     1     169.235 173.035 208.343  1.00  0.00    -0.396 OA
ATOM     31  H   UNL     1     168.680 172.606 207.641  1.00  0.00     0.210 HD
ENDBRANCH  29  30
ENDBRANCH  28  29
ENDBRANCH  27  28
ENDBRANCH  26  27
ENDBRANCH  25  26
ENDBRANCH  24  25
ENDBRANCH  23  24
ENDBRANCH  22  23
ENDBRANCH  21  22
ENDBRANCH  20  21
ENDBRANCH  19  20
ENDBRANCH  18  19
ENDBRANCH  17  18
ENDBRANCH   1  17
TORSDOF 28
ENDMDL
