MODEL 1
REMARK VINA RESULT:    -4.947      0.000      0.000
REMARK INTER + INTRA:         -16.695
REMARK INTER:                 -12.465
REMARK INTRA:                  -4.230
REMARK UNBOUND:                -4.230
REMARK SMILES CCCCCCCCCCCCCCCCCCCCCCCCCCCC(=O)[O-]
REMARK SMILES IDX 15 1 16 2 17 3 18 4 19 5 20 6 21 7 22 8 23 9 24 10 25 11
REMARK SMILES IDX 26 12 27 13 28 14 29 15 30 16 14 17 13 18 12 19 11 20 10 21
REMARK SMILES IDX 9 22 8 23 7 24 6 25 5 26 4 27 3 28 2 29 1 30
REMARK H PARENT
REMARK Flexibility Score: inf
ROOT
ATOM      1  C   UNL     1       5.803   7.846  28.728  1.00  0.00     0.000 C 
ENDROOT
BRANCH   1   2
ATOM      2  C   UNL     1       6.545   7.684  27.390  1.00  0.00     0.000 C 
BRANCH   2   3
ATOM      3  C   UNL     1       6.489   6.267  26.791  1.00  0.00     0.000 C 
BRANCH   3   4
ATOM      4  C   UNL     1       7.818   5.489  26.917  1.00  0.00     0.000 C 
BRANCH   4   5
ATOM      5  C   UNL     1       8.257   5.320  28.379  1.00  0.00     0.000 C 
BRANCH   5   6
ATOM      6  C   UNL     1       8.958   3.970  28.594  1.00  0.00     0.000 C 
BRANCH   6   7
ATOM      7  C   UNL     1       9.722   3.487  27.350  1.00  0.00     0.000 C 
BRANCH   7   8
ATOM      8  C   UNL     1      11.203   3.122  27.586  1.00  0.00     0.000 C 
BRANCH   8   9
ATOM      9  C   UNL     1      11.663   3.267  29.052  1.00  0.00     0.000 C 
BRANCH   9  10
ATOM     10  C   UNL     1      13.155   2.936  29.246  1.00  0.00     0.000 C 
BRANCH  10  11
ATOM     11  C   UNL     1      13.696   1.976  28.176  1.00  0.00     0.000 C 
BRANCH  11  12
ATOM     12  C   UNL     1      14.815   2.602  27.322  1.00  0.00     0.006 C 
BRANCH  12  13
ATOM     13  C   UNL     1      14.704   2.219  25.841  1.00  0.00     0.053 C 
BRANCH  13  14
ATOM     14  C   UNL     1      15.831   1.332  25.408  1.00  0.00     0.041 C 
ATOM     15  O   UNL     1      15.871   0.887  24.229  1.00  0.00    -0.550 OA
ATOM     16  O   UNL     1      16.866   1.040  26.288  1.00  0.00    -0.550 OA
ENDBRANCH  13  14
ENDBRANCH  12  13
ENDBRANCH  11  12
ENDBRANCH  10  11
ENDBRANCH   9  10
ENDBRANCH   8   9
ENDBRANCH   7   8
ENDBRANCH   6   7
ENDBRANCH   5   6
ENDBRANCH   4   5
ENDBRANCH   3   4
ENDBRANCH   2   3
ENDBRANCH   1   2
BRANCH   1  17
ATOM     17  C   UNL     1       5.163   9.231  28.972  1.00  0.00     0.000 C 
BRANCH  17  18
ATOM     18  C   UNL     1       4.225   9.328  30.191  1.00  0.00     0.000 C 
BRANCH  18  19
ATOM     19  C   UNL     1       4.858  10.013  31.424  1.00  0.00     0.000 C 
BRANCH  19  20
ATOM     20  C   UNL     1       6.178  10.738  31.110  1.00  0.00     0.000 C 
BRANCH  20  21
ATOM     21  C   UNL     1       7.374  10.130  31.859  1.00  0.00     0.000 C 
BRANCH  21  22
ATOM     22  C   UNL     1       8.701  10.339  31.097  1.00  0.00    -0.000 C 
BRANCH  22  23
ATOM     23  C   UNL     1       8.507  10.592  29.593  1.00  0.00    -0.000 C 
BRANCH  23  24
ATOM     24  C   UNL     1       9.800  10.402  28.782  1.00  0.00    -0.000 C 
BRANCH  24  25
ATOM     25  C   UNL     1      10.157   8.923  28.572  1.00  0.00    -0.000 C 
BRANCH  25  26
ATOM     26  C   UNL     1      10.071   8.497  27.099  1.00  0.00    -0.000 C 
BRANCH  26  27
ATOM     27  C   UNL     1      11.116   7.419  26.776  1.00  0.00    -0.000 C 
BRANCH  27  28
ATOM     28  C   UNL     1      11.678   6.795  28.059  1.00  0.00    -0.000 C 
BRANCH  28  29
ATOM     29  C   UNL     1      13.184   6.538  27.931  1.00  0.00    -0.003 C 
ATOM     30  C   UNL     1      13.525   5.923  26.577  1.00  0.00     0.004 C 
ENDBRANCH  28  29
ENDBRANCH  27  28
ENDBRANCH  26  27
ENDBRANCH  25  26
ENDBRANCH  24  25
ENDBRANCH  23  24
ENDBRANCH  22  23
ENDBRANCH  21  22
ENDBRANCH  20  21
ENDBRANCH  19  20
ENDBRANCH  18  19
ENDBRANCH  17  18
ENDBRANCH   1  17
TORSDOF 26
ENDMDL
MODEL 2
REMARK VINA RESULT:    -4.905      2.254      3.090
REMARK INTER + INTRA:         -16.590
REMARK INTER:                 -12.379
REMARK INTRA:                  -4.211
REMARK UNBOUND:                -4.230
REMARK SMILES CCCCCCCCCCCCCCCCCCCCCCCCCCCC(=O)[O-]
REMARK SMILES IDX 15 1 16 2 17 3 18 4 19 5 20 6 21 7 22 8 23 9 24 10 25 11
REMARK SMILES IDX 26 12 27 13 28 14 29 15 30 16 14 17 13 18 12 19 11 20 10 21
REMARK SMILES IDX 9 22 8 23 7 24 6 25 5 26 4 27 3 28 2 29 1 30
REMARK H PARENT
REMARK Flexibility Score: inf
ROOT
ATOM      1  C   UNL     1       6.244   7.639  28.422  1.00  0.00     0.000 C 
ENDROOT
BRANCH   1   2
ATOM      2  C   UNL     1       6.887   7.470  27.033  1.00  0.00     0.000 C 
BRANCH   2   3
ATOM      3  C   UNL     1       7.391   6.048  26.728  1.00  0.00     0.000 C 
BRANCH   3   4
ATOM      4  C   UNL     1       7.219   5.064  27.906  1.00  0.00     0.000 C 
BRANCH   4   5
ATOM      5  C   UNL     1       8.545   4.401  28.309  1.00  0.00     0.000 C 
BRANCH   5   6
ATOM      6  C   UNL     1       9.469   4.227  27.094  1.00  0.00     0.000 C 
BRANCH   6   7
ATOM      7  C   UNL     1      10.605   3.221  27.345  1.00  0.00     0.000 C 
BRANCH   7   8
ATOM      8  C   UNL     1      10.945   2.968  28.830  1.00  0.00     0.000 C 
BRANCH   8   9
ATOM      9  C   UNL     1      12.454   2.809  29.113  1.00  0.00     0.000 C 
BRANCH   9  10
ATOM     10  C   UNL     1      13.333   3.219  27.916  1.00  0.00     0.000 C 
BRANCH  10  11
ATOM     11  C   UNL     1      14.151   4.491  28.186  1.00  0.00     0.000 C 
BRANCH  11  12
ATOM     12  C   UNL     1      13.941   5.046  29.608  1.00  0.00     0.006 C 
BRANCH  12  13
ATOM     13  C   UNL     1      15.262   5.430  30.287  1.00  0.00     0.053 C 
BRANCH  13  14
ATOM     14  C   UNL     1      15.656   4.440  31.339  1.00  0.00     0.041 C 
ATOM     15  O   UNL     1      16.812   3.937  31.334  1.00  0.00    -0.550 OA
ATOM     16  O   UNL     1      14.770   4.113  32.357  1.00  0.00    -0.550 OA
ENDBRANCH  13  14
ENDBRANCH  12  13
ENDBRANCH  11  12
ENDBRANCH  10  11
ENDBRANCH   9  10
ENDBRANCH   8   9
ENDBRANCH   7   8
ENDBRANCH   6   7
ENDBRANCH   5   6
ENDBRANCH   4   5
ENDBRANCH   3   4
ENDBRANCH   2   3
ENDBRANCH   1   2
BRANCH   1  17
ATOM     17  C   UNL     1       5.290   8.845  28.573  1.00  0.00     0.000 C 
BRANCH  17  18
ATOM     18  C   UNL     1       4.116   8.649  29.550  1.00  0.00     0.000 C 
BRANCH  18  19
ATOM     19  C   UNL     1       4.111   9.636  30.740  1.00  0.00     0.000 C 
BRANCH  19  20
ATOM     20  C   UNL     1       5.404  10.462  30.854  1.00  0.00     0.000 C 
BRANCH  20  21
ATOM     21  C   UNL     1       5.834  10.679  32.313  1.00  0.00     0.000 C 
BRANCH  21  22
ATOM     22  C   UNL     1       7.350  10.454  32.510  1.00  0.00    -0.000 C 
BRANCH  22  23
ATOM     23  C   UNL     1       8.133  10.392  31.187  1.00  0.00    -0.000 C 
BRANCH  23  24
ATOM     24  C   UNL     1       9.131   9.222  31.137  1.00  0.00    -0.000 C 
BRANCH  24  25
ATOM     25  C   UNL     1       9.306   8.652  29.722  1.00  0.00    -0.000 C 
BRANCH  25  26
ATOM     26  C   UNL     1      10.141   7.363  29.702  1.00  0.00    -0.000 C 
BRANCH  26  27
ATOM     27  C   UNL     1      11.088   7.339  28.494  1.00  0.00    -0.000 C 
BRANCH  27  28
ATOM     28  C   UNL     1      10.599   8.286  27.392  1.00  0.00    -0.000 C 
BRANCH  28  29
ATOM     29  C   UNL     1      10.692   7.621  26.014  1.00  0.00    -0.003 C 
ATOM     30  C   UNL     1       9.960   8.440  24.955  1.00  0.00     0.004 C 
ENDBRANCH  28  29
ENDBRANCH  27  28
ENDBRANCH  26  27
ENDBRANCH  25  26
ENDBRANCH  24  25
ENDBRANCH  23  24
ENDBRANCH  22  23
ENDBRANCH  21  22
ENDBRANCH  20  21
ENDBRANCH  19  20
ENDBRANCH  18  19
ENDBRANCH  17  18
ENDBRANCH   1  17
TORSDOF 26
ENDMDL
MODEL 3
REMARK VINA RESULT:    -4.896      1.752      3.697
REMARK INTER + INTRA:         -16.569
REMARK INTER:                 -12.206
REMARK INTRA:                  -4.363
REMARK UNBOUND:                -4.230
REMARK SMILES CCCCCCCCCCCCCCCCCCCCCCCCCCCC(=O)[O-]
REMARK SMILES IDX 15 1 16 2 17 3 18 4 19 5 20 6 21 7 22 8 23 9 24 10 25 11
REMARK SMILES IDX 26 12 27 13 28 14 29 15 30 16 14 17 13 18 12 19 11 20 10 21
REMARK SMILES IDX 9 22 8 23 7 24 6 25 5 26 4 27 3 28 2 29 1 30
REMARK H PARENT
REMARK Flexibility Score: inf
ROOT
ATOM      1  C   UNL     1      10.418   9.020  28.719  1.00  0.00     0.000 C 
ENDROOT
BRANCH   1   2
ATOM      2  C   UNL     1      10.477   8.222  27.403  1.00  0.00     0.000 C 
BRANCH   2   3
ATOM      3  C   UNL     1      11.492   7.066  27.399  1.00  0.00     0.000 C 
BRANCH   3   4
ATOM      4  C   UNL     1      10.857   5.686  27.117  1.00  0.00     0.000 C 
BRANCH   4   5
ATOM      5  C   UNL     1      10.444   4.961  28.407  1.00  0.00     0.000 C 
BRANCH   5   6
ATOM      6  C   UNL     1      10.725   3.453  28.309  1.00  0.00     0.000 C 
BRANCH   6   7
ATOM      7  C   UNL     1      11.639   2.941  29.435  1.00  0.00     0.000 C 
BRANCH   7   8
ATOM      8  C   UNL     1      12.304   4.037  30.294  1.00  0.00     0.000 C 
BRANCH   8   9
ATOM      9  C   UNL     1      13.817   4.206  30.042  1.00  0.00     0.000 C 
BRANCH   9  10
ATOM     10  C   UNL     1      14.131   5.288  28.991  1.00  0.00     0.000 C 
BRANCH  10  11
ATOM     11  C   UNL     1      14.970   4.756  27.820  1.00  0.00     0.000 C 
BRANCH  11  12
ATOM     12  C   UNL     1      14.141   3.925  26.821  1.00  0.00     0.006 C 
BRANCH  12  13
ATOM     13  C   UNL     1      14.553   2.448  26.807  1.00  0.00     0.053 C 
BRANCH  13  14
ATOM     14  C   UNL     1      15.182   2.056  25.504  1.00  0.00     0.041 C 
ATOM     15  O   UNL     1      16.391   2.332  25.277  1.00  0.00    -0.550 OA
ATOM     16  O   UNL     1      14.452   1.341  24.564  1.00  0.00    -0.550 OA
ENDBRANCH  13  14
ENDBRANCH  12  13
ENDBRANCH  11  12
ENDBRANCH  10  11
ENDBRANCH   9  10
ENDBRANCH   8   9
ENDBRANCH   7   8
ENDBRANCH   6   7
ENDBRANCH   5   6
ENDBRANCH   4   5
ENDBRANCH   3   4
ENDBRANCH   2   3
ENDBRANCH   1   2
BRANCH   1  17
ATOM     17  C   UNL     1       9.200   8.723  29.623  1.00  0.00     0.000 C 
BRANCH  17  18
ATOM     18  C   UNL     1       9.309   9.226  31.075  1.00  0.00     0.000 C 
BRANCH  18  19
ATOM     19  C   UNL     1       8.042   9.942  31.594  1.00  0.00     0.000 C 
BRANCH  19  20
ATOM     20  C   UNL     1       7.114  10.435  30.470  1.00  0.00     0.000 C 
BRANCH  20  21
ATOM     21  C   UNL     1       5.711   9.812  30.551  1.00  0.00     0.000 C 
BRANCH  21  22
ATOM     22  C   UNL     1       5.313   9.107  29.236  1.00  0.00    -0.000 C 
BRANCH  22  23
ATOM     23  C   UNL     1       5.959   9.734  27.989  1.00  0.00    -0.000 C 
BRANCH  23  24
ATOM     24  C   UNL     1       6.708   8.706  27.123  1.00  0.00    -0.000 C 
BRANCH  24  25
ATOM     25  C   UNL     1       6.539   7.266  27.631  1.00  0.00    -0.000 C 
BRANCH  25  26
ATOM     26  C   UNL     1       7.164   6.228  26.688  1.00  0.00    -0.000 C 
BRANCH  26  27
ATOM     27  C   UNL     1       7.716   6.897  25.422  1.00  0.00    -0.000 C 
BRANCH  27  28
ATOM     28  C   UNL     1       8.240   5.852  24.430  1.00  0.00    -0.000 C 
BRANCH  28  29
ATOM     29  C   UNL     1       8.021   6.308  22.983  1.00  0.00    -0.003 C 
ATOM     30  C   UNL     1       8.336   5.186  21.998  1.00  0.00     0.004 C 
ENDBRANCH  28  29
ENDBRANCH  27  28
ENDBRANCH  26  27
ENDBRANCH  25  26
ENDBRANCH  24  25
ENDBRANCH  23  24
ENDBRANCH  22  23
ENDBRANCH  21  22
ENDBRANCH  20  21
ENDBRANCH  19  20
ENDBRANCH  18  19
ENDBRANCH  17  18
ENDBRANCH   1  17
TORSDOF 26
ENDMDL
MODEL 4
REMARK VINA RESULT:    -4.785      2.530      4.216
REMARK INTER + INTRA:         -16.287
REMARK INTER:                 -12.821
REMARK INTRA:                  -3.466
REMARK UNBOUND:                -4.230
REMARK SMILES CCCCCCCCCCCCCCCCCCCCCCCCCCCC(=O)[O-]
REMARK SMILES IDX 15 1 16 2 17 3 18 4 19 5 20 6 21 7 22 8 23 9 24 10 25 11
REMARK SMILES IDX 26 12 27 13 28 14 29 15 30 16 14 17 13 18 12 19 11 20 10 21
REMARK SMILES IDX 9 22 8 23 7 24 6 25 5 26 4 27 3 28 2 29 1 30
REMARK H PARENT
REMARK Flexibility Score: inf
ROOT
ATOM      1  C   UNL     1       8.593   9.609  30.439  1.00  0.00     0.000 C 
ENDROOT
BRANCH   1   2
ATOM      2  C   UNL     1       9.441  10.001  29.215  1.00  0.00     0.000 C 
BRANCH   2   3
ATOM      3  C   UNL     1      10.143   8.823  28.517  1.00  0.00     0.000 C 
BRANCH   3   4
ATOM      4  C   UNL     1       9.841   7.452  29.162  1.00  0.00     0.000 C 
BRANCH   4   5
ATOM      5  C   UNL     1      10.193   6.281  28.233  1.00  0.00     0.000 C 
BRANCH   5   6
ATOM      6  C   UNL     1       9.223   5.106  28.431  1.00  0.00     0.000 C 
BRANCH   6   7
ATOM      7  C   UNL     1       9.320   4.055  27.312  1.00  0.00     0.000 C 
BRANCH   7   8
ATOM      8  C   UNL     1      10.441   3.009  27.484  1.00  0.00     0.000 C 
BRANCH   8   9
ATOM      9  C   UNL     1      11.246   3.156  28.794  1.00  0.00     0.000 C 
BRANCH   9  10
ATOM     10  C   UNL     1      12.661   2.555  28.697  1.00  0.00     0.000 C 
BRANCH  10  11
ATOM     11  C   UNL     1      13.268   2.686  27.292  1.00  0.00     0.000 C 
BRANCH  11  12
ATOM     12  C   UNL     1      14.371   3.759  27.215  1.00  0.00     0.006 C 
BRANCH  12  13
ATOM     13  C   UNL     1      14.057   4.848  26.181  1.00  0.00     0.053 C 
BRANCH  13  14
ATOM     14  C   UNL     1      14.174   6.222  26.766  1.00  0.00     0.041 C 
ATOM     15  O   UNL     1      13.702   6.467  27.909  1.00  0.00    -0.550 OA
ATOM     16  O   UNL     1      14.851   7.219  26.075  1.00  0.00    -0.550 OA
ENDBRANCH  13  14
ENDBRANCH  12  13
ENDBRANCH  11  12
ENDBRANCH  10  11
ENDBRANCH   9  10
ENDBRANCH   8   9
ENDBRANCH   7   8
ENDBRANCH   6   7
ENDBRANCH   5   6
ENDBRANCH   4   5
ENDBRANCH   3   4
ENDBRANCH   2   3
ENDBRANCH   1   2
BRANCH   1  17
ATOM     17  C   UNL     1       7.873  10.776  31.152  1.00  0.00     0.000 C 
BRANCH  17  18
ATOM     18  C   UNL     1       6.766  10.371  32.143  1.00  0.00     0.000 C 
BRANCH  18  19
ATOM     19  C   UNL     1       5.337  10.438  31.559  1.00  0.00     0.000 C 
BRANCH  19  20
ATOM     20  C   UNL     1       4.881   9.122  30.905  1.00  0.00     0.000 C 
BRANCH  20  21
ATOM     21  C   UNL     1       4.055   9.356  29.630  1.00  0.00     0.000 C 
BRANCH  21  22
ATOM     22  C   UNL     1       4.949   9.488  28.377  1.00  0.00    -0.000 C 
BRANCH  22  23
ATOM     23  C   UNL     1       5.924   8.312  28.197  1.00  0.00    -0.000 C 
BRANCH  23  24
ATOM     24  C   UNL     1       6.824   8.466  26.959  1.00  0.00    -0.000 C 
BRANCH  24  25
ATOM     25  C   UNL     1       7.121   7.125  26.272  1.00  0.00    -0.000 C 
BRANCH  25  26
ATOM     26  C   UNL     1       8.325   7.201  25.321  1.00  0.00    -0.000 C 
BRANCH  26  27
ATOM     27  C   UNL     1       8.246   6.110  24.244  1.00  0.00    -0.000 C 
BRANCH  27  28
ATOM     28  C   UNL     1       8.421   6.707  22.843  1.00  0.00    -0.000 C 
BRANCH  28  29
ATOM     29  C   UNL     1       7.521   5.996  21.825  1.00  0.00    -0.003 C 
ATOM     30  C   UNL     1       6.316   6.857  21.459  1.00  0.00     0.004 C 
ENDBRANCH  28  29
ENDBRANCH  27  28
ENDBRANCH  26  27
ENDBRANCH  25  26
ENDBRANCH  24  25
ENDBRANCH  23  24
ENDBRANCH  22  23
ENDBRANCH  21  22
ENDBRANCH  20  21
ENDBRANCH  19  20
ENDBRANCH  18  19
ENDBRANCH  17  18
ENDBRANCH   1  17
TORSDOF 26
ENDMDL
MODEL 5
REMARK VINA RESULT:    -4.774      2.891      7.727
REMARK INTER + INTRA:         -16.260
REMARK INTER:                 -11.970
REMARK INTRA:                  -4.290
REMARK UNBOUND:                -4.230
REMARK SMILES CCCCCCCCCCCCCCCCCCCCCCCCCCCC(=O)[O-]
REMARK SMILES IDX 15 1 16 2 17 3 18 4 19 5 20 6 21 7 22 8 23 9 24 10 25 11
REMARK SMILES IDX 26 12 27 13 28 14 29 15 30 16 14 17 13 18 12 19 11 20 10 21
REMARK SMILES IDX 9 22 8 23 7 24 6 25 5 26 4 27 3 28 2 29 1 30
REMARK H PARENT
REMARK Flexibility Score: inf
ROOT
ATOM      1  C   UNL     1       9.506   8.147  30.263  1.00  0.00     0.000 C 
ENDROOT
BRANCH   1   2
ATOM      2  C   UNL     1       9.118   9.634  30.368  1.00  0.00     0.000 C 
BRANCH   2   3
ATOM      3  C   UNL     1       8.360  10.010  31.653  1.00  0.00     0.000 C 
BRANCH   3   4
ATOM      4  C   UNL     1       7.237  11.046  31.427  1.00  0.00     0.000 C 
BRANCH   4   5
ATOM      5  C   UNL     1       6.071  10.866  32.411  1.00  0.00     0.000 C 
BRANCH   5   6
ATOM      6  C   UNL     1       4.872  10.188  31.731  1.00  0.00     0.000 C 
BRANCH   6   7
ATOM      7  C   UNL     1       5.087   9.961  30.226  1.00  0.00     0.000 C 
BRANCH   7   8
ATOM      8  C   UNL     1       4.969   8.495  29.756  1.00  0.00     0.000 C 
BRANCH   8   9
ATOM      9  C   UNL     1       6.103   8.041  28.812  1.00  0.00     0.000 C 
BRANCH   9  10
ATOM     10  C   UNL     1       6.098   8.792  27.467  1.00  0.00     0.000 C 
BRANCH  10  11
ATOM     11  C   UNL     1       7.476   9.362  27.099  1.00  0.00     0.000 C 
BRANCH  11  12
ATOM     12  C   UNL     1       8.328   8.380  26.271  1.00  0.00     0.006 C 
BRANCH  12  13
ATOM     13  C   UNL     1       7.472   7.478  25.372  1.00  0.00     0.053 C 
BRANCH  13  14
ATOM     14  C   UNL     1       7.722   6.025  25.640  1.00  0.00     0.041 C 
ATOM     15  O   UNL     1       8.574   5.393  24.959  1.00  0.00    -0.550 OA
ATOM     16  O   UNL     1       7.055   5.382  26.675  1.00  0.00    -0.550 OA
ENDBRANCH  13  14
ENDBRANCH  12  13
ENDBRANCH  11  12
ENDBRANCH  10  11
ENDBRANCH   9  10
ENDBRANCH   8   9
ENDBRANCH   7   8
ENDBRANCH   6   7
ENDBRANCH   5   6
ENDBRANCH   4   5
ENDBRANCH   3   4
ENDBRANCH   2   3
ENDBRANCH   1   2
BRANCH   1  17
ATOM     17  C   UNL     1      10.488   7.793  29.124  1.00  0.00     0.000 C 
BRANCH  17  18
ATOM     18  C   UNL     1      10.309   6.397  28.498  1.00  0.00     0.000 C 
BRANCH  18  19
ATOM     19  C   UNL     1      11.184   6.147  27.248  1.00  0.00     0.000 C 
BRANCH  19  20
ATOM     20  C   UNL     1      12.635   6.630  27.411  1.00  0.00     0.000 C 
BRANCH  20  21
ATOM     21  C   UNL     1      13.589   5.976  26.399  1.00  0.00     0.000 C 
BRANCH  21  22
ATOM     22  C   UNL     1      14.694   5.150  27.094  1.00  0.00    -0.000 C 
BRANCH  22  23
ATOM     23  C   UNL     1      14.573   3.638  26.844  1.00  0.00    -0.000 C 
BRANCH  23  24
ATOM     24  C   UNL     1      13.221   3.062  27.303  1.00  0.00    -0.000 C 
BRANCH  24  25
ATOM     25  C   UNL     1      13.327   2.273  28.616  1.00  0.00    -0.000 C 
BRANCH  25  26
ATOM     26  C   UNL     1      12.354   2.779  29.691  1.00  0.00    -0.000 C 
BRANCH  26  27
ATOM     27  C   UNL     1      12.695   4.215  30.111  1.00  0.00    -0.000 C 
BRANCH  27  28
ATOM     28  C   UNL     1      13.856   4.235  31.113  1.00  0.00    -0.000 C 
BRANCH  28  29
ATOM     29  C   UNL     1      14.994   5.136  30.619  1.00  0.00    -0.003 C 
ATOM     30  C   UNL     1      16.353   4.479  30.841  1.00  0.00     0.004 C 
ENDBRANCH  28  29
ENDBRANCH  27  28
ENDBRANCH  26  27
ENDBRANCH  25  26
ENDBRANCH  24  25
ENDBRANCH  23  24
ENDBRANCH  22  23
ENDBRANCH  21  22
ENDBRANCH  20  21
ENDBRANCH  19  20
ENDBRANCH  18  19
ENDBRANCH  17  18
ENDBRANCH   1  17
TORSDOF 26
ENDMDL
MODEL 6
REMARK VINA RESULT:    -4.743      2.738      4.870
REMARK INTER + INTRA:         -16.181
REMARK INTER:                 -11.807
REMARK INTRA:                  -4.374
REMARK UNBOUND:                -4.230
REMARK SMILES CCCCCCCCCCCCCCCCCCCCCCCCCCCC(=O)[O-]
REMARK SMILES IDX 15 1 16 2 17 3 18 4 19 5 20 6 21 7 22 8 23 9 24 10 25 11
REMARK SMILES IDX 26 12 27 13 28 14 29 15 30 16 14 17 13 18 12 19 11 20 10 21
REMARK SMILES IDX 9 22 8 23 7 24 6 25 5 26 4 27 3 28 2 29 1 30
REMARK H PARENT
REMARK Flexibility Score: inf
ROOT
ATOM      1  C   UNL     1       8.597  11.077  28.288  1.00  0.00     0.000 C 
ENDROOT
BRANCH   1   2
ATOM      2  C   UNL     1       7.577  10.593  27.241  1.00  0.00     0.000 C 
BRANCH   2   3
ATOM      3  C   UNL     1       6.362   9.849  27.825  1.00  0.00     0.000 C 
BRANCH   3   4
ATOM      4  C   UNL     1       6.356   8.336  27.514  1.00  0.00     0.000 C 
BRANCH   4   5
ATOM      5  C   UNL     1       6.386   7.479  28.789  1.00  0.00     0.000 C 
BRANCH   5   6
ATOM      6  C   UNL     1       7.439   6.366  28.684  1.00  0.00     0.000 C 
BRANCH   6   7
ATOM      7  C   UNL     1       7.030   5.245  27.714  1.00  0.00     0.000 C 
BRANCH   7   8
ATOM      8  C   UNL     1       8.187   4.364  27.197  1.00  0.00     0.000 C 
BRANCH   8   9
ATOM      9  C   UNL     1       9.240   4.012  28.269  1.00  0.00     0.000 C 
BRANCH   9  10
ATOM     10  C   UNL     1      10.522   3.404  27.671  1.00  0.00     0.000 C 
BRANCH  10  11
ATOM     11  C   UNL     1      11.677   3.336  28.682  1.00  0.00     0.000 C 
BRANCH  11  12
ATOM     12  C   UNL     1      13.021   2.959  28.030  1.00  0.00     0.006 C 
BRANCH  12  13
ATOM     13  C   UNL     1      13.521   4.035  27.058  1.00  0.00     0.053 C 
BRANCH  13  14
ATOM     14  C   UNL     1      14.976   4.333  27.256  1.00  0.00     0.041 C 
ATOM     15  O   UNL     1      15.350   5.043  28.228  1.00  0.00    -0.550 OA
ATOM     16  O   UNL     1      15.923   3.785  26.400  1.00  0.00    -0.550 OA
ENDBRANCH  13  14
ENDBRANCH  12  13
ENDBRANCH  11  12
ENDBRANCH  10  11
ENDBRANCH   9  10
ENDBRANCH   8   9
ENDBRANCH   7   8
ENDBRANCH   6   7
ENDBRANCH   5   6
ENDBRANCH   4   5
ENDBRANCH   3   4
ENDBRANCH   2   3
ENDBRANCH   1   2
BRANCH   1  17
ATOM     17  C   UNL     1       8.390  10.538  29.721  1.00  0.00     0.000 C 
BRANCH  17  18
ATOM     18  C   UNL     1       9.298   9.363  30.129  1.00  0.00     0.000 C 
BRANCH  18  19
ATOM     19  C   UNL     1      10.353   8.978  29.067  1.00  0.00     0.000 C 
BRANCH  19  20
ATOM     20  C   UNL     1      10.615   7.464  28.985  1.00  0.00     0.000 C 
BRANCH  20  21
ATOM     21  C   UNL     1      11.843   7.127  28.126  1.00  0.00     0.000 C 
BRANCH  21  22
ATOM     22  C   UNL     1      11.581   7.366  26.622  1.00  0.00    -0.000 C 
BRANCH  22  23
ATOM     23  C   UNL     1      10.202   6.868  26.158  1.00  0.00    -0.000 C 
BRANCH  23  24
ATOM     24  C   UNL     1       9.539   7.810  25.139  1.00  0.00    -0.000 C 
BRANCH  24  25
ATOM     25  C   UNL     1       8.110   7.379  24.773  1.00  0.00    -0.000 C 
BRANCH  25  26
ATOM     26  C   UNL     1       8.073   6.062  23.985  1.00  0.00    -0.000 C 
BRANCH  26  27
ATOM     27  C   UNL     1       8.555   6.270  22.542  1.00  0.00    -0.000 C 
BRANCH  27  28
ATOM     28  C   UNL     1       7.591   5.623  21.541  1.00  0.00    -0.000 C 
BRANCH  28  29
ATOM     29  C   UNL     1       8.211   4.369  20.912  1.00  0.00    -0.003 C 
ATOM     30  C   UNL     1       7.284   3.763  19.863  1.00  0.00     0.004 C 
ENDBRANCH  28  29
ENDBRANCH  27  28
ENDBRANCH  26  27
ENDBRANCH  25  26
ENDBRANCH  24  25
ENDBRANCH  23  24
ENDBRANCH  22  23
ENDBRANCH  21  22
ENDBRANCH  20  21
ENDBRANCH  19  20
ENDBRANCH  18  19
ENDBRANCH  17  18
ENDBRANCH   1  17
TORSDOF 26
ENDMDL
MODEL 7
REMARK VINA RESULT:    -4.741      2.072      4.325
REMARK INTER + INTRA:         -16.178
REMARK INTER:                 -11.306
REMARK INTRA:                  -4.872
REMARK UNBOUND:                -4.230
REMARK SMILES CCCCCCCCCCCCCCCCCCCCCCCCCCCC(=O)[O-]
REMARK SMILES IDX 15 1 16 2 17 3 18 4 19 5 20 6 21 7 22 8 23 9 24 10 25 11
REMARK SMILES IDX 26 12 27 13 28 14 29 15 30 16 14 17 13 18 12 19 11 20 10 21
REMARK SMILES IDX 9 22 8 23 7 24 6 25 5 26 4 27 3 28 2 29 1 30
REMARK H PARENT
REMARK Flexibility Score: inf
ROOT
ATOM      1  C   UNL     1      10.778   7.010  28.736  1.00  0.00     0.000 C 
ENDROOT
BRANCH   1   2
ATOM      2  C   UNL     1      12.218   6.609  28.367  1.00  0.00     0.000 C 
BRANCH   2   3
ATOM      3  C   UNL     1      12.334   5.698  27.133  1.00  0.00     0.000 C 
BRANCH   3   4
ATOM      4  C   UNL     1      12.685   4.233  27.476  1.00  0.00     0.000 C 
BRANCH   4   5
ATOM      5  C   UNL     1      11.433   3.376  27.718  1.00  0.00     0.000 C 
BRANCH   5   6
ATOM      6  C   UNL     1      11.189   3.165  29.221  1.00  0.00     0.000 C 
BRANCH   6   7
ATOM      7  C   UNL     1      12.321   2.382  29.906  1.00  0.00     0.000 C 
BRANCH   7   8
ATOM      8  C   UNL     1      12.747   2.915  31.291  1.00  0.00     0.000 C 
BRANCH   8   9
ATOM      9  C   UNL     1      13.094   4.419  31.309  1.00  0.00     0.000 C 
BRANCH   9  10
ATOM     10  C   UNL     1      14.611   4.682  31.373  1.00  0.00     0.000 C 
BRANCH  10  11
ATOM     11  C   UNL     1      15.187   5.170  30.035  1.00  0.00     0.000 C 
BRANCH  11  12
ATOM     12  C   UNL     1      15.753   4.024  29.174  1.00  0.00     0.006 C 
BRANCH  12  13
ATOM     13  C   UNL     1      17.069   4.406  28.485  1.00  0.00     0.053 C 
BRANCH  13  14
ATOM     14  C   UNL     1      16.910   4.513  26.999  1.00  0.00     0.041 C 
ATOM     15  O   UNL     1      17.565   5.374  26.353  1.00  0.00    -0.550 OA
ATOM     16  O   UNL     1      16.081   3.629  26.321  1.00  0.00    -0.550 OA
ENDBRANCH  13  14
ENDBRANCH  12  13
ENDBRANCH  11  12
ENDBRANCH  10  11
ENDBRANCH   9  10
ENDBRANCH   8   9
ENDBRANCH   7   8
ENDBRANCH   6   7
ENDBRANCH   5   6
ENDBRANCH   4   5
ENDBRANCH   3   4
ENDBRANCH   2   3
ENDBRANCH   1   2
BRANCH   1  17
ATOM     17  C   UNL     1      10.489   8.528  28.742  1.00  0.00     0.000 C 
BRANCH  17  18
ATOM     18  C   UNL     1       9.500   9.016  29.817  1.00  0.00     0.000 C 
BRANCH  18  19
ATOM     19  C   UNL     1       8.868  10.395  29.519  1.00  0.00     0.000 C 
BRANCH  19  20
ATOM     20  C   UNL     1       7.348  10.335  29.292  1.00  0.00     0.000 C 
BRANCH  20  21
ATOM     21  C   UNL     1       6.970  10.469  27.808  1.00  0.00     0.000 C 
BRANCH  21  22
ATOM     22  C   UNL     1       6.874   9.096  27.108  1.00  0.00    -0.000 C 
BRANCH  22  23
ATOM     23  C   UNL     1       6.152   8.032  27.951  1.00  0.00    -0.000 C 
BRANCH  23  24
ATOM     24  C   UNL     1       7.028   6.801  28.239  1.00  0.00    -0.000 C 
BRANCH  24  25
ATOM     25  C   UNL     1       6.895   5.712  27.163  1.00  0.00    -0.000 C 
BRANCH  25  26
ATOM     26  C   UNL     1       8.182   4.893  26.987  1.00  0.00    -0.000 C 
BRANCH  26  27
ATOM     27  C   UNL     1       9.009   5.416  25.804  1.00  0.00    -0.000 C 
BRANCH  27  28
ATOM     28  C   UNL     1       8.104   6.009  24.718  1.00  0.00    -0.000 C 
BRANCH  28  29
ATOM     29  C   UNL     1       8.688   7.316  24.169  1.00  0.00    -0.003 C 
ATOM     30  C   UNL     1       9.710   7.911  25.133  1.00  0.00     0.004 C 
ENDBRANCH  28  29
ENDBRANCH  27  28
ENDBRANCH  26  27
ENDBRANCH  25  26
ENDBRANCH  24  25
ENDBRANCH  23  24
ENDBRANCH  22  23
ENDBRANCH  21  22
ENDBRANCH  20  21
ENDBRANCH  19  20
ENDBRANCH  18  19
ENDBRANCH  17  18
ENDBRANCH   1  17
TORSDOF 26
ENDMDL
MODEL 8
REMARK VINA RESULT:    -4.738      3.216      5.309
REMARK INTER + INTRA:         -16.170
REMARK INTER:                 -11.855
REMARK INTRA:                  -4.315
REMARK UNBOUND:                -4.230
REMARK SMILES CCCCCCCCCCCCCCCCCCCCCCCCCCCC(=O)[O-]
REMARK SMILES IDX 15 1 16 2 17 3 18 4 19 5 20 6 21 7 22 8 23 9 24 10 25 11
REMARK SMILES IDX 26 12 27 13 28 14 29 15 30 16 14 17 13 18 12 19 11 20 10 21
REMARK SMILES IDX 9 22 8 23 7 24 6 25 5 26 4 27 3 28 2 29 1 30
REMARK H PARENT
REMARK Flexibility Score: inf
ROOT
ATOM      1  C   UNL     1      10.535   7.112  28.833  1.00  0.00     0.000 C 
ENDROOT
BRANCH   1   2
ATOM      2  C   UNL     1      11.578   7.161  27.701  1.00  0.00     0.000 C 
BRANCH   2   3
ATOM      3  C   UNL     1      12.850   6.336  27.964  1.00  0.00     0.000 C 
BRANCH   3   4
ATOM      4  C   UNL     1      13.087   5.216  26.927  1.00  0.00     0.000 C 
BRANCH   4   5
ATOM      5  C   UNL     1      12.987   3.816  27.550  1.00  0.00     0.000 C 
BRANCH   5   6
ATOM      6  C   UNL     1      11.521   3.374  27.688  1.00  0.00     0.000 C 
BRANCH   6   7
ATOM      7  C   UNL     1      11.113   3.106  29.146  1.00  0.00     0.000 C 
BRANCH   7   8
ATOM      8  C   UNL     1      12.196   3.413  30.202  1.00  0.00     0.000 C 
BRANCH   8   9
ATOM      9  C   UNL     1      12.205   2.437  31.398  1.00  0.00     0.000 C 
BRANCH   9  10
ATOM     10  C   UNL     1      10.859   1.714  31.591  1.00  0.00     0.000 C 
BRANCH  10  11
ATOM     11  C   UNL     1      10.936   0.576  32.620  1.00  0.00     0.000 C 
BRANCH  11  12
ATOM     12  C   UNL     1      11.895  -0.552  32.193  1.00  0.00     0.006 C 
BRANCH  12  13
ATOM     13  C   UNL     1      12.586  -1.216  33.391  1.00  0.00     0.053 C 
BRANCH  13  14
ATOM     14  C   UNL     1      13.490  -0.263  34.112  1.00  0.00     0.041 C 
ATOM     15  O   UNL     1      14.478   0.246  33.516  1.00  0.00    -0.550 OA
ATOM     16  O   UNL     1      13.214   0.106  35.422  1.00  0.00    -0.550 OA
ENDBRANCH  13  14
ENDBRANCH  12  13
ENDBRANCH  11  12
ENDBRANCH  10  11
ENDBRANCH   9  10
ENDBRANCH   8   9
ENDBRANCH   7   8
ENDBRANCH   6   7
ENDBRANCH   5   6
ENDBRANCH   4   5
ENDBRANCH   3   4
ENDBRANCH   2   3
ENDBRANCH   1   2
BRANCH   1  17
ATOM     17  C   UNL     1      10.213   8.467  29.502  1.00  0.00     0.000 C 
BRANCH  17  18
ATOM     18  C   UNL     1      10.031   9.658  28.543  1.00  0.00     0.000 C 
BRANCH  18  19
ATOM     19  C   UNL     1       9.148  10.795  29.105  1.00  0.00     0.000 C 
BRANCH  19  20
ATOM     20  C   UNL     1       8.754  10.591  30.579  1.00  0.00     0.000 C 
BRANCH  20  21
ATOM     21  C   UNL     1       7.262  10.861  30.830  1.00  0.00     0.000 C 
BRANCH  21  22
ATOM     22  C   UNL     1       6.391  10.479  29.612  1.00  0.00    -0.000 C 
BRANCH  22  23
ATOM     23  C   UNL     1       5.787   9.069  29.713  1.00  0.00    -0.000 C 
BRANCH  23  24
ATOM     24  C   UNL     1       6.606   8.012  28.951  1.00  0.00    -0.000 C 
BRANCH  24  25
ATOM     25  C   UNL     1       6.174   7.871  27.484  1.00  0.00    -0.000 C 
BRANCH  25  26
ATOM     26  C   UNL     1       7.156   8.541  26.511  1.00  0.00    -0.000 C 
BRANCH  26  27
ATOM     27  C   UNL     1       8.226   7.548  26.038  1.00  0.00    -0.000 C 
BRANCH  27  28
ATOM     28  C   UNL     1       7.627   6.152  25.828  1.00  0.00    -0.000 C 
BRANCH  28  29
ATOM     29  C   UNL     1       8.508   5.074  26.470  1.00  0.00    -0.003 C 
ATOM     30  C   UNL     1       7.943   4.629  27.816  1.00  0.00     0.004 C 
ENDBRANCH  28  29
ENDBRANCH  27  28
ENDBRANCH  26  27
ENDBRANCH  25  26
ENDBRANCH  24  25
ENDBRANCH  23  24
ENDBRANCH  22  23
ENDBRANCH  21  22
ENDBRANCH  20  21
ENDBRANCH  19  20
ENDBRANCH  18  19
ENDBRANCH  17  18
ENDBRANCH   1  17
TORSDOF 26
ENDMDL
MODEL 9
REMARK VINA RESULT:    -4.694      3.730      8.666
REMARK INTER + INTRA:         -16.060
REMARK INTER:                 -11.824
REMARK INTRA:                  -4.236
REMARK UNBOUND:                -4.230
REMARK SMILES CCCCCCCCCCCCCCCCCCCCCCCCCCCC(=O)[O-]
REMARK SMILES IDX 15 1 16 2 17 3 18 4 19 5 20 6 21 7 22 8 23 9 24 10 25 11
REMARK SMILES IDX 26 12 27 13 28 14 29 15 30 16 14 17 13 18 12 19 11 20 10 21
REMARK SMILES IDX 9 22 8 23 7 24 6 25 5 26 4 27 3 28 2 29 1 30
REMARK H PARENT
REMARK Flexibility Score: inf
ROOT
ATOM      1  C   UNL     1      11.955   6.751  26.780  1.00  0.00     0.000 C 
ENDROOT
BRANCH   1   2
ATOM      2  C   UNL     1      10.791   6.144  27.584  1.00  0.00     0.000 C 
BRANCH   2   3
ATOM      3  C   UNL     1      10.313   7.001  28.769  1.00  0.00     0.000 C 
BRANCH   3   4
ATOM      4  C   UNL     1      10.909   8.426  28.782  1.00  0.00     0.000 C 
BRANCH   4   5
ATOM      5  C   UNL     1       9.907   9.473  29.291  1.00  0.00     0.000 C 
BRANCH   5   6
ATOM      6  C   UNL     1       9.120   8.943  30.501  1.00  0.00     0.000 C 
BRANCH   6   7
ATOM      7  C   UNL     1       8.415  10.059  31.290  1.00  0.00     0.000 C 
BRANCH   7   8
ATOM      8  C   UNL     1       6.903  10.205  31.019  1.00  0.00     0.000 C 
BRANCH   8   9
ATOM      9  C   UNL     1       6.563  10.743  29.613  1.00  0.00     0.000 C 
BRANCH   9  10
ATOM     10  C   UNL     1       5.809   9.716  28.746  1.00  0.00     0.000 C 
BRANCH  10  11
ATOM     11  C   UNL     1       6.381   9.604  27.324  1.00  0.00     0.000 C 
BRANCH  11  12
ATOM     12  C   UNL     1       7.202   8.317  27.110  1.00  0.00     0.006 C 
BRANCH  12  13
ATOM     13  C   UNL     1       6.726   7.165  28.005  1.00  0.00     0.053 C 
BRANCH  13  14
ATOM     14  C   UNL     1       6.860   5.838  27.323  1.00  0.00     0.041 C 
ATOM     15  O   UNL     1       7.486   4.898  27.884  1.00  0.00    -0.550 OA
ATOM     16  O   UNL     1       6.248   5.619  26.096  1.00  0.00    -0.550 OA
ENDBRANCH  13  14
ENDBRANCH  12  13
ENDBRANCH  11  12
ENDBRANCH  10  11
ENDBRANCH   9  10
ENDBRANCH   8   9
ENDBRANCH   7   8
ENDBRANCH   6   7
ENDBRANCH   5   6
ENDBRANCH   4   5
ENDBRANCH   3   4
ENDBRANCH   2   3
ENDBRANCH   1   2
BRANCH   1  17
ATOM     17  C   UNL     1      13.330   6.076  26.984  1.00  0.00     0.000 C 
BRANCH  17  18
ATOM     18  C   UNL     1      13.936   6.208  28.394  1.00  0.00     0.000 C 
BRANCH  18  19
ATOM     19  C   UNL     1      14.645   4.931  28.901  1.00  0.00     0.000 C 
BRANCH  19  20
ATOM     20  C   UNL     1      14.097   4.421  30.245  1.00  0.00     0.000 C 
BRANCH  20  21
ATOM     21  C   UNL     1      12.566   4.518  30.330  1.00  0.00     0.000 C 
BRANCH  21  22
ATOM     22  C   UNL     1      11.883   3.160  30.054  1.00  0.00    -0.000 C 
BRANCH  22  23
ATOM     23  C   UNL     1      12.793   1.953  30.336  1.00  0.00    -0.000 C 
BRANCH  23  24
ATOM     24  C   UNL     1      12.274   1.069  31.484  1.00  0.00    -0.000 C 
BRANCH  24  25
ATOM     25  C   UNL     1      11.045   1.666  32.184  1.00  0.00    -0.000 C 
BRANCH  25  26
ATOM     26  C   UNL     1      11.347   2.135  33.615  1.00  0.00    -0.000 C 
BRANCH  26  27
ATOM     27  C   UNL     1      12.855   2.093  33.901  1.00  0.00    -0.000 C 
BRANCH  27  28
ATOM     28  C   UNL     1      13.396   3.494  34.212  1.00  0.00    -0.000 C 
BRANCH  28  29
ATOM     29  C   UNL     1      12.305   4.557  34.031  1.00  0.00    -0.003 C 
ATOM     30  C   UNL     1      12.093   5.353  35.315  1.00  0.00     0.004 C 
ENDBRANCH  28  29
ENDBRANCH  27  28
ENDBRANCH  26  27
ENDBRANCH  25  26
ENDBRANCH  24  25
ENDBRANCH  23  24
ENDBRANCH  22  23
ENDBRANCH  21  22
ENDBRANCH  20  21
ENDBRANCH  19  20
ENDBRANCH  18  19
ENDBRANCH  17  18
ENDBRANCH   1  17
TORSDOF 26
ENDMDL
