MODEL 1
REMARK VINA RESULT:    -4.146      0.000      0.000
REMARK INTER + INTRA:          -5.660
REMARK INTER:                  -5.357
REMARK INTRA:                  -0.303
REMARK UNBOUND:                -0.303
REMARK SMILES C=CC(=O)CCCCC
REMARK SMILES IDX 6 1 7 2 8 3 9 4 5 5 3 6 4 7 2 8 1 9
REMARK H PARENT
REMARK Flexibility Score: inf
ROOT
ATOM      1  C   UNL     1     -10.213  19.758   7.642  1.00  0.00     0.008 C 
ENDROOT
BRANCH   1   2
ATOM      2  C   UNL     1      -9.778  18.282   7.617  1.00  0.00     0.000 C 
BRANCH   2   3
ATOM      3  C   UNL     1      -9.469  17.720   9.011  1.00  0.00    -0.003 C 
ATOM      4  C   UNL     1      -9.957  18.664  10.107  1.00  0.00     0.004 C 
ENDBRANCH   2   3
ENDBRANCH   1   2
BRANCH   1   5
ATOM      5  C   UNL     1     -10.573  20.326   6.253  1.00  0.00     0.080 C 
BRANCH   5   6
ATOM      6  C   UNL     1     -11.884  19.815   5.703  1.00  0.00     0.155 C 
ATOM      7  O   UNL     1     -12.971  20.246   6.175  1.00  0.00    -0.295 OA
BRANCH   6   8
ATOM      8  C   UNL     1     -11.951  18.860   4.577  1.00  0.00     0.039 C 
ATOM      9  C   UNL     1     -10.902  18.173   4.125  1.00  0.00     0.012 C 
ENDBRANCH   6   8
ENDBRANCH   5   6
ENDBRANCH   1   5
TORSDOF 5
ENDMDL
MODEL 2
REMARK VINA RESULT:    -4.107      2.244      3.128
REMARK INTER + INTRA:          -5.610
REMARK INTER:                  -5.046
REMARK INTRA:                  -0.564
REMARK UNBOUND:                -0.303
REMARK SMILES C=CC(=O)CCCCC
REMARK SMILES IDX 6 1 7 2 8 3 9 4 5 5 3 6 4 7 2 8 1 9
REMARK H PARENT
REMARK Flexibility Score: inf
ROOT
ATOM      1  C   UNL     1     -10.271  20.990   6.609  1.00  0.00     0.008 C 
ENDROOT
BRANCH   1   2
ATOM      2  C   UNL     1      -8.801  20.537   6.546  1.00  0.00     0.000 C 
BRANCH   2   3
ATOM      3  C   UNL     1      -8.012  21.201   5.410  1.00  0.00    -0.003 C 
ATOM      4  C   UNL     1      -8.011  20.328   4.157  1.00  0.00     0.004 C 
ENDBRANCH   2   3
ENDBRANCH   1   2
BRANCH   1   5
ATOM      5  C   UNL     1     -11.285  19.836   6.476  1.00  0.00     0.080 C 
BRANCH   5   6
ATOM      6  C   UNL     1     -11.564  19.427   5.048  1.00  0.00     0.155 C 
ATOM      7  O   UNL     1     -12.222  20.194   4.295  1.00  0.00    -0.295 OA
BRANCH   6   8
ATOM      8  C   UNL     1     -11.040  18.172   4.468  1.00  0.00     0.039 C 
ATOM      9  C   UNL     1     -10.394  17.243   5.172  1.00  0.00     0.012 C 
ENDBRANCH   6   8
ENDBRANCH   5   6
ENDBRANCH   1   5
TORSDOF 5
ENDMDL
MODEL 3
REMARK VINA RESULT:    -4.057      1.403      2.752
REMARK INTER + INTRA:          -5.546
REMARK INTER:                  -5.142
REMARK INTRA:                  -0.405
REMARK UNBOUND:                -0.303
REMARK SMILES C=CC(=O)CCCCC
REMARK SMILES IDX 6 1 7 2 8 3 9 4 5 5 3 6 4 7 2 8 1 9
REMARK H PARENT
REMARK Flexibility Score: inf
ROOT
ATOM      1  C   UNL     1     -10.457  17.977   4.622  1.00  0.00     0.008 C 
ENDROOT
BRANCH   1   2
ATOM      2  C   UNL     1     -10.474  16.655   5.410  1.00  0.00     0.000 C 
BRANCH   2   3
ATOM      3  C   UNL     1      -9.300  16.519   6.388  1.00  0.00    -0.003 C 
ATOM      4  C   UNL     1      -9.780  16.574   7.836  1.00  0.00     0.004 C 
ENDBRANCH   2   3
ENDBRANCH   1   2
BRANCH   1   5
ATOM      5  C   UNL     1     -11.809  18.721   4.622  1.00  0.00     0.080 C 
BRANCH   5   6
ATOM      6  C   UNL     1     -11.966  19.709   5.754  1.00  0.00     0.155 C 
ATOM      7  O   UNL     1     -13.071  20.289   5.929  1.00  0.00    -0.295 OA
BRANCH   6   8
ATOM      8  C   UNL     1     -10.880  19.985   6.719  1.00  0.00     0.039 C 
ATOM      9  C   UNL     1     -10.178  21.118   6.739  1.00  0.00     0.012 C 
ENDBRANCH   6   8
ENDBRANCH   5   6
ENDBRANCH   1   5
TORSDOF 5
ENDMDL
MODEL 4
REMARK VINA RESULT:    -4.024      1.467      3.915
REMARK INTER + INTRA:          -5.504
REMARK INTER:                  -5.000
REMARK INTRA:                  -0.503
REMARK UNBOUND:                -0.303
REMARK SMILES C=CC(=O)CCCCC
REMARK SMILES IDX 6 1 7 2 8 3 9 4 5 5 3 6 4 7 2 8 1 9
REMARK H PARENT
REMARK Flexibility Score: inf
ROOT
ATOM      1  C   UNL     1      -9.761  19.486   4.356  1.00  0.00     0.008 C 
ENDROOT
BRANCH   1   2
ATOM      2  C   UNL     1     -10.948  18.558   4.670  1.00  0.00     0.000 C 
BRANCH   2   3
ATOM      3  C   UNL     1     -12.308  19.182   4.331  1.00  0.00    -0.003 C 
ATOM      4  C   UNL     1     -12.969  19.774   5.573  1.00  0.00     0.004 C 
ENDBRANCH   2   3
ENDBRANCH   1   2
BRANCH   1   5
ATOM      5  C   UNL     1      -8.934  19.881   5.597  1.00  0.00     0.080 C 
BRANCH   5   6
ATOM      6  C   UNL     1      -9.739  20.561   6.680  1.00  0.00     0.155 C 
ATOM      7  O   UNL     1     -10.276  21.679   6.451  1.00  0.00    -0.295 OA
BRANCH   6   8
ATOM      8  C   UNL     1      -9.979  19.936   7.998  1.00  0.00     0.039 C 
ATOM      9  C   UNL     1      -9.850  18.631   8.233  1.00  0.00     0.012 C 
ENDBRANCH   6   8
ENDBRANCH   5   6
ENDBRANCH   1   5
TORSDOF 5
ENDMDL
MODEL 5
REMARK VINA RESULT:    -3.979      1.817      3.998
REMARK INTER + INTRA:          -5.445
REMARK INTER:                  -4.986
REMARK INTRA:                  -0.459
REMARK UNBOUND:                -0.303
REMARK SMILES C=CC(=O)CCCCC
REMARK SMILES IDX 6 1 7 2 8 3 9 4 5 5 3 6 4 7 2 8 1 9
REMARK H PARENT
REMARK Flexibility Score: inf
ROOT
ATOM      1  C   UNL     1     -11.776  19.948   6.215  1.00  0.00     0.008 C 
ENDROOT
BRANCH   1   2
ATOM      2  C   UNL     1     -12.129  19.140   4.953  1.00  0.00     0.000 C 
BRANCH   2   3
ATOM      3  C   UNL     1     -10.919  18.431   4.332  1.00  0.00    -0.003 C 
ATOM      4  C   UNL     1     -10.610  17.127   5.062  1.00  0.00     0.004 C 
ENDBRANCH   2   3
ENDBRANCH   1   2
BRANCH   1   5
ATOM      5  C   UNL     1     -10.342  20.518   6.208  1.00  0.00     0.080 C 
BRANCH   5   6
ATOM      6  C   UNL     1      -9.442  19.926   7.268  1.00  0.00     0.155 C 
ATOM      7  O   UNL     1      -8.204  20.160   7.238  1.00  0.00    -0.295 OA
BRANCH   6   8
ATOM      8  C   UNL     1      -9.966  19.119   8.390  1.00  0.00     0.039 C 
ATOM      9  C   UNL     1      -9.580  17.869   8.646  1.00  0.00     0.012 C 
ENDBRANCH   6   8
ENDBRANCH   5   6
ENDBRANCH   1   5
TORSDOF 5
ENDMDL
MODEL 6
REMARK VINA RESULT:    -3.954      2.645      3.790
REMARK INTER + INTRA:          -5.412
REMARK INTER:                  -4.821
REMARK INTRA:                  -0.591
REMARK UNBOUND:                -0.303
REMARK SMILES C=CC(=O)CCCCC
REMARK SMILES IDX 6 1 7 2 8 3 9 4 5 5 3 6 4 7 2 8 1 9
REMARK H PARENT
REMARK Flexibility Score: inf
ROOT
ATOM      1  C   UNL     1     -11.346  19.807   6.544  1.00  0.00     0.008 C 
ENDROOT
BRANCH   1   2
ATOM      2  C   UNL     1     -12.029  19.578   5.184  1.00  0.00     0.000 C 
BRANCH   2   3
ATOM      3  C   UNL     1     -11.402  18.433   4.378  1.00  0.00    -0.003 C 
ATOM      4  C   UNL     1     -10.709  17.428   5.295  1.00  0.00     0.004 C 
ENDBRANCH   2   3
ENDBRANCH   1   2
BRANCH   1   5
ATOM      5  C   UNL     1     -10.346  20.981   6.549  1.00  0.00     0.080 C 
BRANCH   5   6
ATOM      6  C   UNL     1      -8.907  20.563   6.354  1.00  0.00     0.155 C 
ATOM      7  O   UNL     1      -8.330  19.876   7.240  1.00  0.00    -0.295 OA
BRANCH   6   8
ATOM      8  C   UNL     1      -8.151  20.877   5.123  1.00  0.00     0.039 C 
ATOM      9  C   UNL     1      -8.208  20.145   4.011  1.00  0.00     0.012 C 
ENDBRANCH   6   8
ENDBRANCH   5   6
ENDBRANCH   1   5
TORSDOF 5
ENDMDL
MODEL 7
REMARK VINA RESULT:    -3.948      1.571      2.626
REMARK INTER + INTRA:          -5.405
REMARK INTER:                  -4.868
REMARK INTRA:                  -0.537
REMARK UNBOUND:                -0.303
REMARK SMILES C=CC(=O)CCCCC
REMARK SMILES IDX 6 1 7 2 8 3 9 4 5 5 3 6 4 7 2 8 1 9
REMARK H PARENT
REMARK Flexibility Score: inf
ROOT
ATOM      1  C   UNL     1      -9.288  18.369   7.187  1.00  0.00     0.008 C 
ENDROOT
BRANCH   1   2
ATOM      2  C   UNL     1      -9.672  16.925   7.557  1.00  0.00     0.000 C 
BRANCH   2   3
ATOM      3  C   UNL     1     -10.383  16.178   6.421  1.00  0.00    -0.003 C 
ATOM      4  C   UNL     1      -9.794  16.553   5.063  1.00  0.00     0.004 C 
ENDBRANCH   2   3
ENDBRANCH   1   2
BRANCH   1   5
ATOM      5  C   UNL     1     -10.356  19.415   7.571  1.00  0.00     0.080 C 
BRANCH   5   6
ATOM      6  C   UNL     1     -10.958  20.138   6.388  1.00  0.00     0.155 C 
ATOM      7  O   UNL     1     -10.340  21.104   5.865  1.00  0.00    -0.295 OA
BRANCH   6   8
ATOM      8  C   UNL     1     -12.234  19.718   5.771  1.00  0.00     0.039 C 
ATOM      9  C   UNL     1     -12.332  19.225   4.537  1.00  0.00     0.012 C 
ENDBRANCH   6   8
ENDBRANCH   5   6
ENDBRANCH   1   5
TORSDOF 5
ENDMDL
MODEL 8
REMARK VINA RESULT:    -3.771      2.364      4.331
REMARK INTER + INTRA:          -5.176
REMARK INTER:                  -4.614
REMARK INTRA:                  -0.562
REMARK UNBOUND:                -0.303
REMARK SMILES C=CC(=O)CCCCC
REMARK SMILES IDX 6 1 7 2 8 3 9 4 5 5 3 6 4 7 2 8 1 9
REMARK H PARENT
REMARK Flexibility Score: inf
ROOT
ATOM      1  C   UNL     1     -10.579  17.603   5.732  1.00  0.00     0.008 C 
ENDROOT
BRANCH   1   2
ATOM      2  C   UNL     1     -10.828  18.020   4.271  1.00  0.00     0.000 C 
BRANCH   2   3
ATOM      3  C   UNL     1     -11.492  19.397   4.141  1.00  0.00    -0.003 C 
ATOM      4  C   UNL     1     -12.667  19.535   5.106  1.00  0.00     0.004 C 
ENDBRANCH   2   3
ENDBRANCH   1   2
BRANCH   1   5
ATOM      5  C   UNL     1      -9.104  17.723   6.171  1.00  0.00     0.080 C 
BRANCH   5   6
ATOM      6  C   UNL     1      -8.824  18.915   7.058  1.00  0.00     0.155 C 
ATOM      7  O   UNL     1      -7.640  19.168   7.409  1.00  0.00    -0.295 OA
BRANCH   6   8
ATOM      8  C   UNL     1      -9.887  19.845   7.492  1.00  0.00     0.039 C 
ATOM      9  C   UNL     1      -9.957  21.120   7.109  1.00  0.00     0.012 C 
ENDBRANCH   6   8
ENDBRANCH   5   6
ENDBRANCH   1   5
TORSDOF 5
ENDMDL
MODEL 9
REMARK VINA RESULT:    -3.768      4.435      5.663
REMARK INTER + INTRA:          -5.172
REMARK INTER:                  -4.614
REMARK INTRA:                  -0.558
REMARK UNBOUND:                -0.303
REMARK SMILES C=CC(=O)CCCCC
REMARK SMILES IDX 6 1 7 2 8 3 9 4 5 5 3 6 4 7 2 8 1 9
REMARK H PARENT
REMARK Flexibility Score: inf
ROOT
ATOM      1  C   UNL     1     -11.301  17.843  12.582  1.00  0.00     0.008 C 
ENDROOT
BRANCH   1   2
ATOM      2  C   UNL     1     -10.829  16.923  13.721  1.00  0.00     0.000 C 
BRANCH   2   3
ATOM      3  C   UNL     1     -10.725  15.450  13.304  1.00  0.00    -0.003 C 
ATOM      4  C   UNL     1     -11.902  15.042  12.422  1.00  0.00     0.004 C 
ENDBRANCH   2   3
ENDBRANCH   1   2
BRANCH   1   5
ATOM      5  C   UNL     1     -10.197  18.768  12.029  1.00  0.00     0.080 C 
BRANCH   5   6
ATOM      6  C   UNL     1      -9.729  18.402  10.640  1.00  0.00     0.155 C 
ATOM      7  O   UNL     1      -9.864  19.228   9.697  1.00  0.00    -0.295 OA
BRANCH   6   8
ATOM      8  C   UNL     1      -9.056  17.120  10.344  1.00  0.00     0.039 C 
ATOM      9  C   UNL     1      -9.642  16.105   9.709  1.00  0.00     0.012 C 
ENDBRANCH   6   8
ENDBRANCH   5   6
ENDBRANCH   1   5
TORSDOF 5
ENDMDL
