MODEL 1
REMARK VINA RESULT:     7.982      0.000      0.000
REMARK INTER + INTRA:           9.112
REMARK INTER:                   9.382
REMARK INTRA:                  -0.270
REMARK UNBOUND:                -0.270
REMARK SMILES O=c1cc(-c2ccc(O)c(O)c2)oc2cc(O)cc(O)c12
REMARK SMILES IDX 4 1 3 2 2 3 1 4 21 5 19 6 18 7 16 8 15 9 14 10 13 11 5 12
REMARK SMILES IDX 6 13 7 14 8 15 12 16 10 17 9 18 11 20 20 22 17 24
REMARK H PARENT 9 19 11 21 20 23 17 25
REMARK Flexibility Score: inf
ROOT
ATOM      1  C   UNL     1       0.713  20.558  12.292  1.00  0.00     0.138 A 
ATOM      2  C   UNL     1      -0.573  20.728  11.762  1.00  0.00     0.100 A 
ATOM      3  C   UNL     1      -1.655  20.917  12.624  1.00  0.00     0.197 A 
ATOM      4  O   UNL     1      -2.788  21.124  12.116  1.00  0.00    -0.289 OA
ATOM      5  C   UNL     1      -1.452  20.900  14.025  1.00  0.00     0.107 A 
ATOM      6  C   UNL     1      -2.484  21.050  15.000  1.00  0.00     0.134 A 
ATOM      7  C   UNL     1      -2.146  21.114  16.358  1.00  0.00     0.093 A 
ATOM      8  C   UNL     1      -0.825  20.978  16.779  1.00  0.00     0.123 A 
ATOM      9  C   UNL     1       0.187  20.782  15.838  1.00  0.00     0.094 A 
ATOM     10  C   UNL     1      -0.112  20.747  14.475  1.00  0.00     0.146 A 
ATOM     11  O   UNL     1       0.883  20.577  13.610  1.00  0.00    -0.456 OA
ENDROOT
BRANCH   1  12
ATOM     12  C   UNL     1       1.899  20.349  11.423  1.00  0.00     0.021 A 
ATOM     13  C   UNL     1       3.065  21.125  11.561  1.00  0.00     0.016 A 
ATOM     14  C   UNL     1       4.169  20.899  10.735  1.00  0.00     0.051 A 
ATOM     15  C   UNL     1       4.131  19.891   9.765  1.00  0.00     0.157 A 
ATOM     16  C   UNL     1       1.874  19.329  10.454  1.00  0.00     0.062 A 
ATOM     17  C   UNL     1       2.983  19.103   9.626  1.00  0.00     0.158 A 
BRANCH  15  18
ATOM     18  O   UNL     1       5.230  19.663   8.938  1.00  0.00    -0.504 OA
ATOM     19  H   UNL     1       6.173  19.632   9.307  1.00  0.00     0.293 HD
ENDBRANCH  15  18
BRANCH  17  20
ATOM     20  O   UNL     1       2.948  18.096   8.661  1.00  0.00    -0.504 OA
ATOM     21  H   UNL     1       2.529  17.194   8.851  1.00  0.00     0.293 HD
ENDBRANCH  17  20
ENDBRANCH   1  12
BRANCH   6  22
ATOM     22  O   UNL     1      -3.847  21.114  14.694  1.00  0.00    -0.507 OA
ATOM     23  H   UNL     1      -4.571  20.592  15.162  1.00  0.00     0.293 HD
ENDBRANCH   6  22
BRANCH   8  24
ATOM     24  O   UNL     1      -0.528  21.032  18.139  1.00  0.00    -0.508 OA
ATOM     25  H   UNL     1       0.149  20.406  18.560  1.00  0.00     0.293 HD
ENDBRANCH   8  24
TORSDOF 5
ENDMDL
MODEL 2
REMARK VINA RESULT:     8.326      1.310      1.364
REMARK INTER + INTRA:           9.515
REMARK INTER:                   9.810
REMARK INTRA:                  -0.294
REMARK UNBOUND:                -0.270
REMARK SMILES O=c1cc(-c2ccc(O)c(O)c2)oc2cc(O)cc(O)c12
REMARK SMILES IDX 4 1 3 2 2 3 1 4 21 5 19 6 18 7 16 8 15 9 14 10 13 11 5 12
REMARK SMILES IDX 6 13 7 14 8 15 12 16 10 17 9 18 11 20 20 22 17 24
REMARK H PARENT 9 19 11 21 20 23 17 25
REMARK Flexibility Score: inf
ROOT
ATOM      1  C   UNL     1       1.338  21.076  11.789  1.00  0.00     0.138 A 
ATOM      2  C   UNL     1       0.101  21.077  11.130  1.00  0.00     0.100 A 
ATOM      3  C   UNL     1      -1.078  21.052  11.876  1.00  0.00     0.197 A 
ATOM      4  O   UNL     1      -2.172  21.110  11.256  1.00  0.00    -0.289 OA
ATOM      5  C   UNL     1      -1.017  20.990  13.289  1.00  0.00     0.107 A 
ATOM      6  C   UNL     1      -2.153  20.927  14.152  1.00  0.00     0.134 A 
ATOM      7  C   UNL     1      -1.968  20.969  15.539  1.00  0.00     0.093 A 
ATOM      8  C   UNL     1      -0.691  21.014  16.096  1.00  0.00     0.123 A 
ATOM      9  C   UNL     1       0.429  21.025  15.263  1.00  0.00     0.094 A 
ATOM     10  C   UNL     1       0.277  21.019  13.875  1.00  0.00     0.146 A 
ATOM     11  O   UNL     1       1.369  21.050  13.117  1.00  0.00    -0.456 OA
ENDROOT
BRANCH   1  12
ATOM     12  C   UNL     1       2.623  21.098  11.045  1.00  0.00     0.021 A 
ATOM     13  C   UNL     1       3.865  21.083  11.710  1.00  0.00     0.016 A 
ATOM     14  C   UNL     1       5.058  21.094  10.983  1.00  0.00     0.051 A 
ATOM     15  C   UNL     1       5.033  21.111   9.584  1.00  0.00     0.157 A 
ATOM     16  C   UNL     1       2.608  21.101   9.638  1.00  0.00     0.062 A 
ATOM     17  C   UNL     1       3.806  21.112   8.910  1.00  0.00     0.158 A 
BRANCH  15  18
ATOM     18  O   UNL     1       6.222  21.123   8.856  1.00  0.00    -0.504 OA
ATOM     19  H   UNL     1       7.061  21.561   9.218  1.00  0.00     0.293 HD
ENDBRANCH  15  18
BRANCH  17  20
ATOM     20  O   UNL     1       3.784  21.125   7.516  1.00  0.00    -0.504 OA
ATOM     21  H   UNL     1       4.564  20.781   6.970  1.00  0.00     0.293 HD
ENDBRANCH  17  20
ENDBRANCH   1  12
BRANCH   6  22
ATOM     22  O   UNL     1      -3.471  20.800  13.703  1.00  0.00    -0.507 OA
ATOM     23  H   UNL     1      -4.286  21.129  14.196  1.00  0.00     0.293 HD
ENDBRANCH   6  22
BRANCH   8  24
ATOM     24  O   UNL     1      -0.545  21.038  17.481  1.00  0.00    -0.508 OA
ATOM     25  H   UNL     1      -1.277  21.394  18.085  1.00  0.00     0.293 HD
ENDBRANCH   8  24
TORSDOF 5
ENDMDL
MODEL 3
REMARK VINA RESULT:     9.534      1.648      1.703
REMARK INTER + INTRA:          10.936
REMARK INTER:                  11.227
REMARK INTRA:                  -0.291
REMARK UNBOUND:                -0.270
REMARK SMILES O=c1cc(-c2ccc(O)c(O)c2)oc2cc(O)cc(O)c12
REMARK SMILES IDX 4 1 3 2 2 3 1 4 21 5 19 6 18 7 16 8 15 9 14 10 13 11 5 12
REMARK SMILES IDX 6 13 7 14 8 15 12 16 10 17 9 18 11 20 20 22 17 24
REMARK H PARENT 9 19 11 21 20 23 17 25
REMARK Flexibility Score: inf
ROOT
ATOM      1  C   UNL     1       1.198  19.501  11.828  1.00  0.00     0.138 A 
ATOM      2  C   UNL     1       0.172  18.639  11.415  1.00  0.00     0.100 A 
ATOM      3  C   UNL     1      -0.915  18.407  12.259  1.00  0.00     0.197 A 
ATOM      4  O   UNL     1      -1.846  17.673  11.836  1.00  0.00    -0.289 OA
ATOM      5  C   UNL     1      -0.957  19.013  13.537  1.00  0.00     0.107 A 
ATOM      6  C   UNL     1      -1.999  18.823  14.495  1.00  0.00     0.134 A 
ATOM      7  C   UNL     1      -1.980  19.555  15.689  1.00  0.00     0.093 A 
ATOM      8  C   UNL     1      -0.932  20.425  15.985  1.00  0.00     0.123 A 
ATOM      9  C   UNL     1       0.117  20.581  15.078  1.00  0.00     0.094 A 
ATOM     10  C   UNL     1       0.111  19.892  13.864  1.00  0.00     0.146 A 
ATOM     11  O   UNL     1       1.120  20.083  13.020  1.00  0.00    -0.456 OA
ENDROOT
BRANCH   1  12
ATOM     12  C   UNL     1       2.379  19.781  10.973  1.00  0.00     0.021 A 
ATOM     13  C   UNL     1       3.214  20.892  11.202  1.00  0.00     0.016 A 
ATOM     14  C   UNL     1       4.325  21.124  10.387  1.00  0.00     0.051 A 
ATOM     15  C   UNL     1       4.626  20.249   9.337  1.00  0.00     0.157 A 
ATOM     16  C   UNL     1       2.697  18.900   9.924  1.00  0.00     0.062 A 
ATOM     17  C   UNL     1       3.812  19.134   9.106  1.00  0.00     0.158 A 
BRANCH  15  18
ATOM     18  O   UNL     1       5.732  20.479   8.521  1.00  0.00    -0.504 OA
ATOM     19  H   UNL     1       5.663  20.441   7.511  1.00  0.00     0.293 HD
ENDBRANCH  15  18
BRANCH  17  20
ATOM     20  O   UNL     1       4.116  18.262   8.061  1.00  0.00    -0.504 OA
ATOM     21  H   UNL     1       4.543  18.590   7.204  1.00  0.00     0.293 HD
ENDBRANCH  17  20
ENDBRANCH   1  12
BRANCH   6  22
ATOM     22  O   UNL     1      -3.054  17.919  14.337  1.00  0.00    -0.507 OA
ATOM     23  H   UNL     1      -3.724  17.679  15.050  1.00  0.00     0.293 HD
ENDBRANCH   6  22
BRANCH   8  24
ATOM     24  O   UNL     1      -0.939  21.125  17.190  1.00  0.00    -0.508 OA
ATOM     25  H   UNL     1      -0.922  20.645  18.082  1.00  0.00     0.293 HD
ENDBRANCH   8  24
TORSDOF 5
ENDMDL
