MODEL 1
REMARK VINA RESULT:    -2.618      0.000      0.000
REMARK INTER + INTRA:          -8.404
REMARK INTER:                  -5.985
REMARK INTRA:                  -2.418
REMARK UNBOUND:                -2.418
REMARK SMILES CCCCCCCCCCCCCCCCCCCCCCCC(=O)[O-]
REMARK SMILES IDX 13 1 14 2 15 3 16 4 17 5 18 6 19 7 20 8 21 9 22 10 23 11
REMARK SMILES IDX 24 12 25 13 26 14 12 15 11 16 10 17 9 18 8 19 7 20 6 21 5 22
REMARK SMILES IDX 4 23 3 24 2 25 1 26
REMARK H PARENT
REMARK Flexibility Score: inf
ROOT
ATOM      1  C   UNL     1      -8.030   2.238  -9.124  1.00  0.00     0.000 C 
ENDROOT
BRANCH   1   2
ATOM      2  C   UNL     1      -9.512   2.624  -9.212  1.00  0.00     0.000 C 
BRANCH   2   3
ATOM      3  C   UNL     1     -10.124   2.767  -7.811  1.00  0.00     0.000 C 
BRANCH   3   4
ATOM      4  C   UNL     1      -9.111   2.508  -6.685  1.00  0.00     0.000 C 
BRANCH   4   5
ATOM      5  C   UNL     1      -9.203   3.545  -5.553  1.00  0.00     0.000 C 
BRANCH   5   6
ATOM      6  C   UNL     1      -9.312   2.853  -4.184  1.00  0.00     0.000 C 
BRANCH   6   7
ATOM      7  C   UNL     1      -8.630   1.473  -4.168  1.00  0.00     0.000 C 
BRANCH   7   8
ATOM      8  C   UNL     1      -7.166   1.508  -3.679  1.00  0.00     0.000 C 
BRANCH   8   9
ATOM      9  C   UNL     1      -6.869   2.617  -2.650  1.00  0.00     0.000 C 
BRANCH   9  10
ATOM     10  C   UNL     1      -5.605   2.364  -1.800  1.00  0.00     0.006 C 
BRANCH  10  11
ATOM     11  C   UNL     1      -5.638   3.064  -0.433  1.00  0.00     0.053 C 
BRANCH  11  12
ATOM     12  C   UNL     1      -5.243   2.134   0.675  1.00  0.00     0.041 C 
ATOM     13  O   UNL     1      -4.865   0.961   0.412  1.00  0.00    -0.550 OA
ATOM     14  O   UNL     1      -5.301   2.559   1.998  1.00  0.00    -0.550 OA
ENDBRANCH  11  12
ENDBRANCH  10  11
ENDBRANCH   9  10
ENDBRANCH   8   9
ENDBRANCH   7   8
ENDBRANCH   6   7
ENDBRANCH   5   6
ENDBRANCH   4   5
ENDBRANCH   3   4
ENDBRANCH   2   3
ENDBRANCH   1   2
BRANCH   1  15
ATOM     15  C   UNL     1      -7.152   3.249  -9.874  1.00  0.00     0.000 C 
BRANCH  15  16
ATOM     16  C   UNL     1      -7.811   4.634 -10.003  1.00  0.00     0.000 C 
BRANCH  16  17
ATOM     17  C   UNL     1      -7.648   5.551  -8.774  1.00  0.00     0.000 C 
BRANCH  17  18
ATOM     18  C   UNL     1      -8.165   6.991  -8.962  1.00  0.00    -0.000 C 
BRANCH  18  19
ATOM     19  C   UNL     1      -7.124   8.097  -8.703  1.00  0.00    -0.000 C 
BRANCH  19  20
ATOM     20  C   UNL     1      -7.716   9.487  -8.414  1.00  0.00    -0.000 C 
BRANCH  20  21
ATOM     21  C   UNL     1      -9.247   9.524  -8.557  1.00  0.00    -0.000 C 
BRANCH  21  22
ATOM     22  C   UNL     1      -9.956   9.912  -7.250  1.00  0.00    -0.000 C 
BRANCH  22  23
ATOM     23  C   UNL     1      -9.155   9.511  -6.001  1.00  0.00    -0.000 C 
BRANCH  23  24
ATOM     24  C   UNL     1     -10.065   8.856  -4.954  1.00  0.00    -0.000 C 
BRANCH  24  25
ATOM     25  C   UNL     1      -9.462   7.541  -4.447  1.00  0.00    -0.003 C 
ATOM     26  C   UNL     1      -8.310   7.084  -5.336  1.00  0.00     0.004 C 
ENDBRANCH  24  25
ENDBRANCH  23  24
ENDBRANCH  22  23
ENDBRANCH  21  22
ENDBRANCH  20  21
ENDBRANCH  19  20
ENDBRANCH  18  19
ENDBRANCH  17  18
ENDBRANCH  16  17
ENDBRANCH  15  16
ENDBRANCH   1  15
TORSDOF 22
ENDMDL
MODEL 2
REMARK VINA RESULT:    -2.129     15.080     18.604
REMARK INTER + INTRA:          -7.285
REMARK INTER:                  -5.564
REMARK INTRA:                  -1.721
REMARK UNBOUND:                -2.418
REMARK SMILES CCCCCCCCCCCCCCCCCCCCCCCC(=O)[O-]
REMARK SMILES IDX 13 1 14 2 15 3 16 4 17 5 18 6 19 7 20 8 21 9 22 10 23 11
REMARK SMILES IDX 24 12 25 13 26 14 12 15 11 16 10 17 9 18 8 19 7 20 6 21 5 22
REMARK SMILES IDX 4 23 3 24 2 25 1 26
REMARK H PARENT
REMARK Flexibility Score: inf
ROOT
ATOM      1  C   UNL     1       8.185   8.761  -3.939  1.00  0.00     0.000 C 
ENDROOT
BRANCH   1   2
ATOM      2  C   UNL     1       8.626   8.245  -5.314  1.00  0.00     0.000 C 
BRANCH   2   3
ATOM      3  C   UNL     1       9.674   9.176  -5.939  1.00  0.00     0.000 C 
BRANCH   3   4
ATOM      4  C   UNL     1       9.119  10.004  -7.108  1.00  0.00     0.000 C 
BRANCH   4   5
ATOM      5  C   UNL     1       9.613   9.506  -8.477  1.00  0.00     0.000 C 
BRANCH   5   6
ATOM      6  C   UNL     1       8.810   8.278  -8.936  1.00  0.00     0.000 C 
BRANCH   6   7
ATOM      7  C   UNL     1       7.884   8.592 -10.125  1.00  0.00     0.000 C 
BRANCH   7   8
ATOM      8  C   UNL     1       7.027   9.861  -9.928  1.00  0.00     0.000 C 
BRANCH   8   9
ATOM      9  C   UNL     1       5.506   9.614  -9.997  1.00  0.00     0.000 C 
BRANCH   9  10
ATOM     10  C   UNL     1       4.770   9.849  -8.660  1.00  0.00     0.006 C 
BRANCH  10  11
ATOM     11  C   UNL     1       5.428   9.137  -7.467  1.00  0.00     0.053 C 
BRANCH  11  12
ATOM     12  C   UNL     1       4.478   8.994  -6.316  1.00  0.00     0.041 C 
ATOM     13  O   UNL     1       4.919   8.825  -5.149  1.00  0.00    -0.550 OA
ATOM     14  O   UNL     1       3.105   9.038  -6.534  1.00  0.00    -0.550 OA
ENDBRANCH  11  12
ENDBRANCH  10  11
ENDBRANCH   9  10
ENDBRANCH   8   9
ENDBRANCH   7   8
ENDBRANCH   6   7
ENDBRANCH   5   6
ENDBRANCH   4   5
ENDBRANCH   3   4
ENDBRANCH   2   3
ENDBRANCH   1   2
BRANCH   1  15
ATOM     15  C   UNL     1       7.962   7.599  -2.960  1.00  0.00     0.000 C 
BRANCH  15  16
ATOM     16  C   UNL     1       8.423   7.925  -1.529  1.00  0.00     0.000 C 
BRANCH  16  17
ATOM     17  C   UNL     1       9.390   9.121  -1.411  1.00  0.00     0.000 C 
BRANCH  17  18
ATOM     18  C   UNL     1       9.486   9.746  -0.006  1.00  0.00    -0.000 C 
BRANCH  18  19
ATOM     19  C   UNL     1       8.191   9.683   0.825  1.00  0.00    -0.000 C 
BRANCH  19  20
ATOM     20  C   UNL     1       8.401   9.656   2.349  1.00  0.00    -0.000 C 
BRANCH  20  21
ATOM     21  C   UNL     1       7.231   8.996   3.100  1.00  0.00    -0.000 C 
BRANCH  21  22
ATOM     22  C   UNL     1       7.507   8.832   4.603  1.00  0.00    -0.000 C 
BRANCH  22  23
ATOM     23  C   UNL     1       8.974   9.107   4.968  1.00  0.00    -0.000 C 
BRANCH  23  24
ATOM     24  C   UNL     1       9.498   8.059   5.957  1.00  0.00    -0.000 C 
BRANCH  24  25
ATOM     25  C   UNL     1       8.375   7.548   6.866  1.00  0.00    -0.003 C 
ATOM     26  C   UNL     1       8.277   6.027   6.820  1.00  0.00     0.004 C 
ENDBRANCH  24  25
ENDBRANCH  23  24
ENDBRANCH  22  23
ENDBRANCH  21  22
ENDBRANCH  20  21
ENDBRANCH  19  20
ENDBRANCH  18  19
ENDBRANCH  17  18
ENDBRANCH  16  17
ENDBRANCH  15  16
ENDBRANCH   1  15
TORSDOF 22
ENDMDL
MODEL 3
REMARK VINA RESULT:    -2.120     14.396     17.472
REMARK INTER + INTRA:          -7.264
REMARK INTER:                  -5.396
REMARK INTRA:                  -1.868
REMARK UNBOUND:                -2.418
REMARK SMILES CCCCCCCCCCCCCCCCCCCCCCCC(=O)[O-]
REMARK SMILES IDX 13 1 14 2 15 3 16 4 17 5 18 6 19 7 20 8 21 9 22 10 23 11
REMARK SMILES IDX 24 12 25 13 26 14 12 15 11 16 10 17 9 18 8 19 7 20 6 21 5 22
REMARK SMILES IDX 4 23 3 24 2 25 1 26
REMARK H PARENT
REMARK Flexibility Score: inf
ROOT
ATOM      1  C   UNL     1       6.675   6.822  -3.480  1.00  0.00     0.000 C 
ENDROOT
BRANCH   1   2
ATOM      2  C   UNL     1       7.984   6.516  -2.743  1.00  0.00     0.000 C 
BRANCH   2   3
ATOM      3  C   UNL     1       8.969   7.688  -2.865  1.00  0.00     0.000 C 
BRANCH   3   4
ATOM      4  C   UNL     1       9.852   7.600  -4.119  1.00  0.00     0.000 C 
BRANCH   4   5
ATOM      5  C   UNL     1       9.122   8.057  -5.393  1.00  0.00     0.000 C 
BRANCH   5   6
ATOM      6  C   UNL     1       9.590   9.458  -5.819  1.00  0.00     0.000 C 
BRANCH   6   7
ATOM      7  C   UNL     1       8.721  10.050  -6.944  1.00  0.00     0.000 C 
BRANCH   7   8
ATOM      8  C   UNL     1       8.874   9.322  -8.297  1.00  0.00     0.000 C 
BRANCH   8   9
ATOM      9  C   UNL     1       7.537   8.975  -8.983  1.00  0.00     0.000 C 
BRANCH   9  10
ATOM     10  C   UNL     1       6.378   9.927  -8.618  1.00  0.00     0.006 C 
BRANCH  10  11
ATOM     11  C   UNL     1       5.050   9.200  -8.355  1.00  0.00     0.053 C 
BRANCH  11  12
ATOM     12  C   UNL     1       4.734   9.139  -6.890  1.00  0.00     0.041 C 
ATOM     13  O   UNL     1       5.650   8.923  -6.054  1.00  0.00    -0.550 OA
ATOM     14  O   UNL     1       3.426   9.311  -6.451  1.00  0.00    -0.550 OA
ENDBRANCH  11  12
ENDBRANCH  10  11
ENDBRANCH   9  10
ENDBRANCH   8   9
ENDBRANCH   7   8
ENDBRANCH   6   7
ENDBRANCH   5   6
ENDBRANCH   4   5
ENDBRANCH   3   4
ENDBRANCH   2   3
ENDBRANCH   1   2
BRANCH   1  15
ATOM     15  C   UNL     1       5.566   7.217  -2.494  1.00  0.00     0.000 C 
BRANCH  15  16
ATOM     16  C   UNL     1       4.401   7.961  -3.170  1.00  0.00     0.000 C 
BRANCH  16  17
ATOM     17  C   UNL     1       4.311   9.465  -2.844  1.00  0.00     0.000 C 
BRANCH  17  18
ATOM     18  C   UNL     1       5.635  10.115  -2.397  1.00  0.00    -0.000 C 
BRANCH  18  19
ATOM     19  C   UNL     1       5.877  10.123  -0.876  1.00  0.00    -0.000 C 
BRANCH  19  20
ATOM     20  C   UNL     1       7.334   9.872  -0.451  1.00  0.00    -0.000 C 
BRANCH  20  21
ATOM     21  C   UNL     1       7.455   9.380   1.002  1.00  0.00    -0.000 C 
BRANCH  21  22
ATOM     22  C   UNL     1       6.472  10.083   1.951  1.00  0.00    -0.000 C 
BRANCH  22  23
ATOM     23  C   UNL     1       6.257   9.306   3.260  1.00  0.00    -0.000 C 
BRANCH  23  24
ATOM     24  C   UNL     1       7.328   9.670   4.295  1.00  0.00    -0.000 C 
BRANCH  24  25
ATOM     25  C   UNL     1       7.924   8.411   4.936  1.00  0.00    -0.003 C 
ATOM     26  C   UNL     1       8.664   8.749   6.227  1.00  0.00     0.004 C 
ENDBRANCH  24  25
ENDBRANCH  23  24
ENDBRANCH  22  23
ENDBRANCH  21  22
ENDBRANCH  20  21
ENDBRANCH  19  20
ENDBRANCH  18  19
ENDBRANCH  17  18
ENDBRANCH  16  17
ENDBRANCH  15  16
ENDBRANCH   1  15
TORSDOF 22
ENDMDL
MODEL 4
REMARK VINA RESULT:    -2.091      1.382      2.634
REMARK INTER + INTRA:          -7.200
REMARK INTER:                  -5.421
REMARK INTRA:                  -1.779
REMARK UNBOUND:                -2.418
REMARK SMILES CCCCCCCCCCCCCCCCCCCCCCCC(=O)[O-]
REMARK SMILES IDX 13 1 14 2 15 3 16 4 17 5 18 6 19 7 20 8 21 9 22 10 23 11
REMARK SMILES IDX 24 12 25 13 26 14 12 15 11 16 10 17 9 18 8 19 7 20 6 21 5 22
REMARK SMILES IDX 4 23 3 24 2 25 1 26
REMARK H PARENT
REMARK Flexibility Score: inf
ROOT
ATOM      1  C   UNL     1      -7.929   0.898  -9.120  1.00  0.00     0.000 C 
ENDROOT
BRANCH   1   2
ATOM      2  C   UNL     1      -9.335   0.448  -8.705  1.00  0.00     0.000 C 
BRANCH   2   3
ATOM      3  C   UNL     1      -9.391   0.143  -7.201  1.00  0.00     0.000 C 
BRANCH   3   4
ATOM      4  C   UNL     1      -9.702   1.383  -6.349  1.00  0.00     0.000 C 
BRANCH   4   5
ATOM      5  C   UNL     1      -9.009   1.351  -4.977  1.00  0.00     0.000 C 
BRANCH   5   6
ATOM      6  C   UNL     1      -9.340   2.614  -4.166  1.00  0.00     0.000 C 
BRANCH   6   7
ATOM      7  C   UNL     1      -8.250   2.950  -3.132  1.00  0.00     0.000 C 
BRANCH   7   8
ATOM      8  C   UNL     1      -7.113   1.908  -3.064  1.00  0.00     0.000 C 
BRANCH   8   9
ATOM      9  C   UNL     1      -5.878   2.371  -2.267  1.00  0.00     0.000 C 
BRANCH   9  10
ATOM     10  C   UNL     1      -4.922   1.226  -1.866  1.00  0.00     0.006 C 
BRANCH  10  11
ATOM     11  C   UNL     1      -4.573   1.217  -0.370  1.00  0.00     0.053 C 
BRANCH  11  12
ATOM     12  C   UNL     1      -5.231   2.350   0.359  1.00  0.00     0.041 C 
ATOM     13  O   UNL     1      -5.846   2.136   1.437  1.00  0.00    -0.550 OA
ATOM     14  O   UNL     1      -5.172   3.640  -0.157  1.00  0.00    -0.550 OA
ENDBRANCH  11  12
ENDBRANCH  10  11
ENDBRANCH   9  10
ENDBRANCH   8   9
ENDBRANCH   7   8
ENDBRANCH   6   7
ENDBRANCH   5   6
ENDBRANCH   4   5
ENDBRANCH   3   4
ENDBRANCH   2   3
ENDBRANCH   1   2
BRANCH   1  15
ATOM     15  C   UNL     1      -7.919   2.383  -9.509  1.00  0.00     0.000 C 
BRANCH  15  16
ATOM     16  C   UNL     1      -9.320   2.924  -9.847  1.00  0.00     0.000 C 
BRANCH  16  17
ATOM     17  C   UNL     1      -9.870   3.972  -8.858  1.00  0.00     0.000 C 
BRANCH  17  18
ATOM     18  C   UNL     1      -8.897   5.115  -8.512  1.00  0.00    -0.000 C 
BRANCH  18  19
ATOM     19  C   UNL     1      -8.329   5.078  -7.081  1.00  0.00    -0.000 C 
BRANCH  19  20
ATOM     20  C   UNL     1      -9.245   5.686  -6.005  1.00  0.00    -0.000 C 
BRANCH  20  21
ATOM     21  C   UNL     1      -8.948   7.171  -5.739  1.00  0.00    -0.000 C 
BRANCH  21  22
ATOM     22  C   UNL     1      -9.889   8.113  -6.506  1.00  0.00    -0.000 C 
BRANCH  22  23
ATOM     23  C   UNL     1      -9.187   8.835  -7.666  1.00  0.00    -0.000 C 
BRANCH  23  24
ATOM     24  C   UNL     1      -7.663   8.726  -7.536  1.00  0.00    -0.000 C 
BRANCH  24  25
ATOM     25  C   UNL     1      -6.993   8.699  -8.915  1.00  0.00    -0.003 C 
ATOM     26  C   UNL     1      -7.990   8.316 -10.004  1.00  0.00     0.004 C 
ENDBRANCH  24  25
ENDBRANCH  23  24
ENDBRANCH  22  23
ENDBRANCH  21  22
ENDBRANCH  20  21
ENDBRANCH  19  20
ENDBRANCH  18  19
ENDBRANCH  17  18
ENDBRANCH  16  17
ENDBRANCH  15  16
ENDBRANCH   1  15
TORSDOF 22
ENDMDL
MODEL 5
REMARK VINA RESULT:    -2.078      1.411      3.133
REMARK INTER + INTRA:          -7.169
REMARK INTER:                  -4.578
REMARK INTRA:                  -2.591
REMARK UNBOUND:                -2.418
REMARK SMILES CCCCCCCCCCCCCCCCCCCCCCCC(=O)[O-]
REMARK SMILES IDX 13 1 14 2 15 3 16 4 17 5 18 6 19 7 20 8 21 9 22 10 23 11
REMARK SMILES IDX 24 12 25 13 26 14 12 15 11 16 10 17 9 18 8 19 7 20 6 21 5 22
REMARK SMILES IDX 4 23 3 24 2 25 1 26
REMARK H PARENT
REMARK Flexibility Score: inf
ROOT
ATOM      1  C   UNL     1     -10.093   1.140  -6.754  1.00  0.00     0.000 C 
ENDROOT
BRANCH   1   2
ATOM      2  C   UNL     1     -10.020   2.670  -6.836  1.00  0.00     0.000 C 
BRANCH   2   3
ATOM      3  C   UNL     1      -9.012   3.225  -5.819  1.00  0.00     0.000 C 
BRANCH   3   4
ATOM      4  C   UNL     1      -9.639   3.503  -4.444  1.00  0.00     0.000 C 
BRANCH   4   5
ATOM      5  C   UNL     1      -8.907   2.782  -3.300  1.00  0.00     0.000 C 
BRANCH   5   6
ATOM      6  C   UNL     1      -7.539   2.260  -3.767  1.00  0.00     0.000 C 
BRANCH   6   7
ATOM      7  C   UNL     1      -6.646   1.820  -2.594  1.00  0.00     0.000 C 
BRANCH   7   8
ATOM      8  C   UNL     1      -5.156   1.663  -2.970  1.00  0.00     0.000 C 
BRANCH   8   9
ATOM      9  C   UNL     1      -4.377   0.682  -2.070  1.00  0.00     0.000 C 
BRANCH   9  10
ATOM     10  C   UNL     1      -4.869   0.646  -0.607  1.00  0.00     0.006 C 
BRANCH  10  11
ATOM     11  C   UNL     1      -4.253   1.746   0.272  1.00  0.00     0.053 C 
BRANCH  11  12
ATOM     12  C   UNL     1      -5.206   2.886   0.480  1.00  0.00     0.041 C 
ATOM     13  O   UNL     1      -5.186   3.876  -0.299  1.00  0.00    -0.550 OA
ATOM     14  O   UNL     1      -6.108   2.857   1.537  1.00  0.00    -0.550 OA
ENDBRANCH  11  12
ENDBRANCH  10  11
ENDBRANCH   9  10
ENDBRANCH   8   9
ENDBRANCH   7   8
ENDBRANCH   6   7
ENDBRANCH   5   6
ENDBRANCH   4   5
ENDBRANCH   3   4
ENDBRANCH   2   3
ENDBRANCH   1   2
BRANCH   1  15
ATOM     15  C   UNL     1      -9.173   0.489  -7.796  1.00  0.00     0.000 C 
BRANCH  15  16
ATOM     16  C   UNL     1      -8.954   1.371  -9.038  1.00  0.00     0.000 C 
BRANCH  16  17
ATOM     17  C   UNL     1      -7.479   1.677  -9.369  1.00  0.00     0.000 C 
BRANCH  17  18
ATOM     18  C   UNL     1      -7.164   3.163  -9.626  1.00  0.00    -0.000 C 
BRANCH  18  19
ATOM     19  C   UNL     1      -8.365   4.016 -10.078  1.00  0.00    -0.000 C 
BRANCH  19  20
ATOM     20  C   UNL     1      -8.667   5.232  -9.187  1.00  0.00    -0.000 C 
BRANCH  20  21
ATOM     21  C   UNL     1      -7.483   5.619  -8.284  1.00  0.00    -0.000 C 
BRANCH  21  22
ATOM     22  C   UNL     1      -7.921   6.378  -7.021  1.00  0.00    -0.000 C 
BRANCH  22  23
ATOM     23  C   UNL     1      -9.441   6.596  -6.960  1.00  0.00    -0.000 C 
BRANCH  23  24
ATOM     24  C   UNL     1      -9.783   8.089  -7.017  1.00  0.00    -0.000 C 
BRANCH  24  25
ATOM     25  C   UNL     1      -8.751   8.859  -7.850  1.00  0.00    -0.003 C 
ATOM     26  C   UNL     1      -8.296  10.125  -7.129  1.00  0.00     0.004 C 
ENDBRANCH  24  25
ENDBRANCH  23  24
ENDBRANCH  22  23
ENDBRANCH  21  22
ENDBRANCH  20  21
ENDBRANCH  19  20
ENDBRANCH  18  19
ENDBRANCH  17  18
ENDBRANCH  16  17
ENDBRANCH  15  16
ENDBRANCH   1  15
TORSDOF 22
ENDMDL
MODEL 6
REMARK VINA RESULT:    -1.979      1.102      3.917
REMARK INTER + INTRA:          -6.944
REMARK INTER:                  -5.113
REMARK INTRA:                  -1.830
REMARK UNBOUND:                -2.418
REMARK SMILES CCCCCCCCCCCCCCCCCCCCCCCC(=O)[O-]
REMARK SMILES IDX 13 1 14 2 15 3 16 4 17 5 18 6 19 7 20 8 21 9 22 10 23 11
REMARK SMILES IDX 24 12 25 13 26 14 12 15 11 16 10 17 9 18 8 19 7 20 6 21 5 22
REMARK SMILES IDX 4 23 3 24 2 25 1 26
REMARK H PARENT
REMARK Flexibility Score: inf
ROOT
ATOM      1  C   UNL     1      -9.342   5.150  -5.209  1.00  0.00     0.000 C 
ENDROOT
BRANCH   1   2
ATOM      2  C   UNL     1     -10.056   3.983  -5.902  1.00  0.00     0.000 C 
BRANCH   2   3
ATOM      3  C   UNL     1     -10.120   2.756  -4.982  1.00  0.00     0.000 C 
BRANCH   3   4
ATOM      4  C   UNL     1      -9.609   1.474  -5.657  1.00  0.00     0.000 C 
BRANCH   4   5
ATOM      5  C   UNL     1      -8.509   0.771  -4.842  1.00  0.00     0.000 C 
BRANCH   5   6
ATOM      6  C   UNL     1      -7.842   1.751  -3.863  1.00  0.00     0.000 C 
BRANCH   6   7
ATOM      7  C   UNL     1      -6.358   1.420  -3.621  1.00  0.00     0.000 C 
BRANCH   7   8
ATOM      8  C   UNL     1      -5.893   1.673  -2.171  1.00  0.00     0.000 C 
BRANCH   8   9
ATOM      9  C   UNL     1      -6.196   3.091  -1.647  1.00  0.00     0.000 C 
BRANCH   9  10
ATOM     10  C   UNL     1      -5.251   3.561  -0.521  1.00  0.00     0.006 C 
BRANCH  10  11
ATOM     11  C   UNL     1      -5.855   3.417   0.884  1.00  0.00     0.053 C 
BRANCH  11  12
ATOM     12  C   UNL     1      -5.123   2.392   1.698  1.00  0.00     0.041 C 
ATOM     13  O   UNL     1      -4.588   1.401   1.135  1.00  0.00    -0.550 OA
ATOM     14  O   UNL     1      -5.040   2.527   3.080  1.00  0.00    -0.550 OA
ENDBRANCH  11  12
ENDBRANCH  10  11
ENDBRANCH   9  10
ENDBRANCH   8   9
ENDBRANCH   7   8
ENDBRANCH   6   7
ENDBRANCH   5   6
ENDBRANCH   4   5
ENDBRANCH   3   4
ENDBRANCH   2   3
ENDBRANCH   1   2
BRANCH   1  15
ATOM     15  C   UNL     1     -10.125   6.459  -5.387  1.00  0.00     0.000 C 
BRANCH  15  16
ATOM     16  C   UNL     1      -9.569   7.610  -4.530  1.00  0.00     0.000 C 
BRANCH  16  17
ATOM     17  C   UNL     1      -9.833   9.024  -5.089  1.00  0.00     0.000 C 
BRANCH  17  18
ATOM     18  C   UNL     1      -8.640   9.667  -5.822  1.00  0.00    -0.000 C 
BRANCH  18  19
ATOM     19  C   UNL     1      -8.549   9.345  -7.326  1.00  0.00    -0.000 C 
BRANCH  19  20
ATOM     20  C   UNL     1      -7.555   8.229  -7.690  1.00  0.00    -0.000 C 
BRANCH  20  21
ATOM     21  C   UNL     1      -7.082   8.306  -9.152  1.00  0.00    -0.000 C 
BRANCH  21  22
ATOM     22  C   UNL     1      -7.590   7.132 -10.004  1.00  0.00    -0.000 C 
BRANCH  22  23
ATOM     23  C   UNL     1      -6.603   5.955 -10.038  1.00  0.00    -0.000 C 
BRANCH  23  24
ATOM     24  C   UNL     1      -7.121   4.782  -9.196  1.00  0.00    -0.000 C 
BRANCH  24  25
ATOM     25  C   UNL     1      -8.272   4.061  -9.906  1.00  0.00    -0.003 C 
ATOM     26  C   UNL     1      -8.728   2.839  -9.114  1.00  0.00     0.004 C 
ENDBRANCH  24  25
ENDBRANCH  23  24
ENDBRANCH  22  23
ENDBRANCH  21  22
ENDBRANCH  20  21
ENDBRANCH  19  20
ENDBRANCH  18  19
ENDBRANCH  17  18
ENDBRANCH  16  17
ENDBRANCH  15  16
ENDBRANCH   1  15
TORSDOF 22
ENDMDL
MODEL 7
REMARK VINA RESULT:    -1.964      3.039      8.440
REMARK INTER + INTRA:          -6.908
REMARK INTER:                  -5.005
REMARK INTRA:                  -1.902
REMARK UNBOUND:                -2.418
REMARK SMILES CCCCCCCCCCCCCCCCCCCCCCCC(=O)[O-]
REMARK SMILES IDX 13 1 14 2 15 3 16 4 17 5 18 6 19 7 20 8 21 9 22 10 23 11
REMARK SMILES IDX 24 12 25 13 26 14 12 15 11 16 10 17 9 18 8 19 7 20 6 21 5 22
REMARK SMILES IDX 4 23 3 24 2 25 1 26
REMARK H PARENT
REMARK Flexibility Score: inf
ROOT
ATOM      1  C   UNL     1     -10.125   5.266  -5.729  1.00  0.00     0.000 C 
ENDROOT
BRANCH   1   2
ATOM      2  C   UNL     1      -9.510   6.494  -5.048  1.00  0.00     0.000 C 
BRANCH   2   3
ATOM      3  C   UNL     1     -10.014   7.791  -5.697  1.00  0.00     0.000 C 
BRANCH   3   4
ATOM      4  C   UNL     1      -9.349   9.049  -5.117  1.00  0.00     0.000 C 
BRANCH   4   5
ATOM      5  C   UNL     1      -8.268   9.631  -6.044  1.00  0.00     0.000 C 
BRANCH   5   6
ATOM      6  C   UNL     1      -8.645   9.427  -7.520  1.00  0.00     0.000 C 
BRANCH   6   7
ATOM      7  C   UNL     1      -7.430   9.540  -8.458  1.00  0.00     0.000 C 
BRANCH   7   8
ATOM      8  C   UNL     1      -7.522   8.639  -9.708  1.00  0.00     0.000 C 
BRANCH   8   9
ATOM      9  C   UNL     1      -8.694   7.637  -9.679  1.00  0.00     0.000 C 
BRANCH   9  10
ATOM     10  C   UNL     1      -8.306   6.204 -10.104  1.00  0.00     0.006 C 
BRANCH  10  11
ATOM     11  C   UNL     1      -7.643   5.392  -8.980  1.00  0.00     0.053 C 
BRANCH  11  12
ATOM     12  C   UNL     1      -8.378   4.112  -8.715  1.00  0.00     0.041 C 
ATOM     13  O   UNL     1      -9.590   4.000  -9.036  1.00  0.00    -0.550 OA
ATOM     14  O   UNL     1      -7.725   3.046  -8.105  1.00  0.00    -0.550 OA
ENDBRANCH  11  12
ENDBRANCH  10  11
ENDBRANCH   9  10
ENDBRANCH   8   9
ENDBRANCH   7   8
ENDBRANCH   6   7
ENDBRANCH   5   6
ENDBRANCH   4   5
ENDBRANCH   3   4
ENDBRANCH   2   3
ENDBRANCH   1   2
BRANCH   1  15
ATOM     15  C   UNL     1      -9.709   3.973  -5.014  1.00  0.00     0.000 C 
BRANCH  15  16
ATOM     16  C   UNL     1     -10.121   2.704  -5.781  1.00  0.00     0.000 C 
BRANCH  16  17
ATOM     17  C   UNL     1      -9.755   1.375  -5.089  1.00  0.00     0.000 C 
BRANCH  17  18
ATOM     18  C   UNL     1      -8.360   0.823  -5.438  1.00  0.00    -0.000 C 
BRANCH  18  19
ATOM     19  C   UNL     1      -7.445   0.552  -4.228  1.00  0.00    -0.000 C 
BRANCH  19  20
ATOM     20  C   UNL     1      -6.776   1.802  -3.631  1.00  0.00    -0.000 C 
BRANCH  20  21
ATOM     21  C   UNL     1      -5.394   1.505  -3.022  1.00  0.00    -0.000 C 
BRANCH  21  22
ATOM     22  C   UNL     1      -5.394   1.573  -1.487  1.00  0.00    -0.000 C 
BRANCH  22  23
ATOM     23  C   UNL     1      -6.042   2.859  -0.952  1.00  0.00    -0.000 C 
BRANCH  23  24
ATOM     24  C   UNL     1      -5.333   3.342   0.319  1.00  0.00    -0.000 C 
BRANCH  24  25
ATOM     25  C   UNL     1      -5.158   2.195   1.322  1.00  0.00    -0.003 C 
ATOM     26  C   UNL     1      -5.032   2.725   2.747  1.00  0.00     0.004 C 
ENDBRANCH  24  25
ENDBRANCH  23  24
ENDBRANCH  22  23
ENDBRANCH  21  22
ENDBRANCH  20  21
ENDBRANCH  19  20
ENDBRANCH  18  19
ENDBRANCH  17  18
ENDBRANCH  16  17
ENDBRANCH  15  16
ENDBRANCH   1  15
TORSDOF 22
ENDMDL
MODEL 8
REMARK VINA RESULT:    -1.948      3.114      8.478
REMARK INTER + INTRA:          -6.871
REMARK INTER:                  -4.827
REMARK INTRA:                  -2.044
REMARK UNBOUND:                -2.418
REMARK SMILES CCCCCCCCCCCCCCCCCCCCCCCC(=O)[O-]
REMARK SMILES IDX 13 1 14 2 15 3 16 4 17 5 18 6 19 7 20 8 21 9 22 10 23 11
REMARK SMILES IDX 24 12 25 13 26 14 12 15 11 16 10 17 9 18 8 19 7 20 6 21 5 22
REMARK SMILES IDX 4 23 3 24 2 25 1 26
REMARK H PARENT
REMARK Flexibility Score: inf
ROOT
ATOM      1  C   UNL     1      -9.903   4.236  -5.808  1.00  0.00     0.000 C 
ENDROOT
BRANCH   1   2
ATOM      2  C   UNL     1      -9.864   5.705  -5.370  1.00  0.00     0.000 C 
BRANCH   2   3
ATOM      3  C   UNL     1      -9.725   6.635  -6.583  1.00  0.00     0.000 C 
BRANCH   3   4
ATOM      4  C   UNL     1      -9.002   7.949  -6.251  1.00  0.00     0.000 C 
BRANCH   4   5
ATOM      5  C   UNL     1      -7.832   8.242  -7.206  1.00  0.00     0.000 C 
BRANCH   5   6
ATOM      6  C   UNL     1      -8.343   8.802  -8.543  1.00  0.00     0.000 C 
BRANCH   6   7
ATOM      7  C   UNL     1      -7.743   8.067  -9.755  1.00  0.00     0.000 C 
BRANCH   7   8
ATOM      8  C   UNL     1      -8.223   6.606  -9.898  1.00  0.00     0.000 C 
BRANCH   8   9
ATOM      9  C   UNL     1      -7.164   5.552  -9.516  1.00  0.00     0.000 C 
BRANCH   9  10
ATOM     10  C   UNL     1      -7.737   4.326  -8.773  1.00  0.00     0.006 C 
BRANCH  10  11
ATOM     11  C   UNL     1      -7.737   3.044  -9.619  1.00  0.00     0.053 C 
BRANCH  11  12
ATOM     12  C   UNL     1      -8.167   1.852  -8.817  1.00  0.00     0.041 C 
ATOM     13  O   UNL     1      -9.328   1.802  -8.330  1.00  0.00    -0.550 OA
ATOM     14  O   UNL     1      -7.283   0.801  -8.600  1.00  0.00    -0.550 OA
ENDBRANCH  11  12
ENDBRANCH  10  11
ENDBRANCH   9  10
ENDBRANCH   8   9
ENDBRANCH   7   8
ENDBRANCH   6   7
ENDBRANCH   5   6
ENDBRANCH   4   5
ENDBRANCH   3   4
ENDBRANCH   2   3
ENDBRANCH   1   2
BRANCH   1  15
ATOM     15  C   UNL     1     -10.118   3.308  -4.603  1.00  0.00     0.000 C 
BRANCH  15  16
ATOM     16  C   UNL     1      -9.056   2.198  -4.506  1.00  0.00     0.000 C 
BRANCH  16  17
ATOM     17  C   UNL     1      -7.965   2.431  -3.441  1.00  0.00     0.000 C 
BRANCH  17  18
ATOM     18  C   UNL     1      -6.786   1.441  -3.489  1.00  0.00    -0.000 C 
BRANCH  18  19
ATOM     19  C   UNL     1      -5.511   1.910  -2.763  1.00  0.00    -0.000 C 
BRANCH  19  20
ATOM     20  C   UNL     1      -4.325   0.933  -2.842  1.00  0.00    -0.000 C 
BRANCH  20  21
ATOM     21  C   UNL     1      -3.913   0.383  -1.465  1.00  0.00    -0.000 C 
BRANCH  21  22
ATOM     22  C   UNL     1      -4.929   0.720  -0.362  1.00  0.00    -0.000 C 
BRANCH  22  23
ATOM     23  C   UNL     1      -4.275   1.374   0.865  1.00  0.00    -0.000 C 
BRANCH  23  24
ATOM     24  C   UNL     1      -5.284   2.240   1.628  1.00  0.00    -0.000 C 
BRANCH  24  25
ATOM     25  C   UNL     1      -5.968   3.243   0.692  1.00  0.00    -0.003 C 
ATOM     26  C   UNL     1      -4.944   4.146   0.011  1.00  0.00     0.004 C 
ENDBRANCH  24  25
ENDBRANCH  23  24
ENDBRANCH  22  23
ENDBRANCH  21  22
ENDBRANCH  20  21
ENDBRANCH  19  20
ENDBRANCH  18  19
ENDBRANCH  17  18
ENDBRANCH  16  17
ENDBRANCH  15  16
ENDBRANCH   1  15
TORSDOF 22
ENDMDL
MODEL 9
REMARK VINA RESULT:    -1.926      2.758      7.738
REMARK INTER + INTRA:          -6.820
REMARK INTER:                  -4.919
REMARK INTRA:                  -1.901
REMARK UNBOUND:                -2.418
REMARK SMILES CCCCCCCCCCCCCCCCCCCCCCCC(=O)[O-]
REMARK SMILES IDX 13 1 14 2 15 3 16 4 17 5 18 6 19 7 20 8 21 9 22 10 23 11
REMARK SMILES IDX 24 12 25 13 26 14 12 15 11 16 10 17 9 18 8 19 7 20 6 21 5 22
REMARK SMILES IDX 4 23 3 24 2 25 1 26
REMARK H PARENT
REMARK Flexibility Score: inf
ROOT
ATOM      1  C   UNL     1      -9.634   4.767  -7.584  1.00  0.00     0.000 C 
ENDROOT
BRANCH   1   2
ATOM      2  C   UNL     1      -9.858   4.639  -9.096  1.00  0.00     0.000 C 
BRANCH   2   3
ATOM      3  C   UNL     1      -8.919   5.576  -9.870  1.00  0.00     0.000 C 
BRANCH   3   4
ATOM      4  C   UNL     1      -7.707   6.027  -9.042  1.00  0.00     0.000 C 
BRANCH   4   5
ATOM      5  C   UNL     1      -6.683   6.821  -9.870  1.00  0.00     0.000 C 
BRANCH   5   6
ATOM      6  C   UNL     1      -6.880   8.334  -9.681  1.00  0.00     0.000 C 
BRANCH   6   7
ATOM      7  C   UNL     1      -8.361   8.747  -9.757  1.00  0.00     0.000 C 
BRANCH   7   8
ATOM      8  C   UNL     1      -8.671  10.085  -9.051  1.00  0.00     0.000 C 
BRANCH   8   9
ATOM      9  C   UNL     1      -9.761   9.988  -7.965  1.00  0.00     0.000 C 
BRANCH   9  10
ATOM     10  C   UNL     1      -9.651   8.732  -7.073  1.00  0.00     0.006 C 
BRANCH  10  11
ATOM     11  C   UNL     1      -9.070   9.021  -5.680  1.00  0.00     0.053 C 
BRANCH  11  12
ATOM     12  C   UNL     1      -9.074   7.796  -4.815  1.00  0.00     0.041 C 
ATOM     13  O   UNL     1      -8.330   6.820  -5.097  1.00  0.00    -0.550 OA
ATOM     14  O   UNL     1      -9.906   7.731  -3.703  1.00  0.00    -0.550 OA
ENDBRANCH  11  12
ENDBRANCH  10  11
ENDBRANCH   9  10
ENDBRANCH   8   9
ENDBRANCH   7   8
ENDBRANCH   6   7
ENDBRANCH   5   6
ENDBRANCH   4   5
ENDBRANCH   3   4
ENDBRANCH   2   3
ENDBRANCH   1   2
BRANCH   1  15
ATOM     15  C   UNL     1      -9.763   3.403  -6.891  1.00  0.00     0.000 C 
BRANCH  15  16
ATOM     16  C   UNL     1      -9.094   2.264  -7.681  1.00  0.00     0.000 C 
BRANCH  16  17
ATOM     17  C   UNL     1      -9.700   0.865  -7.448  1.00  0.00     0.000 C 
BRANCH  17  18
ATOM     18  C   UNL     1      -8.906  -0.036  -6.483  1.00  0.00    -0.000 C 
BRANCH  18  19
ATOM     19  C   UNL     1      -9.135   0.249  -4.987  1.00  0.00    -0.000 C 
BRANCH  19  20
ATOM     20  C   UNL     1      -7.968   0.958  -4.278  1.00  0.00    -0.000 C 
BRANCH  20  21
ATOM     21  C   UNL     1      -8.393   2.271  -3.598  1.00  0.00    -0.000 C 
BRANCH  21  22
ATOM     22  C   UNL     1      -7.217   3.003  -2.931  1.00  0.00    -0.000 C 
BRANCH  22  23
ATOM     23  C   UNL     1      -6.395   2.086  -2.012  1.00  0.00    -0.000 C 
BRANCH  23  24
ATOM     24  C   UNL     1      -5.697   2.895  -0.912  1.00  0.00    -0.000 C 
BRANCH  24  25
ATOM     25  C   UNL     1      -5.033   1.971   0.115  1.00  0.00    -0.003 C 
ATOM     26  C   UNL     1      -5.590   2.213   1.514  1.00  0.00     0.004 C 
ENDBRANCH  24  25
ENDBRANCH  23  24
ENDBRANCH  22  23
ENDBRANCH  21  22
ENDBRANCH  20  21
ENDBRANCH  19  20
ENDBRANCH  18  19
ENDBRANCH  17  18
ENDBRANCH  16  17
ENDBRANCH  15  16
ENDBRANCH   1  15
TORSDOF 22
ENDMDL
