MODEL 1
REMARK VINA RESULT:    -3.329      0.000      0.000
REMARK INTER + INTRA:          -5.264
REMARK INTER:                  -4.691
REMARK INTRA:                  -0.572
REMARK UNBOUND:                -0.572
REMARK SMILES C=CCCCCCCC(=O)[O-]
REMARK SMILES IDX 6 1 7 2 8 3 9 4 10 5 11 6 5 7 4 8 3 9 2 10 1 11
REMARK H PARENT
REMARK Flexibility Score: inf
ROOT
ATOM      1  C   UNL     1      -1.647 -50.928   2.341  1.00  0.00     0.000 C 
ENDROOT
BRANCH   1   2
ATOM      2  C   UNL     1      -1.482 -51.794   3.599  1.00  0.00     0.006 C 
BRANCH   2   3
ATOM      3  C   UNL     1      -2.738 -51.786   4.479  1.00  0.00     0.053 C 
BRANCH   3   4
ATOM      4  C   UNL     1      -2.418 -51.446   5.903  1.00  0.00     0.041 C 
ATOM      5  O   UNL     1      -1.237 -51.546   6.328  1.00  0.00    -0.550 OA
ATOM      6  O   UNL     1      -3.419 -50.987   6.750  1.00  0.00    -0.550 OA
ENDBRANCH   3   4
ENDBRANCH   2   3
ENDBRANCH   1   2
BRANCH   1   7
ATOM      7  C   UNL     1      -1.301 -51.723   1.076  1.00  0.00     0.000 C 
BRANCH   7   8
ATOM      8  C   UNL     1      -2.217 -51.333  -0.088  1.00  0.00     0.004 C 
BRANCH   8   9
ATOM      9  C   UNL     1      -3.471 -50.609   0.416  1.00  0.00     0.027 C 
BRANCH   9  10
ATOM     10  C   UNL     1      -4.693 -51.474   0.278  1.00  0.00    -0.035 C 
ATOM     11  C   UNL     1      -5.384 -51.891   1.344  1.00  0.00     0.004 C 
ENDBRANCH   9  10
ENDBRANCH   8   9
ENDBRANCH   7   8
ENDBRANCH   1   7
TORSDOF 7
ENDMDL
MODEL 2
REMARK VINA RESULT:    -3.304      1.313      2.256
REMARK INTER + INTRA:          -5.228
REMARK INTER:                  -4.924
REMARK INTRA:                  -0.304
REMARK UNBOUND:                -0.572
REMARK SMILES C=CCCCCCCC(=O)[O-]
REMARK SMILES IDX 6 1 7 2 8 3 9 4 10 5 11 6 5 7 4 8 3 9 2 10 1 11
REMARK H PARENT
REMARK Flexibility Score: inf
ROOT
ATOM      1  C   UNL     1      -1.258 -51.388   3.246  1.00  0.00     0.000 C 
ENDROOT
BRANCH   1   2
ATOM      2  C   UNL     1      -1.386 -52.059   4.621  1.00  0.00     0.006 C 
BRANCH   2   3
ATOM      3  C   UNL     1      -2.717 -51.728   5.308  1.00  0.00     0.053 C 
BRANCH   3   4
ATOM      4  C   UNL     1      -2.512 -51.191   6.692  1.00  0.00     0.041 C 
ATOM      5  O   UNL     1      -1.396 -51.316   7.261  1.00  0.00    -0.550 OA
ATOM      6  O   UNL     1      -3.545 -50.524   7.339  1.00  0.00    -0.550 OA
ENDBRANCH   3   4
ENDBRANCH   2   3
ENDBRANCH   1   2
BRANCH   1   7
ATOM      7  C   UNL     1      -2.149 -52.084   2.210  1.00  0.00     0.000 C 
BRANCH   7   8
ATOM      8  C   UNL     1      -2.920 -51.060   1.369  1.00  0.00     0.004 C 
BRANCH   8   9
ATOM      9  C   UNL     1      -2.352 -50.974  -0.052  1.00  0.00     0.027 C 
BRANCH   9  10
ATOM     10  C   UNL     1      -1.269 -51.993  -0.269  1.00  0.00    -0.035 C 
ATOM     11  C   UNL     1      -0.332 -51.834  -1.210  1.00  0.00     0.004 C 
ENDBRANCH   9  10
ENDBRANCH   8   9
ENDBRANCH   7   8
ENDBRANCH   1   7
TORSDOF 7
ENDMDL
MODEL 3
REMARK VINA RESULT:    -3.299      3.347      5.116
REMARK INTER + INTRA:          -5.221
REMARK INTER:                  -5.015
REMARK INTRA:                  -0.207
REMARK UNBOUND:                -0.572
REMARK SMILES C=CCCCCCCC(=O)[O-]
REMARK SMILES IDX 6 1 7 2 8 3 9 4 10 5 11 6 5 7 4 8 3 9 2 10 1 11
REMARK H PARENT
REMARK Flexibility Score: inf
ROOT
ATOM      1  C   UNL     1      -6.398 -51.899   1.539  1.00  0.00     0.000 C 
ENDROOT
BRANCH   1   2
ATOM      2  C   UNL     1      -7.850 -51.404   1.610  1.00  0.00     0.006 C 
BRANCH   2   3
ATOM      3  C   UNL     1      -8.515 -51.742   2.950  1.00  0.00     0.053 C 
BRANCH   3   4
ATOM      4  C   UNL     1      -8.440 -50.596   3.913  1.00  0.00     0.041 C 
ATOM      5  O   UNL     1      -7.735 -50.686   4.952  1.00  0.00    -0.550 OA
ATOM      6  O   UNL     1      -9.125 -49.417   3.645  1.00  0.00    -0.550 OA
ENDBRANCH   3   4
ENDBRANCH   2   3
ENDBRANCH   1   2
BRANCH   1   7
ATOM      7  C   UNL     1      -5.704 -51.388   0.270  1.00  0.00     0.000 C 
BRANCH   7   8
ATOM      8  C   UNL     1      -4.238 -51.831   0.227  1.00  0.00     0.004 C 
BRANCH   8   9
ATOM      9  C   UNL     1      -3.308 -50.704   0.690  1.00  0.00     0.027 C 
BRANCH   9  10
ATOM     10  C   UNL     1      -1.878 -51.165   0.748  1.00  0.00    -0.035 C 
ATOM     11  C   UNL     1      -1.248 -51.638  -0.332  1.00  0.00     0.004 C 
ENDBRANCH   9  10
ENDBRANCH   8   9
ENDBRANCH   7   8
ENDBRANCH   1   7
TORSDOF 7
ENDMDL
MODEL 4
REMARK VINA RESULT:    -3.243      2.100      3.800
REMARK INTER + INTRA:          -5.142
REMARK INTER:                  -4.890
REMARK INTRA:                  -0.253
REMARK UNBOUND:                -0.572
REMARK SMILES C=CCCCCCCC(=O)[O-]
REMARK SMILES IDX 6 1 7 2 8 3 9 4 10 5 11 6 5 7 4 8 3 9 2 10 1 11
REMARK H PARENT
REMARK Flexibility Score: inf
ROOT
ATOM      1  C   UNL     1      -4.089 -51.707   0.277  1.00  0.00     0.000 C 
ENDROOT
BRANCH   1   2
ATOM      2  C   UNL     1      -3.083 -50.618   0.679  1.00  0.00     0.006 C 
BRANCH   2   3
ATOM      3  C   UNL     1      -1.766 -51.208   1.199  1.00  0.00     0.053 C 
BRANCH   3   4
ATOM      4  C   UNL     1      -1.766 -51.342   2.692  1.00  0.00     0.041 C 
ATOM      5  O   UNL     1      -2.853 -51.435   3.319  1.00  0.00    -0.550 OA
ATOM      6  O   UNL     1      -0.563 -51.396   3.385  1.00  0.00    -0.550 OA
ENDBRANCH   3   4
ENDBRANCH   2   3
ENDBRANCH   1   2
BRANCH   1   7
ATOM      7  C   UNL     1      -5.436 -51.091  -0.120  1.00  0.00     0.000 C 
BRANCH   7   8
ATOM      8  C   UNL     1      -6.604 -51.942   0.391  1.00  0.00     0.004 C 
BRANCH   8   9
ATOM      9  C   UNL     1      -6.636 -51.967   1.924  1.00  0.00     0.027 C 
BRANCH   9  10
ATOM     10  C   UNL     1      -7.972 -51.519   2.448  1.00  0.00    -0.035 C 
ATOM     11  C   UNL     1      -8.781 -50.732   1.732  1.00  0.00     0.004 C 
ENDBRANCH   9  10
ENDBRANCH   8   9
ENDBRANCH   7   8
ENDBRANCH   1   7
TORSDOF 7
ENDMDL
MODEL 5
REMARK VINA RESULT:    -3.176      1.406      2.505
REMARK INTER + INTRA:          -5.049
REMARK INTER:                  -4.777
REMARK INTRA:                  -0.272
REMARK UNBOUND:                -0.572
REMARK SMILES C=CCCCCCCC(=O)[O-]
REMARK SMILES IDX 6 1 7 2 8 3 9 4 10 5 11 6 5 7 4 8 3 9 2 10 1 11
REMARK H PARENT
REMARK Flexibility Score: inf
ROOT
ATOM      1  C   UNL     1      -1.426 -51.965   4.625  1.00  0.00     0.000 C 
ENDROOT
BRANCH   1   2
ATOM      2  C   UNL     1      -1.633 -51.910   6.146  1.00  0.00     0.006 C 
BRANCH   2   3
ATOM      3  C   UNL     1      -2.811 -51.010   6.540  1.00  0.00     0.053 C 
BRANCH   3   4
ATOM      4  C   UNL     1      -3.077 -51.053   8.014  1.00  0.00     0.041 C 
ATOM      5  O   UNL     1      -4.142 -50.572   8.480  1.00  0.00    -0.550 OA
ATOM      6  O   UNL     1      -2.161 -51.656   8.868  1.00  0.00    -0.550 OA
ENDBRANCH   3   4
ENDBRANCH   2   3
ENDBRANCH   1   2
BRANCH   1   7
ATOM      7  C   UNL     1      -2.753 -51.772   3.882  1.00  0.00     0.000 C 
BRANCH   7   8
ATOM      8  C   UNL     1      -2.586 -52.028   2.380  1.00  0.00     0.004 C 
BRANCH   8   9
ATOM      9  C   UNL     1      -2.265 -50.729   1.632  1.00  0.00     0.027 C 
BRANCH   9  10
ATOM     10  C   UNL     1      -3.106 -50.589   0.394  1.00  0.00    -0.035 C 
ATOM     11  C   UNL     1      -4.340 -51.099   0.322  1.00  0.00     0.004 C 
ENDBRANCH   9  10
ENDBRANCH   8   9
ENDBRANCH   7   8
ENDBRANCH   1   7
TORSDOF 7
ENDMDL
MODEL 6
REMARK VINA RESULT:    -3.120      3.207      4.988
REMARK INTER + INTRA:          -4.969
REMARK INTER:                  -4.705
REMARK INTRA:                  -0.263
REMARK UNBOUND:                -0.572
REMARK SMILES C=CCCCCCCC(=O)[O-]
REMARK SMILES IDX 6 1 7 2 8 3 9 4 10 5 11 6 5 7 4 8 3 9 2 10 1 11
REMARK H PARENT
REMARK Flexibility Score: inf
ROOT
ATOM      1  C   UNL     1      -4.948 -51.358   0.423  1.00  0.00     0.000 C 
ENDROOT
BRANCH   1   2
ATOM      2  C   UNL     1      -3.546 -51.316   1.048  1.00  0.00     0.006 C 
BRANCH   2   3
ATOM      3  C   UNL     1      -2.466 -50.933   0.029  1.00  0.00     0.053 C 
BRANCH   3   4
ATOM      4  C   UNL     1      -1.129 -51.503   0.394  1.00  0.00     0.041 C 
ATOM      5  O   UNL     1      -0.224 -51.602  -0.476  1.00  0.00    -0.550 OA
ATOM      6  O   UNL     1      -0.873 -51.893   1.703  1.00  0.00    -0.550 OA
ENDBRANCH   3   4
ENDBRANCH   2   3
ENDBRANCH   1   2
BRANCH   1   7
ATOM      7  C   UNL     1      -5.971 -51.947   1.403  1.00  0.00     0.000 C 
BRANCH   7   8
ATOM      8  C   UNL     1      -7.403 -51.723   0.906  1.00  0.00     0.004 C 
BRANCH   8   9
ATOM      9  C   UNL     1      -8.394 -51.700   2.075  1.00  0.00     0.027 C 
BRANCH   9  10
ATOM     10  C   UNL     1      -7.700 -51.394   3.373  1.00  0.00    -0.035 C 
ATOM     11  C   UNL     1      -8.217 -50.541   4.264  1.00  0.00     0.004 C 
ENDBRANCH   9  10
ENDBRANCH   8   9
ENDBRANCH   7   8
ENDBRANCH   1   7
TORSDOF 7
ENDMDL
MODEL 7
REMARK VINA RESULT:    -2.892      3.249      5.740
REMARK INTER + INTRA:          -4.647
REMARK INTER:                  -4.393
REMARK INTRA:                  -0.255
REMARK UNBOUND:                -0.572
REMARK SMILES C=CCCCCCCC(=O)[O-]
REMARK SMILES IDX 6 1 7 2 8 3 9 4 10 5 11 6 5 7 4 8 3 9 2 10 1 11
REMARK H PARENT
REMARK Flexibility Score: inf
ROOT
ATOM      1  C   UNL     1      -1.627 -51.985   4.451  1.00  0.00     0.000 C 
ENDROOT
BRANCH   1   2
ATOM      2  C   UNL     1      -1.241 -52.057   2.967  1.00  0.00     0.006 C 
BRANCH   2   3
ATOM      3  C   UNL     1      -1.898 -50.943   2.141  1.00  0.00     0.053 C 
BRANCH   3   4
ATOM      4  C   UNL     1      -1.737 -51.173   0.669  1.00  0.00     0.041 C 
ATOM      5  O   UNL     1      -2.727 -51.065  -0.101  1.00  0.00    -0.550 OA
ATOM      6  O   UNL     1      -0.486 -51.475   0.145  1.00  0.00    -0.550 OA
ENDBRANCH   3   4
ENDBRANCH   2   3
ENDBRANCH   1   2
BRANCH   1   7
ATOM      7  C   UNL     1      -3.131 -51.733   4.617  1.00  0.00     0.000 C 
BRANCH   7   8
ATOM      8  C   UNL     1      -3.577 -51.989   6.061  1.00  0.00     0.004 C 
BRANCH   8   9
ATOM      9  C   UNL     1      -2.796 -51.108   7.043  1.00  0.00     0.027 C 
BRANCH   9  10
ATOM     10  C   UNL     1      -3.587 -50.854   8.296  1.00  0.00    -0.035 C 
ATOM     11  C   UNL     1      -4.242 -51.835   8.925  1.00  0.00     0.004 C 
ENDBRANCH   9  10
ENDBRANCH   8   9
ENDBRANCH   7   8
ENDBRANCH   1   7
TORSDOF 7
ENDMDL
MODEL 8
REMARK VINA RESULT:    -2.773      3.004      5.222
REMARK INTER + INTRA:          -4.480
REMARK INTER:                  -4.156
REMARK INTRA:                  -0.325
REMARK UNBOUND:                -0.572
REMARK SMILES C=CCCCCCCC(=O)[O-]
REMARK SMILES IDX 6 1 7 2 8 3 9 4 10 5 11 6 5 7 4 8 3 9 2 10 1 11
REMARK H PARENT
REMARK Flexibility Score: inf
ROOT
ATOM      1  C   UNL     1      -1.992 -50.663   1.904  1.00  0.00     0.000 C 
ENDROOT
BRANCH   1   2
ATOM      2  C   UNL     1      -2.860 -50.622   0.638  1.00  0.00     0.006 C 
BRANCH   2   3
ATOM      3  C   UNL     1      -3.551 -51.963   0.362  1.00  0.00     0.053 C 
BRANCH   3   4
ATOM      4  C   UNL     1      -5.043 -51.848   0.440  1.00  0.00     0.041 C 
ATOM      5  O   UNL     1      -5.736 -51.867  -0.611  1.00  0.00    -0.550 OA
ATOM      6  O   UNL     1      -5.669 -51.753   1.677  1.00  0.00    -0.550 OA
ENDBRANCH   3   4
ENDBRANCH   2   3
ENDBRANCH   1   2
BRANCH   1   7
ATOM      7  C   UNL     1      -1.920 -52.085   2.475  1.00  0.00     0.000 C 
BRANCH   7   8
ATOM      8  C   UNL     1      -1.251 -52.092   3.854  1.00  0.00     0.004 C 
BRANCH   8   9
ATOM      9  C   UNL     1      -2.289 -51.922   4.969  1.00  0.00     0.027 C 
BRANCH   9  10
ATOM     10  C   UNL     1      -1.657 -51.386   6.224  1.00  0.00    -0.035 C 
ATOM     11  C   UNL     1      -2.387 -51.070   7.299  1.00  0.00     0.004 C 
ENDBRANCH   9  10
ENDBRANCH   8   9
ENDBRANCH   7   8
ENDBRANCH   1   7
TORSDOF 7
ENDMDL
MODEL 9
REMARK VINA RESULT:    -2.616      2.925      4.760
REMARK INTER + INTRA:          -4.259
REMARK INTER:                  -4.048
REMARK INTRA:                  -0.211
REMARK UNBOUND:                -0.572
REMARK SMILES C=CCCCCCCC(=O)[O-]
REMARK SMILES IDX 6 1 7 2 8 3 9 4 10 5 11 6 5 7 4 8 3 9 2 10 1 11
REMARK H PARENT
REMARK Flexibility Score: inf
ROOT
ATOM      1  C   UNL     1      -3.815 -51.057   0.049  1.00  0.00     0.000 C 
ENDROOT
BRANCH   1   2
ATOM      2  C   UNL     1      -4.750 -52.000   0.820  1.00  0.00     0.006 C 
BRANCH   2   3
ATOM      3  C   UNL     1      -6.222 -51.587   0.697  1.00  0.00     0.053 C 
BRANCH   3   4
ATOM      4  C   UNL     1      -6.958 -51.756   1.991  1.00  0.00     0.041 C 
ATOM      5  O   UNL     1      -8.214 -51.845   1.999  1.00  0.00    -0.550 OA
ATOM      6  O   UNL     1      -6.253 -51.848   3.185  1.00  0.00    -0.550 OA
ENDBRANCH   3   4
ENDBRANCH   2   3
ENDBRANCH   1   2
BRANCH   1   7
ATOM      7  C   UNL     1      -2.916 -50.268   1.009  1.00  0.00     0.000 C 
BRANCH   7   8
ATOM      8  C   UNL     1      -1.828 -51.165   1.609  1.00  0.00     0.004 C 
BRANCH   8   9
ATOM      9  C   UNL     1      -1.263 -52.125   0.555  1.00  0.00     0.027 C 
BRANCH   9  10
ATOM     10  C   UNL     1      -0.455 -51.388  -0.477  1.00  0.00    -0.035 C 
ATOM     11  C   UNL     1      -0.220 -51.906  -1.687  1.00  0.00     0.004 C 
ENDBRANCH   9  10
ENDBRANCH   8   9
ENDBRANCH   7   8
ENDBRANCH   1   7
TORSDOF 7
ENDMDL
