MODEL 1
REMARK VINA RESULT:    -4.575      0.000      0.000
REMARK INTER + INTRA:          -9.971
REMARK INTER:                  -8.319
REMARK INTRA:                  -1.651
REMARK UNBOUND:                -1.651
REMARK SMILES CCCCCCCCCCCCCCCC(=O)[O-]
REMARK SMILES IDX 9 1 10 2 11 3 12 4 13 5 14 6 15 7 16 8 17 9 18 10 8 11 7 12
REMARK SMILES IDX 6 13 5 14 4 15 3 16 2 17 1 18
REMARK H PARENT
REMARK Flexibility Score: inf
ROOT
ATOM      1  C   UNL     1      25.704 -31.391  22.453  1.00  0.00     0.000 C 
ENDROOT
BRANCH   1   2
ATOM      2  C   UNL     1      25.321 -31.536  23.934  1.00  0.00     0.000 C 
BRANCH   2   3
ATOM      3  C   UNL     1      23.866 -31.998  24.082  1.00  0.00     0.000 C 
BRANCH   3   4
ATOM      4  C   UNL     1      23.502 -32.201  25.561  1.00  0.00     0.000 C 
BRANCH   4   5
ATOM      5  C   UNL     1      23.905 -31.005  26.438  1.00  0.00     0.000 C 
BRANCH   5   6
ATOM      6  C   UNL     1      23.039 -29.760  26.176  1.00  0.00     0.006 C 
BRANCH   6   7
ATOM      7  C   UNL     1      23.827 -28.457  26.364  1.00  0.00     0.053 C 
BRANCH   7   8
ATOM      8  C   UNL     1      23.816 -28.002  27.792  1.00  0.00     0.041 C 
ATOM      9  O   UNL     1      22.838 -27.349  28.240  1.00  0.00    -0.550 OA
ATOM     10  O   UNL     1      24.869 -28.332  28.636  1.00  0.00    -0.550 OA
ENDBRANCH   7   8
ENDBRANCH   6   7
ENDBRANCH   5   6
ENDBRANCH   4   5
ENDBRANCH   3   4
ENDBRANCH   2   3
ENDBRANCH   1   2
BRANCH   1  11
ATOM     11  C   UNL     1      26.095 -32.731  21.808  1.00  0.00     0.000 C 
BRANCH  11  12
ATOM     12  C   UNL     1      25.260 -33.054  20.560  1.00  0.00    -0.000 C 
BRANCH  12  13
ATOM     13  C   UNL     1      24.065 -33.952  20.917  1.00  0.00    -0.000 C 
BRANCH  13  14
ATOM     14  C   UNL     1      24.494 -35.361  21.358  1.00  0.00    -0.000 C 
BRANCH  14  15
ATOM     15  C   UNL     1      23.957 -35.738  22.750  1.00  0.00    -0.000 C 
BRANCH  15  16
ATOM     16  C   UNL     1      24.982 -35.452  23.867  1.00  0.00    -0.000 C 
BRANCH  16  17
ATOM     17  C   UNL     1      26.405 -35.934  23.536  1.00  0.00    -0.003 C 
ATOM     18  C   UNL     1      26.913 -37.007  24.496  1.00  0.00     0.004 C 
ENDBRANCH  16  17
ENDBRANCH  15  16
ENDBRANCH  14  15
ENDBRANCH  13  14
ENDBRANCH  12  13
ENDBRANCH  11  12
ENDBRANCH   1  11
TORSDOF 14
ENDMDL
MODEL 2
REMARK VINA RESULT:    -4.430      1.899      2.923
REMARK INTER + INTRA:          -9.707
REMARK INTER:                  -7.675
REMARK INTRA:                  -2.033
REMARK UNBOUND:                -1.651
REMARK SMILES CCCCCCCCCCCCCCCC(=O)[O-]
REMARK SMILES IDX 9 1 10 2 11 3 12 4 13 5 14 6 15 7 16 8 17 9 18 10 8 11 7 12
REMARK SMILES IDX 6 13 5 14 4 15 3 16 2 17 1 18
REMARK H PARENT
REMARK Flexibility Score: inf
ROOT
ATOM      1  C   UNL     1      25.419 -33.282  20.520  1.00  0.00     0.000 C 
ENDROOT
BRANCH   1   2
ATOM      2  C   UNL     1      26.391 -32.555  21.463  1.00  0.00     0.000 C 
BRANCH   2   3
ATOM      3  C   UNL     1      25.797 -32.429  22.871  1.00  0.00     0.000 C 
BRANCH   3   4
ATOM      4  C   UNL     1      25.480 -30.963  23.205  1.00  0.00     0.000 C 
BRANCH   4   5
ATOM      5  C   UNL     1      24.641 -30.816  24.483  1.00  0.00     0.000 C 
BRANCH   5   6
ATOM      6  C   UNL     1      23.415 -31.748  24.498  1.00  0.00     0.006 C 
BRANCH   6   7
ATOM      7  C   UNL     1      23.040 -32.188  25.919  1.00  0.00     0.053 C 
BRANCH   7   8
ATOM      8  C   UNL     1      21.928 -31.356  26.483  1.00  0.00     0.041 C 
ATOM      9  O   UNL     1      20.754 -31.808  26.516  1.00  0.00    -0.550 OA
ATOM     10  O   UNL     1      22.198 -30.098  27.006  1.00  0.00    -0.550 OA
ENDBRANCH   7   8
ENDBRANCH   6   7
ENDBRANCH   5   6
ENDBRANCH   4   5
ENDBRANCH   3   4
ENDBRANCH   2   3
ENDBRANCH   1   2
BRANCH   1  11
ATOM     11  C   UNL     1      24.050 -33.545  21.168  1.00  0.00     0.000 C 
BRANCH  11  12
ATOM     12  C   UNL     1      23.282 -34.688  20.486  1.00  0.00    -0.000 C 
BRANCH  12  13
ATOM     13  C   UNL     1      24.048 -36.015  20.612  1.00  0.00    -0.000 C 
BRANCH  13  14
ATOM     14  C   UNL     1      24.022 -36.580  22.040  1.00  0.00    -0.000 C 
BRANCH  14  15
ATOM     15  C   UNL     1      25.430 -36.765  22.633  1.00  0.00    -0.000 C 
BRANCH  15  16
ATOM     16  C   UNL     1      25.654 -35.892  23.886  1.00  0.00    -0.000 C 
BRANCH  16  17
ATOM     17  C   UNL     1      24.351 -35.370  24.513  1.00  0.00    -0.003 C 
ATOM     18  C   UNL     1      23.858 -36.229  25.676  1.00  0.00     0.004 C 
ENDBRANCH  16  17
ENDBRANCH  15  16
ENDBRANCH  14  15
ENDBRANCH  13  14
ENDBRANCH  12  13
ENDBRANCH  11  12
ENDBRANCH   1  11
TORSDOF 14
ENDMDL
MODEL 3
REMARK VINA RESULT:    -4.419      0.980      1.624
REMARK INTER + INTRA:          -9.688
REMARK INTER:                  -8.160
REMARK INTRA:                  -1.528
REMARK UNBOUND:                -1.651
REMARK SMILES CCCCCCCCCCCCCCCC(=O)[O-]
REMARK SMILES IDX 9 1 10 2 11 3 12 4 13 5 14 6 15 7 16 8 17 9 18 10 8 11 7 12
REMARK SMILES IDX 6 13 5 14 4 15 3 16 2 17 1 18
REMARK H PARENT
REMARK Flexibility Score: inf
ROOT
ATOM      1  C   UNL     1      25.461 -32.386  21.153  1.00  0.00     0.000 C 
ENDROOT
BRANCH   1   2
ATOM      2  C   UNL     1      26.007 -32.563  22.578  1.00  0.00     0.000 C 
BRANCH   2   3
ATOM      3  C   UNL     1      25.567 -31.404  23.482  1.00  0.00     0.000 C 
BRANCH   3   4
ATOM      4  C   UNL     1      24.190 -31.683  24.102  1.00  0.00     0.000 C 
BRANCH   4   5
ATOM      5  C   UNL     1      24.107 -31.255  25.576  1.00  0.00     0.000 C 
BRANCH   5   6
ATOM      6  C   UNL     1      23.106 -30.108  25.805  1.00  0.00     0.006 C 
BRANCH   6   7
ATOM      7  C   UNL     1      23.803 -28.748  25.933  1.00  0.00     0.053 C 
BRANCH   7   8
ATOM      8  C   UNL     1      23.915 -28.313  27.363  1.00  0.00     0.041 C 
ATOM      9  O   UNL     1      23.432 -27.210  27.728  1.00  0.00    -0.550 OA
ATOM     10  O   UNL     1      24.520 -29.144  28.297  1.00  0.00    -0.550 OA
ENDBRANCH   7   8
ENDBRANCH   6   7
ENDBRANCH   5   6
ENDBRANCH   4   5
ENDBRANCH   3   4
ENDBRANCH   2   3
ENDBRANCH   1   2
BRANCH   1  11
ATOM     11  C   UNL     1      25.060 -33.719  20.502  1.00  0.00     0.000 C 
BRANCH  11  12
ATOM     12  C   UNL     1      23.588 -34.083  20.753  1.00  0.00    -0.000 C 
BRANCH  12  13
ATOM     13  C   UNL     1      23.349 -35.584  20.527  1.00  0.00    -0.000 C 
BRANCH  13  14
ATOM     14  C   UNL     1      23.365 -36.390  21.836  1.00  0.00    -0.000 C 
BRANCH  14  15
ATOM     15  C   UNL     1      24.759 -36.947  22.173  1.00  0.00    -0.000 C 
BRANCH  15  16
ATOM     16  C   UNL     1      25.431 -36.176  23.329  1.00  0.00    -0.000 C 
BRANCH  16  17
ATOM     17  C   UNL     1      24.443 -35.363  24.182  1.00  0.00    -0.003 C 
ATOM     18  C   UNL     1      24.032 -36.077  25.468  1.00  0.00     0.004 C 
ENDBRANCH  16  17
ENDBRANCH  15  16
ENDBRANCH  14  15
ENDBRANCH  13  14
ENDBRANCH  12  13
ENDBRANCH  11  12
ENDBRANCH   1  11
TORSDOF 14
ENDMDL
MODEL 4
REMARK VINA RESULT:    -4.332      3.853      7.676
REMARK INTER + INTRA:          -9.530
REMARK INTER:                  -7.939
REMARK INTRA:                  -1.591
REMARK UNBOUND:                -1.651
REMARK SMILES CCCCCCCCCCCCCCCC(=O)[O-]
REMARK SMILES IDX 9 1 10 2 11 3 12 4 13 5 14 6 15 7 16 8 17 9 18 10 8 11 7 12
REMARK SMILES IDX 6 13 5 14 4 15 3 16 2 17 1 18
REMARK H PARENT
REMARK Flexibility Score: inf
ROOT
ATOM      1  C   UNL     1      24.107 -29.910  24.748  1.00  0.00     0.000 C 
ENDROOT
BRANCH   1   2
ATOM      2  C   UNL     1      25.107 -30.090  23.596  1.00  0.00     0.000 C 
BRANCH   2   3
ATOM      3  C   UNL     1      25.647 -31.526  23.559  1.00  0.00     0.000 C 
BRANCH   3   4
ATOM      4  C   UNL     1      25.564 -32.107  22.139  1.00  0.00     0.000 C 
BRANCH   4   5
ATOM      5  C   UNL     1      26.462 -33.339  21.951  1.00  0.00     0.000 C 
BRANCH   5   6
ATOM      6  C   UNL     1      25.989 -34.549  22.777  1.00  0.00     0.006 C 
BRANCH   6   7
ATOM      7  C   UNL     1      24.484 -34.805  22.619  1.00  0.00     0.053 C 
BRANCH   7   8
ATOM      8  C   UNL     1      24.163 -35.431  21.295  1.00  0.00     0.041 C 
ATOM      9  O   UNL     1      24.270 -36.675  21.141  1.00  0.00    -0.550 OA
ATOM     10  O   UNL     1      23.709 -34.643  20.245  1.00  0.00    -0.550 OA
ENDBRANCH   7   8
ENDBRANCH   6   7
ENDBRANCH   5   6
ENDBRANCH   4   5
ENDBRANCH   3   4
ENDBRANCH   2   3
ENDBRANCH   1   2
BRANCH   1  11
ATOM     11  C   UNL     1      23.260 -31.168  25.001  1.00  0.00     0.000 C 
BRANCH  11  12
ATOM     12  C   UNL     1      23.263 -31.598  26.476  1.00  0.00    -0.000 C 
BRANCH  12  13
ATOM     13  C   UNL     1      24.452 -30.976  27.226  1.00  0.00    -0.000 C 
BRANCH  13  14
ATOM     14  C   UNL     1      24.188 -30.825  28.732  1.00  0.00    -0.000 C 
BRANCH  14  15
ATOM     15  C   UNL     1      24.295 -29.367  29.212  1.00  0.00    -0.000 C 
BRANCH  15  16
ATOM     16  C   UNL     1      24.173 -28.360  28.049  1.00  0.00    -0.000 C 
BRANCH  16  17
ATOM     17  C   UNL     1      22.848 -27.580  28.047  1.00  0.00    -0.003 C 
ATOM     18  C   UNL     1      21.772 -28.228  27.177  1.00  0.00     0.004 C 
ENDBRANCH  16  17
ENDBRANCH  15  16
ENDBRANCH  14  15
ENDBRANCH  13  14
ENDBRANCH  12  13
ENDBRANCH  11  12
ENDBRANCH   1  11
TORSDOF 14
ENDMDL
MODEL 5
REMARK VINA RESULT:    -4.322      3.301      7.223
REMARK INTER + INTRA:          -9.511
REMARK INTER:                  -8.228
REMARK INTRA:                  -1.283
REMARK UNBOUND:                -1.651
REMARK SMILES CCCCCCCCCCCCCCCC(=O)[O-]
REMARK SMILES IDX 9 1 10 2 11 3 12 4 13 5 14 6 15 7 16 8 17 9 18 10 8 11 7 12
REMARK SMILES IDX 6 13 5 14 4 15 3 16 2 17 1 18
REMARK H PARENT
REMARK Flexibility Score: inf
ROOT
ATOM      1  C   UNL     1      25.586 -32.302  22.870  1.00  0.00     0.000 C 
ENDROOT
BRANCH   1   2
ATOM      2  C   UNL     1      26.370 -32.694  21.608  1.00  0.00     0.000 C 
BRANCH   2   3
ATOM      3  C   UNL     1      25.427 -33.218  20.518  1.00  0.00     0.000 C 
BRANCH   3   4
ATOM      4  C   UNL     1      24.076 -33.640  21.116  1.00  0.00     0.000 C 
BRANCH   4   5
ATOM      5  C   UNL     1      23.647 -35.047  20.672  1.00  0.00     0.000 C 
BRANCH   5   6
ATOM      6  C   UNL     1      24.156 -36.149  21.618  1.00  0.00     0.006 C 
BRANCH   6   7
ATOM      7  C   UNL     1      24.186 -35.687  23.081  1.00  0.00     0.053 C 
BRANCH   7   8
ATOM      8  C   UNL     1      25.494 -36.008  23.738  1.00  0.00     0.041 C 
ATOM      9  O   UNL     1      26.576 -35.789  23.134  1.00  0.00    -0.550 OA
ATOM     10  O   UNL     1      25.517 -36.514  25.032  1.00  0.00    -0.550 OA
ENDBRANCH   7   8
ENDBRANCH   6   7
ENDBRANCH   5   6
ENDBRANCH   4   5
ENDBRANCH   3   4
ENDBRANCH   2   3
ENDBRANCH   1   2
BRANCH   1  11
ATOM     11  C   UNL     1      25.641 -30.793  23.157  1.00  0.00     0.000 C 
BRANCH  11  12
ATOM     12  C   UNL     1      24.513 -30.326  24.090  1.00  0.00    -0.000 C 
BRANCH  12  13
ATOM     13  C   UNL     1      24.374 -31.268  25.296  1.00  0.00    -0.000 C 
BRANCH  13  14
ATOM     14  C   UNL     1      23.346 -30.768  26.323  1.00  0.00    -0.000 C 
BRANCH  14  15
ATOM     15  C   UNL     1      23.058 -29.262  26.191  1.00  0.00    -0.000 C 
BRANCH  15  16
ATOM     16  C   UNL     1      23.957 -28.413  27.115  1.00  0.00    -0.000 C 
BRANCH  16  17
ATOM     17  C   UNL     1      23.170 -27.488  28.058  1.00  0.00    -0.003 C 
ATOM     18  C   UNL     1      21.749 -27.977  28.330  1.00  0.00     0.004 C 
ENDBRANCH  16  17
ENDBRANCH  15  16
ENDBRANCH  14  15
ENDBRANCH  13  14
ENDBRANCH  12  13
ENDBRANCH  11  12
ENDBRANCH   1  11
TORSDOF 14
ENDMDL
MODEL 6
REMARK VINA RESULT:    -4.276      1.933      3.992
REMARK INTER + INTRA:          -9.426
REMARK INTER:                  -7.853
REMARK INTRA:                  -1.573
REMARK UNBOUND:                -1.651
REMARK SMILES CCCCCCCCCCCCCCCC(=O)[O-]
REMARK SMILES IDX 9 1 10 2 11 3 12 4 13 5 14 6 15 7 16 8 17 9 18 10 8 11 7 12
REMARK SMILES IDX 6 13 5 14 4 15 3 16 2 17 1 18
REMARK H PARENT
REMARK Flexibility Score: inf
ROOT
ATOM      1  C   UNL     1      23.922 -35.173  20.989  1.00  0.00     0.000 C 
ENDROOT
BRANCH   1   2
ATOM      2  C   UNL     1      24.023 -33.646  21.117  1.00  0.00     0.000 C 
BRANCH   2   3
ATOM      3  C   UNL     1      25.307 -33.125  20.459  1.00  0.00     0.000 C 
BRANCH   3   4
ATOM      4  C   UNL     1      26.397 -32.865  21.510  1.00  0.00     0.000 C 
BRANCH   4   5
ATOM      5  C   UNL     1      25.821 -32.660  22.920  1.00  0.00     0.000 C 
BRANCH   5   6
ATOM      6  C   UNL     1      25.445 -31.193  23.199  1.00  0.00     0.006 C 
BRANCH   6   7
ATOM      7  C   UNL     1      24.249 -31.073  24.152  1.00  0.00     0.053 C 
BRANCH   7   8
ATOM      8  C   UNL     1      24.178 -29.717  24.786  1.00  0.00     0.041 C 
ATOM      9  O   UNL     1      23.782 -29.593  25.974  1.00  0.00    -0.550 OA
ATOM     10  O   UNL     1      24.583 -28.594  24.074  1.00  0.00    -0.550 OA
ENDBRANCH   7   8
ENDBRANCH   6   7
ENDBRANCH   5   6
ENDBRANCH   4   5
ENDBRANCH   3   4
ENDBRANCH   2   3
ENDBRANCH   1   2
BRANCH   1  11
ATOM     11  C   UNL     1      24.026 -35.890  22.345  1.00  0.00     0.000 C 
BRANCH  11  12
ATOM     12  C   UNL     1      25.239 -36.830  22.427  1.00  0.00    -0.000 C 
BRANCH  12  13
ATOM     13  C   UNL     1      26.396 -36.165  23.190  1.00  0.00    -0.000 C 
BRANCH  13  14
ATOM     14  C   UNL     1      26.902 -37.022  24.361  1.00  0.00    -0.000 C 
BRANCH  14  15
ATOM     15  C   UNL     1      26.255 -38.417  24.401  1.00  0.00    -0.000 C 
BRANCH  15  16
ATOM     16  C   UNL     1      25.324 -38.594  25.619  1.00  0.00    -0.000 C 
BRANCH  16  17
ATOM     17  C   UNL     1      25.071 -37.290  26.394  1.00  0.00    -0.003 C 
ATOM     18  C   UNL     1      23.605 -36.862  26.384  1.00  0.00     0.004 C 
ENDBRANCH  16  17
ENDBRANCH  15  16
ENDBRANCH  14  15
ENDBRANCH  13  14
ENDBRANCH  12  13
ENDBRANCH  11  12
ENDBRANCH   1  11
TORSDOF 14
ENDMDL
MODEL 7
REMARK VINA RESULT:    -4.267      2.245      3.938
REMARK INTER + INTRA:          -9.410
REMARK INTER:                  -7.999
REMARK INTRA:                  -1.410
REMARK UNBOUND:                -1.651
REMARK SMILES CCCCCCCCCCCCCCCC(=O)[O-]
REMARK SMILES IDX 9 1 10 2 11 3 12 4 13 5 14 6 15 7 16 8 17 9 18 10 8 11 7 12
REMARK SMILES IDX 6 13 5 14 4 15 3 16 2 17 1 18
REMARK H PARENT
REMARK Flexibility Score: inf
ROOT
ATOM      1  C   UNL     1      22.957 -31.390  25.522  1.00  0.00     0.000 C 
ENDROOT
BRANCH   1   2
ATOM      2  C   UNL     1      23.016 -31.482  27.055  1.00  0.00     0.000 C 
BRANCH   2   3
ATOM      3  C   UNL     1      24.280 -30.801  27.595  1.00  0.00     0.000 C 
BRANCH   3   4
ATOM      4  C   UNL     1      23.920 -29.675  28.577  1.00  0.00     0.000 C 
BRANCH   4   5
ATOM      5  C   UNL     1      24.096 -28.277  27.964  1.00  0.00     0.000 C 
BRANCH   5   6
ATOM      6  C   UNL     1      22.880 -27.366  28.207  1.00  0.00     0.006 C 
BRANCH   6   7
ATOM      7  C   UNL     1      21.604 -28.168  28.495  1.00  0.00     0.053 C 
BRANCH   7   8
ATOM      8  C   UNL     1      20.606 -28.043  27.385  1.00  0.00     0.041 C 
ATOM      9  O   UNL     1      19.764 -27.108  27.393  1.00  0.00    -0.550 OA
ATOM     10  O   UNL     1      20.630 -28.939  26.323  1.00  0.00    -0.550 OA
ENDBRANCH   7   8
ENDBRANCH   6   7
ENDBRANCH   5   6
ENDBRANCH   4   5
ENDBRANCH   3   4
ENDBRANCH   2   3
ENDBRANCH   1   2
BRANCH   1  11
ATOM     11  C   UNL     1      23.873 -30.294  24.957  1.00  0.00     0.000 C 
BRANCH  11  12
ATOM     12  C   UNL     1      24.573 -30.717  23.657  1.00  0.00    -0.000 C 
BRANCH  12  13
ATOM     13  C   UNL     1      25.720 -31.699  23.947  1.00  0.00    -0.000 C 
BRANCH  13  14
ATOM     14  C   UNL     1      25.666 -32.952  23.058  1.00  0.00    -0.000 C 
BRANCH  14  15
ATOM     15  C   UNL     1      26.427 -32.775  21.733  1.00  0.00    -0.000 C 
BRANCH  15  16
ATOM     16  C   UNL     1      25.503 -32.922  20.506  1.00  0.00    -0.000 C 
BRANCH  16  17
ATOM     17  C   UNL     1      24.134 -33.541  20.837  1.00  0.00    -0.003 C 
ATOM     18  C   UNL     1      24.041 -35.021  20.472  1.00  0.00     0.004 C 
ENDBRANCH  16  17
ENDBRANCH  15  16
ENDBRANCH  14  15
ENDBRANCH  13  14
ENDBRANCH  12  13
ENDBRANCH  11  12
ENDBRANCH   1  11
TORSDOF 14
ENDMDL
MODEL 8
REMARK VINA RESULT:    -4.254      1.944      3.998
REMARK INTER + INTRA:          -9.387
REMARK INTER:                  -7.591
REMARK INTRA:                  -1.796
REMARK UNBOUND:                -1.651
REMARK SMILES CCCCCCCCCCCCCCCC(=O)[O-]
REMARK SMILES IDX 9 1 10 2 11 3 12 4 13 5 14 6 15 7 16 8 17 9 18 10 8 11 7 12
REMARK SMILES IDX 6 13 5 14 4 15 3 16 2 17 1 18
REMARK H PARENT
REMARK Flexibility Score: inf
ROOT
ATOM      1  C   UNL     1      23.708 -35.157  20.671  1.00  0.00     0.000 C 
ENDROOT
BRANCH   1   2
ATOM      2  C   UNL     1      23.977 -33.661  20.898  1.00  0.00     0.000 C 
BRANCH   2   3
ATOM      3  C   UNL     1      25.404 -33.290  20.473  1.00  0.00     0.000 C 
BRANCH   3   4
ATOM      4  C   UNL     1      26.233 -32.825  21.680  1.00  0.00     0.000 C 
BRANCH   4   5
ATOM      5  C   UNL     1      25.647 -31.574  22.353  1.00  0.00     0.000 C 
BRANCH   5   6
ATOM      6  C   UNL     1      25.581 -31.702  23.886  1.00  0.00     0.006 C 
BRANCH   6   7
ATOM      7  C   UNL     1      24.137 -31.733  24.403  1.00  0.00     0.053 C 
BRANCH   7   8
ATOM      8  C   UNL     1      23.728 -30.417  24.990  1.00  0.00     0.041 C 
ATOM      9  O   UNL     1      22.789 -30.361  25.825  1.00  0.00    -0.550 OA
ATOM     10  O   UNL     1      24.411 -29.258  24.642  1.00  0.00    -0.550 OA
ENDBRANCH   7   8
ENDBRANCH   6   7
ENDBRANCH   5   6
ENDBRANCH   4   5
ENDBRANCH   3   4
ENDBRANCH   2   3
ENDBRANCH   1   2
BRANCH   1  11
ATOM     11  C   UNL     1      24.465 -36.053  21.664  1.00  0.00     0.000 C 
BRANCH  11  12
ATOM     12  C   UNL     1      24.321 -35.580  23.119  1.00  0.00    -0.000 C 
BRANCH  12  13
ATOM     13  C   UNL     1      25.673 -35.628  23.847  1.00  0.00    -0.000 C 
BRANCH  13  14
ATOM     14  C   UNL     1      25.780 -36.813  24.820  1.00  0.00    -0.000 C 
BRANCH  14  15
ATOM     15  C   UNL     1      27.046 -37.656  24.593  1.00  0.00    -0.000 C 
BRANCH  15  16
ATOM     16  C   UNL     1      27.125 -38.216  23.157  1.00  0.00    -0.000 C 
BRANCH  16  17
ATOM     17  C   UNL     1      26.020 -39.236  22.833  1.00  0.00    -0.003 C 
ATOM     18  C   UNL     1      25.759 -39.381  21.335  1.00  0.00     0.004 C 
ENDBRANCH  16  17
ENDBRANCH  15  16
ENDBRANCH  14  15
ENDBRANCH  13  14
ENDBRANCH  12  13
ENDBRANCH  11  12
ENDBRANCH   1  11
TORSDOF 14
ENDMDL
MODEL 9
REMARK VINA RESULT:    -4.148      3.610      6.864
REMARK INTER + INTRA:          -9.194
REMARK INTER:                  -7.650
REMARK INTRA:                  -1.544
REMARK UNBOUND:                -1.651
REMARK SMILES CCCCCCCCCCCCCCCC(=O)[O-]
REMARK SMILES IDX 9 1 10 2 11 3 12 4 13 5 14 6 15 7 16 8 17 9 18 10 8 11 7 12
REMARK SMILES IDX 6 13 5 14 4 15 3 16 2 17 1 18
REMARK H PARENT
REMARK Flexibility Score: inf
ROOT
ATOM      1  C   UNL     1      25.244 -33.150  20.496  1.00  0.00     0.000 C 
ENDROOT
BRANCH   1   2
ATOM      2  C   UNL     1      24.018 -33.876  21.072  1.00  0.00     0.000 C 
BRANCH   2   3
ATOM      3  C   UNL     1      24.122 -35.390  20.848  1.00  0.00     0.000 C 
BRANCH   3   4
ATOM      4  C   UNL     1      23.911 -36.155  22.164  1.00  0.00     0.000 C 
BRANCH   4   5
ATOM      5  C   UNL     1      24.487 -35.412  23.379  1.00  0.00     0.000 C 
BRANCH   5   6
ATOM      6  C   UNL     1      26.009 -35.598  23.520  1.00  0.00     0.006 C 
BRANCH   6   7
ATOM      7  C   UNL     1      26.440 -37.050  23.279  1.00  0.00     0.053 C 
BRANCH   7   8
ATOM      8  C   UNL     1      26.471 -37.839  24.553  1.00  0.00     0.041 C 
ATOM      9  O   UNL     1      26.419 -39.096  24.521  1.00  0.00    -0.550 OA
ATOM     10  O   UNL     1      26.597 -37.186  25.773  1.00  0.00    -0.550 OA
ENDBRANCH   7   8
ENDBRANCH   6   7
ENDBRANCH   5   6
ENDBRANCH   4   5
ENDBRANCH   3   4
ENDBRANCH   2   3
ENDBRANCH   1   2
BRANCH   1  11
ATOM     11  C   UNL     1      26.195 -32.635  21.588  1.00  0.00     0.000 C 
BRANCH  11  12
ATOM     12  C   UNL     1      25.602 -31.463  22.385  1.00  0.00    -0.000 C 
BRANCH  12  13
ATOM     13  C   UNL     1      25.446 -31.832  23.869  1.00  0.00    -0.000 C 
BRANCH  13  14
ATOM     14  C   UNL     1      23.977 -31.879  24.316  1.00  0.00    -0.000 C 
BRANCH  14  15
ATOM     15  C   UNL     1      23.564 -30.644  25.134  1.00  0.00    -0.000 C 
BRANCH  15  16
ATOM     16  C   UNL     1      23.122 -31.013  26.566  1.00  0.00    -0.000 C 
BRANCH  16  17
ATOM     17  C   UNL     1      24.123 -30.579  27.650  1.00  0.00    -0.003 C 
ATOM     18  C   UNL     1      24.060 -29.084  27.960  1.00  0.00     0.004 C 
ENDBRANCH  16  17
ENDBRANCH  15  16
ENDBRANCH  14  15
ENDBRANCH  13  14
ENDBRANCH  12  13
ENDBRANCH  11  12
ENDBRANCH   1  11
TORSDOF 14
ENDMDL
