MODEL 1
REMARK VINA RESULT:    61.181      0.000      0.000
REMARK INTER + INTRA:         105.062
REMARK INTER:                  89.793
REMARK INTRA:                  15.269
REMARK UNBOUND:                15.269
REMARK SMILES Cc1cc2c(C(C)C)c(O)c(O)c(C=O)c2c(O)c1-c1c(C)cc2c(C(C)C)c(O)c(O)c(C=O)c2c1O
REMARK SMILES IDX 1 1 2 2 3 3 4 4 16 5 13 6 11 7 9 8 5 9 17 10 19 11 20 12
REMARK SMILES IDX 37 13 21 14 36 15 23 16 22 17 24 18 33 19 25 20 31 21 29 22
REMARK SMILES IDX 38 23 34 25 35 26 26 27 27 28 28 29 32 30 30 32 18 34 6 36
REMARK SMILES IDX 7 37 8 38 14 39 15 40 10 41 12 43
REMARK H PARENT 38 24 32 31 30 33 18 35 10 42 12 44
REMARK Flexibility Score: inf
ROOT
ATOM      1  C   UNL     1      -4.850  39.499  21.026  1.00  0.00     0.045 C 
ATOM      2  C   UNL     1      -5.047  38.373  22.012  1.00  0.00    -0.039 A 
ATOM      3  C   UNL     1      -5.298  38.676  23.352  1.00  0.00     0.013 A 
ATOM      4  C   UNL     1      -5.523  37.667  24.316  1.00  0.00    -0.006 A 
ATOM      5  C   UNL     1      -5.416  36.302  23.914  1.00  0.00     0.039 A 
ATOM      6  C   UNL     1      -5.640  35.282  24.881  1.00  0.00     0.072 A 
ATOM      7  C   UNL     1      -5.727  35.613  26.242  1.00  0.00     0.169 A 
ATOM      8  C   UNL     1      -5.732  36.961  26.645  1.00  0.00     0.162 A 
ATOM      9  C   UNL     1      -5.804  37.990  25.680  1.00  0.00     0.008 A 
ATOM     10  C   UNL     1      -5.032  36.001  22.575  1.00  0.00     0.132 A 
ATOM     11  C   UNL     1      -4.903  37.032  21.621  1.00  0.00     0.031 A 
ENDROOT
BRANCH  11  12
ATOM     12  C   UNL     1      -4.583  36.703  20.207  1.00  0.00     0.031 A 
ATOM     13  C   UNL     1      -4.607  37.710  19.219  1.00  0.00     0.132 A 
ATOM     14  C   UNL     1      -4.266  35.381  19.853  1.00  0.00    -0.039 A 
ATOM     15  C   UNL     1      -4.370  37.381  17.855  1.00  0.00     0.039 A 
ATOM     16  C   UNL     1      -3.878  35.095  18.541  1.00  0.00     0.013 A 
ATOM     17  C   UNL     1      -4.265  34.276  20.881  1.00  0.00     0.045 C 
ATOM     18  C   UNL     1      -3.855  36.091  17.540  1.00  0.00    -0.006 A 
ATOM     19  C   UNL     1      -4.593  38.310  16.800  1.00  0.00     0.072 A 
ATOM     20  C   UNL     1      -3.359  35.819  16.229  1.00  0.00     0.008 A 
ATOM     21  C   UNL     1      -4.196  38.001  15.490  1.00  0.00     0.169 A 
ATOM     22  C   UNL     1      -3.620  36.749  15.195  1.00  0.00     0.162 A 
BRANCH  13  23
ATOM     23  O   UNL     1      -4.809  39.042  19.596  1.00  0.00    -0.507 OA
ATOM     24  H   UNL     1      -4.521  39.834  19.035  1.00  0.00     0.293 HD
ENDBRANCH  13  23
BRANCH  19  25
ATOM     25  C   UNL     1      -5.354  39.568  16.984  1.00  0.00     0.264 C 
ATOM     26  O   UNL     1      -5.217  40.528  16.180  1.00  0.00    -0.298 OA
ENDBRANCH  19  25
BRANCH  20  27
ATOM     27  C   UNL     1      -2.562  34.538  15.922  1.00  0.00     0.017 C 
ATOM     28  C   UNL     1      -1.090  34.861  15.647  1.00  0.00     0.012 C 
ATOM     29  C   UNL     1      -2.705  33.443  16.997  1.00  0.00     0.012 C 
ENDBRANCH  20  27
BRANCH  21  30
ATOM     30  O   UNL     1      -4.393  38.967  14.494  1.00  0.00    -0.504 OA
ATOM     31  H   UNL     1      -5.262  39.111  13.999  1.00  0.00     0.293 HD
ENDBRANCH  21  30
BRANCH  22  32
ATOM     32  O   UNL     1      -3.340  36.386  13.875  1.00  0.00    -0.504 OA
ATOM     33  H   UNL     1      -2.517  36.670  13.363  1.00  0.00     0.293 HD
ENDBRANCH  22  32
ENDBRANCH  11  12
BRANCH  10  34
ATOM     34  O   UNL     1      -4.722  34.685  22.211  1.00  0.00    -0.507 OA
ATOM     35  H   UNL     1      -5.306  33.888  22.431  1.00  0.00     0.293 HD
ENDBRANCH  10  34
BRANCH   9  36
ATOM     36  C   UNL     1      -6.125  39.429  26.121  1.00  0.00     0.017 C 
ATOM     37  C   UNL     1      -6.012  40.403  24.944  1.00  0.00     0.012 C 
ATOM     38  C   UNL     1      -5.292  39.910  27.326  1.00  0.00     0.012 C 
ENDBRANCH   9  36
BRANCH   6  39
ATOM     39  C   UNL     1      -5.873  33.865  24.521  1.00  0.00     0.264 C 
ATOM     40  O   UNL     1      -6.118  33.535  23.330  1.00  0.00    -0.298 OA
ENDBRANCH   6  39
BRANCH   8  41
ATOM     41  O   UNL     1      -5.660  37.301  27.998  1.00  0.00    -0.504 OA
ATOM     42  H   UNL     1      -5.713  38.246  28.350  1.00  0.00     0.293 HD
ENDBRANCH   8  41
BRANCH   7  43
ATOM     43  O   UNL     1      -5.856  34.576  27.173  1.00  0.00    -0.504 OA
ATOM     44  H   UNL     1      -6.679  33.998  27.269  1.00  0.00     0.293 HD
ENDBRANCH   7  43
TORSDOF 11
ENDMDL
MODEL 2
REMARK VINA RESULT:    62.000      1.216      9.324
REMARK INTER + INTRA:         106.265
REMARK INTER:                  95.542
REMARK INTRA:                  10.723
REMARK UNBOUND:                15.269
REMARK SMILES Cc1cc2c(C(C)C)c(O)c(O)c(C=O)c2c(O)c1-c1c(C)cc2c(C(C)C)c(O)c(O)c(C=O)c2c1O
REMARK SMILES IDX 1 1 2 2 3 3 4 4 16 5 13 6 11 7 9 8 5 9 17 10 19 11 20 12
REMARK SMILES IDX 37 13 21 14 36 15 23 16 22 17 24 18 33 19 25 20 31 21 29 22
REMARK SMILES IDX 38 23 34 25 35 26 26 27 27 28 28 29 32 30 30 32 18 34 6 36
REMARK SMILES IDX 7 37 8 38 14 39 15 40 10 41 12 43
REMARK H PARENT 38 24 32 31 30 33 18 35 10 42 12 44
REMARK Flexibility Score: inf
ROOT
ATOM      1  C   UNL     1      -5.134  34.045  21.093  1.00  0.00     0.045 C 
ATOM      2  C   UNL     1      -4.888  34.890  19.866  1.00  0.00    -0.039 A 
ATOM      3  C   UNL     1      -4.611  34.261  18.650  1.00  0.00     0.013 A 
ATOM      4  C   UNL     1      -4.405  34.995  17.460  1.00  0.00    -0.006 A 
ATOM      5  C   UNL     1      -4.408  36.420  17.528  1.00  0.00     0.039 A 
ATOM      6  C   UNL     1      -4.199  37.165  16.333  1.00  0.00     0.072 A 
ATOM      7  C   UNL     1      -3.764  36.514  15.168  1.00  0.00     0.169 A 
ATOM      8  C   UNL     1      -3.666  35.111  15.135  1.00  0.00     0.162 A 
ATOM      9  C   UNL     1      -4.147  34.339  16.216  1.00  0.00     0.008 A 
ATOM     10  C   UNL     1      -4.562  37.055  18.794  1.00  0.00     0.132 A 
ATOM     11  C   UNL     1      -4.854  36.291  19.944  1.00  0.00     0.031 A 
ENDROOT
BRANCH  11  12
ATOM     12  C   UNL     1      -5.095  36.966  21.246  1.00  0.00     0.031 A 
ATOM     13  C   UNL     1      -4.957  36.252  22.455  1.00  0.00     0.132 A 
ATOM     14  C   UNL     1      -5.474  38.319  21.271  1.00  0.00    -0.039 A 
ATOM     15  C   UNL     1      -5.256  36.879  23.696  1.00  0.00     0.039 A 
ATOM     16  C   UNL     1      -5.610  38.972  22.499  1.00  0.00     0.013 A 
ATOM     17  C   UNL     1      -5.663  39.100  19.994  1.00  0.00     0.045 C 
ATOM     18  C   UNL     1      -5.439  38.291  23.725  1.00  0.00    -0.006 A 
ATOM     19  C   UNL     1      -5.341  36.149  24.915  1.00  0.00     0.072 A 
ATOM     20  C   UNL     1      -5.476  38.983  24.973  1.00  0.00     0.008 A 
ATOM     21  C   UNL     1      -5.479  36.826  26.137  1.00  0.00     0.169 A 
ATOM     22  C   UNL     1      -5.587  38.231  26.166  1.00  0.00     0.162 A 
BRANCH  13  23
ATOM     23  O   UNL     1      -4.469  34.941  22.430  1.00  0.00    -0.507 OA
ATOM     24  H   UNL     1      -4.037  34.517  21.619  1.00  0.00     0.293 HD
ENDBRANCH  13  23
BRANCH  19  25
ATOM     25  C   UNL     1      -5.421  34.670  24.963  1.00  0.00     0.264 C 
ATOM     26  O   UNL     1      -6.124  34.037  24.133  1.00  0.00    -0.298 OA
ENDBRANCH  19  25
BRANCH  20  27
ATOM     27  C   UNL     1      -5.409  40.520  25.041  1.00  0.00     0.017 C 
ATOM     28  C   UNL     1      -5.115  40.993  26.468  1.00  0.00     0.012 C 
ATOM     29  C   UNL     1      -4.430  41.146  24.029  1.00  0.00     0.012 C 
ENDBRANCH  20  27
BRANCH  21  30
ATOM     30  O   UNL     1      -5.511  36.067  27.314  1.00  0.00    -0.504 OA
ATOM     31  H   UNL     1      -4.720  35.571  27.698  1.00  0.00     0.293 HD
ENDBRANCH  21  30
BRANCH  22  32
ATOM     32  O   UNL     1      -5.852  38.901  27.363  1.00  0.00    -0.504 OA
ATOM     33  H   UNL     1      -5.570  39.850  27.566  1.00  0.00     0.293 HD
ENDBRANCH  22  32
ENDBRANCH  11  12
BRANCH  10  34
ATOM     34  O   UNL     1      -4.366  38.435  18.918  1.00  0.00    -0.507 OA
ATOM     35  H   UNL     1      -3.633  38.852  19.476  1.00  0.00     0.293 HD
ENDBRANCH  10  34
BRANCH   9  36
ATOM     36  C   UNL     1      -4.328  32.820  16.049  1.00  0.00     0.017 C 
ATOM     37  C   UNL     1      -5.745  32.390  16.440  1.00  0.00     0.012 C 
ATOM     38  C   UNL     1      -3.266  31.983  16.788  1.00  0.00     0.012 C 
ENDBRANCH   9  36
BRANCH   6  39
ATOM     39  C   UNL     1      -4.497  38.611  16.219  1.00  0.00     0.264 C 
ATOM     40  O   UNL     1      -3.886  39.331  15.386  1.00  0.00    -0.298 OA
ENDBRANCH   6  39
BRANCH   8  41
ATOM     41  O   UNL     1      -3.088  34.462  14.040  1.00  0.00    -0.504 OA
ATOM     42  H   UNL     1      -3.603  34.141  13.233  1.00  0.00     0.293 HD
ENDBRANCH   8  41
BRANCH   7  43
ATOM     43  O   UNL     1      -3.481  37.289  14.038  1.00  0.00    -0.504 OA
ATOM     44  H   UNL     1      -3.462  36.930  13.093  1.00  0.00     0.293 HD
ENDBRANCH   7  43
TORSDOF 11
ENDMDL
