MODEL 1
REMARK VINA RESULT:    -4.723      0.000      0.000
REMARK INTER + INTRA:          -9.198
REMARK INTER:                  -8.313
REMARK INTRA:                  -0.885
REMARK UNBOUND:                -0.885
REMARK SMILES CCCCCCCCCCCCCCC(=O)[O-]
REMARK SMILES IDX 9 1 10 2 11 3 12 4 13 5 14 6 15 7 16 8 17 9 8 10 7 11 6 12
REMARK SMILES IDX 5 13 4 14 3 15 2 16 1 17
REMARK H PARENT
REMARK Flexibility Score: inf
ROOT
ATOM      1  C   UNL     1      -7.364  -4.794 -15.075  1.00  0.00     0.000 C 
ENDROOT
BRANCH   1   2
ATOM      2  C   UNL     1      -8.477  -3.732 -15.087  1.00  0.00     0.000 C 
BRANCH   2   3
ATOM      3  C   UNL     1      -9.606  -4.066 -16.076  1.00  0.00     0.000 C 
BRANCH   3   4
ATOM      4  C   UNL     1     -10.992  -4.070 -15.409  1.00  0.00     0.000 C 
BRANCH   4   5
ATOM      5  C   UNL     1     -11.588  -5.485 -15.283  1.00  0.00     0.006 C 
BRANCH   5   6
ATOM      6  C   UNL     1     -11.056  -6.293 -14.089  1.00  0.00     0.053 C 
BRANCH   6   7
ATOM      7  C   UNL     1     -10.481  -7.609 -14.513  1.00  0.00     0.041 C 
ATOM      8  O   UNL     1     -11.007  -8.686 -14.128  1.00  0.00    -0.550 OA
ATOM      9  O   UNL     1      -9.380  -7.644 -15.361  1.00  0.00    -0.550 OA
ENDBRANCH   6   7
ENDBRANCH   5   6
ENDBRANCH   4   5
ENDBRANCH   3   4
ENDBRANCH   2   3
ENDBRANCH   1   2
BRANCH   1  10
ATOM     10  C   UNL     1      -5.964  -4.185 -15.257  1.00  0.00     0.000 C 
BRANCH  10  11
ATOM     11  C   UNL     1      -5.829  -2.807 -14.591  1.00  0.00    -0.000 C 
BRANCH  11  12
ATOM     12  C   UNL     1      -4.490  -2.153 -14.949  1.00  0.00    -0.000 C 
BRANCH  12  13
ATOM     13  C   UNL     1      -3.960  -2.682 -16.290  1.00  0.00    -0.000 C 
BRANCH  13  14
ATOM     14  C   UNL     1      -3.582  -1.558 -17.273  1.00  0.00    -0.000 C 
BRANCH  14  15
ATOM     15  C   UNL     1      -3.045  -2.039 -18.633  1.00  0.00    -0.000 C 
BRANCH  15  16
ATOM     16  C   UNL     1      -1.594  -1.606 -18.890  1.00  0.00    -0.003 C 
ATOM     17  C   UNL     1      -1.057  -0.767 -17.734  1.00  0.00     0.004 C 
ENDBRANCH  15  16
ENDBRANCH  14  15
ENDBRANCH  13  14
ENDBRANCH  12  13
ENDBRANCH  11  12
ENDBRANCH  10  11
ENDBRANCH   1  10
TORSDOF 13
ENDMDL
MODEL 2
REMARK VINA RESULT:    -4.715      4.450      5.916
REMARK INTER + INTRA:          -9.184
REMARK INTER:                  -7.905
REMARK INTRA:                  -1.279
REMARK UNBOUND:                -0.885
REMARK SMILES CCCCCCCCCCCCCCC(=O)[O-]
REMARK SMILES IDX 9 1 10 2 11 3 12 4 13 5 14 6 15 7 16 8 17 9 8 10 7 11 6 12
REMARK SMILES IDX 5 13 4 14 3 15 2 16 1 17
REMARK H PARENT
REMARK Flexibility Score: inf
ROOT
ATOM      1  C   UNL     1      -7.385  -1.184 -11.603  1.00  0.00     0.000 C 
ENDROOT
BRANCH   1   2
ATOM      2  C   UNL     1      -8.077  -2.164 -12.567  1.00  0.00     0.000 C 
BRANCH   2   3
ATOM      3  C   UNL     1      -7.214  -2.494 -13.796  1.00  0.00     0.000 C 
BRANCH   3   4
ATOM      4  C   UNL     1      -7.806  -3.633 -14.644  1.00  0.00     0.000 C 
BRANCH   4   5
ATOM      5  C   UNL     1      -9.267  -3.951 -14.275  1.00  0.00     0.006 C 
BRANCH   5   6
ATOM      6  C   UNL     1     -10.252  -3.868 -15.454  1.00  0.00     0.053 C 
BRANCH   6   7
ATOM      7  C   UNL     1     -11.540  -4.573 -15.160  1.00  0.00     0.041 C 
ATOM      8  O   UNL     1     -12.599  -4.229 -15.746  1.00  0.00    -0.550 OA
ATOM      9  O   UNL     1     -11.562  -5.631 -14.260  1.00  0.00    -0.550 OA
ENDBRANCH   6   7
ENDBRANCH   5   6
ENDBRANCH   4   5
ENDBRANCH   3   4
ENDBRANCH   2   3
ENDBRANCH   1   2
BRANCH   1  10
ATOM     10  C   UNL     1      -6.206  -1.826 -10.853  1.00  0.00     0.000 C 
BRANCH  10  11
ATOM     11  C   UNL     1      -6.049  -1.281  -9.425  1.00  0.00    -0.000 C 
BRANCH  11  12
ATOM     12  C   UNL     1      -7.021  -0.124  -9.169  1.00  0.00    -0.000 C 
BRANCH  12  13
ATOM     13  C   UNL     1      -6.270   1.132  -8.702  1.00  0.00    -0.000 C 
BRANCH  13  14
ATOM     14  C   UNL     1      -6.385   2.305  -9.693  1.00  0.00    -0.000 C 
BRANCH  14  15
ATOM     15  C   UNL     1      -5.606   2.123 -11.008  1.00  0.00    -0.000 C 
BRANCH  15  16
ATOM     16  C   UNL     1      -4.087   2.050 -10.799  1.00  0.00    -0.003 C 
ATOM     17  C   UNL     1      -3.540   0.685 -11.209  1.00  0.00     0.004 C 
ENDBRANCH  15  16
ENDBRANCH  14  15
ENDBRANCH  13  14
ENDBRANCH  12  13
ENDBRANCH  11  12
ENDBRANCH  10  11
ENDBRANCH   1  10
TORSDOF 13
ENDMDL
MODEL 3
REMARK VINA RESULT:    -4.668      5.717      8.721
REMARK INTER + INTRA:          -9.100
REMARK INTER:                  -8.113
REMARK INTRA:                  -0.987
REMARK UNBOUND:                -0.885
REMARK SMILES CCCCCCCCCCCCCCC(=O)[O-]
REMARK SMILES IDX 9 1 10 2 11 3 12 4 13 5 14 6 15 7 16 8 17 9 8 10 7 11 6 12
REMARK SMILES IDX 5 13 4 14 3 15 2 16 1 17
REMARK H PARENT
REMARK Flexibility Score: inf
ROOT
ATOM      1  C   UNL     1      -8.473  -3.346 -13.938  1.00  0.00     0.000 C 
ENDROOT
BRANCH   1   2
ATOM      2  C   UNL     1      -7.346  -2.679 -13.130  1.00  0.00     0.000 C 
BRANCH   2   3
ATOM      3  C   UNL     1      -7.845  -2.062 -11.813  1.00  0.00     0.000 C 
BRANCH   3   4
ATOM      4  C   UNL     1      -6.697  -1.733 -10.843  1.00  0.00     0.000 C 
BRANCH   4   5
ATOM      5  C   UNL     1      -6.573  -0.224 -10.559  1.00  0.00     0.006 C 
BRANCH   5   6
ATOM      6  C   UNL     1      -7.047   0.200  -9.160  1.00  0.00     0.053 C 
BRANCH   6   7
ATOM      7  C   UNL     1      -6.057   1.091  -8.477  1.00  0.00     0.041 C 
ATOM      8  O   UNL     1      -6.308   2.314  -8.316  1.00  0.00    -0.550 OA
ATOM      9  O   UNL     1      -4.868   0.562  -7.988  1.00  0.00    -0.550 OA
ENDBRANCH   6   7
ENDBRANCH   5   6
ENDBRANCH   4   5
ENDBRANCH   3   4
ENDBRANCH   2   3
ENDBRANCH   1   2
BRANCH   1  10
ATOM     10  C   UNL     1      -7.966  -4.501 -14.817  1.00  0.00     0.000 C 
BRANCH  10  11
ATOM     11  C   UNL     1      -8.686  -4.571 -16.173  1.00  0.00    -0.000 C 
BRANCH  11  12
ATOM     12  C   UNL     1     -10.011  -3.801 -16.130  1.00  0.00    -0.000 C 
BRANCH  12  13
ATOM     13  C   UNL     1     -11.207  -4.764 -16.124  1.00  0.00    -0.000 C 
BRANCH  13  14
ATOM     14  C   UNL     1     -11.847  -4.920 -14.731  1.00  0.00    -0.000 C 
BRANCH  14  15
ATOM     15  C   UNL     1     -11.279  -6.072 -13.882  1.00  0.00    -0.000 C 
BRANCH  15  16
ATOM     16  C   UNL     1     -10.764  -7.243 -14.730  1.00  0.00    -0.003 C 
ATOM     17  C   UNL     1     -10.730  -8.536 -13.919  1.00  0.00     0.004 C 
ENDBRANCH  15  16
ENDBRANCH  14  15
ENDBRANCH  13  14
ENDBRANCH  12  13
ENDBRANCH  11  12
ENDBRANCH  10  11
ENDBRANCH   1  10
TORSDOF 13
ENDMDL
MODEL 4
REMARK VINA RESULT:    -4.666      5.462      6.723
REMARK INTER + INTRA:          -9.097
REMARK INTER:                  -8.332
REMARK INTRA:                  -0.764
REMARK UNBOUND:                -0.885
REMARK SMILES CCCCCCCCCCCCCCC(=O)[O-]
REMARK SMILES IDX 9 1 10 2 11 3 12 4 13 5 14 6 15 7 16 8 17 9 8 10 7 11 6 12
REMARK SMILES IDX 5 13 4 14 3 15 2 16 1 17
REMARK H PARENT
REMARK Flexibility Score: inf
ROOT
ATOM      1  C   UNL     1      -7.837  -3.247 -13.507  1.00  0.00     0.000 C 
ENDROOT
BRANCH   1   2
ATOM      2  C   UNL     1      -8.149  -2.006 -12.652  1.00  0.00     0.000 C 
BRANCH   2   3
ATOM      3  C   UNL     1      -7.419  -2.020 -11.299  1.00  0.00     0.000 C 
BRANCH   3   4
ATOM      4  C   UNL     1      -6.875  -0.635 -10.908  1.00  0.00     0.000 C 
BRANCH   4   5
ATOM      5  C   UNL     1      -6.543  -0.528  -9.407  1.00  0.00     0.006 C 
BRANCH   5   6
ATOM      6  C   UNL     1      -7.308   0.581  -8.666  1.00  0.00     0.053 C 
BRANCH   6   7
ATOM      7  C   UNL     1      -6.564   1.881  -8.678  1.00  0.00     0.041 C 
ATOM      8  O   UNL     1      -5.587   2.060  -7.905  1.00  0.00    -0.550 OA
ATOM      9  O   UNL     1      -6.930   2.883  -9.569  1.00  0.00    -0.550 OA
ENDBRANCH   6   7
ENDBRANCH   5   6
ENDBRANCH   4   5
ENDBRANCH   3   4
ENDBRANCH   2   3
ENDBRANCH   1   2
BRANCH   1  10
ATOM     10  C   UNL     1      -6.698  -4.097 -12.921  1.00  0.00     0.000 C 
BRANCH  10  11
ATOM     11  C   UNL     1      -5.571  -4.352 -13.934  1.00  0.00    -0.000 C 
BRANCH  11  12
ATOM     12  C   UNL     1      -5.649  -3.362 -15.102  1.00  0.00    -0.000 C 
BRANCH  12  13
ATOM     13  C   UNL     1      -4.587  -2.262 -14.963  1.00  0.00    -0.000 C 
BRANCH  13  14
ATOM     14  C   UNL     1      -3.455  -2.383 -16.001  1.00  0.00    -0.000 C 
BRANCH  14  15
ATOM     15  C   UNL     1      -3.627  -1.504 -17.253  1.00  0.00    -0.000 C 
BRANCH  15  16
ATOM     16  C   UNL     1      -3.183  -2.208 -18.544  1.00  0.00    -0.003 C 
ATOM     17  C   UNL     1      -1.781  -1.767 -18.956  1.00  0.00     0.004 C 
ENDBRANCH  15  16
ENDBRANCH  14  15
ENDBRANCH  13  14
ENDBRANCH  12  13
ENDBRANCH  11  12
ENDBRANCH  10  11
ENDBRANCH   1  10
TORSDOF 13
ENDMDL
MODEL 5
REMARK VINA RESULT:    -4.663      4.294      6.110
REMARK INTER + INTRA:          -9.092
REMARK INTER:                  -7.736
REMARK INTRA:                  -1.356
REMARK UNBOUND:                -0.885
REMARK SMILES CCCCCCCCCCCCCCC(=O)[O-]
REMARK SMILES IDX 9 1 10 2 11 3 12 4 13 5 14 6 15 7 16 8 17 9 8 10 7 11 6 12
REMARK SMILES IDX 5 13 4 14 3 15 2 16 1 17
REMARK H PARENT
REMARK Flexibility Score: inf
ROOT
ATOM      1  C   UNL     1      -7.349  -1.258 -11.663  1.00  0.00     0.000 C 
ENDROOT
BRANCH   1   2
ATOM      2  C   UNL     1      -8.059  -2.220 -12.632  1.00  0.00     0.000 C 
BRANCH   2   3
ATOM      3  C   UNL     1      -7.108  -2.803 -13.691  1.00  0.00     0.000 C 
BRANCH   3   4
ATOM      4  C   UNL     1      -7.860  -3.430 -14.878  1.00  0.00     0.000 C 
BRANCH   4   5
ATOM      5  C   UNL     1      -9.318  -3.792 -14.534  1.00  0.00     0.006 C 
BRANCH   5   6
ATOM      6  C   UNL     1     -10.258  -3.862 -15.749  1.00  0.00     0.053 C 
BRANCH   6   7
ATOM      7  C   UNL     1     -11.519  -4.607 -15.440  1.00  0.00     0.041 C 
ATOM      8  O   UNL     1     -12.639  -4.056 -15.607  1.00  0.00    -0.550 OA
ATOM      9  O   UNL     1     -11.458  -5.923 -14.997  1.00  0.00    -0.550 OA
ENDBRANCH   6   7
ENDBRANCH   5   6
ENDBRANCH   4   5
ENDBRANCH   3   4
ENDBRANCH   2   3
ENDBRANCH   1   2
BRANCH   1  10
ATOM     10  C   UNL     1      -6.550  -1.997 -10.577  1.00  0.00     0.000 C 
BRANCH  10  11
ATOM     11  C   UNL     1      -5.032  -1.845 -10.755  1.00  0.00    -0.000 C 
BRANCH  11  12
ATOM     12  C   UNL     1      -4.699  -0.595 -11.578  1.00  0.00    -0.000 C 
BRANCH  12  13
ATOM     13  C   UNL     1      -4.275   0.566 -10.667  1.00  0.00    -0.000 C 
BRANCH  13  14
ATOM     14  C   UNL     1      -5.002   1.884 -10.993  1.00  0.00    -0.000 C 
BRANCH  14  15
ATOM     15  C   UNL     1      -6.149   2.248 -10.033  1.00  0.00    -0.000 C 
BRANCH  15  16
ATOM     16  C   UNL     1      -6.137   1.414  -8.744  1.00  0.00    -0.003 C 
ATOM     17  C   UNL     1      -7.476   0.712  -8.530  1.00  0.00     0.004 C 
ENDBRANCH  15  16
ENDBRANCH  14  15
ENDBRANCH  13  14
ENDBRANCH  12  13
ENDBRANCH  11  12
ENDBRANCH  10  11
ENDBRANCH   1  10
TORSDOF 13
ENDMDL
MODEL 6
REMARK VINA RESULT:    -4.646      5.708      8.619
REMARK INTER + INTRA:          -9.061
REMARK INTER:                  -7.889
REMARK INTRA:                  -1.173
REMARK UNBOUND:                -0.885
REMARK SMILES CCCCCCCCCCCCCCC(=O)[O-]
REMARK SMILES IDX 9 1 10 2 11 3 12 4 13 5 14 6 15 7 16 8 17 9 8 10 7 11 6 12
REMARK SMILES IDX 5 13 4 14 3 15 2 16 1 17
REMARK H PARENT
REMARK Flexibility Score: inf
ROOT
ATOM      1  C   UNL     1      -7.941  -2.182 -12.320  1.00  0.00     0.000 C 
ENDROOT
BRANCH   1   2
ATOM      2  C   UNL     1      -6.551  -2.766 -12.012  1.00  0.00     0.000 C 
BRANCH   2   3
ATOM      3  C   UNL     1      -5.622  -1.754 -11.321  1.00  0.00     0.000 C 
BRANCH   3   4
ATOM      4  C   UNL     1      -5.851  -1.685  -9.801  1.00  0.00     0.000 C 
BRANCH   4   5
ATOM      5  C   UNL     1      -6.149  -0.256  -9.309  1.00  0.00     0.006 C 
BRANCH   5   6
ATOM      6  C   UNL     1      -6.657   0.699 -10.401  1.00  0.00     0.053 C 
BRANCH   6   7
ATOM      7  C   UNL     1      -6.640   2.127  -9.951  1.00  0.00     0.041 C 
ATOM      8  O   UNL     1      -6.946   3.049 -10.751  1.00  0.00    -0.550 OA
ATOM      9  O   UNL     1      -6.316   2.436  -8.635  1.00  0.00    -0.550 OA
ENDBRANCH   6   7
ENDBRANCH   5   6
ENDBRANCH   4   5
ENDBRANCH   3   4
ENDBRANCH   2   3
ENDBRANCH   1   2
BRANCH   1  10
ATOM     10  C   UNL     1      -8.553  -2.761 -13.606  1.00  0.00     0.000 C 
BRANCH  10  11
ATOM     11  C   UNL     1      -7.964  -4.131 -13.975  1.00  0.00    -0.000 C 
BRANCH  11  12
ATOM     12  C   UNL     1      -8.060  -4.381 -15.484  1.00  0.00    -0.000 C 
BRANCH  12  13
ATOM     13  C   UNL     1      -9.349  -3.777 -16.062  1.00  0.00    -0.000 C 
BRANCH  13  14
ATOM     14  C   UNL     1     -10.421  -4.836 -16.376  1.00  0.00    -0.000 C 
BRANCH  14  15
ATOM     15  C   UNL     1     -11.800  -4.571 -15.745  1.00  0.00    -0.000 C 
BRANCH  15  16
ATOM     16  C   UNL     1     -11.883  -5.017 -14.279  1.00  0.00    -0.003 C 
ATOM     17  C   UNL     1     -11.096  -6.305 -14.051  1.00  0.00     0.004 C 
ENDBRANCH  15  16
ENDBRANCH  14  15
ENDBRANCH  13  14
ENDBRANCH  12  13
ENDBRANCH  11  12
ENDBRANCH  10  11
ENDBRANCH   1  10
TORSDOF 13
ENDMDL
MODEL 7
REMARK VINA RESULT:    -4.638      1.729      3.703
REMARK INTER + INTRA:          -9.048
REMARK INTER:                  -7.659
REMARK INTRA:                  -1.389
REMARK UNBOUND:                -0.885
REMARK SMILES CCCCCCCCCCCCCCC(=O)[O-]
REMARK SMILES IDX 9 1 10 2 11 3 12 4 13 5 14 6 15 7 16 8 17 9 8 10 7 11 6 12
REMARK SMILES IDX 5 13 4 14 3 15 2 16 1 17
REMARK H PARENT
REMARK Flexibility Score: inf
ROOT
ATOM      1  C   UNL     1      -4.067  -2.130 -16.115  1.00  0.00     0.000 C 
ENDROOT
BRANCH   1   2
ATOM      2  C   UNL     1      -4.861  -2.084 -14.797  1.00  0.00     0.000 C 
BRANCH   2   3
ATOM      3  C   UNL     1      -5.951  -3.166 -14.724  1.00  0.00     0.000 C 
BRANCH   3   4
ATOM      4  C   UNL     1      -7.171  -2.720 -13.900  1.00  0.00     0.000 C 
BRANCH   4   5
ATOM      5  C   UNL     1      -8.330  -3.733 -13.958  1.00  0.00     0.006 C 
BRANCH   5   6
ATOM      6  C   UNL     1      -8.966  -3.891 -15.349  1.00  0.00     0.053 C 
BRANCH   6   7
ATOM      7  C   UNL     1     -10.408  -4.285 -15.266  1.00  0.00     0.041 C 
ATOM      8  O   UNL     1     -10.764  -5.238 -14.525  1.00  0.00    -0.550 OA
ATOM      9  O   UNL     1     -11.364  -3.576 -15.984  1.00  0.00    -0.550 OA
ENDBRANCH   6   7
ENDBRANCH   5   6
ENDBRANCH   4   5
ENDBRANCH   3   4
ENDBRANCH   2   3
ENDBRANCH   1   2
BRANCH   1  10
ATOM     10  C   UNL     1      -3.733  -3.565 -16.554  1.00  0.00     0.000 C 
BRANCH  10  11
ATOM     11  C   UNL     1      -3.086  -3.620 -17.947  1.00  0.00    -0.000 C 
BRANCH  11  12
ATOM     12  C   UNL     1      -3.188  -2.263 -18.653  1.00  0.00    -0.000 C 
BRANCH  12  13
ATOM     13  C   UNL     1      -1.851  -1.880 -19.304  1.00  0.00    -0.000 C 
BRANCH  13  14
ATOM     14  C   UNL     1      -0.726  -1.647 -18.278  1.00  0.00    -0.000 C 
BRANCH  14  15
ATOM     15  C   UNL     1      -0.971  -0.485 -17.299  1.00  0.00    -0.000 C 
BRANCH  15  16
ATOM     16  C   UNL     1      -0.591  -0.833 -15.852  1.00  0.00    -0.003 C 
ATOM     17  C   UNL     1      -0.288  -2.321 -15.705  1.00  0.00     0.004 C 
ENDBRANCH  15  16
ENDBRANCH  14  15
ENDBRANCH  13  14
ENDBRANCH  12  13
ENDBRANCH  11  12
ENDBRANCH  10  11
ENDBRANCH   1  10
TORSDOF 13
ENDMDL
MODEL 8
REMARK VINA RESULT:    -4.623      1.497      2.400
REMARK INTER + INTRA:          -9.022
REMARK INTER:                  -7.979
REMARK INTRA:                  -1.042
REMARK UNBOUND:                -0.885
REMARK SMILES CCCCCCCCCCCCCCC(=O)[O-]
REMARK SMILES IDX 9 1 10 2 11 3 12 4 13 5 14 6 15 7 16 8 17 9 8 10 7 11 6 12
REMARK SMILES IDX 5 13 4 14 3 15 2 16 1 17
REMARK H PARENT
REMARK Flexibility Score: inf
ROOT
ATOM      1  C   UNL     1      -5.244  -3.665 -14.368  1.00  0.00     0.000 C 
ENDROOT
BRANCH   1   2
ATOM      2  C   UNL     1      -6.546  -3.783 -13.555  1.00  0.00     0.000 C 
BRANCH   2   3
ATOM      3  C   UNL     1      -7.650  -2.843 -14.065  1.00  0.00     0.000 C 
BRANCH   3   4
ATOM      4  C   UNL     1      -8.966  -3.584 -14.358  1.00  0.00     0.000 C 
BRANCH   4   5
ATOM      5  C   UNL     1      -9.109  -3.979 -15.841  1.00  0.00     0.006 C 
BRANCH   5   6
ATOM      6  C   UNL     1      -9.811  -5.328 -16.073  1.00  0.00     0.053 C 
BRANCH   6   7
ATOM      7  C   UNL     1     -11.123  -5.409 -15.356  1.00  0.00     0.041 C 
ATOM      8  O   UNL     1     -11.263  -6.183 -14.374  1.00  0.00    -0.550 OA
ATOM      9  O   UNL     1     -12.183  -4.603 -15.755  1.00  0.00    -0.550 OA
ENDBRANCH   6   7
ENDBRANCH   5   6
ENDBRANCH   4   5
ENDBRANCH   3   4
ENDBRANCH   2   3
ENDBRANCH   1   2
BRANCH   1  10
ATOM     10  C   UNL     1      -4.903  -2.209 -14.729  1.00  0.00     0.000 C 
BRANCH  10  11
ATOM     11  C   UNL     1      -4.202  -2.088 -16.090  1.00  0.00    -0.000 C 
BRANCH  11  12
ATOM     12  C   UNL     1      -3.549  -3.416 -16.491  1.00  0.00    -0.000 C 
BRANCH  12  13
ATOM     13  C   UNL     1      -3.240  -3.445 -17.995  1.00  0.00    -0.000 C 
BRANCH  13  14
ATOM     14  C   UNL     1      -3.052  -2.041 -18.599  1.00  0.00    -0.000 C 
BRANCH  14  15
ATOM     15  C   UNL     1      -1.689  -1.799 -19.271  1.00  0.00    -0.000 C 
BRANCH  15  16
ATOM     16  C   UNL     1      -0.595  -1.390 -18.275  1.00  0.00    -0.003 C 
ATOM     17  C   UNL     1      -1.152  -0.468 -17.194  1.00  0.00     0.004 C 
ENDBRANCH  15  16
ENDBRANCH  14  15
ENDBRANCH  13  14
ENDBRANCH  12  13
ENDBRANCH  11  12
ENDBRANCH  10  11
ENDBRANCH   1  10
TORSDOF 13
ENDMDL
MODEL 9
REMARK VINA RESULT:    -4.620      4.055      5.680
REMARK INTER + INTRA:          -9.016
REMARK INTER:                  -8.215
REMARK INTRA:                  -0.801
REMARK UNBOUND:                -0.885
REMARK SMILES CCCCCCCCCCCCCCC(=O)[O-]
REMARK SMILES IDX 9 1 10 2 11 3 12 4 13 5 14 6 15 7 16 8 17 9 8 10 7 11 6 12
REMARK SMILES IDX 5 13 4 14 3 15 2 16 1 17
REMARK H PARENT
REMARK Flexibility Score: inf
ROOT
ATOM      1  C   UNL     1      -7.660  -2.582 -13.728  1.00  0.00     0.000 C 
ENDROOT
BRANCH   1   2
ATOM      2  C   UNL     1      -8.707  -3.599 -14.217  1.00  0.00     0.000 C 
BRANCH   2   3
ATOM      3  C   UNL     1      -8.214  -4.428 -15.414  1.00  0.00     0.000 C 
BRANCH   3   4
ATOM      4  C   UNL     1      -9.321  -4.682 -16.452  1.00  0.00     0.000 C 
BRANCH   4   5
ATOM      5  C   UNL     1     -10.586  -3.843 -16.189  1.00  0.00     0.006 C 
BRANCH   5   6
ATOM      6  C   UNL     1     -11.864  -4.671 -15.978  1.00  0.00     0.053 C 
BRANCH   6   7
ATOM      7  C   UNL     1     -12.135  -4.926 -14.528  1.00  0.00     0.041 C 
ATOM      8  O   UNL     1     -12.952  -4.205 -13.898  1.00  0.00    -0.550 OA
ATOM      9  O   UNL     1     -11.506  -5.983 -13.879  1.00  0.00    -0.550 OA
ENDBRANCH   6   7
ENDBRANCH   5   6
ENDBRANCH   4   5
ENDBRANCH   3   4
ENDBRANCH   2   3
ENDBRANCH   1   2
BRANCH   1  10
ATOM     10  C   UNL     1      -7.957  -2.064 -12.311  1.00  0.00     0.000 C 
BRANCH  10  11
ATOM     11  C   UNL     1      -7.146  -2.797 -11.232  1.00  0.00    -0.000 C 
BRANCH  11  12
ATOM     12  C   UNL     1      -6.356  -1.805 -10.370  1.00  0.00    -0.000 C 
BRANCH  12  13
ATOM     13  C   UNL     1      -7.015  -0.418 -10.384  1.00  0.00    -0.000 C 
BRANCH  13  14
ATOM     14  C   UNL     1      -6.951   0.292  -9.019  1.00  0.00    -0.000 C 
BRANCH  14  15
ATOM     15  C   UNL     1      -5.687   1.141  -8.787  1.00  0.00    -0.000 C 
BRANCH  15  16
ATOM     16  C   UNL     1      -5.501   2.238  -9.845  1.00  0.00    -0.003 C 
ATOM     17  C   UNL     1      -4.328   1.919 -10.768  1.00  0.00     0.004 C 
ENDBRANCH  15  16
ENDBRANCH  14  15
ENDBRANCH  13  14
ENDBRANCH  12  13
ENDBRANCH  11  12
ENDBRANCH  10  11
ENDBRANCH   1  10
TORSDOF 13
ENDMDL
