MODEL 1
REMARK VINA RESULT:    -5.859      0.000      0.000
REMARK INTER + INTRA:         -13.255
REMARK INTER:                 -10.997
REMARK INTRA:                  -2.258
REMARK UNBOUND:                -2.258
REMARK SMILES O=C([O-])CCCCCCCCCCCCCCC(=O)[O-]
REMARK SMILES IDX 10 1 9 2 8 3 7 4 6 5 5 6 4 7 2 8 1 9 3 10 11 11 12 12 13 13
REMARK SMILES IDX 14 14 15 15 16 16 17 17 18 18 19 19 20 20
REMARK H PARENT
REMARK Flexibility Score: inf
ROOT
ATOM      1  C   UNL     1     -11.743  -8.801  11.114  1.00  0.00     0.000 C 
ENDROOT
BRANCH   1   2
ATOM      2  C   UNL     1     -11.904 -10.283  11.500  1.00  0.00     0.000 C 
BRANCH   2   3
ATOM      3  C   UNL     1     -13.086 -11.011  10.831  1.00  0.00     0.000 C 
BRANCH   3   4
ATOM      4  C   UNL     1     -12.675 -12.334  10.164  1.00  0.00     0.000 C 
BRANCH   4   5
ATOM      5  C   UNL     1     -11.181 -12.663  10.350  1.00  0.00     0.000 C 
BRANCH   5   6
ATOM      6  C   UNL     1     -10.555 -13.532   9.241  1.00  0.00     0.006 C 
BRANCH   6   7
ATOM      7  C   UNL     1     -11.418 -14.725   8.801  1.00  0.00     0.053 C 
BRANCH   7   8
ATOM      8  C   UNL     1     -10.661 -16.016   8.857  1.00  0.00     0.041 C 
ATOM      9  O   UNL     1      -9.404 -16.017   8.775  1.00  0.00    -0.550 OA
ATOM     10  O   UNL     1     -11.344 -17.220   8.968  1.00  0.00    -0.550 OA
ENDBRANCH   7   8
ENDBRANCH   6   7
ENDBRANCH   5   6
ENDBRANCH   4   5
ENDBRANCH   3   4
ENDBRANCH   2   3
ENDBRANCH   1   2
BRANCH   1  11
ATOM     11  C   UNL     1     -12.982  -8.224  10.412  1.00  0.00     0.000 C 
BRANCH  11  12
ATOM     12  C   UNL     1     -12.576  -7.348   9.216  1.00  0.00     0.000 C 
BRANCH  12  13
ATOM     13  C   UNL     1     -11.326  -7.876   8.494  1.00  0.00     0.000 C 
BRANCH  13  14
ATOM     14  C   UNL     1     -11.665  -8.855   7.362  1.00  0.00     0.000 C 
BRANCH  14  15
ATOM     15  C   UNL     1     -11.009 -10.220   7.602  1.00  0.00     0.000 C 
BRANCH  15  16
ATOM     16  C   UNL     1      -9.680 -10.069   8.358  1.00  0.00     0.006 C 
BRANCH  16  17
ATOM     17  C   UNL     1      -8.498 -10.662   7.581  1.00  0.00     0.053 C 
BRANCH  17  18
ATOM     18  C   UNL     1      -7.528  -9.604   7.149  1.00  0.00     0.041 C 
ATOM     19  O   UNL     1      -7.887  -8.398   7.103  1.00  0.00    -0.550 OA
ATOM     20  O   UNL     1      -6.244  -9.955   6.756  1.00  0.00    -0.550 OA
ENDBRANCH  17  18
ENDBRANCH  16  17
ENDBRANCH  15  16
ENDBRANCH  14  15
ENDBRANCH  13  14
ENDBRANCH  12  13
ENDBRANCH  11  12
ENDBRANCH   1  11
TORSDOF 15
ENDMDL
MODEL 2
REMARK VINA RESULT:    -5.611      0.676      5.656
REMARK INTER + INTRA:         -12.790
REMARK INTER:                 -10.908
REMARK INTRA:                  -1.882
REMARK UNBOUND:                -2.258
REMARK SMILES O=C([O-])CCCCCCCCCCCCCCC(=O)[O-]
REMARK SMILES IDX 10 1 9 2 8 3 7 4 6 5 5 6 4 7 2 8 1 9 3 10 11 11 12 12 13 13
REMARK SMILES IDX 14 14 15 15 16 16 17 17 18 18 19 19 20 20
REMARK H PARENT
REMARK Flexibility Score: inf
ROOT
ATOM      1  C   UNL     1     -12.948  -8.066   9.782  1.00  0.00     0.000 C 
ENDROOT
BRANCH   1   2
ATOM      2  C   UNL     1     -11.517  -7.619  10.137  1.00  0.00     0.000 C 
BRANCH   2   3
ATOM      3  C   UNL     1     -10.513  -7.642   8.969  1.00  0.00     0.000 C 
BRANCH   3   4
ATOM      4  C   UNL     1     -11.003  -8.477   7.774  1.00  0.00     0.000 C 
BRANCH   4   5
ATOM      5  C   UNL     1     -10.636  -9.968   7.893  1.00  0.00     0.000 C 
BRANCH   5   6
ATOM      6  C   UNL     1      -9.225 -10.258   8.445  1.00  0.00     0.006 C 
BRANCH   6   7
ATOM      7  C   UNL     1      -8.210 -10.727   7.390  1.00  0.00     0.053 C 
BRANCH   7   8
ATOM      8  C   UNL     1      -7.211  -9.661   7.059  1.00  0.00     0.041 C 
ATOM      9  O   UNL     1      -7.551  -8.449   7.072  1.00  0.00    -0.550 OA
ATOM     10  O   UNL     1      -5.914 -10.008   6.707  1.00  0.00    -0.550 OA
ENDBRANCH   7   8
ENDBRANCH   6   7
ENDBRANCH   5   6
ENDBRANCH   4   5
ENDBRANCH   3   4
ENDBRANCH   2   3
ENDBRANCH   1   2
BRANCH   1  11
ATOM     11  C   UNL     1     -13.356  -9.378  10.469  1.00  0.00     0.000 C 
BRANCH  11  12
ATOM     12  C   UNL     1     -12.174  -9.984  11.241  1.00  0.00     0.000 C 
BRANCH  12  13
ATOM     13  C   UNL     1     -12.349 -11.487  11.507  1.00  0.00     0.000 C 
BRANCH  13  14
ATOM     14  C   UNL     1     -12.204 -12.335  10.235  1.00  0.00     0.000 C 
BRANCH  14  15
ATOM     15  C   UNL     1     -10.797 -12.935  10.134  1.00  0.00     0.000 C 
BRANCH  15  16
ATOM     16  C   UNL     1     -10.578 -13.606   8.769  1.00  0.00     0.006 C 
BRANCH  16  17
ATOM     17  C   UNL     1     -11.522 -14.794   8.546  1.00  0.00     0.053 C 
BRANCH  17  18
ATOM     18  C   UNL     1     -10.863 -16.098   8.879  1.00  0.00     0.041 C 
ATOM     19  O   UNL     1      -9.608 -16.170   8.959  1.00  0.00    -0.550 OA
ATOM     20  O   UNL     1     -11.630 -17.241   9.057  1.00  0.00    -0.550 OA
ENDBRANCH  17  18
ENDBRANCH  16  17
ENDBRANCH  15  16
ENDBRANCH  14  15
ENDBRANCH  13  14
ENDBRANCH  12  13
ENDBRANCH  11  12
ENDBRANCH   1  11
TORSDOF 15
ENDMDL
MODEL 3
REMARK VINA RESULT:    -5.482      1.316      5.749
REMARK INTER + INTRA:         -12.548
REMARK INTER:                 -10.749
REMARK INTRA:                  -1.798
REMARK UNBOUND:                -2.258
REMARK SMILES O=C([O-])CCCCCCCCCCCCCCC(=O)[O-]
REMARK SMILES IDX 10 1 9 2 8 3 7 4 6 5 5 6 4 7 2 8 1 9 3 10 11 11 12 12 13 13
REMARK SMILES IDX 14 14 15 15 16 16 17 17 18 18 19 19 20 20
REMARK H PARENT
REMARK Flexibility Score: inf
ROOT
ATOM      1  C   UNL     1     -13.791 -10.012  10.641  1.00  0.00     0.000 C 
ENDROOT
BRANCH   1   2
ATOM      2  C   UNL     1     -13.871  -8.582  10.074  1.00  0.00     0.000 C 
BRANCH   2   3
ATOM      3  C   UNL     1     -12.524  -7.968   9.647  1.00  0.00     0.000 C 
BRANCH   3   4
ATOM      4  C   UNL     1     -12.108  -8.368   8.222  1.00  0.00     0.000 C 
BRANCH   4   5
ATOM      5  C   UNL     1     -10.580  -8.395   8.028  1.00  0.00     0.000 C 
BRANCH   5   6
ATOM      6  C   UNL     1      -9.772  -8.926   9.231  1.00  0.00     0.006 C 
BRANCH   6   7
ATOM      7  C   UNL     1      -9.298 -10.380   9.089  1.00  0.00     0.053 C 
BRANCH   7   8
ATOM      8  C   UNL     1      -8.792 -10.674   7.711  1.00  0.00     0.041 C 
ATOM      9  O   UNL     1      -9.359 -11.546   7.001  1.00  0.00    -0.550 OA
ATOM     10  O   UNL     1      -7.676 -10.009   7.222  1.00  0.00    -0.550 OA
ENDBRANCH   7   8
ENDBRANCH   6   7
ENDBRANCH   5   6
ENDBRANCH   4   5
ENDBRANCH   3   4
ENDBRANCH   2   3
ENDBRANCH   1   2
BRANCH   1  11
ATOM     11  C   UNL     1     -12.451 -10.310  11.333  1.00  0.00     0.000 C 
BRANCH  11  12
ATOM     12  C   UNL     1     -12.063 -11.786  11.162  1.00  0.00     0.000 C 
BRANCH  12  13
ATOM     13  C   UNL     1     -12.946 -12.515  10.137  1.00  0.00     0.000 C 
BRANCH  13  14
ATOM     14  C   UNL     1     -12.128 -13.207   9.037  1.00  0.00     0.000 C 
BRANCH  14  15
ATOM     15  C   UNL     1     -10.712 -13.529   9.528  1.00  0.00     0.000 C 
BRANCH  15  16
ATOM     16  C   UNL     1     -10.160 -14.786   8.839  1.00  0.00     0.006 C 
BRANCH  16  17
ATOM     17  C   UNL     1     -10.296 -16.037   9.717  1.00  0.00     0.053 C 
BRANCH  17  18
ATOM     18  C   UNL     1     -11.351 -16.967   9.200  1.00  0.00     0.041 C 
ATOM     19  O   UNL     1     -11.280 -18.202   9.439  1.00  0.00    -0.550 OA
ATOM     20  O   UNL     1     -12.388 -16.477   8.417  1.00  0.00    -0.550 OA
ENDBRANCH  17  18
ENDBRANCH  16  17
ENDBRANCH  15  16
ENDBRANCH  14  15
ENDBRANCH  13  14
ENDBRANCH  12  13
ENDBRANCH  11  12
ENDBRANCH   1  11
TORSDOF 15
ENDMDL
MODEL 4
REMARK VINA RESULT:    -5.435      1.196      1.743
REMARK INTER + INTRA:         -12.458
REMARK INTER:                 -10.692
REMARK INTRA:                  -1.766
REMARK UNBOUND:                -2.258
REMARK SMILES O=C([O-])CCCCCCCCCCCCCCC(=O)[O-]
REMARK SMILES IDX 10 1 9 2 8 3 7 4 6 5 5 6 4 7 2 8 1 9 3 10 11 11 12 12 13 13
REMARK SMILES IDX 14 14 15 15 16 16 17 17 18 18 19 19 20 20
REMARK H PARENT
REMARK Flexibility Score: inf
ROOT
ATOM      1  C   UNL     1     -12.394 -10.195  11.387  1.00  0.00     0.000 C 
ENDROOT
BRANCH   1   2
ATOM      2  C   UNL     1     -11.946 -11.649  11.143  1.00  0.00     0.000 C 
BRANCH   2   3
ATOM      3  C   UNL     1     -12.880 -12.481  10.245  1.00  0.00     0.000 C 
BRANCH   3   4
ATOM      4  C   UNL     1     -12.141 -13.161   9.080  1.00  0.00     0.000 C 
BRANCH   4   5
ATOM      5  C   UNL     1     -10.696 -13.558   9.434  1.00  0.00     0.000 C 
BRANCH   5   6
ATOM      6  C   UNL     1     -10.164 -14.817   8.718  1.00  0.00     0.006 C 
BRANCH   6   7
ATOM      7  C   UNL     1     -10.204 -16.098   9.565  1.00  0.00     0.053 C 
BRANCH   7   8
ATOM      8  C   UNL     1     -11.353 -16.983   9.191  1.00  0.00     0.041 C 
ATOM      9  O   UNL     1     -11.373 -18.185   9.565  1.00  0.00    -0.550 OA
ATOM     10  O   UNL     1     -12.385 -16.490   8.405  1.00  0.00    -0.550 OA
ENDBRANCH   7   8
ENDBRANCH   6   7
ENDBRANCH   5   6
ENDBRANCH   4   5
ENDBRANCH   3   4
ENDBRANCH   2   3
ENDBRANCH   1   2
BRANCH   1  11
ATOM     11  C   UNL     1     -13.729  -9.855  10.707  1.00  0.00     0.000 C 
BRANCH  11  12
ATOM     12  C   UNL     1     -13.611  -8.561   9.886  1.00  0.00     0.000 C 
BRANCH  12  13
ATOM     13  C   UNL     1     -12.218  -7.920   9.989  1.00  0.00     0.000 C 
BRANCH  13  14
ATOM     14  C   UNL     1     -11.614  -7.594   8.616  1.00  0.00     0.000 C 
BRANCH  14  15
ATOM     15  C   UNL     1     -11.457  -8.864   7.771  1.00  0.00     0.000 C 
BRANCH  15  16
ATOM     16  C   UNL     1     -10.308  -9.738   8.294  1.00  0.00     0.006 C 
BRANCH  16  17
ATOM     17  C   UNL     1      -8.936  -9.245   7.814  1.00  0.00     0.053 C 
BRANCH  17  18
ATOM     18  C   UNL     1      -8.064 -10.377   7.365  1.00  0.00     0.041 C 
ATOM     19  O   UNL     1      -6.874 -10.159   7.013  1.00  0.00    -0.550 OA
ATOM     20  O   UNL     1      -8.577 -11.665   7.293  1.00  0.00    -0.550 OA
ENDBRANCH  17  18
ENDBRANCH  16  17
ENDBRANCH  15  16
ENDBRANCH  14  15
ENDBRANCH  13  14
ENDBRANCH  12  13
ENDBRANCH  11  12
ENDBRANCH   1  11
TORSDOF 15
ENDMDL
MODEL 5
REMARK VINA RESULT:    -5.124      3.098      5.176
REMARK INTER + INTRA:         -11.876
REMARK INTER:                  -9.964
REMARK INTRA:                  -1.912
REMARK UNBOUND:                -2.258
REMARK SMILES O=C([O-])CCCCCCCCCCCCCCC(=O)[O-]
REMARK SMILES IDX 10 1 9 2 8 3 7 4 6 5 5 6 4 7 2 8 1 9 3 10 11 11 12 12 13 13
REMARK SMILES IDX 14 14 15 15 16 16 17 17 18 18 19 19 20 20
REMARK H PARENT
REMARK Flexibility Score: inf
ROOT
ATOM      1  C   UNL     1     -10.875  -8.065   8.464  1.00  0.00     0.000 C 
ENDROOT
BRANCH   1   2
ATOM      2  C   UNL     1      -9.526  -8.324   7.767  1.00  0.00     0.000 C 
BRANCH   2   3
ATOM      3  C   UNL     1      -8.684  -9.465   8.368  1.00  0.00     0.000 C 
BRANCH   3   4
ATOM      4  C   UNL     1      -8.425 -10.607   7.372  1.00  0.00     0.000 C 
BRANCH   4   5
ATOM      5  C   UNL     1      -9.594 -11.607   7.286  1.00  0.00     0.000 C 
BRANCH   5   6
ATOM      6  C   UNL     1     -10.305 -11.905   8.622  1.00  0.00     0.006 C 
BRANCH   6   7
ATOM      7  C   UNL     1     -11.702 -12.527   8.476  1.00  0.00     0.053 C 
BRANCH   7   8
ATOM      8  C   UNL     1     -11.644 -14.020   8.376  1.00  0.00     0.041 C 
ATOM      9  O   UNL     1     -12.636 -14.664   7.944  1.00  0.00    -0.550 OA
ATOM     10  O   UNL     1     -10.507 -14.702   8.787  1.00  0.00    -0.550 OA
ENDBRANCH   7   8
ENDBRANCH   6   7
ENDBRANCH   5   6
ENDBRANCH   4   5
ENDBRANCH   3   4
ENDBRANCH   2   3
ENDBRANCH   1   2
BRANCH   1  11
ATOM     11  C   UNL     1     -10.746  -7.922   9.988  1.00  0.00     0.000 C 
BRANCH  11  12
ATOM     12  C   UNL     1     -11.843  -8.722  10.708  1.00  0.00     0.000 C 
BRANCH  12  13
ATOM     13  C   UNL     1     -12.890  -9.293   9.740  1.00  0.00     0.000 C 
BRANCH  13  14
ATOM     14  C   UNL     1     -14.312  -8.803  10.049  1.00  0.00     0.000 C 
BRANCH  14  15
ATOM     15  C   UNL     1     -14.658  -7.565   9.214  1.00  0.00     0.000 C 
BRANCH  15  16
ATOM     16  C   UNL     1     -14.682  -6.300  10.085  1.00  0.00     0.006 C 
BRANCH  16  17
ATOM     17  C   UNL     1     -13.466  -5.398   9.837  1.00  0.00     0.053 C 
BRANCH  17  18
ATOM     18  C   UNL     1     -13.848  -4.126   9.144  1.00  0.00     0.041 C 
ATOM     19  O   UNL     1     -13.183  -3.074   9.339  1.00  0.00    -0.550 OA
ATOM     20  O   UNL     1     -14.964  -4.091   8.318  1.00  0.00    -0.550 OA
ENDBRANCH  17  18
ENDBRANCH  16  17
ENDBRANCH  15  16
ENDBRANCH  14  15
ENDBRANCH  13  14
ENDBRANCH  12  13
ENDBRANCH  11  12
ENDBRANCH   1  11
TORSDOF 15
ENDMDL
MODEL 6
REMARK VINA RESULT:    -5.039      2.879      6.997
REMARK INTER + INTRA:         -11.716
REMARK INTER:                 -10.124
REMARK INTRA:                  -1.592
REMARK UNBOUND:                -2.258
REMARK SMILES O=C([O-])CCCCCCCCCCCCCCC(=O)[O-]
REMARK SMILES IDX 10 1 9 2 8 3 7 4 6 5 5 6 4 7 2 8 1 9 3 10 11 11 12 12 13 13
REMARK SMILES IDX 14 14 15 15 16 16 17 17 18 18 19 19 20 20
REMARK H PARENT
REMARK Flexibility Score: inf
ROOT
ATOM      1  C   UNL     1      -9.269  -9.756   9.249  1.00  0.00     0.000 C 
ENDROOT
BRANCH   1   2
ATOM      2  C   UNL     1     -10.292  -8.705   8.778  1.00  0.00     0.000 C 
BRANCH   2   3
ATOM      3  C   UNL     1     -10.822  -7.766   9.878  1.00  0.00     0.000 C 
BRANCH   3   4
ATOM      4  C   UNL     1     -12.093  -8.300  10.560  1.00  0.00     0.000 C 
BRANCH   4   5
ATOM      5  C   UNL     1     -13.231  -8.595   9.564  1.00  0.00     0.000 C 
BRANCH   5   6
ATOM      6  C   UNL     1     -14.564  -7.875   9.856  1.00  0.00     0.006 C 
BRANCH   6   7
ATOM      7  C   UNL     1     -14.727  -6.523   9.145  1.00  0.00     0.053 C 
BRANCH   7   8
ATOM      8  C   UNL     1     -14.386  -5.372  10.041  1.00  0.00     0.041 C 
ATOM      9  O   UNL     1     -15.279  -4.831  10.744  1.00  0.00    -0.550 OA
ATOM     10  O   UNL     1     -13.088  -4.879  10.077  1.00  0.00    -0.550 OA
ENDBRANCH   7   8
ENDBRANCH   6   7
ENDBRANCH   5   6
ENDBRANCH   4   5
ENDBRANCH   3   4
ENDBRANCH   2   3
ENDBRANCH   1   2
BRANCH   1  11
ATOM     11  C   UNL     1      -9.850 -11.177   9.305  1.00  0.00     0.000 C 
BRANCH  11  12
ATOM     12  C   UNL     1     -10.509 -11.447  10.666  1.00  0.00     0.000 C 
BRANCH  12  13
ATOM     13  C   UNL     1     -11.895 -12.097  10.533  1.00  0.00     0.000 C 
BRANCH  13  14
ATOM     14  C   UNL     1     -12.266 -12.409   9.076  1.00  0.00     0.000 C 
BRANCH  14  15
ATOM     15  C   UNL     1     -13.099 -13.693   8.986  1.00  0.00     0.000 C 
BRANCH  15  16
ATOM     16  C   UNL     1     -12.280 -14.841   8.377  1.00  0.00     0.006 C 
BRANCH  16  17
ATOM     17  C   UNL     1     -10.769 -14.590   8.465  1.00  0.00     0.053 C 
BRANCH  17  18
ATOM     18  C   UNL     1     -10.034 -15.789   8.982  1.00  0.00     0.041 C 
ATOM     19  O   UNL     1     -10.564 -16.528   9.854  1.00  0.00    -0.550 OA
ATOM     20  O   UNL     1      -8.750 -16.066   8.534  1.00  0.00    -0.550 OA
ENDBRANCH  17  18
ENDBRANCH  16  17
ENDBRANCH  15  16
ENDBRANCH  14  15
ENDBRANCH  13  14
ENDBRANCH  12  13
ENDBRANCH  11  12
ENDBRANCH   1  11
TORSDOF 15
ENDMDL
MODEL 7
REMARK VINA RESULT:    -5.026      2.404      4.338
REMARK INTER + INTRA:         -11.691
REMARK INTER:                 -10.187
REMARK INTRA:                  -1.504
REMARK UNBOUND:                -2.258
REMARK SMILES O=C([O-])CCCCCCCCCCCCCCC(=O)[O-]
REMARK SMILES IDX 10 1 9 2 8 3 7 4 6 5 5 6 4 7 2 8 1 9 3 10 11 11 12 12 13 13
REMARK SMILES IDX 14 14 15 15 16 16 17 17 18 18 19 19 20 20
REMARK H PARENT
REMARK Flexibility Score: inf
ROOT
ATOM      1  C   UNL     1      -8.827  -9.480   8.422  1.00  0.00     0.000 C 
ENDROOT
BRANCH   1   2
ATOM      2  C   UNL     1      -8.216 -10.454   7.396  1.00  0.00     0.000 C 
BRANCH   2   3
ATOM      3  C   UNL     1      -8.950 -11.801   7.252  1.00  0.00     0.000 C 
BRANCH   3   4
ATOM      4  C   UNL     1      -9.998 -12.033   8.353  1.00  0.00     0.000 C 
BRANCH   4   5
ATOM      5  C   UNL     1     -11.334 -12.573   7.808  1.00  0.00     0.000 C 
BRANCH   5   6
ATOM      6  C   UNL     1     -11.884 -13.819   8.532  1.00  0.00     0.006 C 
BRANCH   6   7
ATOM      7  C   UNL     1     -10.900 -14.476   9.511  1.00  0.00     0.053 C 
BRANCH   7   8
ATOM      8  C   UNL     1     -10.397 -15.792   9.004  1.00  0.00     0.041 C 
ATOM      9  O   UNL     1     -11.158 -16.795   8.985  1.00  0.00    -0.550 OA
ATOM     10  O   UNL     1      -9.080 -15.919   8.580  1.00  0.00    -0.550 OA
ENDBRANCH   7   8
ENDBRANCH   6   7
ENDBRANCH   5   6
ENDBRANCH   4   5
ENDBRANCH   3   4
ENDBRANCH   2   3
ENDBRANCH   1   2
BRANCH   1  11
ATOM     11  C   UNL     1      -9.412  -8.215   7.775  1.00  0.00     0.000 C 
BRANCH  11  12
ATOM     12  C   UNL     1     -10.673  -7.752   8.520  1.00  0.00     0.000 C 
BRANCH  12  13
ATOM     13  C   UNL     1     -11.966  -8.280   7.879  1.00  0.00     0.000 C 
BRANCH  13  14
ATOM     14  C   UNL     1     -13.224  -7.876   8.661  1.00  0.00     0.000 C 
BRANCH  14  15
ATOM     15  C   UNL     1     -13.230  -8.513  10.056  1.00  0.00     0.000 C 
BRANCH  15  16
ATOM     16  C   UNL     1     -13.487 -10.025   9.972  1.00  0.00     0.006 C 
BRANCH  16  17
ATOM     17  C   UNL     1     -13.649 -10.666  11.356  1.00  0.00     0.053 C 
BRANCH  17  18
ATOM     18  C   UNL     1     -12.325 -10.998  11.974  1.00  0.00     0.041 C 
ATOM     19  O   UNL     1     -11.505 -11.730  11.359  1.00  0.00    -0.550 OA
ATOM     20  O   UNL     1     -12.014 -10.535  13.245  1.00  0.00    -0.550 OA
ENDBRANCH  17  18
ENDBRANCH  16  17
ENDBRANCH  15  16
ENDBRANCH  14  15
ENDBRANCH  13  14
ENDBRANCH  12  13
ENDBRANCH  11  12
ENDBRANCH   1  11
TORSDOF 15
ENDMDL
MODEL 8
REMARK VINA RESULT:    -5.008      2.811      5.636
REMARK INTER + INTRA:         -11.657
REMARK INTER:                 -10.234
REMARK INTRA:                  -1.423
REMARK UNBOUND:                -2.258
REMARK SMILES O=C([O-])CCCCCCCCCCCCCCC(=O)[O-]
REMARK SMILES IDX 10 1 9 2 8 3 7 4 6 5 5 6 4 7 2 8 1 9 3 10 11 11 12 12 13 13
REMARK SMILES IDX 14 14 15 15 16 16 17 17 18 18 19 19 20 20
REMARK H PARENT
REMARK Flexibility Score: inf
ROOT
ATOM      1  C   UNL     1     -10.300  -8.227   8.627  1.00  0.00     0.000 C 
ENDROOT
BRANCH   1   2
ATOM      2  C   UNL     1     -11.117  -7.276   9.522  1.00  0.00     0.000 C 
BRANCH   2   3
ATOM      3  C   UNL     1     -12.509  -6.899   8.980  1.00  0.00     0.000 C 
BRANCH   3   4
ATOM      4  C   UNL     1     -13.623  -7.058  10.028  1.00  0.00     0.000 C 
BRANCH   4   5
ATOM      5  C   UNL     1     -14.609  -8.192   9.689  1.00  0.00     0.000 C 
BRANCH   5   6
ATOM      6  C   UNL     1     -14.361  -9.523  10.428  1.00  0.00     0.006 C 
BRANCH   6   7
ATOM      7  C   UNL     1     -13.072 -10.251  10.018  1.00  0.00     0.053 C 
BRANCH   7   8
ATOM      8  C   UNL     1     -12.806 -11.449  10.877  1.00  0.00     0.041 C 
ATOM      9  O   UNL     1     -13.233 -12.582  10.533  1.00  0.00    -0.550 OA
ATOM     10  O   UNL     1     -12.112 -11.308  12.072  1.00  0.00    -0.550 OA
ENDBRANCH   7   8
ENDBRANCH   6   7
ENDBRANCH   5   6
ENDBRANCH   4   5
ENDBRANCH   3   4
ENDBRANCH   2   3
ENDBRANCH   1   2
BRANCH   1  11
ATOM     11  C   UNL     1      -9.286  -9.071   9.415  1.00  0.00     0.000 C 
BRANCH  11  12
ATOM     12  C   UNL     1      -9.405 -10.557   9.044  1.00  0.00     0.000 C 
BRANCH  12  13
ATOM     13  C   UNL     1     -10.241 -10.785   7.774  1.00  0.00     0.000 C 
BRANCH  13  14
ATOM     14  C   UNL     1     -10.857 -12.190   7.715  1.00  0.00     0.000 C 
BRANCH  14  15
ATOM     15  C   UNL     1      -9.877 -13.241   8.249  1.00  0.00     0.000 C 
BRANCH  15  16
ATOM     16  C   UNL     1     -10.584 -14.231   9.187  1.00  0.00     0.006 C 
BRANCH  16  17
ATOM     17  C   UNL     1     -10.169 -15.684   8.921  1.00  0.00     0.053 C 
BRANCH  17  18
ATOM     18  C   UNL     1     -11.342 -16.614   8.963  1.00  0.00     0.041 C 
ATOM     19  O   UNL     1     -11.188 -17.812   9.321  1.00  0.00    -0.550 OA
ATOM     20  O   UNL     1     -12.597 -16.171   8.565  1.00  0.00    -0.550 OA
ENDBRANCH  17  18
ENDBRANCH  16  17
ENDBRANCH  15  16
ENDBRANCH  14  15
ENDBRANCH  13  14
ENDBRANCH  12  13
ENDBRANCH  11  12
ENDBRANCH   1  11
TORSDOF 15
ENDMDL
MODEL 9
REMARK VINA RESULT:    -4.961      1.736      5.239
REMARK INTER + INTRA:         -11.569
REMARK INTER:                  -9.224
REMARK INTRA:                  -2.345
REMARK UNBOUND:                -2.258
REMARK SMILES O=C([O-])CCCCCCCCCCCCCCC(=O)[O-]
REMARK SMILES IDX 10 1 9 2 8 3 7 4 6 5 5 6 4 7 2 8 1 9 3 10 11 11 12 12 13 13
REMARK SMILES IDX 14 14 15 15 16 16 17 17 18 18 19 19 20 20
REMARK H PARENT
REMARK Flexibility Score: inf
ROOT
ATOM      1  C   UNL     1     -14.536  -6.699   9.638  1.00  0.00     0.000 C 
ENDROOT
BRANCH   1   2
ATOM      2  C   UNL     1     -13.133  -6.459   9.051  1.00  0.00     0.000 C 
BRANCH   2   3
ATOM      3  C   UNL     1     -11.962  -6.756  10.007  1.00  0.00     0.000 C 
BRANCH   3   4
ATOM      4  C   UNL     1     -10.908  -7.691   9.390  1.00  0.00     0.000 C 
BRANCH   4   5
ATOM      5  C   UNL     1     -11.418  -8.430   8.139  1.00  0.00     0.000 C 
BRANCH   5   6
ATOM      6  C   UNL     1     -10.860  -9.855   7.943  1.00  0.00     0.006 C 
BRANCH   6   7
ATOM      7  C   UNL     1      -9.516 -10.116   8.638  1.00  0.00     0.053 C 
BRANCH   7   8
ATOM      8  C   UNL     1      -8.355  -9.897   7.717  1.00  0.00     0.041 C 
ATOM      9  O   UNL     1      -7.990  -8.728   7.426  1.00  0.00    -0.550 OA
ATOM     10  O   UNL     1      -7.698 -10.983   7.155  1.00  0.00    -0.550 OA
ENDBRANCH   7   8
ENDBRANCH   6   7
ENDBRANCH   5   6
ENDBRANCH   4   5
ENDBRANCH   3   4
ENDBRANCH   2   3
ENDBRANCH   1   2
BRANCH   1  11
ATOM     11  C   UNL     1     -15.156  -8.032   9.190  1.00  0.00     0.000 C 
BRANCH  11  12
ATOM     12  C   UNL     1     -15.921  -8.696  10.344  1.00  0.00     0.000 C 
BRANCH  12  13
ATOM     13  C   UNL     1     -15.110  -9.806  11.030  1.00  0.00     0.000 C 
BRANCH  13  14
ATOM     14  C   UNL     1     -13.748 -10.044  10.362  1.00  0.00     0.000 C 
BRANCH  14  15
ATOM     15  C   UNL     1     -12.684 -10.412  11.402  1.00  0.00     0.000 C 
BRANCH  15  16
ATOM     16  C   UNL     1     -11.974 -11.722  11.028  1.00  0.00     0.006 C 
BRANCH  16  17
ATOM     17  C   UNL     1     -12.732 -12.507   9.949  1.00  0.00     0.053 C 
BRANCH  17  18
ATOM     18  C   UNL     1     -11.808 -13.344   9.117  1.00  0.00     0.041 C 
ATOM     19  O   UNL     1     -10.606 -13.493   9.463  1.00  0.00    -0.550 OA
ATOM     20  O   UNL     1     -12.262 -13.922   7.939  1.00  0.00    -0.550 OA
ENDBRANCH  17  18
ENDBRANCH  16  17
ENDBRANCH  15  16
ENDBRANCH  14  15
ENDBRANCH  13  14
ENDBRANCH  12  13
ENDBRANCH  11  12
ENDBRANCH   1  11
TORSDOF 15
ENDMDL
