MODEL 1
REMARK VINA RESULT:    -2.504      0.000      0.000
REMARK INTER + INTRA:          -4.059
REMARK INTER:                  -3.822
REMARK INTRA:                  -0.237
REMARK UNBOUND:                -0.237
REMARK SMILES CCCCCCCCCCC(=O)[O-]
REMARK SMILES IDX 7 1 8 2 9 3 10 4 11 5 12 6 13 7 6 8 5 9 4 10 3 11 2 12 1 13
REMARK H PARENT
REMARK Flexibility Score: inf
ROOT
ATOM      1  C   UNL     1     -28.998   7.405  -1.333  1.00  0.00     0.000 C 
ENDROOT
BRANCH   1   2
ATOM      2  C   UNL     1     -28.676   7.555   0.161  1.00  0.00     0.000 C 
BRANCH   2   3
ATOM      3  C   UNL     1     -29.890   7.277   1.061  1.00  0.00     0.006 C 
BRANCH   3   4
ATOM      4  C   UNL     1     -31.096   6.742   0.278  1.00  0.00     0.053 C 
BRANCH   4   5
ATOM      5  C   UNL     1     -32.195   7.757   0.256  1.00  0.00     0.041 C 
ATOM      6  O   UNL     1     -32.583   8.293   1.328  1.00  0.00    -0.550 OA
ATOM      7  O   UNL     1     -32.757   8.148  -0.952  1.00  0.00    -0.550 OA
ENDBRANCH   4   5
ENDBRANCH   3   4
ENDBRANCH   2   3
ENDBRANCH   1   2
BRANCH   1   8
ATOM      8  C   UNL     1     -27.829   7.897  -2.199  1.00  0.00     0.000 C 
BRANCH   8   9
ATOM      9  C   UNL     1     -28.249   8.222  -3.644  1.00  0.00    -0.000 C 
BRANCH   9  10
ATOM     10  C   UNL     1     -27.200   7.880  -4.721  1.00  0.00    -0.000 C 
BRANCH  10  11
ATOM     11  C   UNL     1     -27.071   8.910  -5.857  1.00  0.00    -0.000 C 
BRANCH  11  12
ATOM     12  C   UNL     1     -26.433   8.324  -7.125  1.00  0.00    -0.003 C 
ATOM     13  C   UNL     1     -24.922   8.531  -7.125  1.00  0.00     0.004 C 
ENDBRANCH  11  12
ENDBRANCH  10  11
ENDBRANCH   9  10
ENDBRANCH   8   9
ENDBRANCH   1   8
TORSDOF 9
ENDMDL
MODEL 2
REMARK VINA RESULT:    -1.873      3.839      7.453
REMARK INTER + INTRA:          -3.095
REMARK INTER:                  -2.656
REMARK INTRA:                  -0.439
REMARK UNBOUND:                -0.237
REMARK SMILES CCCCCCCCCCC(=O)[O-]
REMARK SMILES IDX 7 1 8 2 9 3 10 4 11 5 12 6 13 7 6 8 5 9 4 10 3 11 2 12 1 13
REMARK H PARENT
REMARK Flexibility Score: inf
ROOT
ATOM      1  C   UNL     1     -27.830   8.213  -2.300  1.00  0.00     0.000 C 
ENDROOT
BRANCH   1   2
ATOM      2  C   UNL     1     -28.543   7.934  -3.632  1.00  0.00     0.000 C 
BRANCH   2   3
ATOM      3  C   UNL     1     -27.879   8.644  -4.821  1.00  0.00     0.006 C 
BRANCH   3   4
ATOM      4  C   UNL     1     -26.656   7.886  -5.354  1.00  0.00     0.053 C 
BRANCH   4   5
ATOM      5  C   UNL     1     -26.079   8.595  -6.539  1.00  0.00     0.041 C 
ATOM      6  O   UNL     1     -25.067   8.127  -7.125  1.00  0.00    -0.550 OA
ATOM      7  O   UNL     1     -26.688   9.743  -7.027  1.00  0.00    -0.550 OA
ENDBRANCH   4   5
ENDBRANCH   3   4
ENDBRANCH   2   3
ENDBRANCH   1   2
BRANCH   1   8
ATOM      8  C   UNL     1     -28.618   7.620  -1.122  1.00  0.00     0.000 C 
BRANCH   8   9
ATOM      9  C   UNL     1     -29.892   6.880  -1.565  1.00  0.00    -0.000 C 
BRANCH   9  10
ATOM     10  C   UNL     1     -30.797   6.391  -0.415  1.00  0.00    -0.000 C 
BRANCH  10  11
ATOM     11  C   UNL     1     -30.660   7.178   0.901  1.00  0.00    -0.000 C 
BRANCH  11  12
ATOM     12  C   UNL     1     -31.979   7.824   1.349  1.00  0.00    -0.003 C 
ATOM     13  C   UNL     1     -32.730   8.419   0.162  1.00  0.00     0.004 C 
ENDBRANCH  11  12
ENDBRANCH  10  11
ENDBRANCH   9  10
ENDBRANCH   8   9
ENDBRANCH   1   8
TORSDOF 9
ENDMDL
