MODEL 1
REMARK VINA RESULT:    -3.933      0.000      0.000
REMARK INTER + INTRA:          -5.426
REMARK INTER:                  -5.542
REMARK INTRA:                   0.117
REMARK UNBOUND:                 0.117
REMARK SMILES CC1=CCC(=C(C)C)C(=O)CC(C)=CCC1
REMARK SMILES IDX 12 1 14 2 13 3 15 4 16 5 2 6 1 7 3 8 11 10 9 11 10 12 5 13
REMARK SMILES IDX 6 14 7 15 8 16 4 17
REMARK H PARENT
REMARK Flexibility Score: 60.00
ROOT
ATOM      1  C   UNL     1       2.044   5.258  61.800  1.00  0.00    -0.070 C 
ATOM      2  C   UNL     1       2.580   6.409  61.338  1.00  0.00    -0.027 C 
ATOM      3  C   UNL     1       2.962   4.076  61.989  1.00  0.00     0.039 C 
ENDROOT
BRANCH   2   4
ATOM      4  C   UNL     1       1.847   7.722  61.174  1.00  0.00     0.032 C 
BRANCH   4   5
ATOM      5  C   UNL     1       1.789   8.595  62.444  1.00  0.00     0.034 C 
BRANCH   5   6
ATOM      6  C   UNL     1       0.419   9.204  62.688  1.00  0.00    -0.077 C 
ATOM      7  C   UNL     1      -0.024  10.321  61.776  1.00  0.00     0.039 C 
ATOM      8  C   UNL     1      -0.457   8.766  63.625  1.00  0.00    -0.023 CG0
ATOM      9  G   UNL     1      -0.225   7.680  64.656  1.00  0.00     0.000 G0
ENDBRANCH   5   6
ENDBRANCH   4   5
ENDBRANCH   2   4
BRANCH   1  10
ATOM     10  C   UNL     1       0.594   5.126  62.220  1.00  0.00     0.111 C 
BRANCH  10  11
ATOM     11  C   UNL     1       0.414   5.404  63.690  1.00  0.00     0.163 C 
ATOM     12  O   UNL     1       1.241   4.896  64.495  1.00  0.00    -0.294 OA
BRANCH  11  13
ATOM     13  C   UNL     1      -0.659   6.302  64.210  1.00  0.00    -0.002 C 
ATOM     14  C   UNL     1      -1.944   5.852  64.340  1.00  0.00    -0.069 C 
ATOM     15  C   UNL     1      -3.019   6.680  65.008  1.00  0.00     0.039 C 
ATOM     16  C   UNL     1      -2.355   4.492  63.820  1.00  0.00     0.039 C 
BRANCH  13  17
ATOM     17  C   UNL     1      -0.244   7.690  64.670  1.00  0.00     0.066 CG0
ATOM     18  G   UNL     1      -0.449   8.739  63.596  1.00  0.00     0.000 G0
ENDBRANCH  13  17
ENDBRANCH  11  13
ENDBRANCH  10  11
ENDBRANCH   1  10
TORSDOF 0
ENDMDL
MODEL 2
REMARK VINA RESULT:    -3.580      2.411      3.725
REMARK INTER + INTRA:          -4.928
REMARK INTER:                  -5.437
REMARK INTRA:                   0.510
REMARK UNBOUND:                 0.117
REMARK SMILES CC1=CCC(=C(C)C)C(=O)CC(C)=CCC1
REMARK SMILES IDX 12 1 14 2 13 3 15 4 16 5 2 6 1 7 3 8 11 10 9 11 10 12 5 13
REMARK SMILES IDX 6 14 7 15 8 16 4 17
REMARK H PARENT
REMARK Flexibility Score: 60.00
ROOT
ATOM      1  C   UNL     1      -0.243   4.916  63.532  1.00  0.00    -0.070 C 
ATOM      2  C   UNL     1       0.410   5.029  62.355  1.00  0.00    -0.027 C 
ATOM      3  C   UNL     1      -1.745   4.797  63.499  1.00  0.00     0.039 C 
ENDROOT
BRANCH   2   4
ATOM      4  C   UNL     1       1.913   5.063  62.176  1.00  0.00     0.032 C 
BRANCH   4   5
ATOM      5  C   UNL     1       2.456   6.336  61.495  1.00  0.00     0.034 C 
BRANCH   5   6
ATOM      6  C   UNL     1       1.972   7.617  62.152  1.00  0.00    -0.077 C 
ATOM      7  C   UNL     1       1.215   8.601  61.296  1.00  0.00     0.039 C 
ATOM      8  C   UNL     1       2.116   7.902  63.469  1.00  0.00    -0.023 CG0
ATOM      9  G   UNL     1       2.852   7.078  64.507  1.00  0.00     0.000 G0
ENDBRANCH   5   6
ENDBRANCH   4   5
ENDBRANCH   2   4
BRANCH   1  10
ATOM     10  C   UNL     1       0.465   4.812  64.868  1.00  0.00     0.111 C 
BRANCH  10  11
ATOM     11  C   UNL     1       0.652   6.165  65.505  1.00  0.00     0.163 C 
ATOM     12  O   UNL     1      -0.375   6.783  65.896  1.00  0.00    -0.294 OA
BRANCH  11  13
ATOM     13  C   UNL     1       2.001   6.759  65.742  1.00  0.00    -0.002 C 
ATOM     14  C   UNL     1       2.475   6.930  67.014  1.00  0.00    -0.069 C 
ATOM     15  C   UNL     1       3.893   7.379  67.286  1.00  0.00     0.039 C 
ATOM     16  C   UNL     1       1.597   6.674  68.219  1.00  0.00     0.039 C 
BRANCH  13  17
ATOM     17  C   UNL     1       2.850   7.070  64.520  1.00  0.00     0.066 CG0
ATOM     18  G   UNL     1       2.098   7.891  63.491  1.00  0.00     0.000 G0
ENDBRANCH  13  17
ENDBRANCH  11  13
ENDBRANCH  10  11
ENDBRANCH   1  10
TORSDOF 0
ENDMDL
MODEL 3
REMARK VINA RESULT:    -3.505      1.870      4.386
REMARK INTER + INTRA:          -4.823
REMARK INTER:                  -4.896
REMARK INTRA:                   0.073
REMARK UNBOUND:                 0.117
REMARK SMILES CC1=CCC(=C(C)C)C(=O)CC(C)=CCC1
REMARK SMILES IDX 12 1 14 2 13 3 15 4 16 5 2 6 1 7 3 8 11 10 9 11 10 12 5 13
REMARK SMILES IDX 6 14 7 15 8 16 4 17
REMARK H PARENT
REMARK Flexibility Score: 60.00
ROOT
ATOM      1  C   UNL     1      -0.639   5.371  63.867  1.00  0.00    -0.070 C 
ATOM      2  C   UNL     1      -0.961   6.570  64.401  1.00  0.00    -0.027 C 
ATOM      3  C   UNL     1      -1.757   4.516  63.326  1.00  0.00     0.039 C 
ENDROOT
BRANCH   2   4
ATOM      4  C   UNL     1       0.021   7.606  64.905  1.00  0.00     0.032 C 
BRANCH   4   5
ATOM      5  C   UNL     1       0.537   8.586  63.832  1.00  0.00     0.034 C 
BRANCH   5   6
ATOM      6  C   UNL     1       2.047   8.748  63.848  1.00  0.00    -0.077 C 
ATOM      7  C   UNL     1       2.654   9.553  64.970  1.00  0.00     0.039 C 
ATOM      8  C   UNL     1       2.889   8.161  62.962  1.00  0.00    -0.023 CG0
ATOM      9  G   UNL     1       2.508   7.331  61.752  1.00  0.00     0.000 G0
ENDBRANCH   5   6
ENDBRANCH   4   5
ENDBRANCH   2   4
BRANCH   1  10
ATOM     10  C   UNL     1       0.788   4.890  63.704  1.00  0.00     0.111 C 
BRANCH  10  11
ATOM     11  C   UNL     1       1.294   5.115  62.303  1.00  0.00     0.163 C 
ATOM     12  O   UNL     1       0.564   4.747  61.343  1.00  0.00    -0.294 OA
BRANCH  11  13
ATOM     13  C   UNL     1       2.586   5.808  62.020  1.00  0.00    -0.002 C 
ATOM     14  C   UNL     1       3.753   5.101  61.934  1.00  0.00    -0.069 C 
ATOM     15  C   UNL     1       5.049   5.745  61.494  1.00  0.00     0.039 C 
ATOM     16  C   UNL     1       3.805   3.628  62.277  1.00  0.00     0.039 C 
BRANCH  13  17
ATOM     17  C   UNL     1       2.528   7.301  61.739  1.00  0.00     0.066 CG0
ATOM     18  G   UNL     1       2.890   8.130  62.956  1.00  0.00     0.000 G0
ENDBRANCH  13  17
ENDBRANCH  11  13
ENDBRANCH  10  11
ENDBRANCH   1  10
TORSDOF 0
ENDMDL
MODEL 4
REMARK VINA RESULT:    -3.433      3.310      4.767
REMARK INTER + INTRA:          -4.721
REMARK INTER:                  -4.914
REMARK INTRA:                   0.194
REMARK UNBOUND:                 0.117
REMARK SMILES CC1=CCC(=C(C)C)C(=O)CC(C)=CCC1
REMARK SMILES IDX 12 1 14 2 13 3 15 4 16 5 2 6 1 7 3 8 11 10 9 11 10 12 5 13
REMARK SMILES IDX 6 14 7 15 8 16 4 17
REMARK H PARENT
REMARK Flexibility Score: 60.00
ROOT
ATOM      1  C   UNL     1      -3.112   4.862  63.872  1.00  0.00    -0.070 C 
ATOM      2  C   UNL     1      -1.947   4.369  63.398  1.00  0.00    -0.027 C 
ATOM      3  C   UNL     1      -4.339   3.990  63.780  1.00  0.00     0.039 C 
ENDROOT
BRANCH   2   4
ATOM      4  C   UNL     1      -0.598   5.048  63.486  1.00  0.00     0.032 C 
BRANCH   4   5
ATOM      5  C   UNL     1       0.295   4.565  64.648  1.00  0.00     0.034 C 
BRANCH   5   6
ATOM      6  C   UNL     1       0.883   5.704  65.463  1.00  0.00    -0.077 C 
ATOM      7  C   UNL     1       2.164   6.331  64.970  1.00  0.00     0.039 C 
ATOM      8  C   UNL     1       0.297   6.239  66.561  1.00  0.00    -0.023 CG0
ATOM      9  G   UNL     1      -0.971   5.765  67.244  1.00  0.00     0.000 G0
ENDBRANCH   5   6
ENDBRANCH   4   5
ENDBRANCH   2   4
BRANCH   1  10
ATOM     10  C   UNL     1      -3.224   6.202  64.570  1.00  0.00     0.111 C 
BRANCH  10  11
ATOM     11  C   UNL     1      -3.231   6.050  66.069  1.00  0.00     0.163 C 
ATOM     12  O   UNL     1      -4.141   5.348  66.590  1.00  0.00    -0.294 OA
BRANCH  11  13
ATOM     13  C   UNL     1      -2.172   6.642  66.939  1.00  0.00    -0.002 C 
ATOM     14  C   UNL     1      -2.327   7.890  67.476  1.00  0.00    -0.069 C 
ATOM     15  C   UNL     1      -1.351   8.454  68.485  1.00  0.00     0.039 C 
ATOM     16  C   UNL     1      -3.491   8.773  67.085  1.00  0.00     0.039 C 
BRANCH  13  17
ATOM     17  C   UNL     1      -0.975   5.766  67.273  1.00  0.00     0.066 CG0
ATOM     18  G   UNL     1       0.290   6.229  66.578  1.00  0.00     0.000 G0
ENDBRANCH  13  17
ENDBRANCH  11  13
ENDBRANCH  10  11
ENDBRANCH   1  10
TORSDOF 0
ENDMDL
MODEL 5
REMARK VINA RESULT:    -3.403      2.704      4.149
REMARK INTER + INTRA:          -4.679
REMARK INTER:                  -4.903
REMARK INTRA:                   0.224
REMARK UNBOUND:                 0.117
REMARK SMILES CC1=CCC(=C(C)C)C(=O)CC(C)=CCC1
REMARK SMILES IDX 12 1 14 2 13 3 15 4 16 5 2 6 1 7 3 8 11 10 9 11 10 12 5 13
REMARK SMILES IDX 6 14 7 15 8 16 4 17
REMARK H PARENT
REMARK Flexibility Score: 60.00
ROOT
ATOM      1  C   UNL     1      -1.755   4.517  64.181  1.00  0.00    -0.070 C 
ATOM      2  C   UNL     1      -0.994   4.797  63.100  1.00  0.00    -0.027 C 
ATOM      3  C   UNL     1      -3.209   4.187  63.955  1.00  0.00     0.039 C 
ENDROOT
BRANCH   2   4
ATOM      4  C   UNL     1       0.496   5.056  63.111  1.00  0.00     0.032 C 
BRANCH   4   5
ATOM      5  C   UNL     1       0.896   6.531  63.322  1.00  0.00     0.034 C 
BRANCH   5   6
ATOM      6  C   UNL     1       2.015   6.707  64.334  1.00  0.00    -0.077 C 
ATOM      7  C   UNL     1       3.422   6.399  63.884  1.00  0.00     0.039 C 
ATOM      8  C   UNL     1       1.842   7.188  65.589  1.00  0.00    -0.023 CG0
ATOM      9  G   UNL     1       0.529   7.544  66.259  1.00  0.00     0.000 G0
ENDBRANCH   5   6
ENDBRANCH   4   5
ENDBRANCH   2   4
BRANCH   1  10
ATOM     10  C   UNL     1      -1.200   4.429  65.587  1.00  0.00     0.111 C 
BRANCH  10  11
ATOM     11  C   UNL     1      -1.306   5.747  66.310  1.00  0.00     0.163 C 
ATOM     12  O   UNL     1      -2.440   6.292  66.387  1.00  0.00    -0.294 OA
BRANCH  11  13
ATOM     13  C   UNL     1      -0.137   6.385  66.985  1.00  0.00    -0.002 C 
ATOM     14  C   UNL     1       0.363   5.872  68.151  1.00  0.00    -0.069 C 
ATOM     15  C   UNL     1       1.637   6.397  68.775  1.00  0.00     0.039 C 
ATOM     16  C   UNL     1      -0.339   4.745  68.876  1.00  0.00     0.039 C 
BRANCH  13  17
ATOM     17  C   UNL     1       0.521   7.558  66.276  1.00  0.00     0.066 CG0
ATOM     18  G   UNL     1       1.821   7.167  65.601  1.00  0.00     0.000 G0
ENDBRANCH  13  17
ENDBRANCH  11  13
ENDBRANCH  10  11
ENDBRANCH   1  10
TORSDOF 0
ENDMDL
MODEL 6
REMARK VINA RESULT:    -3.322      2.816      4.907
REMARK INTER + INTRA:          -4.564
REMARK INTER:                  -4.743
REMARK INTRA:                   0.178
REMARK UNBOUND:                 0.117
REMARK SMILES CC1=CCC(=C(C)C)C(=O)CC(C)=CCC1
REMARK SMILES IDX 12 1 14 2 13 3 15 4 16 5 2 6 1 7 3 8 11 10 9 11 10 12 5 13
REMARK SMILES IDX 6 14 7 15 8 16 4 17
REMARK H PARENT
REMARK Flexibility Score: 60.00
ROOT
ATOM      1  C   UNL     1      -0.723   4.752  63.541  1.00  0.00    -0.070 C 
ATOM      2  C   UNL     1      -1.970   4.444  63.125  1.00  0.00    -0.027 C 
ATOM      3  C   UNL     1       0.332   5.000  62.492  1.00  0.00     0.039 C 
ENDROOT
BRANCH   2   4
ATOM      4  C   UNL     1      -3.179   4.257  64.015  1.00  0.00     0.032 C 
BRANCH   4   5
ATOM      5  C   UNL     1      -3.782   5.562  64.574  1.00  0.00     0.034 C 
BRANCH   5   6
ATOM      6  C   UNL     1      -4.048   5.506  66.068  1.00  0.00    -0.077 C 
ATOM      7  C   UNL     1      -5.045   4.489  66.565  1.00  0.00     0.039 C 
ATOM      8  C   UNL     1      -3.400   6.260  66.989  1.00  0.00    -0.023 CG0
ATOM      9  G   UNL     1      -2.380   7.350  66.723  1.00  0.00     0.000 G0
ENDBRANCH   5   6
ENDBRANCH   4   5
ENDBRANCH   2   4
BRANCH   1  10
ATOM     10  C   UNL     1      -0.359   4.949  64.999  1.00  0.00     0.111 C 
BRANCH  10  11
ATOM     11  C   UNL     1      -0.413   6.402  65.394  1.00  0.00     0.163 C 
ATOM     12  O   UNL     1      -0.038   7.261  64.551  1.00  0.00    -0.294 OA
BRANCH  11  13
ATOM     13  C   UNL     1      -0.951   6.854  66.712  1.00  0.00    -0.002 C 
ATOM     14  C   UNL     1      -0.153   6.870  67.823  1.00  0.00    -0.069 C 
ATOM     15  C   UNL     1      -0.617   7.468  69.132  1.00  0.00     0.039 C 
ATOM     16  C   UNL     1       1.243   6.289  67.795  1.00  0.00     0.039 C 
BRANCH  13  17
ATOM     17  C   UNL     1      -2.377   7.377  66.739  1.00  0.00     0.066 CG0
ATOM     18  G   UNL     1      -3.391   6.276  66.982  1.00  0.00     0.000 G0
ENDBRANCH  13  17
ENDBRANCH  11  13
ENDBRANCH  10  11
ENDBRANCH   1  10
TORSDOF 0
ENDMDL
MODEL 7
REMARK VINA RESULT:    -3.303      3.230      4.815
REMARK INTER + INTRA:          -4.537
REMARK INTER:                  -4.993
REMARK INTRA:                   0.456
REMARK UNBOUND:                 0.117
REMARK SMILES CC1=CCC(=C(C)C)C(=O)CC(C)=CCC1
REMARK SMILES IDX 12 1 14 2 13 3 15 4 16 5 2 6 1 7 3 8 11 10 9 11 10 12 5 13
REMARK SMILES IDX 6 14 7 15 8 16 4 17
REMARK H PARENT
REMARK Flexibility Score: 60.00
ROOT
ATOM      1  C   UNL     1      -3.125   4.041  64.186  1.00  0.00    -0.070 C 
ATOM      2  C   UNL     1      -2.182   4.683  63.462  1.00  0.00    -0.027 C 
ATOM      3  C   UNL     1      -4.530   4.003  63.642  1.00  0.00     0.039 C 
ENDROOT
BRANCH   2   4
ATOM      4  C   UNL     1      -0.706   4.747  63.790  1.00  0.00     0.032 C 
BRANCH   4   5
ATOM      5  C   UNL     1      -0.143   6.173  63.965  1.00  0.00     0.034 C 
BRANCH   5   6
ATOM      6  C   UNL     1      -0.876   6.979  65.023  1.00  0.00    -0.077 C 
ATOM      7  C   UNL     1      -1.494   8.290  64.602  1.00  0.00     0.039 C 
ATOM      8  C   UNL     1      -1.071   6.567  66.299  1.00  0.00    -0.023 CG0
ATOM      9  G   UNL     1      -0.532   5.306  66.945  1.00  0.00     0.000 G0
ENDBRANCH   5   6
ENDBRANCH   4   5
ENDBRANCH   2   4
BRANCH   1  10
ATOM     10  C   UNL     1      -2.819   3.285  65.463  1.00  0.00     0.111 C 
BRANCH  10  11
ATOM     11  C   UNL     1      -2.832   4.195  66.664  1.00  0.00     0.163 C 
ATOM     12  O   UNL     1      -3.921   4.745  66.981  1.00  0.00    -0.294 OA
BRANCH  11  13
ATOM     13  C   UNL     1      -1.625   4.412  67.517  1.00  0.00    -0.002 C 
ATOM     14  C   UNL     1      -1.493   3.769  68.716  1.00  0.00    -0.069 C 
ATOM     15  C   UNL     1      -0.219   3.842  69.528  1.00  0.00     0.039 C 
ATOM     16  C   UNL     1      -2.623   2.945  69.293  1.00  0.00     0.039 C 
BRANCH  13  17
ATOM     17  C   UNL     1      -0.523   5.294  66.952  1.00  0.00     0.066 CG0
ATOM     18  G   UNL     1      -1.067   6.549  66.298  1.00  0.00     0.000 G0
ENDBRANCH  13  17
ENDBRANCH  11  13
ENDBRANCH  10  11
ENDBRANCH   1  10
TORSDOF 0
ENDMDL
MODEL 8
REMARK VINA RESULT:    -3.214      2.011      4.422
REMARK INTER + INTRA:          -4.413
REMARK INTER:                  -4.938
REMARK INTRA:                   0.525
REMARK UNBOUND:                 0.117
REMARK SMILES CC1=CCC(=C(C)C)C(=O)CC(C)=CCC1
REMARK SMILES IDX 12 1 14 2 13 3 15 4 16 5 2 6 1 7 3 8 11 10 9 11 10 12 5 13
REMARK SMILES IDX 6 14 7 15 8 16 4 17
REMARK H PARENT
REMARK Flexibility Score: 60.00
ROOT
ATOM      1  C   UNL     1      -1.056   5.454  63.731  1.00  0.00    -0.070 C 
ATOM      2  C   UNL     1      -1.234   6.701  64.220  1.00  0.00    -0.027 C 
ATOM      3  C   UNL     1      -2.149   4.441  63.964  1.00  0.00     0.039 C 
ENDROOT
BRANCH   2   4
ATOM      4  C   UNL     1      -0.303   7.875  64.008  1.00  0.00     0.032 C 
BRANCH   4   5
ATOM      5  C   UNL     1       0.264   8.494  65.303  1.00  0.00     0.034 C 
BRANCH   5   6
ATOM      6  C   UNL     1       1.014   7.493  66.164  1.00  0.00    -0.077 C 
ATOM      7  C   UNL     1       0.502   7.248  67.562  1.00  0.00     0.039 C 
ATOM      8  C   UNL     1       2.069   6.756  65.738  1.00  0.00    -0.023 CG0
ATOM      9  G   UNL     1       2.761   6.845  64.392  1.00  0.00     0.000 G0
ENDBRANCH   5   6
ENDBRANCH   4   5
ENDBRANCH   2   4
BRANCH   1  10
ATOM     10  C   UNL     1       0.138   5.055  62.889  1.00  0.00     0.111 C 
BRANCH  10  11
ATOM     11  C   UNL     1       1.352   4.784  63.739  1.00  0.00     0.163 C 
ATOM     12  O   UNL     1       1.297   3.834  64.567  1.00  0.00    -0.294 OA
BRANCH  11  13
ATOM     13  C   UNL     1       2.623   5.553  63.589  1.00  0.00    -0.002 C 
ATOM     14  C   UNL     1       3.578   5.156  62.693  1.00  0.00    -0.069 C 
ATOM     15  C   UNL     1       4.801   5.997  62.403  1.00  0.00     0.039 C 
ATOM     16  C   UNL     1       3.454   3.848  61.943  1.00  0.00     0.039 C 
BRANCH  13  17
ATOM     17  C   UNL     1       2.762   6.834  64.396  1.00  0.00     0.066 CG0
ATOM     18  G   UNL     1       2.053   6.751  65.734  1.00  0.00     0.000 G0
ENDBRANCH  13  17
ENDBRANCH  11  13
ENDBRANCH  10  11
ENDBRANCH   1  10
TORSDOF 0
ENDMDL
MODEL 9
REMARK VINA RESULT:    -3.184      1.506      2.928
REMARK INTER + INTRA:          -4.370
REMARK INTER:                  -4.852
REMARK INTRA:                   0.482
REMARK UNBOUND:                 0.117
REMARK SMILES CC1=CCC(=C(C)C)C(=O)CC(C)=CCC1
REMARK SMILES IDX 12 1 14 2 13 3 15 4 16 5 2 6 1 7 3 8 11 10 9 11 10 12 5 13
REMARK SMILES IDX 6 14 7 15 8 16 4 17
REMARK H PARENT
REMARK Flexibility Score: 60.00
ROOT
ATOM      1  C   UNL     1       0.098   4.963  63.388  1.00  0.00    -0.070 C 
ATOM      2  C   UNL     1       0.510   5.064  62.106  1.00  0.00    -0.027 C 
ATOM      3  C   UNL     1      -1.358   4.667  63.642  1.00  0.00     0.039 C 
ENDROOT
BRANCH   2   4
ATOM      4  C   UNL     1       1.939   5.259  61.648  1.00  0.00     0.032 C 
BRANCH   4   5
ATOM      5  C   UNL     1       2.266   6.675  61.132  1.00  0.00     0.034 C 
BRANCH   5   6
ATOM      6  C   UNL     1       2.925   7.556  62.180  1.00  0.00    -0.077 C 
ATOM      7  C   UNL     1       4.429   7.667  62.157  1.00  0.00     0.039 C 
ATOM      8  C   UNL     1       2.248   8.299  63.088  1.00  0.00    -0.023 CG0
ATOM      9  G   UNL     1       0.748   8.332  63.307  1.00  0.00     0.000 G0
ENDBRANCH   5   6
ENDBRANCH   4   5
ENDBRANCH   2   4
BRANCH   1  10
ATOM     10  C   UNL     1       1.041   5.040  64.572  1.00  0.00     0.111 C 
BRANCH  10  11
ATOM     11  C   UNL     1       1.242   6.461  65.030  1.00  0.00     0.163 C 
ATOM     12  O   UNL     1       2.237   6.714  65.763  1.00  0.00    -0.294 OA
BRANCH  11  13
ATOM     13  C   UNL     1       0.349   7.576  64.596  1.00  0.00    -0.002 C 
ATOM     14  C   UNL     1      -0.723   7.950  65.358  1.00  0.00    -0.069 C 
ATOM     15  C   UNL     1      -1.551   9.172  65.030  1.00  0.00     0.039 C 
ATOM     16  C   UNL     1      -1.134   7.154  66.577  1.00  0.00     0.039 C 
BRANCH  13  17
ATOM     17  C   UNL     1       0.738   8.329  63.333  1.00  0.00     0.066 CG0
ATOM     18  G   UNL     1       2.235   8.311  63.090  1.00  0.00     0.000 G0
ENDBRANCH  13  17
ENDBRANCH  11  13
ENDBRANCH  10  11
ENDBRANCH   1  10
TORSDOF 0
ENDMDL
