MODEL 1
REMARK VINA RESULT:    -2.976      0.000      0.000
REMARK INTER + INTRA:          -6.120
REMARK INTER:                  -4.716
REMARK INTRA:                  -1.404
REMARK UNBOUND:                -1.404
REMARK SMILES CCCCCCCCCCCC(=O)[O-]
REMARK SMILES IDX 7 1 8 2 9 3 10 4 11 5 12 6 13 7 14 8 6 9 5 10 4 11 3 12 2 13
REMARK SMILES IDX 1 14
REMARK H PARENT
REMARK Flexibility Score: inf
ROOT
ATOM      1  C   UNL     1      47.313  31.091  88.011  1.00  0.00     0.000 C 
ENDROOT
BRANCH   1   2
ATOM      2  C   UNL     1      47.924  32.222  87.168  1.00  0.00     0.000 C 
BRANCH   2   3
ATOM      3  C   UNL     1      48.180  33.498  87.985  1.00  0.00     0.000 C 
BRANCH   3   4
ATOM      4  C   UNL     1      48.669  34.668  87.114  1.00  0.00     0.006 C 
BRANCH   4   5
ATOM      5  C   UNL     1      49.758  35.494  87.812  1.00  0.00     0.053 C 
BRANCH   5   6
ATOM      6  C   UNL     1      51.131  35.005  87.470  1.00  0.00     0.041 C 
ATOM      7  O   UNL     1      52.092  35.213  88.256  1.00  0.00    -0.550 OA
ATOM      8  O   UNL     1      51.355  34.345  86.269  1.00  0.00    -0.550 OA
ENDBRANCH   5   6
ENDBRANCH   4   5
ENDBRANCH   3   4
ENDBRANCH   2   3
ENDBRANCH   1   2
BRANCH   1   9
ATOM      9  C   UNL     1      47.077  31.497  89.475  1.00  0.00     0.000 C 
BRANCH   9  10
ATOM     10  C   UNL     1      47.573  30.449  90.493  1.00  0.00    -0.000 C 
BRANCH  10  11
ATOM     11  C   UNL     1      48.832  30.918  91.243  1.00  0.00    -0.000 C 
BRANCH  11  12
ATOM     12  C   UNL     1      50.129  30.561  90.500  1.00  0.00    -0.000 C 
BRANCH  12  13
ATOM     13  C   UNL     1      50.830  31.797  89.914  1.00  0.00    -0.003 C 
ATOM     14  C   UNL     1      51.368  31.510  88.514  1.00  0.00     0.004 C 
ENDBRANCH  12  13
ENDBRANCH  11  12
ENDBRANCH  10  11
ENDBRANCH   9  10
ENDBRANCH   1   9
TORSDOF 10
ENDMDL
MODEL 2
REMARK VINA RESULT:    -2.959      2.592      4.252
REMARK INTER + INTRA:          -6.093
REMARK INTER:                  -5.430
REMARK INTRA:                  -0.663
REMARK UNBOUND:                -1.404
REMARK SMILES CCCCCCCCCCCC(=O)[O-]
REMARK SMILES IDX 7 1 8 2 9 3 10 4 11 5 12 6 13 7 14 8 6 9 5 10 4 11 3 12 2 13
REMARK SMILES IDX 1 14
REMARK H PARENT
REMARK Flexibility Score: inf
ROOT
ATOM      1  C   UNL     1      47.759  31.278  89.629  1.00  0.00     0.000 C 
ENDROOT
BRANCH   1   2
ATOM      2  C   UNL     1      47.306  31.009  88.185  1.00  0.00     0.000 C 
BRANCH   2   3
ATOM      3  C   UNL     1      47.909  32.002  87.180  1.00  0.00     0.000 C 
BRANCH   3   4
ATOM      4  C   UNL     1      48.247  33.359  87.822  1.00  0.00     0.006 C 
BRANCH   4   5
ATOM      5  C   UNL     1      49.609  33.895  87.361  1.00  0.00     0.053 C 
BRANCH   5   6
ATOM      6  C   UNL     1      49.814  35.320  87.773  1.00  0.00     0.041 C 
ATOM      7  O   UNL     1      48.847  36.125  87.775  1.00  0.00    -0.550 OA
ATOM      8  O   UNL     1      51.081  35.765  88.126  1.00  0.00    -0.550 OA
ENDBRANCH   5   6
ENDBRANCH   4   5
ENDBRANCH   3   4
ENDBRANCH   2   3
ENDBRANCH   1   2
BRANCH   1   9
ATOM      9  C   UNL     1      46.596  31.248  90.635  1.00  0.00     0.000 C 
BRANCH   9  10
ATOM     10  C   UNL     1      45.228  30.947  89.986  1.00  0.00    -0.000 C 
BRANCH  10  11
ATOM     11  C   UNL     1      44.056  31.252  90.935  1.00  0.00    -0.000 C 
BRANCH  11  12
ATOM     12  C   UNL     1      44.499  31.365  92.402  1.00  0.00    -0.000 C 
BRANCH  12  13
ATOM     13  C   UNL     1      44.058  30.157  93.243  1.00  0.00    -0.003 C 
ATOM     14  C   UNL     1      42.832  29.482  92.634  1.00  0.00     0.004 C 
ENDBRANCH  12  13
ENDBRANCH  11  12
ENDBRANCH  10  11
ENDBRANCH   9  10
ENDBRANCH   1   9
TORSDOF 10
ENDMDL
MODEL 3
REMARK VINA RESULT:    -2.915      4.915      6.890
REMARK INTER + INTRA:          -6.023
REMARK INTER:                  -5.572
REMARK INTRA:                  -0.451
REMARK UNBOUND:                -1.404
REMARK SMILES CCCCCCCCCCCC(=O)[O-]
REMARK SMILES IDX 7 1 8 2 9 3 10 4 11 5 12 6 13 7 14 8 6 9 5 10 4 11 3 12 2 13
REMARK SMILES IDX 1 14
REMARK H PARENT
REMARK Flexibility Score: inf
ROOT
ATOM      1  C   UNL     1      46.598  31.383  89.823  1.00  0.00     0.000 C 
ENDROOT
BRANCH   1   2
ATOM      2  C   UNL     1      45.173  30.930  89.464  1.00  0.00     0.000 C 
BRANCH   2   3
ATOM      3  C   UNL     1      44.158  31.227  90.579  1.00  0.00     0.000 C 
BRANCH   3   4
ATOM      4  C   UNL     1      44.835  31.545  91.924  1.00  0.00     0.006 C 
BRANCH   4   5
ATOM      5  C   UNL     1      44.026  31.020  93.118  1.00  0.00     0.053 C 
BRANCH   5   6
ATOM      6  C   UNL     1      43.781  29.546  93.018  1.00  0.00     0.041 C 
ATOM      7  O   UNL     1      44.747  28.739  93.056  1.00  0.00    -0.550 OA
ATOM      8  O   UNL     1      42.489  29.065  92.854  1.00  0.00    -0.550 OA
ENDBRANCH   5   6
ENDBRANCH   4   5
ENDBRANCH   3   4
ENDBRANCH   2   3
ENDBRANCH   1   2
BRANCH   1   9
ATOM      9  C   UNL     1      47.519  31.485  88.596  1.00  0.00     0.000 C 
BRANCH   9  10
ATOM     10  C   UNL     1      48.080  32.904  88.364  1.00  0.00    -0.000 C 
BRANCH  10  11
ATOM     11  C   UNL     1      48.425  33.157  86.886  1.00  0.00    -0.000 C 
BRANCH  11  12
ATOM     12  C   UNL     1      48.561  34.653  86.559  1.00  0.00    -0.000 C 
BRANCH  12  13
ATOM     13  C   UNL     1      49.222  35.444  87.699  1.00  0.00    -0.003 C 
ATOM     14  C   UNL     1      50.729  35.204  87.731  1.00  0.00     0.004 C 
ENDBRANCH  12  13
ENDBRANCH  11  12
ENDBRANCH  10  11
ENDBRANCH   9  10
ENDBRANCH   1   9
TORSDOF 10
ENDMDL
MODEL 4
REMARK VINA RESULT:    -2.903      2.626      5.546
REMARK INTER + INTRA:          -6.004
REMARK INTER:                  -4.814
REMARK INTRA:                  -1.190
REMARK UNBOUND:                -1.404
REMARK SMILES CCCCCCCCCCCC(=O)[O-]
REMARK SMILES IDX 7 1 8 2 9 3 10 4 11 5 12 6 13 7 14 8 6 9 5 10 4 11 3 12 2 13
REMARK SMILES IDX 1 14
REMARK H PARENT
REMARK Flexibility Score: inf
ROOT
ATOM      1  C   UNL     1      53.346  33.771  86.910  1.00  0.00     0.000 C 
ENDROOT
BRANCH   1   2
ATOM      2  C   UNL     1      53.911  34.529  88.123  1.00  0.00     0.000 C 
BRANCH   2   3
ATOM      3  C   UNL     1      53.399  33.974  89.460  1.00  0.00     0.000 C 
BRANCH   3   4
ATOM      4  C   UNL     1      52.880  32.530  89.341  1.00  0.00     0.006 C 
BRANCH   4   5
ATOM      5  C   UNL     1      51.403  32.410  89.742  1.00  0.00     0.053 C 
BRANCH   5   6
ATOM      6  C   UNL     1      51.237  31.678  91.038  1.00  0.00     0.041 C 
ATOM      7  O   UNL     1      52.139  31.730  91.915  1.00  0.00    -0.550 OA
ATOM      8  O   UNL     1      50.099  30.917  91.264  1.00  0.00    -0.550 OA
ENDBRANCH   5   6
ENDBRANCH   4   5
ENDBRANCH   3   4
ENDBRANCH   2   3
ENDBRANCH   1   2
BRANCH   1   9
ATOM      9  C   UNL     1      52.356  34.613  86.088  1.00  0.00     0.000 C 
BRANCH   9  10
ATOM     10  C   UNL     1      50.877  34.261  86.355  1.00  0.00    -0.000 C 
BRANCH  10  11
ATOM     11  C   UNL     1      50.275  35.109  87.489  1.00  0.00    -0.000 C 
BRANCH  11  12
ATOM     12  C   UNL     1      48.766  34.876  87.663  1.00  0.00    -0.000 C 
BRANCH  12  13
ATOM     13  C   UNL     1      48.322  33.499  87.144  1.00  0.00    -0.003 C 
ATOM     14  C   UNL     1      47.985  32.560  88.300  1.00  0.00     0.004 C 
ENDBRANCH  12  13
ENDBRANCH  11  12
ENDBRANCH  10  11
ENDBRANCH   9  10
ENDBRANCH   1   9
TORSDOF 10
ENDMDL
MODEL 5
REMARK VINA RESULT:    -2.893      2.649      4.583
REMARK INTER + INTRA:          -5.988
REMARK INTER:                  -4.470
REMARK INTRA:                  -1.518
REMARK UNBOUND:                -1.404
REMARK SMILES CCCCCCCCCCCC(=O)[O-]
REMARK SMILES IDX 7 1 8 2 9 3 10 4 11 5 12 6 13 7 14 8 6 9 5 10 4 11 3 12 2 13
REMARK SMILES IDX 1 14
REMARK H PARENT
REMARK Flexibility Score: inf
ROOT
ATOM      1  C   UNL     1      48.267  32.930  87.989  1.00  0.00     0.000 C 
ENDROOT
BRANCH   1   2
ATOM      2  C   UNL     1      48.886  31.613  87.493  1.00  0.00     0.000 C 
BRANCH   2   3
ATOM      3  C   UNL     1      50.233  31.301  88.163  1.00  0.00     0.000 C 
BRANCH   3   4
ATOM      4  C   UNL     1      50.256  31.691  89.651  1.00  0.00     0.006 C 
BRANCH   4   5
ATOM      5  C   UNL     1      51.587  32.336  90.061  1.00  0.00     0.053 C 
BRANCH   5   6
ATOM      6  C   UNL     1      51.955  32.002  91.474  1.00  0.00     0.041 C 
ATOM      7  O   UNL     1      51.143  32.227  92.410  1.00  0.00    -0.550 OA
ATOM      8  O   UNL     1      53.205  31.470  91.760  1.00  0.00    -0.550 OA
ENDBRANCH   5   6
ENDBRANCH   4   5
ENDBRANCH   3   4
ENDBRANCH   2   3
ENDBRANCH   1   2
BRANCH   1   9
ATOM      9  C   UNL     1      48.600  34.125  87.080  1.00  0.00     0.000 C 
BRANCH   9  10
ATOM     10  C   UNL     1      49.420  35.226  87.786  1.00  0.00    -0.000 C 
BRANCH  10  11
ATOM     11  C   UNL     1      50.934  35.043  87.580  1.00  0.00    -0.000 C 
BRANCH  11  12
ATOM     12  C   UNL     1      51.267  34.321  86.265  1.00  0.00    -0.000 C 
BRANCH  12  13
ATOM     13  C   UNL     1      52.593  33.548  86.339  1.00  0.00    -0.003 C 
ATOM     14  C   UNL     1      53.517  34.145  87.398  1.00  0.00     0.004 C 
ENDBRANCH  12  13
ENDBRANCH  11  12
ENDBRANCH  10  11
ENDBRANCH   9  10
ENDBRANCH   1   9
TORSDOF 10
ENDMDL
MODEL 6
REMARK VINA RESULT:    -2.865      3.786      5.511
REMARK INTER + INTRA:          -5.943
REMARK INTER:                  -4.845
REMARK INTRA:                  -1.098
REMARK UNBOUND:                -1.404
REMARK SMILES CCCCCCCCCCCC(=O)[O-]
REMARK SMILES IDX 7 1 8 2 9 3 10 4 11 5 12 6 13 7 14 8 6 9 5 10 4 11 3 12 2 13
REMARK SMILES IDX 1 14
REMARK H PARENT
REMARK Flexibility Score: inf
ROOT
ATOM      1  C   UNL     1      45.924  30.781  89.726  1.00  0.00     0.000 C 
ENDROOT
BRANCH   1   2
ATOM      2  C   UNL     1      46.956  31.271  90.755  1.00  0.00     0.000 C 
BRANCH   2   3
ATOM      3  C   UNL     1      48.093  30.263  90.981  1.00  0.00     0.000 C 
BRANCH   3   4
ATOM      4  C   UNL     1      49.484  30.887  90.778  1.00  0.00     0.006 C 
BRANCH   4   5
ATOM      5  C   UNL     1      50.465  30.489  91.889  1.00  0.00     0.053 C 
BRANCH   5   6
ATOM      6  C   UNL     1      51.127  31.685  92.502  1.00  0.00     0.041 C 
ATOM      7  O   UNL     1      52.256  32.064  92.093  1.00  0.00    -0.550 OA
ATOM      8  O   UNL     1      50.508  32.364  93.543  1.00  0.00    -0.550 OA
ENDBRANCH   5   6
ENDBRANCH   4   5
ENDBRANCH   3   4
ENDBRANCH   2   3
ENDBRANCH   1   2
BRANCH   1   9
ATOM      9  C   UNL     1      44.497  31.268  90.034  1.00  0.00     0.000 C 
BRANCH   9  10
ATOM     10  C   UNL     1      44.111  31.140  91.522  1.00  0.00    -0.000 C 
BRANCH  10  11
ATOM     11  C   UNL     1      43.806  29.686  91.920  1.00  0.00    -0.000 C 
BRANCH  11  12
ATOM     12  C   UNL     1      44.759  29.159  93.005  1.00  0.00    -0.000 C 
BRANCH  12  13
ATOM     13  C   UNL     1      45.540  27.917  92.547  1.00  0.00    -0.003 C 
ATOM     14  C   UNL     1      45.116  27.489  91.144  1.00  0.00     0.004 C 
ENDBRANCH  12  13
ENDBRANCH  11  12
ENDBRANCH  10  11
ENDBRANCH   9  10
ENDBRANCH   1   9
TORSDOF 10
ENDMDL
MODEL 7
REMARK VINA RESULT:    -2.825     15.461     17.143
REMARK INTER + INTRA:          -5.881
REMARK INTER:                  -4.373
REMARK INTRA:                  -1.507
REMARK UNBOUND:                -1.404
REMARK SMILES CCCCCCCCCCCC(=O)[O-]
REMARK SMILES IDX 7 1 8 2 9 3 10 4 11 5 12 6 13 7 14 8 6 9 5 10 4 11 3 12 2 13
REMARK SMILES IDX 1 14
REMARK H PARENT
REMARK Flexibility Score: inf
ROOT
ATOM      1  C   UNL     1      47.004  20.058  74.404  1.00  0.00     0.000 C 
ENDROOT
BRANCH   1   2
ATOM      2  C   UNL     1      48.083  20.786  75.222  1.00  0.00     0.000 C 
BRANCH   2   3
ATOM      3  C   UNL     1      47.545  22.035  75.936  1.00  0.00     0.000 C 
BRANCH   3   4
ATOM      4  C   UNL     1      47.996  22.115  77.405  1.00  0.00     0.006 C 
BRANCH   4   5
ATOM      5  C   UNL     1      48.838  20.901  77.819  1.00  0.00     0.053 C 
BRANCH   5   6
ATOM      6  C   UNL     1      48.551  20.480  79.228  1.00  0.00     0.041 C 
ATOM      7  O   UNL     1      48.227  19.290  79.481  1.00  0.00    -0.550 OA
ATOM      8  O   UNL     1      48.615  21.409  80.257  1.00  0.00    -0.550 OA
ENDBRANCH   5   6
ENDBRANCH   4   5
ENDBRANCH   3   4
ENDBRANCH   2   3
ENDBRANCH   1   2
BRANCH   1   9
ATOM      9  C   UNL     1      45.753  19.720  75.233  1.00  0.00     0.000 C 
BRANCH   9  10
ATOM     10  C   UNL     1      45.979  18.581  76.251  1.00  0.00    -0.000 C 
BRANCH  10  11
ATOM     11  C   UNL     1      45.394  18.915  77.634  1.00  0.00    -0.000 C 
BRANCH  11  12
ATOM     12  C   UNL     1      44.703  20.287  77.667  1.00  0.00    -0.000 C 
BRANCH  12  13
ATOM     13  C   UNL     1      44.824  20.972  79.038  1.00  0.00    -0.003 C 
ATOM     14  C   UNL     1      43.447  21.213  79.653  1.00  0.00     0.004 C 
ENDBRANCH  12  13
ENDBRANCH  11  12
ENDBRANCH  10  11
ENDBRANCH   9  10
ENDBRANCH   1   9
TORSDOF 10
ENDMDL
MODEL 8
REMARK VINA RESULT:    -2.825      1.745      3.217
REMARK INTER + INTRA:          -5.880
REMARK INTER:                  -4.772
REMARK INTRA:                  -1.109
REMARK UNBOUND:                -1.404
REMARK SMILES CCCCCCCCCCCC(=O)[O-]
REMARK SMILES IDX 7 1 8 2 9 3 10 4 11 5 12 6 13 7 14 8 6 9 5 10 4 11 3 12 2 13
REMARK SMILES IDX 1 14
REMARK H PARENT
REMARK Flexibility Score: inf
ROOT
ATOM      1  C   UNL     1      48.734  34.612  87.667  1.00  0.00     0.000 C 
ENDROOT
BRANCH   1   2
ATOM      2  C   UNL     1      50.176  35.134  87.550  1.00  0.00     0.000 C 
BRANCH   2   3
ATOM      3  C   UNL     1      51.004  34.360  86.514  1.00  0.00     0.000 C 
BRANCH   3   4
ATOM      4  C   UNL     1      52.501  34.713  86.571  1.00  0.00     0.006 C 
BRANCH   4   5
ATOM      5  C   UNL     1      53.279  33.785  87.515  1.00  0.00     0.053 C 
BRANCH   5   6
ATOM      6  C   UNL     1      53.638  34.471  88.797  1.00  0.00     0.041 C 
ATOM      7  O   UNL     1      53.927  33.794  89.818  1.00  0.00    -0.550 OA
ATOM      8  O   UNL     1      53.628  35.858  88.870  1.00  0.00    -0.550 OA
ENDBRANCH   5   6
ENDBRANCH   4   5
ENDBRANCH   3   4
ENDBRANCH   2   3
ENDBRANCH   1   2
BRANCH   1   9
ATOM      9  C   UNL     1      48.593  33.145  87.227  1.00  0.00     0.000 C 
BRANCH   9  10
ATOM     10  C   UNL     1      48.565  32.149  88.405  1.00  0.00    -0.000 C 
BRANCH  10  11
ATOM     11  C   UNL     1      49.911  31.427  88.586  1.00  0.00    -0.000 C 
BRANCH  11  12
ATOM     12  C   UNL     1      50.771  32.052  89.695  1.00  0.00    -0.000 C 
BRANCH  12  13
ATOM     13  C   UNL     1      50.591  31.343  91.047  1.00  0.00    -0.003 C 
ATOM     14  C   UNL     1      51.418  32.022  92.136  1.00  0.00     0.004 C 
ENDBRANCH  12  13
ENDBRANCH  11  12
ENDBRANCH  10  11
ENDBRANCH   9  10
ENDBRANCH   1   9
TORSDOF 10
ENDMDL
MODEL 9
REMARK VINA RESULT:    -2.816      2.538      4.872
REMARK INTER + INTRA:          -5.866
REMARK INTER:                  -4.626
REMARK INTRA:                  -1.240
REMARK UNBOUND:                -1.404
REMARK SMILES CCCCCCCCCCCC(=O)[O-]
REMARK SMILES IDX 7 1 8 2 9 3 10 4 11 5 12 6 13 7 14 8 6 9 5 10 4 11 3 12 2 13
REMARK SMILES IDX 1 14
REMARK H PARENT
REMARK Flexibility Score: inf
ROOT
ATOM      1  C   UNL     1      51.446  34.040  88.232  1.00  0.00     0.000 C 
ENDROOT
BRANCH   1   2
ATOM      2  C   UNL     1      52.400  33.506  87.152  1.00  0.00     0.000 C 
BRANCH   2   3
ATOM      3  C   UNL     1      52.896  34.606  86.201  1.00  0.00     0.000 C 
BRANCH   3   4
ATOM      4  C   UNL     1      52.714  34.233  84.720  1.00  0.00     0.006 C 
BRANCH   4   5
ATOM      5  C   UNL     1      51.341  33.605  84.445  1.00  0.00     0.053 C 
BRANCH   5   6
ATOM      6  C   UNL     1      50.740  34.119  83.173  1.00  0.00     0.041 C 
ATOM      7  O   UNL     1      51.359  33.997  82.084  1.00  0.00    -0.550 OA
ATOM      8  O   UNL     1      49.507  34.757  83.196  1.00  0.00    -0.550 OA
ENDBRANCH   5   6
ENDBRANCH   4   5
ENDBRANCH   3   4
ENDBRANCH   2   3
ENDBRANCH   1   2
BRANCH   1   9
ATOM      9  C   UNL     1      50.760  35.355  87.825  1.00  0.00     0.000 C 
BRANCH   9  10
ATOM     10  C   UNL     1      49.218  35.284  87.870  1.00  0.00    -0.000 C 
BRANCH  10  11
ATOM     11  C   UNL     1      48.626  34.700  86.576  1.00  0.00    -0.000 C 
BRANCH  11  12
ATOM     12  C   UNL     1      48.323  33.198  86.692  1.00  0.00    -0.000 C 
BRANCH  12  13
ATOM     13  C   UNL     1      48.023  32.769  88.137  1.00  0.00    -0.003 C 
ATOM     14  C   UNL     1      48.378  31.301  88.359  1.00  0.00     0.004 C 
ENDBRANCH  12  13
ENDBRANCH  11  12
ENDBRANCH  10  11
ENDBRANCH   9  10
ENDBRANCH   1   9
TORSDOF 10
ENDMDL
