MODEL 1
REMARK VINA RESULT:    35.499      0.000      0.000
REMARK INTER + INTRA:          49.542
REMARK INTER:                  48.989
REMARK INTRA:                   0.553
REMARK UNBOUND:                 0.553
REMARK SMILES O=C([O-])[C@H]1O[C@H](Oc2cc3oc(-c4ccccc4)cc(=O)c3c(O)c2O)[C@@H](O)[C@@H](O)[C@H]1O
REMARK SMILES IDX 7 1 6 2 4 3 31 4 5 5 29 6 27 7 2 8 1 9 3 10 32 11 30 13
REMARK SMILES IDX 28 15 8 17 25 18 9 19 23 20 10 21 22 22 11 23 20 24 12 25
REMARK SMILES IDX 19 26 21 27 26 28 24 30 13 32 14 33 18 34 15 35 17 36 16 37
REMARK H PARENT 32 12 30 14 28 16 26 29 24 31
REMARK Flexibility Score: inf
ROOT
ATOM      1  O   UNL     1      -2.351   7.416   9.289  1.00  0.00    -0.458 OA
ENDROOT
BRANCH   1   2
ATOM      2  C   UNL     1      -1.099   6.835   9.672  1.00  0.00     0.339 C 
ATOM      3  C   UNL     1      -0.034   7.519   7.694  1.00  0.00     0.199 C 
ATOM      4  C   UNL     1       0.885   8.523   8.417  1.00  0.00     0.180 C 
ATOM      5  O   UNL     1      -0.350   6.421   8.537  1.00  0.00    -0.328 OA
ATOM      6  C   UNL     1       0.185   9.015   9.697  1.00  0.00     0.181 C 
ATOM      7  C   UNL     1      -0.300   7.823  10.546  1.00  0.00     0.214 C 
BRANCH   3   8
ATOM      8  C   UNL     1       0.627   7.011   6.446  1.00  0.00     0.073 C 
ATOM      9  O   UNL     1       1.880   6.901   6.385  1.00  0.00    -0.547 OA
ATOM     10  O   UNL     1      -0.143   6.707   5.330  1.00  0.00    -0.547 OA
ENDBRANCH   3   8
BRANCH   4  11
ATOM     11  O   UNL     1       2.111   7.908   8.731  1.00  0.00    -0.387 OA
ATOM     12  H   UNL     1       2.090   7.000   8.330  1.00  0.00     0.211 HD
ENDBRANCH   4  11
BRANCH   6  13
ATOM     13  O   UNL     1       1.058   9.828  10.440  1.00  0.00    -0.387 OA
ATOM     14  H   UNL     1       1.114   9.433  11.349  1.00  0.00     0.211 HD
ENDBRANCH   6  13
BRANCH   7  15
ATOM     15  O   UNL     1       0.802   7.170  11.124  1.00  0.00    -0.384 OA
ATOM     16  H   UNL     1       1.035   6.414  10.522  1.00  0.00     0.211 HD
ENDBRANCH   7  15
ENDBRANCH   1   2
BRANCH   1  17
ATOM     17  C   UNL     1      -2.706   8.763   9.462  1.00  0.00     0.172 A 
ATOM     18  C   UNL     1      -3.182   9.167  10.714  1.00  0.00     0.201 A 
ATOM     19  C   UNL     1      -2.603   9.703   8.427  1.00  0.00     0.098 A 
ATOM     20  C   UNL     1      -3.559  10.505  10.946  1.00  0.00     0.176 A 
ATOM     21  C   UNL     1      -2.929  11.041   8.645  1.00  0.00     0.146 A 
ATOM     22  C   UNL     1      -3.388  11.475   9.915  1.00  0.00     0.111 A 
ATOM     23  O   UNL     1      -2.789  11.899   7.640  1.00  0.00    -0.456 OA
ATOM     24  C   UNL     1      -3.616  12.864  10.070  1.00  0.00     0.197 A 
ATOM     25  C   UNL     1      -3.036  13.200   7.747  1.00  0.00     0.138 A 
ATOM     26  C   UNL     1      -3.460  13.719   8.978  1.00  0.00     0.100 A 
ATOM     27  O   UNL     1      -3.932  13.369  11.178  1.00  0.00    -0.289 OA
BRANCH  18  28
ATOM     28  O   UNL     1      -3.292   8.209  11.724  1.00  0.00    -0.502 OA
ATOM     29  H   UNL     1      -2.779   8.274  12.595  1.00  0.00     0.293 HD
ENDBRANCH  18  28
BRANCH  20  30
ATOM     30  O   UNL     1      -4.115  10.804  12.195  1.00  0.00    -0.504 OA
ATOM     31  H   UNL     1      -5.101  10.781  12.406  1.00  0.00     0.293 HD
ENDBRANCH  20  30
BRANCH  25  32
ATOM     32  C   UNL     1      -2.855  14.062   6.551  1.00  0.00     0.017 A 
ATOM     33  C   UNL     1      -3.529  15.295   6.479  1.00  0.00     0.012 A 
ATOM     34  C   UNL     1      -2.048  13.666   5.466  1.00  0.00     0.012 A 
ATOM     35  C   UNL     1      -3.382  16.121   5.361  1.00  0.00     0.001 A 
ATOM     36  C   UNL     1      -1.905  14.496   4.349  1.00  0.00     0.001 A 
ATOM     37  C   UNL     1      -2.569  15.724   4.298  1.00  0.00     0.000 A 
ENDBRANCH  25  32
ENDBRANCH   1  17
TORSDOF 9
ENDMDL
MODEL 2
REMARK VINA RESULT:    36.616      2.651      7.520
REMARK INTER + INTRA:          51.083
REMARK INTER:                  51.372
REMARK INTRA:                  -0.289
REMARK UNBOUND:                 0.553
REMARK SMILES O=C([O-])[C@H]1O[C@H](Oc2cc3oc(-c4ccccc4)cc(=O)c3c(O)c2O)[C@@H](O)[C@@H](O)[C@H]1O
REMARK SMILES IDX 7 1 6 2 4 3 31 4 5 5 29 6 27 7 2 8 1 9 3 10 32 11 30 13
REMARK SMILES IDX 28 15 8 17 25 18 9 19 23 20 10 21 22 22 11 23 20 24 12 25
REMARK SMILES IDX 19 26 21 27 26 28 24 30 13 32 14 33 18 34 15 35 17 36 16 37
REMARK H PARENT 32 12 30 14 28 16 26 29 24 31
REMARK Flexibility Score: inf
ROOT
ATOM      1  O   UNL     1      -1.997  11.656   6.577  1.00  0.00    -0.458 OA
ENDROOT
BRANCH   1   2
ATOM      2  C   UNL     1      -2.834  12.591   5.888  1.00  0.00     0.339 C 
ATOM      3  C   UNL     1      -2.852  14.096   7.690  1.00  0.00     0.199 C 
ATOM      4  C   UNL     1      -2.042  15.168   6.933  1.00  0.00     0.180 C 
ATOM      5  O   UNL     1      -3.643  13.329   6.794  1.00  0.00    -0.328 OA
ATOM      6  C   UNL     1      -1.150  14.478   5.886  1.00  0.00     0.181 C 
ATOM      7  C   UNL     1      -1.979  13.523   5.005  1.00  0.00     0.214 C 
BRANCH   3   8
ATOM      8  C   UNL     1      -3.743  14.740   8.711  1.00  0.00     0.073 C 
ATOM      9  O   UNL     1      -4.121  15.933   8.570  1.00  0.00    -0.547 OA
ATOM     10  O   UNL     1      -4.115  14.034   9.849  1.00  0.00    -0.547 OA
ENDBRANCH   3   8
BRANCH   4  11
ATOM     11  O   UNL     1      -2.918  16.077   6.312  1.00  0.00    -0.387 OA
ATOM     12  H   UNL     1      -2.493  16.973   6.368  1.00  0.00     0.211 HD
ENDBRANCH   4  11
BRANCH   6  13
ATOM     13  O   UNL     1      -0.503  15.443   5.095  1.00  0.00    -0.387 OA
ATOM     14  H   UNL     1       0.442  15.151   5.003  1.00  0.00     0.211 HD
ENDBRANCH   6  13
BRANCH   7  15
ATOM     15  O   UNL     1      -2.808  14.265   4.147  1.00  0.00    -0.384 OA
ATOM     16  H   UNL     1      -3.042  15.102   4.626  1.00  0.00     0.211 HD
ENDBRANCH   7  15
ENDBRANCH   1   2
BRANCH   1  17
ATOM     17  C   UNL     1      -2.418  10.790   7.599  1.00  0.00     0.172 A 
ATOM     18  C   UNL     1      -2.603   9.439   7.288  1.00  0.00     0.201 A 
ATOM     19  C   UNL     1      -2.660  11.237   8.906  1.00  0.00     0.098 A 
ATOM     20  C   UNL     1      -3.029   8.523   8.270  1.00  0.00     0.176 A 
ATOM     21  C   UNL     1      -3.040  10.341   9.904  1.00  0.00     0.146 A 
ATOM     22  C   UNL     1      -3.207   8.963   9.614  1.00  0.00     0.111 A 
ATOM     23  O   UNL     1      -3.232  10.809  11.134  1.00  0.00    -0.456 OA
ATOM     24  C   UNL     1      -3.514   8.115  10.706  1.00  0.00     0.197 A 
ATOM     25  C   UNL     1      -3.560  10.040  12.167  1.00  0.00     0.138 A 
ATOM     26  C   UNL     1      -3.711   8.660  11.975  1.00  0.00     0.100 A 
ATOM     27  O   UNL     1      -3.590   6.865  10.579  1.00  0.00    -0.289 OA
BRANCH  18  28
ATOM     28  O   UNL     1      -2.372   9.022   5.975  1.00  0.00    -0.502 OA
ATOM     29  H   UNL     1      -3.108   8.970   5.282  1.00  0.00     0.293 HD
ENDBRANCH  18  28
BRANCH  20  30
ATOM     30  O   UNL     1      -3.283   7.212   7.853  1.00  0.00    -0.504 OA
ATOM     31  H   UNL     1      -2.598   6.472   7.832  1.00  0.00     0.293 HD
ENDBRANCH  20  30
BRANCH  25  32
ATOM     32  C   UNL     1      -3.760  10.676  13.494  1.00  0.00     0.017 A 
ATOM     33  C   UNL     1      -3.847  12.078  13.583  1.00  0.00     0.012 A 
ATOM     34  C   UNL     1      -3.836   9.915  14.678  1.00  0.00     0.012 A 
ATOM     35  C   UNL     1      -4.027  12.701  14.822  1.00  0.00     0.001 A 
ATOM     36  C   UNL     1      -4.016  10.545  15.914  1.00  0.00     0.001 A 
ATOM     37  C   UNL     1      -4.114  11.936  15.986  1.00  0.00     0.000 A 
ENDBRANCH  25  32
ENDBRANCH   1  17
TORSDOF 9
ENDMDL
MODEL 3
REMARK VINA RESULT:    37.528      3.031      7.489
REMARK INTER + INTRA:          52.342
REMARK INTER:                  53.335
REMARK INTRA:                  -0.993
REMARK UNBOUND:                 0.553
REMARK SMILES O=C([O-])[C@H]1O[C@H](Oc2cc3oc(-c4ccccc4)cc(=O)c3c(O)c2O)[C@@H](O)[C@@H](O)[C@H]1O
REMARK SMILES IDX 7 1 6 2 4 3 31 4 5 5 29 6 27 7 2 8 1 9 3 10 32 11 30 13
REMARK SMILES IDX 28 15 8 17 25 18 9 19 23 20 10 21 22 22 11 23 20 24 12 25
REMARK SMILES IDX 19 26 21 27 26 28 24 30 13 32 14 33 18 34 15 35 17 36 16 37
REMARK H PARENT 32 12 30 14 28 16 26 29 24 31
REMARK Flexibility Score: inf
ROOT
ATOM      1  O   UNL     1      -2.463  12.049   7.317  1.00  0.00    -0.458 OA
ENDROOT
BRANCH   1   2
ATOM      2  C   UNL     1      -1.598  13.190   7.343  1.00  0.00     0.339 C 
ATOM      3  C   UNL     1      -2.032  13.727   5.098  1.00  0.00     0.199 C 
ATOM      4  C   UNL     1      -2.782  15.028   5.450  1.00  0.00     0.180 C 
ATOM      5  O   UNL     1      -1.031  13.440   6.063  1.00  0.00    -0.328 OA
ATOM      6  C   UNL     1      -3.409  14.885   6.848  1.00  0.00     0.181 C 
ATOM      7  C   UNL     1      -2.357  14.422   7.875  1.00  0.00     0.214 C 
BRANCH   3   8
ATOM      8  C   UNL     1      -1.397  13.840   3.744  1.00  0.00     0.073 C 
ATOM      9  O   UNL     1      -1.613  14.847   3.017  1.00  0.00    -0.547 OA
ATOM     10  O   UNL     1      -0.604  12.806   3.262  1.00  0.00    -0.547 OA
ENDBRANCH   3   8
BRANCH   4  11
ATOM     11  O   UNL     1      -1.890  16.116   5.420  1.00  0.00    -0.387 OA
ATOM     12  H   UNL     1      -2.239  16.758   4.747  1.00  0.00     0.211 HD
ENDBRANCH   4  11
BRANCH   6  13
ATOM     13  O   UNL     1      -3.984  16.105   7.244  1.00  0.00    -0.387 OA
ATOM     14  H   UNL     1      -3.439  16.446   8.001  1.00  0.00     0.211 HD
ENDBRANCH   6  13
BRANCH   7  15
ATOM     15  O   UNL     1      -1.454  15.467   8.135  1.00  0.00    -0.384 OA
ATOM     16  H   UNL     1      -1.991  16.237   8.459  1.00  0.00     0.211 HD
ENDBRANCH   7  15
ENDBRANCH   1   2
BRANCH   1  17
ATOM     17  C   UNL     1      -2.548  11.074   8.324  1.00  0.00     0.172 A 
ATOM     18  C   UNL     1      -2.318   9.739   7.974  1.00  0.00     0.201 A 
ATOM     19  C   UNL     1      -2.859  11.396   9.653  1.00  0.00     0.098 A 
ATOM     20  C   UNL     1      -2.394   8.716   8.940  1.00  0.00     0.176 A 
ATOM     21  C   UNL     1      -2.898  10.406  10.634  1.00  0.00     0.146 A 
ATOM     22  C   UNL     1      -2.641   9.051  10.304  1.00  0.00     0.111 A 
ATOM     23  O   UNL     1      -3.170  10.765  11.884  1.00  0.00    -0.456 OA
ATOM     24  C   UNL     1      -2.620   8.127  11.377  1.00  0.00     0.197 A 
ATOM     25  C   UNL     1      -3.198   9.911  12.902  1.00  0.00     0.138 A 
ATOM     26  C   UNL     1      -2.920   8.557  12.670  1.00  0.00     0.100 A 
ATOM     27  O   UNL     1      -2.309   6.919  11.211  1.00  0.00    -0.289 OA
BRANCH  18  28
ATOM     28  O   UNL     1      -2.027   9.442   6.641  1.00  0.00    -0.502 OA
ATOM     29  H   UNL     1      -1.251   8.850   6.371  1.00  0.00     0.293 HD
ENDBRANCH  18  28
BRANCH  20  30
ATOM     30  O   UNL     1      -2.247   7.400   8.489  1.00  0.00    -0.504 OA
ATOM     31  H   UNL     1      -2.144   7.131   7.522  1.00  0.00     0.293 HD
ENDBRANCH  20  30
BRANCH  25  32
ATOM     32  C   UNL     1      -3.526  10.426  14.256  1.00  0.00     0.017 A 
ATOM     33  C   UNL     1      -3.551  11.815  14.481  1.00  0.00     0.012 A 
ATOM     34  C   UNL     1      -3.787   9.559  15.336  1.00  0.00     0.012 A 
ATOM     35  C   UNL     1      -3.850  12.324  15.748  1.00  0.00     0.001 A 
ATOM     36  C   UNL     1      -4.085  10.075  16.602  1.00  0.00     0.001 A 
ATOM     37  C   UNL     1      -4.119  11.456  16.807  1.00  0.00     0.000 A 
ENDBRANCH  25  32
ENDBRANCH   1  17
TORSDOF 9
ENDMDL
MODEL 4
REMARK VINA RESULT:    37.625      2.005      3.544
REMARK INTER + INTRA:          52.476
REMARK INTER:                  53.592
REMARK INTRA:                  -1.116
REMARK UNBOUND:                 0.553
REMARK SMILES O=C([O-])[C@H]1O[C@H](Oc2cc3oc(-c4ccccc4)cc(=O)c3c(O)c2O)[C@@H](O)[C@@H](O)[C@H]1O
REMARK SMILES IDX 7 1 6 2 4 3 31 4 5 5 29 6 27 7 2 8 1 9 3 10 32 11 30 13
REMARK SMILES IDX 28 15 8 17 25 18 9 19 23 20 10 21 22 22 11 23 20 24 12 25
REMARK SMILES IDX 19 26 21 27 26 28 24 30 13 32 14 33 18 34 15 35 17 36 16 37
REMARK H PARENT 32 12 30 14 28 16 26 29 24 31
REMARK Flexibility Score: inf
ROOT
ATOM      1  O   UNL     1      -0.251   6.976   8.725  1.00  0.00    -0.458 OA
ENDROOT
BRANCH   1   2
ATOM      2  C   UNL     1       1.172   6.970   8.885  1.00  0.00     0.339 C 
ATOM      3  C   UNL     1       1.149   4.984  10.137  1.00  0.00     0.199 C 
ATOM      4  C   UNL     1       1.863   4.167   9.041  1.00  0.00     0.180 C 
ATOM      5  O   UNL     1       1.555   6.344  10.103  1.00  0.00    -0.328 OA
ATOM      6  C   UNL     1       1.549   4.785   7.667  1.00  0.00     0.181 C 
ATOM      7  C   UNL     1       1.842   6.298   7.669  1.00  0.00     0.214 C 
BRANCH   3   8
ATOM      8  C   UNL     1       1.447   4.413  11.492  1.00  0.00     0.073 C 
ATOM      9  O   UNL     1       0.611   4.518  12.428  1.00  0.00    -0.547 OA
ATOM     10  O   UNL     1       2.674   3.807  11.734  1.00  0.00    -0.547 OA
ENDBRANCH   3   8
BRANCH   4  11
ATOM     11  O   UNL     1       3.251   4.165   9.275  1.00  0.00    -0.387 OA
ATOM     12  H   UNL     1       3.379   4.043  10.252  1.00  0.00     0.211 HD
ENDBRANCH   4  11
BRANCH   6  13
ATOM     13  O   UNL     1       2.295   4.138   6.667  1.00  0.00    -0.387 OA
ATOM     14  H   UNL     1       3.252   4.278   6.889  1.00  0.00     0.211 HD
ENDBRANCH   6  13
BRANCH   7  15
ATOM     15  O   UNL     1       3.230   6.515   7.706  1.00  0.00    -0.384 OA
ATOM     16  H   UNL     1       3.535   6.270   8.619  1.00  0.00     0.211 HD
ENDBRANCH   7  15
ENDBRANCH   1   2
BRANCH   1  17
ATOM     17  C   UNL     1      -1.120   7.955   9.233  1.00  0.00     0.172 A 
ATOM     18  C   UNL     1      -1.742   7.715  10.462  1.00  0.00     0.201 A 
ATOM     19  C   UNL     1      -1.382   9.151   8.549  1.00  0.00     0.098 A 
ATOM     20  C   UNL     1      -2.627   8.657  11.021  1.00  0.00     0.176 A 
ATOM     21  C   UNL     1      -2.221  10.117   9.102  1.00  0.00     0.146 A 
ATOM     22  C   UNL     1      -2.840   9.903  10.360  1.00  0.00     0.111 A 
ATOM     23  O   UNL     1      -2.418  11.246   8.427  1.00  0.00    -0.456 OA
ATOM     24  C   UNL     1      -3.608  10.971  10.882  1.00  0.00     0.197 A 
ATOM     25  C   UNL     1      -3.167  12.246   8.876  1.00  0.00     0.138 A 
ATOM     26  C   UNL     1      -3.787  12.132  10.128  1.00  0.00     0.100 A 
ATOM     27  O   UNL     1      -4.122  10.925  12.030  1.00  0.00    -0.289 OA
BRANCH  18  28
ATOM     28  O   UNL     1      -1.478   6.509  11.116  1.00  0.00    -0.502 OA
ATOM     29  H   UNL     1      -0.796   6.430  11.860  1.00  0.00     0.293 HD
ENDBRANCH  18  28
BRANCH  20  30
ATOM     30  O   UNL     1      -3.281   8.297  12.204  1.00  0.00    -0.504 OA
ATOM     31  H   UNL     1      -3.214   7.393  12.646  1.00  0.00     0.293 HD
ENDBRANCH  20  30
BRANCH  25  32
ATOM     32  C   UNL     1      -3.324  13.456   8.029  1.00  0.00     0.017 A 
ATOM     33  C   UNL     1      -2.765  13.473   6.737  1.00  0.00     0.012 A 
ATOM     34  C   UNL     1      -3.993  14.606   8.493  1.00  0.00     0.012 A 
ATOM     35  C   UNL     1      -2.892  14.602   5.923  1.00  0.00     0.001 A 
ATOM     36  C   UNL     1      -4.116  15.733   7.673  1.00  0.00     0.001 A 
ATOM     37  C   UNL     1      -3.569  15.730   6.389  1.00  0.00     0.000 A 
ENDBRANCH  25  32
ENDBRANCH   1  17
TORSDOF 9
ENDMDL
