MODEL 1
REMARK VINA RESULT:    -4.184      0.000      0.000
REMARK INTER + INTRA:         -10.309
REMARK INTER:                  -7.852
REMARK INTRA:                  -2.456
REMARK UNBOUND:                -2.456
REMARK SMILES O=C([O-])CCCCCCCCCCCCCCC(=O)[O-]
REMARK SMILES IDX 10 1 9 2 8 3 7 4 6 5 5 6 4 7 2 8 1 9 3 10 11 11 12 12 13 13
REMARK SMILES IDX 14 14 15 15 16 16 17 17 18 18 19 19 20 20
REMARK H PARENT
REMARK Flexibility Score: inf
ROOT
ATOM      1  C   UNL     1       3.496  36.403  -1.177  1.00  0.00     0.000 C 
ENDROOT
BRANCH   1   2
ATOM      2  C   UNL     1       4.191  36.011  -2.496  1.00  0.00     0.000 C 
BRANCH   2   3
ATOM      3  C   UNL     1       5.559  36.679  -2.736  1.00  0.00     0.000 C 
BRANCH   3   4
ATOM      4  C   UNL     1       6.745  35.704  -2.878  1.00  0.00     0.000 C 
BRANCH   4   5
ATOM      5  C   UNL     1       6.521  34.314  -2.254  1.00  0.00     0.000 C 
BRANCH   5   6
ATOM      6  C   UNL     1       7.757  33.409  -2.353  1.00  0.00     0.006 C 
BRANCH   6   7
ATOM      7  C   UNL     1       8.476  33.311  -1.004  1.00  0.00     0.053 C 
BRANCH   7   8
ATOM      8  C   UNL     1       9.824  32.687  -1.172  1.00  0.00     0.041 C 
ATOM      9  O   UNL     1       9.945  31.434  -1.190  1.00  0.00    -0.550 OA
ATOM     10  O   UNL     1      10.956  33.489  -1.258  1.00  0.00    -0.550 OA
ENDBRANCH   7   8
ENDBRANCH   6   7
ENDBRANCH   5   6
ENDBRANCH   4   5
ENDBRANCH   3   4
ENDBRANCH   2   3
ENDBRANCH   1   2
BRANCH   1  11
ATOM     11  C   UNL     1       3.821  35.506   0.036  1.00  0.00     0.000 C 
BRANCH  11  12
ATOM     12  C   UNL     1       4.741  36.148   1.094  1.00  0.00     0.000 C 
BRANCH  12  13
ATOM     13  C   UNL     1       6.048  35.368   1.352  1.00  0.00     0.000 C 
BRANCH  13  14
ATOM     14  C   UNL     1       7.320  36.089   0.859  1.00  0.00     0.000 C 
BRANCH  14  15
ATOM     15  C   UNL     1       7.073  37.526   0.359  1.00  0.00     0.000 C 
BRANCH  15  16
ATOM     16  C   UNL     1       8.284  38.099  -0.397  1.00  0.00     0.006 C 
BRANCH  16  17
ATOM     17  C   UNL     1       9.305  37.016  -0.765  1.00  0.00     0.053 C 
BRANCH  17  18
ATOM     18  C   UNL     1      10.711  37.523  -0.671  1.00  0.00     0.041 C 
ATOM     19  O   UNL     1      10.974  38.720  -0.958  1.00  0.00    -0.550 OA
ATOM     20  O   UNL     1      11.736  36.664  -0.298  1.00  0.00    -0.550 OA
ENDBRANCH  17  18
ENDBRANCH  16  17
ENDBRANCH  15  16
ENDBRANCH  14  15
ENDBRANCH  13  14
ENDBRANCH  12  13
ENDBRANCH  11  12
ENDBRANCH   1  11
TORSDOF 15
ENDMDL
MODEL 2
REMARK VINA RESULT:    -4.026      1.397      4.631
REMARK INTER + INTRA:         -10.012
REMARK INTER:                  -8.032
REMARK INTRA:                  -1.980
REMARK UNBOUND:                -2.456
REMARK SMILES O=C([O-])CCCCCCCCCCCCCCC(=O)[O-]
REMARK SMILES IDX 10 1 9 2 8 3 7 4 6 5 5 6 4 7 2 8 1 9 3 10 11 11 12 12 13 13
REMARK SMILES IDX 14 14 15 15 16 16 17 17 18 18 19 19 20 20
REMARK H PARENT
REMARK Flexibility Score: inf
ROOT
ATOM      1  C   UNL     1       5.135  37.196  -2.751  1.00  0.00     0.000 C 
ENDROOT
BRANCH   1   2
ATOM      2  C   UNL     1       4.864  38.510  -1.990  1.00  0.00     0.000 C 
BRANCH   2   3
ATOM      3  C   UNL     1       6.095  39.128  -1.298  1.00  0.00     0.000 C 
BRANCH   3   4
ATOM      4  C   UNL     1       6.456  38.508   0.067  1.00  0.00     0.000 C 
BRANCH   4   5
ATOM      5  C   UNL     1       7.936  38.118   0.232  1.00  0.00     0.000 C 
BRANCH   5   6
ATOM      6  C   UNL     1       8.529  37.472  -1.028  1.00  0.00     0.006 C 
BRANCH   6   7
ATOM      7  C   UNL     1       9.957  36.981  -0.774  1.00  0.00     0.053 C 
BRANCH   7   8
ATOM      8  C   UNL     1      10.811  38.096  -0.260  1.00  0.00     0.041 C 
ATOM      9  O   UNL     1      11.135  39.047  -1.019  1.00  0.00    -0.550 OA
ATOM     10  O   UNL     1      11.292  38.061   1.043  1.00  0.00    -0.550 OA
ENDBRANCH   7   8
ENDBRANCH   6   7
ENDBRANCH   5   6
ENDBRANCH   4   5
ENDBRANCH   3   4
ENDBRANCH   2   3
ENDBRANCH   1   2
BRANCH   1  11
ATOM     11  C   UNL     1       4.044  36.113  -2.612  1.00  0.00     0.000 C 
BRANCH  11  12
ATOM     12  C   UNL     1       4.484  34.836  -1.866  1.00  0.00     0.000 C 
BRANCH  12  13
ATOM     13  C   UNL     1       5.428  35.096  -0.673  1.00  0.00     0.000 C 
BRANCH  13  14
ATOM     14  C   UNL     1       6.805  34.413  -0.799  1.00  0.00     0.000 C 
BRANCH  14  15
ATOM     15  C   UNL     1       7.272  34.204  -2.253  1.00  0.00     0.000 C 
BRANCH  15  16
ATOM     16  C   UNL     1       8.276  33.046  -2.386  1.00  0.00     0.006 C 
BRANCH  16  17
ATOM     17  C   UNL     1       9.385  33.115  -1.329  1.00  0.00     0.053 C 
BRANCH  17  18
ATOM     18  C   UNL     1      10.008  31.774  -1.090  1.00  0.00     0.041 C 
ATOM     19  O   UNL     1      10.771  31.266  -1.954  1.00  0.00    -0.550 OA
ATOM     20  O   UNL     1       9.719  31.070   0.071  1.00  0.00    -0.550 OA
ENDBRANCH  17  18
ENDBRANCH  16  17
ENDBRANCH  15  16
ENDBRANCH  14  15
ENDBRANCH  13  14
ENDBRANCH  12  13
ENDBRANCH  11  12
ENDBRANCH   1  11
TORSDOF 15
ENDMDL
MODEL 3
REMARK VINA RESULT:    -4.011      2.704      5.067
REMARK INTER + INTRA:          -9.984
REMARK INTER:                  -7.801
REMARK INTRA:                  -2.183
REMARK UNBOUND:                -2.456
REMARK SMILES O=C([O-])CCCCCCCCCCCCCCC(=O)[O-]
REMARK SMILES IDX 10 1 9 2 8 3 7 4 6 5 5 6 4 7 2 8 1 9 3 10 11 11 12 12 13 13
REMARK SMILES IDX 14 14 15 15 16 16 17 17 18 18 19 19 20 20
REMARK H PARENT
REMARK Flexibility Score: inf
ROOT
ATOM      1  C   UNL     1       6.882  34.551  -2.892  1.00  0.00     0.000 C 
ENDROOT
BRANCH   1   2
ATOM      2  C   UNL     1       5.911  33.740  -2.010  1.00  0.00     0.000 C 
BRANCH   2   3
ATOM      3  C   UNL     1       4.614  33.292  -2.710  1.00  0.00     0.000 C 
BRANCH   3   4
ATOM      4  C   UNL     1       3.322  33.927  -2.156  1.00  0.00     0.000 C 
BRANCH   4   5
ATOM      5  C   UNL     1       3.139  35.420  -2.485  1.00  0.00     0.000 C 
BRANCH   5   6
ATOM      6  C   UNL     1       2.900  36.282  -1.237  1.00  0.00     0.006 C 
BRANCH   6   7
ATOM      7  C   UNL     1       2.947  35.431   0.035  1.00  0.00     0.053 C 
BRANCH   7   8
ATOM      8  C   UNL     1       3.714  36.135   1.109  1.00  0.00     0.041 C 
ATOM      9  O   UNL     1       3.491  37.349   1.354  1.00  0.00    -0.550 OA
ATOM     10  O   UNL     1       4.711  35.463   1.806  1.00  0.00    -0.550 OA
ENDBRANCH   7   8
ENDBRANCH   6   7
ENDBRANCH   5   6
ENDBRANCH   4   5
ENDBRANCH   3   4
ENDBRANCH   2   3
ENDBRANCH   1   2
BRANCH   1  11
ATOM     11  C   UNL     1       7.016  36.045  -2.529  1.00  0.00     0.000 C 
BRANCH  11  12
ATOM     12  C   UNL     1       6.740  36.384  -1.050  1.00  0.00     0.000 C 
BRANCH  12  13
ATOM     13  C   UNL     1       7.796  37.309  -0.407  1.00  0.00     0.000 C 
BRANCH  13  14
ATOM     14  C   UNL     1       9.215  37.147  -0.989  1.00  0.00     0.000 C 
BRANCH  14  15
ATOM     15  C   UNL     1      10.083  36.113  -0.244  1.00  0.00     0.000 C 
BRANCH  15  16
ATOM     16  C   UNL     1      10.248  34.805  -1.037  1.00  0.00     0.006 C 
BRANCH  16  17
ATOM     17  C   UNL     1       9.520  33.629  -0.374  1.00  0.00     0.053 C 
BRANCH  17  18
ATOM     18  C   UNL     1       9.820  32.333  -1.062  1.00  0.00     0.041 C 
ATOM     19  O   UNL     1      10.041  32.308  -2.301  1.00  0.00    -0.550 OA
ATOM     20  O   UNL     1       9.821  31.146  -0.340  1.00  0.00    -0.550 OA
ENDBRANCH  17  18
ENDBRANCH  16  17
ENDBRANCH  15  16
ENDBRANCH  14  15
ENDBRANCH  13  14
ENDBRANCH  12  13
ENDBRANCH  11  12
ENDBRANCH   1  11
TORSDOF 15
ENDMDL
MODEL 4
REMARK VINA RESULT:    -3.988      1.209      2.025
REMARK INTER + INTRA:          -9.941
REMARK INTER:                  -7.628
REMARK INTRA:                  -2.313
REMARK UNBOUND:                -2.456
REMARK SMILES O=C([O-])CCCCCCCCCCCCCCC(=O)[O-]
REMARK SMILES IDX 10 1 9 2 8 3 7 4 6 5 5 6 4 7 2 8 1 9 3 10 11 11 12 12 13 13
REMARK SMILES IDX 14 14 15 15 16 16 17 17 18 18 19 19 20 20
REMARK H PARENT
REMARK Flexibility Score: inf
ROOT
ATOM      1  C   UNL     1       5.810  36.711  -2.514  1.00  0.00     0.000 C 
ENDROOT
BRANCH   1   2
ATOM      2  C   UNL     1       7.059  35.820  -2.668  1.00  0.00     0.000 C 
BRANCH   2   3
ATOM      3  C   UNL     1       6.768  34.327  -2.912  1.00  0.00     0.000 C 
BRANCH   3   4
ATOM      4  C   UNL     1       7.604  33.351  -2.059  1.00  0.00     0.000 C 
BRANCH   4   5
ATOM      5  C   UNL     1       8.129  33.933  -0.733  1.00  0.00     0.000 C 
BRANCH   5   6
ATOM      6  C   UNL     1       9.642  33.746  -0.556  1.00  0.00     0.006 C 
BRANCH   6   7
ATOM      7  C   UNL     1      10.244  32.982  -1.739  1.00  0.00     0.053 C 
BRANCH   7   8
ATOM      8  C   UNL     1      10.636  31.599  -1.325  1.00  0.00     0.041 C 
ATOM      9  O   UNL     1      11.373  30.900  -2.068  1.00  0.00    -0.550 OA
ATOM     10  O   UNL     1      10.147  31.063  -0.140  1.00  0.00    -0.550 OA
ENDBRANCH   7   8
ENDBRANCH   6   7
ENDBRANCH   5   6
ENDBRANCH   4   5
ENDBRANCH   3   4
ENDBRANCH   2   3
ENDBRANCH   1   2
BRANCH   1  11
ATOM     11  C   UNL     1       4.680  36.125  -1.642  1.00  0.00     0.000 C 
BRANCH  11  12
ATOM     12  C   UNL     1       4.674  36.601  -0.175  1.00  0.00     0.000 C 
BRANCH  12  13
ATOM     13  C   UNL     1       5.422  35.664   0.796  1.00  0.00     0.000 C 
BRANCH  13  14
ATOM     14  C   UNL     1       6.583  36.338   1.555  1.00  0.00     0.000 C 
BRANCH  14  15
ATOM     15  C   UNL     1       7.254  37.490   0.781  1.00  0.00     0.000 C 
BRANCH  15  16
ATOM     16  C   UNL     1       8.777  37.309   0.663  1.00  0.00     0.006 C 
BRANCH  16  17
ATOM     17  C   UNL     1       9.324  37.844  -0.666  1.00  0.00     0.053 C 
BRANCH  17  18
ATOM     18  C   UNL     1      10.217  39.029  -0.461  1.00  0.00     0.041 C 
ATOM     19  O   UNL     1       9.836  39.995   0.252  1.00  0.00    -0.550 OA
ATOM     20  O   UNL     1      11.457  39.082  -1.085  1.00  0.00    -0.550 OA
ENDBRANCH  17  18
ENDBRANCH  16  17
ENDBRANCH  15  16
ENDBRANCH  14  15
ENDBRANCH  13  14
ENDBRANCH  12  13
ENDBRANCH  11  12
ENDBRANCH   1  11
TORSDOF 15
ENDMDL
MODEL 5
REMARK VINA RESULT:    -3.973      3.215      6.422
REMARK INTER + INTRA:          -9.913
REMARK INTER:                  -7.705
REMARK INTRA:                  -2.208
REMARK UNBOUND:                -2.456
REMARK SMILES O=C([O-])CCCCCCCCCCCCCCC(=O)[O-]
REMARK SMILES IDX 10 1 9 2 8 3 7 4 6 5 5 6 4 7 2 8 1 9 3 10 11 11 12 12 13 13
REMARK SMILES IDX 14 14 15 15 16 16 17 17 18 18 19 19 20 20
REMARK H PARENT
REMARK Flexibility Score: inf
ROOT
ATOM      1  C   UNL     1      10.963  37.839  -0.268  1.00  0.00     0.000 C 
ENDROOT
BRANCH   1   2
ATOM      2  C   UNL     1      10.806  37.888   1.265  1.00  0.00     0.000 C 
BRANCH   2   3
ATOM      3  C   UNL     1      10.081  39.134   1.807  1.00  0.00     0.000 C 
BRANCH   3   4
ATOM      4  C   UNL     1       8.558  39.159   1.567  1.00  0.00     0.000 C 
BRANCH   4   5
ATOM      5  C   UNL     1       7.809  37.891   2.017  1.00  0.00     0.000 C 
BRANCH   5   6
ATOM      6  C   UNL     1       7.130  37.154   0.854  1.00  0.00     0.006 C 
BRANCH   6   7
ATOM      7  C   UNL     1       7.203  37.977  -0.436  1.00  0.00     0.053 C 
BRANCH   7   8
ATOM      8  C   UNL     1       5.830  38.271  -0.949  1.00  0.00     0.041 C 
ATOM      9  O   UNL     1       5.574  38.155  -2.177  1.00  0.00    -0.550 OA
ATOM     10  O   UNL     1       4.844  38.722  -0.080  1.00  0.00    -0.550 OA
ENDBRANCH   7   8
ENDBRANCH   6   7
ENDBRANCH   5   6
ENDBRANCH   4   5
ENDBRANCH   3   4
ENDBRANCH   2   3
ENDBRANCH   1   2
BRANCH   1  11
ATOM     11  C   UNL     1      10.387  36.582  -0.953  1.00  0.00     0.000 C 
BRANCH  11  12
ATOM     12  C   UNL     1      10.715  35.248  -0.252  1.00  0.00     0.000 C 
BRANCH  12  13
ATOM     13  C   UNL     1       9.474  34.419   0.141  1.00  0.00     0.000 C 
BRANCH  13  14
ATOM     14  C   UNL     1       9.258  33.159  -0.721  1.00  0.00     0.000 C 
BRANCH  14  15
ATOM     15  C   UNL     1       8.188  33.325  -1.818  1.00  0.00     0.000 C 
BRANCH  15  16
ATOM     16  C   UNL     1       7.018  34.216  -1.367  1.00  0.00     0.006 C 
BRANCH  16  17
ATOM     17  C   UNL     1       5.911  34.302  -2.425  1.00  0.00     0.053 C 
BRANCH  17  18
ATOM     18  C   UNL     1       4.551  34.362  -1.801  1.00  0.00     0.041 C 
ATOM     19  O   UNL     1       4.353  35.071  -0.780  1.00  0.00    -0.550 OA
ATOM     20  O   UNL     1       3.510  33.609  -2.329  1.00  0.00    -0.550 OA
ENDBRANCH  17  18
ENDBRANCH  16  17
ENDBRANCH  15  16
ENDBRANCH  14  15
ENDBRANCH  13  14
ENDBRANCH  12  13
ENDBRANCH  11  12
ENDBRANCH   1  11
TORSDOF 15
ENDMDL
MODEL 6
REMARK VINA RESULT:    -3.937      1.339      4.646
REMARK INTER + INTRA:          -9.845
REMARK INTER:                  -7.770
REMARK INTRA:                  -2.075
REMARK UNBOUND:                -2.456
REMARK SMILES O=C([O-])CCCCCCCCCCCCCCC(=O)[O-]
REMARK SMILES IDX 10 1 9 2 8 3 7 4 6 5 5 6 4 7 2 8 1 9 3 10 11 11 12 12 13 13
REMARK SMILES IDX 14 14 15 15 16 16 17 17 18 18 19 19 20 20
REMARK H PARENT
REMARK Flexibility Score: inf
ROOT
ATOM      1  C   UNL     1       3.113  35.747  -1.627  1.00  0.00     0.000 C 
ENDROOT
BRANCH   1   2
ATOM      2  C   UNL     1       2.892  36.103  -0.143  1.00  0.00     0.000 C 
BRANCH   2   3
ATOM      3  C   UNL     1       4.139  36.629   0.594  1.00  0.00     0.000 C 
BRANCH   3   4
ATOM      4  C   UNL     1       4.821  35.611   1.531  1.00  0.00     0.000 C 
BRANCH   4   5
ATOM      5  C   UNL     1       6.323  35.395   1.272  1.00  0.00     0.000 C 
BRANCH   5   6
ATOM      6  C   UNL     1       7.097  36.711   1.109  1.00  0.00     0.006 C 
BRANCH   6   7
ATOM      7  C   UNL     1       8.604  36.455   1.021  1.00  0.00     0.053 C 
BRANCH   7   8
ATOM      8  C   UNL     1       9.285  37.575   0.302  1.00  0.00     0.041 C 
ATOM      9  O   UNL     1       9.467  37.512  -0.943  1.00  0.00    -0.550 OA
ATOM     10  O   UNL     1       9.765  38.669   1.013  1.00  0.00    -0.550 OA
ENDBRANCH   7   8
ENDBRANCH   6   7
ENDBRANCH   5   6
ENDBRANCH   4   5
ENDBRANCH   3   4
ENDBRANCH   2   3
ENDBRANCH   1   2
BRANCH   1  11
ATOM     11  C   UNL     1       3.454  34.269  -1.911  1.00  0.00     0.000 C 
BRANCH  11  12
ATOM     12  C   UNL     1       4.929  33.997  -2.271  1.00  0.00     0.000 C 
BRANCH  12  13
ATOM     13  C   UNL     1       5.774  35.273  -2.477  1.00  0.00     0.000 C 
BRANCH  13  14
ATOM     14  C   UNL     1       7.293  35.055  -2.324  1.00  0.00     0.000 C 
BRANCH  14  15
ATOM     15  C   UNL     1       7.691  33.596  -2.021  1.00  0.00     0.000 C 
BRANCH  15  16
ATOM     16  C   UNL     1       8.795  33.498  -0.955  1.00  0.00     0.006 C 
BRANCH  16  17
ATOM     17  C   UNL     1      10.144  33.081  -1.553  1.00  0.00     0.053 C 
BRANCH  17  18
ATOM     18  C   UNL     1      10.432  31.631  -1.313  1.00  0.00     0.041 C 
ATOM     19  O   UNL     1      11.102  30.970  -2.150  1.00  0.00    -0.550 OA
ATOM     20  O   UNL     1       9.931  31.001  -0.182  1.00  0.00    -0.550 OA
ENDBRANCH  17  18
ENDBRANCH  16  17
ENDBRANCH  15  16
ENDBRANCH  14  15
ENDBRANCH  13  14
ENDBRANCH  12  13
ENDBRANCH  11  12
ENDBRANCH   1  11
TORSDOF 15
ENDMDL
MODEL 7
REMARK VINA RESULT:    -3.917      2.842      5.599
REMARK INTER + INTRA:          -9.807
REMARK INTER:                  -7.391
REMARK INTRA:                  -2.417
REMARK UNBOUND:                -2.456
REMARK SMILES O=C([O-])CCCCCCCCCCCCCCC(=O)[O-]
REMARK SMILES IDX 10 1 9 2 8 3 7 4 6 5 5 6 4 7 2 8 1 9 3 10 11 11 12 12 13 13
REMARK SMILES IDX 14 14 15 15 16 16 17 17 18 18 19 19 20 20
REMARK H PARENT
REMARK Flexibility Score: inf
ROOT
ATOM      1  C   UNL     1       8.623  39.599   2.019  1.00  0.00     0.000 C 
ENDROOT
BRANCH   1   2
ATOM      2  C   UNL     1       8.409  38.102   2.317  1.00  0.00     0.000 C 
BRANCH   2   3
ATOM      3  C   UNL     1       7.416  37.386   1.381  1.00  0.00     0.000 C 
BRANCH   3   4
ATOM      4  C   UNL     1       6.603  38.316   0.458  1.00  0.00     0.000 C 
BRANCH   4   5
ATOM      5  C   UNL     1       7.031  38.299  -1.021  1.00  0.00     0.000 C 
BRANCH   5   6
ATOM      6  C   UNL     1       6.643  36.998  -1.740  1.00  0.00     0.006 C 
BRANCH   6   7
ATOM      7  C   UNL     1       5.339  37.173  -2.525  1.00  0.00     0.053 C 
BRANCH   7   8
ATOM      8  C   UNL     1       4.300  36.216  -2.034  1.00  0.00     0.041 C 
ATOM      9  O   UNL     1       3.436  36.592  -1.199  1.00  0.00    -0.550 OA
ATOM     10  O   UNL     1       4.314  34.894  -2.461  1.00  0.00    -0.550 OA
ENDBRANCH   7   8
ENDBRANCH   6   7
ENDBRANCH   5   6
ENDBRANCH   4   5
ENDBRANCH   3   4
ENDBRANCH   2   3
ENDBRANCH   1   2
BRANCH   1  11
ATOM     11  C   UNL     1      10.012  39.972   1.459  1.00  0.00     0.000 C 
BRANCH  11  12
ATOM     12  C   UNL     1      10.029  40.372  -0.031  1.00  0.00     0.000 C 
BRANCH  12  13
ATOM     13  C   UNL     1      10.818  39.402  -0.936  1.00  0.00     0.000 C 
BRANCH  13  14
ATOM     14  C   UNL     1      11.147  38.049  -0.275  1.00  0.00     0.000 C 
BRANCH  14  15
ATOM     15  C   UNL     1      10.430  36.845  -0.918  1.00  0.00     0.000 C 
BRANCH  15  16
ATOM     16  C   UNL     1      10.403  35.616   0.006  1.00  0.00     0.006 C 
BRANCH  16  17
ATOM     17  C   UNL     1       9.247  34.664  -0.327  1.00  0.00     0.053 C 
BRANCH  17  18
ATOM     18  C   UNL     1       9.720  33.461  -1.085  1.00  0.00     0.041 C 
ATOM     19  O   UNL     1      10.942  33.158  -1.095  1.00  0.00    -0.550 OA
ATOM     20  O   UNL     1       8.815  32.695  -1.808  1.00  0.00    -0.550 OA
ENDBRANCH  17  18
ENDBRANCH  16  17
ENDBRANCH  15  16
ENDBRANCH  14  15
ENDBRANCH  13  14
ENDBRANCH  12  13
ENDBRANCH  11  12
ENDBRANCH   1  11
TORSDOF 15
ENDMDL
MODEL 8
REMARK VINA RESULT:    -3.895      1.528      2.246
REMARK INTER + INTRA:          -9.767
REMARK INTER:                  -7.805
REMARK INTRA:                  -1.962
REMARK UNBOUND:                -2.456
REMARK SMILES O=C([O-])CCCCCCCCCCCCCCC(=O)[O-]
REMARK SMILES IDX 10 1 9 2 8 3 7 4 6 5 5 6 4 7 2 8 1 9 3 10 11 11 12 12 13 13
REMARK SMILES IDX 14 14 15 15 16 16 17 17 18 18 19 19 20 20
REMARK H PARENT
REMARK Flexibility Score: inf
ROOT
ATOM      1  C   UNL     1       3.208  35.708  -2.531  1.00  0.00     0.000 C 
ENDROOT
BRANCH   1   2
ATOM      2  C   UNL     1       3.106  34.201  -2.222  1.00  0.00     0.000 C 
BRANCH   2   3
ATOM      3  C   UNL     1       4.391  33.392  -2.486  1.00  0.00     0.000 C 
BRANCH   3   4
ATOM      4  C   UNL     1       5.704  34.128  -2.153  1.00  0.00     0.000 C 
BRANCH   4   5
ATOM      5  C   UNL     1       6.921  33.697  -2.993  1.00  0.00     0.000 C 
BRANCH   5   6
ATOM      6  C   UNL     1       8.117  33.262  -2.133  1.00  0.00     0.006 C 
BRANCH   6   7
ATOM      7  C   UNL     1       8.148  34.030  -0.808  1.00  0.00     0.053 C 
BRANCH   7   8
ATOM      8  C   UNL     1       9.557  34.226  -0.348  1.00  0.00     0.041 C 
ATOM      9  O   UNL     1       9.797  34.881   0.700  1.00  0.00    -0.550 OA
ATOM     10  O   UNL     1      10.611  33.729  -1.105  1.00  0.00    -0.550 OA
ENDBRANCH   7   8
ENDBRANCH   6   7
ENDBRANCH   5   6
ENDBRANCH   4   5
ENDBRANCH   3   4
ENDBRANCH   2   3
ENDBRANCH   1   2
BRANCH   1  11
ATOM     11  C   UNL     1       3.007  36.648  -1.323  1.00  0.00     0.000 C 
BRANCH  11  12
ATOM     12  C   UNL     1       2.875  35.938   0.041  1.00  0.00     0.000 C 
BRANCH  12  13
ATOM     13  C   UNL     1       3.774  36.527   1.148  1.00  0.00     0.000 C 
BRANCH  13  14
ATOM     14  C   UNL     1       4.938  35.608   1.571  1.00  0.00     0.000 C 
BRANCH  14  15
ATOM     15  C   UNL     1       6.334  36.163   1.222  1.00  0.00     0.000 C 
BRANCH  15  16
ATOM     16  C   UNL     1       6.263  37.522   0.506  1.00  0.00     0.006 C 
BRANCH  16  17
ATOM     17  C   UNL     1       7.303  37.643  -0.615  1.00  0.00     0.053 C 
BRANCH  17  18
ATOM     18  C   UNL     1       8.401  38.595  -0.252  1.00  0.00     0.041 C 
ATOM     19  O   UNL     1       8.182  39.834  -0.222  1.00  0.00    -0.550 OA
ATOM     20  O   UNL     1       9.675  38.115   0.021  1.00  0.00    -0.550 OA
ENDBRANCH  17  18
ENDBRANCH  16  17
ENDBRANCH  15  16
ENDBRANCH  14  15
ENDBRANCH  13  14
ENDBRANCH  12  13
ENDBRANCH  11  12
ENDBRANCH   1  11
TORSDOF 15
ENDMDL
MODEL 9
REMARK VINA RESULT:    -1.208      1.181      4.230
REMARK INTER + INTRA:          -4.724
REMARK INTER:                  -2.495
REMARK INTRA:                  -2.230
REMARK UNBOUND:                -2.456
REMARK SMILES O=C([O-])CCCCCCCCCCCCCCC(=O)[O-]
REMARK SMILES IDX 10 1 9 2 8 3 7 4 6 5 5 6 4 7 2 8 1 9 3 10 11 11 12 12 13 13
REMARK SMILES IDX 14 14 15 15 16 16 17 17 18 18 19 19 20 20
REMARK H PARENT
REMARK Flexibility Score: inf
ROOT
ATOM      1  C   UNL     1       3.685  36.959   1.276  1.00  0.00     0.000 C 
ENDROOT
BRANCH   1   2
ATOM      2  C   UNL     1       4.433  35.667   1.662  1.00  0.00     0.000 C 
BRANCH   2   3
ATOM      3  C   UNL     1       5.911  35.615   1.228  1.00  0.00     0.000 C 
BRANCH   3   4
ATOM      4  C   UNL     1       6.634  36.977   1.211  1.00  0.00     0.000 C 
BRANCH   4   5
ATOM      5  C   UNL     1       7.294  37.345  -0.130  1.00  0.00     0.000 C 
BRANCH   5   6
ATOM      6  C   UNL     1       8.741  37.834   0.030  1.00  0.00     0.006 C 
BRANCH   6   7
ATOM      7  C   UNL     1       9.692  37.040  -0.870  1.00  0.00     0.053 C 
BRANCH   7   8
ATOM      8  C   UNL     1      10.678  36.276  -0.046  1.00  0.00     0.041 C 
ATOM      9  O   UNL     1      10.299  35.654   0.981  1.00  0.00    -0.550 OA
ATOM     10  O   UNL     1      12.026  36.292  -0.382  1.00  0.00    -0.550 OA
ENDBRANCH   7   8
ENDBRANCH   6   7
ENDBRANCH   5   6
ENDBRANCH   4   5
ENDBRANCH   3   4
ENDBRANCH   2   3
ENDBRANCH   1   2
BRANCH   1  11
ATOM     11  C   UNL     1       2.875  36.890  -0.036  1.00  0.00     0.000 C 
BRANCH  11  12
ATOM     12  C   UNL     1       3.669  37.238  -1.312  1.00  0.00     0.000 C 
BRANCH  12  13
ATOM     13  C   UNL     1       3.816  36.065  -2.304  1.00  0.00     0.000 C 
BRANCH  13  14
ATOM     14  C   UNL     1       5.270  35.600  -2.521  1.00  0.00     0.000 C 
BRANCH  14  15
ATOM     15  C   UNL     1       5.518  34.123  -2.157  1.00  0.00     0.000 C 
BRANCH  15  16
ATOM     16  C   UNL     1       6.962  33.681  -2.452  1.00  0.00     0.006 C 
BRANCH  16  17
ATOM     17  C   UNL     1       7.861  33.767  -1.213  1.00  0.00     0.053 C 
BRANCH  17  18
ATOM     18  C   UNL     1       9.039  32.847  -1.317  1.00  0.00     0.041 C 
ATOM     19  O   UNL     1       9.559  32.607  -2.438  1.00  0.00    -0.550 OA
ATOM     20  O   UNL     1       9.541  32.229  -0.179  1.00  0.00    -0.550 OA
ENDBRANCH  17  18
ENDBRANCH  16  17
ENDBRANCH  15  16
ENDBRANCH  14  15
ENDBRANCH  13  14
ENDBRANCH  12  13
ENDBRANCH  11  12
ENDBRANCH   1  11
TORSDOF 15
ENDMDL
