MODEL 1
REMARK VINA RESULT:    -2.530      0.000      0.000
REMARK INTER + INTRA:          -2.323
REMARK INTER:                  -3.565
REMARK INTRA:                   1.242
REMARK UNBOUND:                 1.242
REMARK SMILES CC1=CCC(=C(C)C)C(=O)CC(C)=CCC1
REMARK SMILES IDX 12 1 14 2 13 3 15 4 16 5 2 6 1 7 3 8 11 10 9 11 10 12 5 13
REMARK SMILES IDX 6 14 7 15 8 16 4 17
REMARK H PARENT
REMARK Flexibility Score: 60.00
ROOT
ATOM      1  C   UNL     1       4.627  14.771  -8.862  1.00  0.00    -0.070 C 
ATOM      2  C   UNL     1       5.724  13.981  -8.858  1.00  0.00    -0.027 C 
ATOM      3  C   UNL     1       4.827  16.255  -8.687  1.00  0.00     0.039 C 
ENDROOT
BRANCH   2   4
ATOM      4  C   UNL     1       5.739  12.490  -9.115  1.00  0.00     0.032 C 
BRANCH   4   5
ATOM      5  C   UNL     1       5.221  11.627  -7.946  1.00  0.00     0.034 C 
BRANCH   5   6
ATOM      6  C   UNL     1       3.742  11.304  -8.050  1.00  0.00    -0.077 C 
ATOM      7  C   UNL     1       3.309  10.332  -9.119  1.00  0.00     0.039 C 
ATOM      8  C   UNL     1       2.795  11.776  -7.202  1.00  0.00    -0.023 CG0
ATOM      9  G   UNL     1       2.991  12.769  -6.074  1.00  0.00     0.000 G0
ENDBRANCH   5   6
ENDBRANCH   4   5
ENDBRANCH   2   4
BRANCH   1  10
ATOM     10  C   UNL     1       3.229  14.250  -9.125  1.00  0.00     0.111 C 
BRANCH  10  11
ATOM     11  C   UNL     1       2.336  14.427  -7.925  1.00  0.00     0.163 C 
ATOM     12  O   UNL     1       1.127  14.727  -8.123  1.00  0.00    -0.294 OA
BRANCH  11  13
ATOM     13  C   UNL     1       2.815  14.201  -6.529  1.00  0.00    -0.002 C 
ATOM     14  C   UNL     1       2.993  15.252  -5.672  1.00  0.00    -0.069 C 
ATOM     15  C   UNL     1       2.864  16.683  -6.148  1.00  0.00     0.039 C 
ATOM     16  C   UNL     1       3.322  15.046  -4.210  1.00  0.00     0.039 C 
BRANCH  13  17
ATOM     17  C   UNL     1       3.001  12.761  -6.083  1.00  0.00     0.066 CG0
ATOM     18  G   UNL     1       2.788  11.774  -7.214  1.00  0.00     0.000 G0
ENDBRANCH  13  17
ENDBRANCH  11  13
ENDBRANCH  10  11
ENDBRANCH   1  10
TORSDOF 0
ENDMDL
MODEL 2
REMARK VINA RESULT:    -2.302      1.813      4.025
REMARK INTER + INTRA:          -2.002
REMARK INTER:                  -3.430
REMARK INTRA:                   1.427
REMARK UNBOUND:                 1.242
REMARK SMILES CC1=CCC(=C(C)C)C(=O)CC(C)=CCC1
REMARK SMILES IDX 12 1 14 2 13 3 15 4 16 5 2 6 1 7 3 8 11 10 9 11 10 12 5 13
REMARK SMILES IDX 6 14 7 15 8 16 4 17
REMARK H PARENT
REMARK Flexibility Score: 60.00
ROOT
ATOM      1  C   UNL     1       5.591  14.597  -8.381  1.00  0.00    -0.070 C 
ATOM      2  C   UNL     1       4.605  15.168  -9.108  1.00  0.00    -0.027 C 
ATOM      3  C   UNL     1       6.761  14.003  -9.125  1.00  0.00     0.039 C 
ENDROOT
BRANCH   2   4
ATOM      4  C   UNL     1       3.405  15.899  -8.546  1.00  0.00     0.032 C 
BRANCH   4   5
ATOM      5  C   UNL     1       2.421  15.013  -7.753  1.00  0.00     0.034 C 
BRANCH   5   6
ATOM      6  C   UNL     1       2.469  15.258  -6.256  1.00  0.00    -0.077 C 
ATOM      7  C   UNL     1       2.274  16.673  -5.769  1.00  0.00     0.039 C 
ATOM      8  C   UNL     1       2.604  14.281  -5.325  1.00  0.00    -0.023 CG0
ATOM      9  G   UNL     1       2.830  12.804  -5.578  1.00  0.00     0.000 G0
ENDBRANCH   5   6
ENDBRANCH   4   5
ENDBRANCH   2   4
BRANCH   1  10
ATOM     10  C   UNL     1       5.621  14.606  -6.867  1.00  0.00     0.111 C 
BRANCH  10  11
ATOM     11  C   UNL     1       5.280  13.255  -6.296  1.00  0.00     0.163 C 
ATOM     12  O   UNL     1       6.107  12.716  -5.511  1.00  0.00    -0.294 OA
BRANCH  11  13
ATOM     13  C   UNL     1       3.984  12.570  -6.577  1.00  0.00    -0.002 C 
ATOM     14  C   UNL     1       3.862  11.707  -7.631  1.00  0.00    -0.069 C 
ATOM     15  C   UNL     1       4.981  11.536  -8.637  1.00  0.00     0.039 C 
ATOM     16  C   UNL     1       2.616  10.879  -7.849  1.00  0.00     0.039 C 
BRANCH  13  17
ATOM     17  C   UNL     1       2.848  12.801  -5.594  1.00  0.00     0.066 CG0
ATOM     18  G   UNL     1       2.609  14.273  -5.323  1.00  0.00     0.000 G0
ENDBRANCH  13  17
ENDBRANCH  11  13
ENDBRANCH  10  11
ENDBRANCH   1  10
TORSDOF 0
ENDMDL
MODEL 3
REMARK VINA RESULT:    -2.107      1.734      2.398
REMARK INTER + INTRA:          -1.727
REMARK INTER:                  -2.290
REMARK INTRA:                   0.564
REMARK UNBOUND:                 1.242
REMARK SMILES CC1=CCC(=C(C)C)C(=O)CC(C)=CCC1
REMARK SMILES IDX 12 1 14 2 13 3 15 4 16 5 2 6 1 7 3 8 11 10 9 11 10 12 5 13
REMARK SMILES IDX 6 14 7 15 8 16 4 17
REMARK H PARENT
REMARK Flexibility Score: 60.00
ROOT
ATOM      1  C   UNL     1       5.844  13.188  -6.571  1.00  0.00    -0.070 C 
ATOM      2  C   UNL     1       5.500  12.092  -7.284  1.00  0.00    -0.027 C 
ATOM      3  C   UNL     1       6.204  12.999  -5.119  1.00  0.00     0.039 C 
ENDROOT
BRANCH   2   4
ATOM      4  C   UNL     1       5.202  12.062  -8.768  1.00  0.00     0.032 C 
BRANCH   4   5
ATOM      5  C   UNL     1       3.717  11.842  -9.125  1.00  0.00     0.034 C 
BRANCH   5   6
ATOM      6  C   UNL     1       2.821  11.718  -7.906  1.00  0.00    -0.077 C 
ATOM      7  C   UNL     1       2.635  10.346  -7.308  1.00  0.00     0.039 C 
ATOM      8  C   UNL     1       2.234  12.768  -7.279  1.00  0.00    -0.023 CG0
ATOM      9  G   UNL     1       2.266  14.222  -7.706  1.00  0.00     0.000 G0
ENDBRANCH   5   6
ENDBRANCH   4   5
ENDBRANCH   2   4
BRANCH   1  10
ATOM     10  C   UNL     1       5.972  14.569  -7.180  1.00  0.00     0.111 C 
BRANCH  10  11
ATOM     11  C   UNL     1       4.691  15.005  -7.841  1.00  0.00     0.163 C 
ATOM     12  O   UNL     1       4.727  15.303  -9.067  1.00  0.00    -0.294 OA
BRANCH  11  13
ATOM     13  C   UNL     1       3.385  15.036  -7.119  1.00  0.00    -0.002 C 
ATOM     14  C   UNL     1       3.216  15.824  -6.014  1.00  0.00    -0.069 C 
ATOM     15  C   UNL     1       4.380  16.568  -5.395  1.00  0.00     0.039 C 
ATOM     16  C   UNL     1       1.865  16.000  -5.355  1.00  0.00     0.039 C 
BRANCH  13  17
ATOM     17  C   UNL     1       2.241  14.234  -7.716  1.00  0.00     0.066 CG0
ATOM     18  G   UNL     1       2.252  12.788  -7.262  1.00  0.00     0.000 G0
ENDBRANCH  13  17
ENDBRANCH  11  13
ENDBRANCH  10  11
ENDBRANCH   1  10
TORSDOF 0
ENDMDL
MODEL 4
REMARK VINA RESULT:    -1.811      1.845      3.606
REMARK INTER + INTRA:          -1.310
REMARK INTER:                  -2.917
REMARK INTRA:                   1.607
REMARK UNBOUND:                 1.242
REMARK SMILES CC1=CCC(=C(C)C)C(=O)CC(C)=CCC1
REMARK SMILES IDX 12 1 14 2 13 3 15 4 16 5 2 6 1 7 3 8 11 10 9 11 10 12 5 13
REMARK SMILES IDX 6 14 7 15 8 16 4 17
REMARK H PARENT
REMARK Flexibility Score: 60.00
ROOT
ATOM      1  C   UNL     1       3.344  11.354  -7.837  1.00  0.00    -0.070 C 
ATOM      2  C   UNL     1       4.683  11.318  -7.656  1.00  0.00    -0.027 C 
ATOM      3  C   UNL     1       2.566  10.085  -7.596  1.00  0.00     0.039 C 
ENDROOT
BRANCH   2   4
ATOM      4  C   UNL     1       5.619  12.504  -7.753  1.00  0.00     0.032 C 
BRANCH   4   5
ATOM      5  C   UNL     1       5.612  13.224  -9.118  1.00  0.00     0.034 C 
BRANCH   5   6
ATOM      6  C   UNL     1       5.884  14.713  -9.009  1.00  0.00    -0.077 C 
ATOM      7  C   UNL     1       7.316  15.175  -9.123  1.00  0.00     0.039 C 
ATOM      8  C   UNL     1       4.921  15.660  -8.889  1.00  0.00    -0.023 CG0
ATOM      9  G   UNL     1       3.430  15.432  -8.740  1.00  0.00     0.000 G0
ENDBRANCH   5   6
ENDBRANCH   4   5
ENDBRANCH   2   4
BRANCH   1  10
ATOM     10  C   UNL     1       2.585  12.620  -8.179  1.00  0.00     0.111 C 
BRANCH  10  11
ATOM     11  C   UNL     1       2.650  13.626  -7.059  1.00  0.00     0.163 C 
ATOM     12  O   UNL     1       2.408  13.226  -5.888  1.00  0.00    -0.294 OA
BRANCH  11  13
ATOM     13  C   UNL     1       3.046  15.047  -7.281  1.00  0.00    -0.002 C 
ATOM     14  C   UNL     1       3.144  15.918  -6.231  1.00  0.00    -0.069 C 
ATOM     15  C   UNL     1       2.707  15.519  -4.838  1.00  0.00     0.039 C 
ATOM     16  C   UNL     1       3.694  17.317  -6.399  1.00  0.00     0.039 C 
BRANCH  13  17
ATOM     17  C   UNL     1       3.422  15.452  -8.697  1.00  0.00     0.066 CG0
ATOM     18  G   UNL     1       4.914  15.666  -8.858  1.00  0.00     0.000 G0
ENDBRANCH  13  17
ENDBRANCH  11  13
ENDBRANCH  10  11
ENDBRANCH   1  10
TORSDOF 0
ENDMDL
MODEL 5
REMARK VINA RESULT:    -1.660      1.614      2.586
REMARK INTER + INTRA:          -1.098
REMARK INTER:                  -1.957
REMARK INTRA:                   0.859
REMARK UNBOUND:                 1.242
REMARK SMILES CC1=CCC(=C(C)C)C(=O)CC(C)=CCC1
REMARK SMILES IDX 12 1 14 2 13 3 15 4 16 5 2 6 1 7 3 8 11 10 9 11 10 12 5 13
REMARK SMILES IDX 6 14 7 15 8 16 4 17
REMARK H PARENT
REMARK Flexibility Score: 60.00
ROOT
ATOM      1  C   UNL     1       5.227  13.281  -6.182  1.00  0.00    -0.070 C 
ATOM      2  C   UNL     1       5.855  12.360  -6.946  1.00  0.00    -0.027 C 
ATOM      3  C   UNL     1       5.983  14.536  -5.826  1.00  0.00     0.039 C 
ENDROOT
BRANCH   2   4
ATOM      4  C   UNL     1       5.235  11.090  -7.486  1.00  0.00     0.032 C 
BRANCH   4   5
ATOM      5  C   UNL     1       4.760  11.174  -8.952  1.00  0.00     0.034 C 
BRANCH   5   6
ATOM      6  C   UNL     1       3.277  11.467  -9.084  1.00  0.00    -0.077 C 
ATOM      7  C   UNL     1       2.330  10.293  -9.120  1.00  0.00     0.039 C 
ATOM      8  C   UNL     1       2.742  12.713  -9.100  1.00  0.00    -0.023 CG0
ATOM      9  G   UNL     1       3.492  14.030  -9.093  1.00  0.00     0.000 G0
ENDBRANCH   5   6
ENDBRANCH   4   5
ENDBRANCH   2   4
BRANCH   1  10
ATOM     10  C   UNL     1       3.781  13.154  -5.748  1.00  0.00     0.111 C 
BRANCH  10  11
ATOM     11  C   UNL     1       2.873  14.025  -6.577  1.00  0.00     0.163 C 
ATOM     12  O   UNL     1       1.670  14.140  -6.217  1.00  0.00    -0.294 OA
BRANCH  11  13
ATOM     13  C   UNL     1       3.361  14.794  -7.759  1.00  0.00    -0.002 C 
ATOM     14  C   UNL     1       3.747  16.100  -7.633  1.00  0.00    -0.069 C 
ATOM     15  C   UNL     1       3.548  16.855  -6.336  1.00  0.00     0.039 C 
ATOM     16  C   UNL     1       4.393  16.858  -8.772  1.00  0.00     0.039 C 
BRANCH  13  17
ATOM     17  C   UNL     1       3.497  14.041  -9.072  1.00  0.00     0.066 CG0
ATOM     18  G   UNL     1       2.702  12.750  -9.080  1.00  0.00     0.000 G0
ENDBRANCH  13  17
ENDBRANCH  11  13
ENDBRANCH  10  11
ENDBRANCH   1  10
TORSDOF 0
ENDMDL
MODEL 6
REMARK VINA RESULT:    -1.341      1.685      4.851
REMARK INTER + INTRA:          -0.648
REMARK INTER:                  -1.410
REMARK INTRA:                   0.762
REMARK UNBOUND:                 1.242
REMARK SMILES CC1=CCC(=C(C)C)C(=O)CC(C)=CCC1
REMARK SMILES IDX 12 1 14 2 13 3 15 4 16 5 2 6 1 7 3 8 11 10 9 11 10 12 5 13
REMARK SMILES IDX 6 14 7 15 8 16 4 17
REMARK H PARENT
REMARK Flexibility Score: 60.00
ROOT
ATOM      1  C   UNL     1       2.804  13.394  -5.637  1.00  0.00    -0.070 C 
ATOM      2  C   UNL     1       3.371  14.009  -4.575  1.00  0.00    -0.027 C 
ATOM      3  C   UNL     1       2.945  11.897  -5.742  1.00  0.00     0.039 C 
ENDROOT
BRANCH   2   4
ATOM      4  C   UNL     1       3.257  15.482  -4.244  1.00  0.00     0.032 C 
BRANCH   4   5
ATOM      5  C   UNL     1       4.313  16.381  -4.920  1.00  0.00     0.034 C 
BRANCH   5   6
ATOM      6  C   UNL     1       3.841  16.968  -6.238  1.00  0.00    -0.077 C 
ATOM      7  C   UNL     1       3.012  18.227  -6.189  1.00  0.00     0.039 C 
ATOM      8  C   UNL     1       4.175  16.477  -7.457  1.00  0.00    -0.023 CG0
ATOM      9  G   UNL     1       4.977  15.224  -7.749  1.00  0.00     0.000 G0
ENDBRANCH   5   6
ENDBRANCH   4   5
ENDBRANCH   2   4
BRANCH   1  10
ATOM     10  C   UNL     1       1.964  14.120  -6.668  1.00  0.00     0.111 C 
BRANCH  10  11
ATOM     11  C   UNL     1       2.655  14.179  -8.005  1.00  0.00     0.163 C 
ATOM     12  O   UNL     1       1.952  14.412  -9.026  1.00  0.00    -0.294 OA
BRANCH  11  13
ATOM     13  C   UNL     1       4.133  14.035  -8.151  1.00  0.00    -0.002 C 
ATOM     14  C   UNL     1       4.675  12.912  -8.712  1.00  0.00    -0.069 C 
ATOM     15  C   UNL     1       3.814  11.716  -9.061  1.00  0.00     0.039 C 
ATOM     16  C   UNL     1       6.152  12.802  -9.019  1.00  0.00     0.039 C 
BRANCH  13  17
ATOM     17  C   UNL     1       4.991  15.220  -7.738  1.00  0.00     0.066 CG0
ATOM     18  G   UNL     1       4.166  16.460  -7.460  1.00  0.00     0.000 G0
ENDBRANCH  13  17
ENDBRANCH  11  13
ENDBRANCH  10  11
ENDBRANCH   1  10
TORSDOF 0
ENDMDL
MODEL 7
REMARK VINA RESULT:    -1.326      2.180      4.629
REMARK INTER + INTRA:          -0.627
REMARK INTER:                  -2.559
REMARK INTRA:                   1.933
REMARK UNBOUND:                 1.242
REMARK SMILES CC1=CCC(=C(C)C)C(=O)CC(C)=CCC1
REMARK SMILES IDX 12 1 14 2 13 3 15 4 16 5 2 6 1 7 3 8 11 10 9 11 10 12 5 13
REMARK SMILES IDX 6 14 7 15 8 16 4 17
REMARK H PARENT
REMARK Flexibility Score: 60.00
ROOT
ATOM      1  C   UNL     1       2.701  13.586  -8.168  1.00  0.00    -0.070 C 
ATOM      2  C   UNL     1       1.855  13.751  -7.127  1.00  0.00    -0.027 C 
ATOM      3  C   UNL     1       2.758  12.228  -8.822  1.00  0.00     0.039 C 
ENDROOT
BRANCH   2   4
ATOM      4  C   UNL     1       1.585  15.055  -6.407  1.00  0.00     0.032 C 
BRANCH   4   5
ATOM      5  C   UNL     1       2.634  15.435  -5.342  1.00  0.00     0.034 C 
BRANCH   5   6
ATOM      6  C   UNL     1       3.603  16.505  -5.812  1.00  0.00    -0.077 C 
ATOM      7  C   UNL     1       3.070  17.904  -5.994  1.00  0.00     0.039 C 
ATOM      8  C   UNL     1       4.929  16.302  -6.010  1.00  0.00    -0.023 CG0
ATOM      9  G   UNL     1       5.677  14.988  -5.906  1.00  0.00     0.000 G0
ENDBRANCH   5   6
ENDBRANCH   4   5
ENDBRANCH   2   4
BRANCH   1  10
ATOM     10  C   UNL     1       3.519  14.715  -8.762  1.00  0.00     0.111 C 
BRANCH  10  11
ATOM     11  C   UNL     1       4.965  14.628  -8.351  1.00  0.00     0.163 C 
ATOM     12  O   UNL     1       5.831  15.128  -9.120  1.00  0.00    -0.294 OA
BRANCH  11  13
ATOM     13  C   UNL     1       5.395  14.034  -7.052  1.00  0.00    -0.002 C 
ATOM     14  C   UNL     1       5.615  12.689  -6.935  1.00  0.00    -0.069 C 
ATOM     15  C   UNL     1       5.283  11.740  -8.067  1.00  0.00     0.039 C 
ATOM     16  C   UNL     1       6.202  12.078  -5.682  1.00  0.00     0.039 C 
BRANCH  13  17
ATOM     17  C   UNL     1       5.664  14.993  -5.904  1.00  0.00     0.066 CG0
ATOM     18  G   UNL     1       4.913  16.300  -6.056  1.00  0.00     0.000 G0
ENDBRANCH  13  17
ENDBRANCH  11  13
ENDBRANCH  10  11
ENDBRANCH   1  10
TORSDOF 0
ENDMDL
MODEL 8
REMARK VINA RESULT:    -1.125      2.131      4.652
REMARK INTER + INTRA:          -0.343
REMARK INTER:                  -3.653
REMARK INTRA:                   3.309
REMARK UNBOUND:                 1.242
REMARK SMILES CC1=CCC(=C(C)C)C(=O)CC(C)=CCC1
REMARK SMILES IDX 12 1 14 2 13 3 15 4 16 5 2 6 1 7 3 8 11 10 9 11 10 12 5 13
REMARK SMILES IDX 6 14 7 15 8 16 4 17
REMARK H PARENT
REMARK Flexibility Score: 60.00
ROOT
ATOM      1  C   UNL     1       5.326  13.354  -5.847  1.00  0.00    -0.070 C 
ATOM      2  C   UNL     1       4.081  13.021  -5.442  1.00  0.00    -0.027 C 
ATOM      3  C   UNL     1       6.474  12.498  -5.374  1.00  0.00     0.039 C 
ENDROOT
BRANCH   2   4
ATOM      4  C   UNL     1       2.799  13.693  -5.885  1.00  0.00     0.032 C 
BRANCH   4   5
ATOM      5  C   UNL     1       2.655  15.164  -5.445  1.00  0.00     0.034 C 
BRANCH   5   6
ATOM      6  C   UNL     1       3.033  16.154  -6.533  1.00  0.00    -0.077 C 
ATOM      7  C   UNL     1       3.437  17.544  -6.108  1.00  0.00     0.039 C 
ATOM      8  C   UNL     1       3.099  15.850  -7.853  1.00  0.00    -0.023 CG0
ATOM      9  G   UNL     1       2.725  14.535  -8.508  1.00  0.00     0.000 G0
ENDBRANCH   5   6
ENDBRANCH   4   5
ENDBRANCH   2   4
BRANCH   1  10
ATOM     10  C   UNL     1       5.611  14.480  -6.819  1.00  0.00     0.111 C 
BRANCH  10  11
ATOM     11  C   UNL     1       5.239  14.104  -8.229  1.00  0.00     0.163 C 
ATOM     12  O   UNL     1       6.126  14.194  -9.122  1.00  0.00    -0.294 OA
BRANCH  11  13
ATOM     13  C   UNL     1       3.890  13.577  -8.589  1.00  0.00    -0.002 C 
ATOM     14  C   UNL     1       3.711  12.254  -8.885  1.00  0.00    -0.069 C 
ATOM     15  C   UNL     1       4.890  11.313  -9.011  1.00  0.00     0.039 C 
ATOM     16  C   UNL     1       2.337  11.658  -9.096  1.00  0.00     0.039 C 
BRANCH  13  17
ATOM     17  C   UNL     1       2.722  14.548  -8.519  1.00  0.00     0.066 CG0
ATOM     18  G   UNL     1       3.095  15.849  -7.837  1.00  0.00     0.000 G0
ENDBRANCH  13  17
ENDBRANCH  11  13
ENDBRANCH  10  11
ENDBRANCH   1  10
TORSDOF 0
ENDMDL
MODEL 9
REMARK VINA RESULT:    -0.806      1.823      4.194
REMARK INTER + INTRA:           0.106
REMARK INTER:                  -0.327
REMARK INTRA:                   0.433
REMARK UNBOUND:                 1.242
REMARK SMILES CC1=CCC(=C(C)C)C(=O)CC(C)=CCC1
REMARK SMILES IDX 12 1 14 2 13 3 15 4 16 5 2 6 1 7 3 8 11 10 9 11 10 12 5 13
REMARK SMILES IDX 6 14 7 15 8 16 4 17
REMARK H PARENT
REMARK Flexibility Score: 60.00
ROOT
ATOM      1  C   UNL     1       3.370  15.377  -8.252  1.00  0.00    -0.070 C 
ATOM      2  C   UNL     1       2.952  16.146  -7.222  1.00  0.00    -0.027 C 
ATOM      3  C   UNL     1       2.320  14.737  -9.125  1.00  0.00     0.039 C 
ENDROOT
BRANCH   2   4
ATOM      4  C   UNL     1       3.846  16.946  -6.298  1.00  0.00     0.032 C 
BRANCH   4   5
ATOM      5  C   UNL     1       4.288  16.202  -5.021  1.00  0.00     0.034 C 
BRANCH   5   6
ATOM      6  C   UNL     1       3.443  14.977  -4.720  1.00  0.00    -0.077 C 
ATOM      7  C   UNL     1       2.155  15.181  -3.962  1.00  0.00     0.039 C 
ATOM      8  C   UNL     1       3.735  13.724  -5.148  1.00  0.00    -0.023 CG0
ATOM      9  G   UNL     1       4.972  13.281  -5.904  1.00  0.00     0.000 G0
ENDBRANCH   5   6
ENDBRANCH   4   5
ENDBRANCH   2   4
BRANCH   1  10
ATOM     10  C   UNL     1       4.829  15.204  -8.622  1.00  0.00     0.111 C 
BRANCH  10  11
ATOM     11  C   UNL     1       5.294  13.790  -8.399  1.00  0.00     0.163 C 
ATOM     12  O   UNL     1       6.250  13.361  -9.102  1.00  0.00    -0.294 OA
BRANCH  11  13
ATOM     13  C   UNL     1       4.711  12.911  -7.343  1.00  0.00    -0.002 C 
ATOM     14  C   UNL     1       4.034  11.770  -7.677  1.00  0.00    -0.069 C 
ATOM     15  C   UNL     1       3.718  11.440  -9.120  1.00  0.00     0.039 C 
ATOM     16  C   UNL     1       3.570  10.779  -6.632  1.00  0.00     0.039 C 
BRANCH  13  17
ATOM     17  C   UNL     1       4.982  13.289  -5.896  1.00  0.00     0.066 CG0
ATOM     18  G   UNL     1       3.721  13.699  -5.161  1.00  0.00     0.000 G0
ENDBRANCH  13  17
ENDBRANCH  11  13
ENDBRANCH  10  11
ENDBRANCH   1  10
TORSDOF 0
ENDMDL
