MODEL 1
REMARK VINA RESULT:    -2.899      0.000      0.000
REMARK INTER + INTRA:          -7.097
REMARK INTER:                  -5.102
REMARK INTRA:                  -1.996
REMARK UNBOUND:                -1.996
REMARK SMILES CCCCCCC=CCCCCCCCC(=O)[O-]
REMARK SMILES IDX 10 1 11 2 12 3 13 4 14 5 15 6 16 7 17 8 18 9 9 10 8 11 7 12
REMARK SMILES IDX 6 13 5 14 4 15 3 16 2 17 1 18
REMARK H PARENT
REMARK Flexibility Score: inf
ROOT
ATOM      1  C   UNL     1     124.757 126.988 122.765  1.00  0.00     0.004 C 
ENDROOT
BRANCH   1   2
ATOM      2  C   UNL     1     124.015 126.949 124.111  1.00  0.00     0.000 C 
BRANCH   2   3
ATOM      3  C   UNL     1     122.847 127.949 124.167  1.00  0.00     0.000 C 
BRANCH   3   4
ATOM      4  C   UNL     1     121.506 127.272 124.498  1.00  0.00     0.000 C 
BRANCH   4   5
ATOM      5  C   UNL     1     121.655 126.116 125.499  1.00  0.00     0.006 C 
BRANCH   5   6
ATOM      6  C   UNL     1     121.310 126.575 126.919  1.00  0.00     0.053 C 
BRANCH   6   7
ATOM      7  C   UNL     1     122.504 126.460 127.812  1.00  0.00     0.041 C 
ATOM      8  O   UNL     1     123.498 127.213 127.640  1.00  0.00    -0.550 OA
ATOM      9  O   UNL     1     122.501 125.554 128.866  1.00  0.00    -0.550 OA
ENDBRANCH   6   7
ENDBRANCH   5   6
ENDBRANCH   4   5
ENDBRANCH   3   4
ENDBRANCH   2   3
ENDBRANCH   1   2
BRANCH   1  10
ATOM     10  C   UNL     1     124.681 125.652 122.008  1.00  0.00     0.027 C 
BRANCH  10  11
ATOM     11  C   UNL     1     123.545 124.814 122.521  1.00  0.00    -0.031 C 
ATOM     12  C   UNL     1     122.412 124.664 121.818  1.00  0.00    -0.031 C 
BRANCH  12  13
ATOM     13  C   UNL     1     121.230 123.917 122.371  1.00  0.00     0.027 C 
BRANCH  13  14
ATOM     14  C   UNL     1     121.619 123.114 123.619  1.00  0.00     0.004 C 
BRANCH  14  15
ATOM     15  C   UNL     1     122.001 121.664 123.276  1.00  0.00     0.000 C 
BRANCH  15  16
ATOM     16  C   UNL     1     121.560 121.247 121.862  1.00  0.00    -0.000 C 
BRANCH  16  17
ATOM     17  C   UNL     1     122.714 120.984 120.878  1.00  0.00    -0.003 C 
ATOM     18  C   UNL     1     124.093 121.243 121.486  1.00  0.00     0.004 C 
ENDBRANCH  16  17
ENDBRANCH  15  16
ENDBRANCH  14  15
ENDBRANCH  13  14
ENDBRANCH  12  13
ENDBRANCH  10  11
ENDBRANCH   1  10
TORSDOF 13
ENDMDL
MODEL 2
REMARK VINA RESULT:    -2.815      4.693      8.458
REMARK INTER + INTRA:          -6.949
REMARK INTER:                  -6.063
REMARK INTRA:                  -0.887
REMARK UNBOUND:                -1.996
REMARK SMILES CCCCCCC=CCCCCCCCC(=O)[O-]
REMARK SMILES IDX 10 1 11 2 12 3 13 4 14 5 15 6 16 7 17 8 18 9 9 10 8 11 7 12
REMARK SMILES IDX 6 13 5 14 4 15 3 16 2 17 1 18
REMARK H PARENT
REMARK Flexibility Score: inf
ROOT
ATOM      1  C   UNL     1     121.916 126.209 128.462  1.00  0.00     0.004 C 
ENDROOT
BRANCH   1   2
ATOM      2  C   UNL     1     121.281 126.453 127.083  1.00  0.00     0.000 C 
BRANCH   2   3
ATOM      3  C   UNL     1     122.159 125.936 125.931  1.00  0.00     0.000 C 
BRANCH   3   4
ATOM      4  C   UNL     1     121.352 125.664 124.651  1.00  0.00     0.000 C 
BRANCH   4   5
ATOM      5  C   UNL     1     122.073 124.709 123.686  1.00  0.00     0.006 C 
BRANCH   5   6
ATOM      6  C   UNL     1     121.081 123.745 123.028  1.00  0.00     0.053 C 
BRANCH   6   7
ATOM      7  C   UNL     1     121.751 122.448 122.699  1.00  0.00     0.041 C 
ATOM      8  O   UNL     1     121.816 121.533 123.560  1.00  0.00    -0.550 OA
ATOM      9  O   UNL     1     122.258 122.232 121.424  1.00  0.00    -0.550 OA
ENDBRANCH   6   7
ENDBRANCH   5   6
ENDBRANCH   4   5
ENDBRANCH   3   4
ENDBRANCH   2   3
ENDBRANCH   1   2
BRANCH   1  10
ATOM     10  C   UNL     1     120.875 125.886 129.545  1.00  0.00     0.027 C 
BRANCH  10  11
ATOM     11  C   UNL     1     121.330 124.731 130.393  1.00  0.00    -0.031 C 
ATOM     12  C   UNL     1     122.620 124.363 130.439  1.00  0.00    -0.031 C 
BRANCH  12  13
ATOM     13  C   UNL     1     123.067 123.143 131.197  1.00  0.00     0.027 C 
BRANCH  13  14
ATOM     14  C   UNL     1     124.154 123.497 132.220  1.00  0.00     0.004 C 
BRANCH  14  15
ATOM     15  C   UNL     1     123.667 123.309 133.667  1.00  0.00     0.000 C 
BRANCH  15  16
ATOM     16  C   UNL     1     122.170 122.962 133.755  1.00  0.00    -0.000 C 
BRANCH  16  17
ATOM     17  C   UNL     1     121.263 124.126 134.193  1.00  0.00    -0.003 C 
ATOM     18  C   UNL     1     121.930 125.059 135.205  1.00  0.00     0.004 C 
ENDBRANCH  16  17
ENDBRANCH  15  16
ENDBRANCH  14  15
ENDBRANCH  13  14
ENDBRANCH  12  13
ENDBRANCH  10  11
ENDBRANCH   1  10
TORSDOF 13
ENDMDL
MODEL 3
REMARK VINA RESULT:    -2.734      9.547     13.761
REMARK INTER + INTRA:          -6.807
REMARK INTER:                  -5.379
REMARK INTRA:                  -1.428
REMARK UNBOUND:                -1.996
REMARK SMILES CCCCCCC=CCCCCCCCC(=O)[O-]
REMARK SMILES IDX 10 1 11 2 12 3 13 4 14 5 15 6 16 7 17 8 18 9 9 10 8 11 7 12
REMARK SMILES IDX 6 13 5 14 4 15 3 16 2 17 1 18
REMARK H PARENT
REMARK Flexibility Score: inf
ROOT
ATOM      1  C   UNL     1     122.011 124.984 136.588  1.00  0.00     0.004 C 
ENDROOT
BRANCH   1   2
ATOM      2  C   UNL     1     122.022 125.351 135.095  1.00  0.00     0.000 C 
BRANCH   2   3
ATOM      3  C   UNL     1     121.221 124.354 134.239  1.00  0.00     0.000 C 
BRANCH   3   4
ATOM      4  C   UNL     1     121.947 123.010 134.065  1.00  0.00     0.000 C 
BRANCH   4   5
ATOM      5  C   UNL     1     123.165 123.109 133.133  1.00  0.00     0.006 C 
BRANCH   5   6
ATOM      6  C   UNL     1     122.736 123.051 131.664  1.00  0.00     0.053 C 
BRANCH   6   7
ATOM      7  C   UNL     1     123.016 124.354 130.984  1.00  0.00     0.041 C 
ATOM      8  O   UNL     1     122.748 124.502 129.763  1.00  0.00    -0.550 OA
ATOM      9  O   UNL     1     123.526 125.422 131.712  1.00  0.00    -0.550 OA
ENDBRANCH   6   7
ENDBRANCH   5   6
ENDBRANCH   4   5
ENDBRANCH   3   4
ENDBRANCH   2   3
ENDBRANCH   1   2
BRANCH   1  10
ATOM     10  C   UNL     1     122.595 126.094 137.476  1.00  0.00     0.027 C 
BRANCH  10  11
ATOM     11  C   UNL     1     123.764 125.582 138.269  1.00  0.00    -0.031 C 
ATOM     12  C   UNL     1     124.182 124.312 138.158  1.00  0.00    -0.031 C 
BRANCH  12  13
ATOM     13  C   UNL     1     125.279 123.761 139.027  1.00  0.00     0.027 C 
BRANCH  13  14
ATOM     14  C   UNL     1     124.818 122.497 139.765  1.00  0.00     0.004 C 
BRANCH  14  15
ATOM     15  C   UNL     1     123.371 122.116 139.407  1.00  0.00     0.000 C 
BRANCH  15  16
ATOM     16  C   UNL     1     122.543 121.694 140.633  1.00  0.00    -0.000 C 
BRANCH  16  17
ATOM     17  C   UNL     1     121.121 122.282 140.684  1.00  0.00    -0.003 C 
ATOM     18  C   UNL     1     121.065 123.755 140.276  1.00  0.00     0.004 C 
ENDBRANCH  16  17
ENDBRANCH  15  16
ENDBRANCH  14  15
ENDBRANCH  13  14
ENDBRANCH  12  13
ENDBRANCH  10  11
ENDBRANCH   1  10
TORSDOF 13
ENDMDL
MODEL 4
REMARK VINA RESULT:    -2.727      1.601      4.386
REMARK INTER + INTRA:          -6.796
REMARK INTER:                  -4.366
REMARK INTRA:                  -2.430
REMARK UNBOUND:                -1.996
REMARK SMILES CCCCCCC=CCCCCCCCC(=O)[O-]
REMARK SMILES IDX 10 1 11 2 12 3 13 4 14 5 15 6 16 7 17 8 18 9 9 10 8 11 7 12
REMARK SMILES IDX 6 13 5 14 4 15 3 16 2 17 1 18
REMARK H PARENT
REMARK Flexibility Score: inf
ROOT
ATOM      1  C   UNL     1     121.002 123.064 123.365  1.00  0.00     0.004 C 
ENDROOT
BRANCH   1   2
ATOM      2  C   UNL     1     121.422 124.177 122.392  1.00  0.00     0.000 C 
BRANCH   2   3
ATOM      3  C   UNL     1     121.401 125.569 123.046  1.00  0.00     0.000 C 
BRANCH   3   4
ATOM      4  C   UNL     1     121.233 125.501 124.573  1.00  0.00     0.000 C 
BRANCH   4   5
ATOM      5  C   UNL     1     121.996 126.616 125.305  1.00  0.00     0.006 C 
BRANCH   5   6
ATOM      6  C   UNL     1     122.709 126.067 126.545  1.00  0.00     0.053 C 
BRANCH   6   7
ATOM      7  C   UNL     1     121.991 126.484 127.789  1.00  0.00     0.041 C 
ATOM      8  O   UNL     1     121.326 127.553 127.810  1.00  0.00    -0.550 OA
ATOM      9  O   UNL     1     122.015 125.667 128.913  1.00  0.00    -0.550 OA
ENDBRANCH   6   7
ENDBRANCH   5   6
ENDBRANCH   4   5
ENDBRANCH   3   4
ENDBRANCH   2   3
ENDBRANCH   1   2
BRANCH   1  10
ATOM     10  C   UNL     1     121.976 121.876 123.363  1.00  0.00     0.027 C 
BRANCH  10  11
ATOM     11  C   UNL     1     123.397 122.353 123.474  1.00  0.00    -0.031 C 
ATOM     12  C   UNL     1     123.912 122.751 124.647  1.00  0.00    -0.031 C 
BRANCH  12  13
ATOM     13  C   UNL     1     125.296 123.332 124.747  1.00  0.00     0.027 C 
BRANCH  13  14
ATOM     14  C   UNL     1     125.581 124.285 123.580  1.00  0.00     0.004 C 
BRANCH  14  15
ATOM     15  C   UNL     1     125.437 125.761 123.992  1.00  0.00     0.000 C 
BRANCH  15  16
ATOM     16  C   UNL     1     124.871 126.644 122.867  1.00  0.00    -0.000 C 
BRANCH  16  17
ATOM     17  C   UNL     1     124.863 128.153 123.174  1.00  0.00    -0.003 C 
ATOM     18  C   UNL     1     125.175 128.470 124.638  1.00  0.00     0.004 C 
ENDBRANCH  16  17
ENDBRANCH  15  16
ENDBRANCH  14  15
ENDBRANCH  13  14
ENDBRANCH  12  13
ENDBRANCH  10  11
ENDBRANCH   1  10
TORSDOF 13
ENDMDL
MODEL 5
REMARK VINA RESULT:    -2.679      9.376     12.567
REMARK INTER + INTRA:          -6.710
REMARK INTER:                  -4.645
REMARK INTRA:                  -2.065
REMARK UNBOUND:                -1.996
REMARK SMILES CCCCCCC=CCCCCCCCC(=O)[O-]
REMARK SMILES IDX 10 1 11 2 12 3 13 4 14 5 15 6 16 7 17 8 18 9 9 10 8 11 7 12
REMARK SMILES IDX 6 13 5 14 4 15 3 16 2 17 1 18
REMARK H PARENT
REMARK Flexibility Score: inf
ROOT
ATOM      1  C   UNL     1     122.700 126.537 134.497  1.00  0.00     0.004 C 
ENDROOT
BRANCH   1   2
ATOM      2  C   UNL     1     121.715 126.544 133.316  1.00  0.00     0.000 C 
BRANCH   2   3
ATOM      3  C   UNL     1     121.168 125.142 132.999  1.00  0.00     0.000 C 
BRANCH   3   4
ATOM      4  C   UNL     1     121.147 124.224 134.232  1.00  0.00     0.000 C 
BRANCH   4   5
ATOM      5  C   UNL     1     122.020 122.972 134.057  1.00  0.00     0.006 C 
BRANCH   5   6
ATOM      6  C   UNL     1     122.646 122.933 132.660  1.00  0.00     0.053 C 
BRANCH   6   7
ATOM      7  C   UNL     1     124.128 122.750 132.754  1.00  0.00     0.041 C 
ATOM      8  O   UNL     1     124.905 123.580 132.213  1.00  0.00    -0.550 OA
ATOM      9  O   UNL     1     124.652 121.689 133.482  1.00  0.00    -0.550 OA
ENDBRANCH   6   7
ENDBRANCH   5   6
ENDBRANCH   4   5
ENDBRANCH   3   4
ENDBRANCH   2   3
ENDBRANCH   1   2
BRANCH   1  10
ATOM     10  C   UNL     1     122.627 127.822 135.337  1.00  0.00     0.027 C 
BRANCH  10  11
ATOM     11  C   UNL     1     122.164 127.518 136.734  1.00  0.00    -0.031 C 
ATOM     12  C   UNL     1     121.939 126.259 137.138  1.00  0.00    -0.031 C 
BRANCH  12  13
ATOM     13  C   UNL     1     121.371 125.954 138.497  1.00  0.00     0.027 C 
BRANCH  13  14
ATOM     14  C   UNL     1     122.105 124.776 139.151  1.00  0.00     0.004 C 
BRANCH  14  15
ATOM     15  C   UNL     1     123.563 124.668 138.674  1.00  0.00     0.000 C 
BRANCH  15  16
ATOM     16  C   UNL     1     124.004 123.216 138.418  1.00  0.00    -0.000 C 
BRANCH  16  17
ATOM     17  C   UNL     1     124.478 122.929 136.982  1.00  0.00    -0.003 C 
ATOM     18  C   UNL     1     124.861 124.194 136.212  1.00  0.00     0.004 C 
ENDBRANCH  16  17
ENDBRANCH  15  16
ENDBRANCH  14  15
ENDBRANCH  13  14
ENDBRANCH  12  13
ENDBRANCH  10  11
ENDBRANCH   1  10
TORSDOF 13
ENDMDL
MODEL 6
REMARK VINA RESULT:    -2.676      2.113      5.436
REMARK INTER + INTRA:          -6.705
REMARK INTER:                  -4.605
REMARK INTRA:                  -2.100
REMARK UNBOUND:                -1.996
REMARK SMILES CCCCCCC=CCCCCCCCC(=O)[O-]
REMARK SMILES IDX 10 1 11 2 12 3 13 4 14 5 15 6 16 7 17 8 18 9 9 10 8 11 7 12
REMARK SMILES IDX 6 13 5 14 4 15 3 16 2 17 1 18
REMARK H PARENT
REMARK Flexibility Score: inf
ROOT
ATOM      1  C   UNL     1     121.852 122.188 123.565  1.00  0.00     0.004 C 
ENDROOT
BRANCH   1   2
ATOM      2  C   UNL     1     122.916 121.814 122.520  1.00  0.00     0.000 C 
BRANCH   2   3
ATOM      3  C   UNL     1     124.340 122.177 122.974  1.00  0.00     0.000 C 
BRANCH   3   4
ATOM      4  C   UNL     1     124.421 122.477 124.480  1.00  0.00     0.000 C 
BRANCH   4   5
ATOM      5  C   UNL     1     124.953 123.887 124.777  1.00  0.00     0.006 C 
BRANCH   5   6
ATOM      6  C   UNL     1     124.291 124.469 126.029  1.00  0.00     0.053 C 
BRANCH   6   7
ATOM      7  C   UNL     1     125.151 124.242 127.231  1.00  0.00     0.041 C 
ATOM      8  O   UNL     1     124.988 123.215 127.942  1.00  0.00    -0.550 OA
ATOM      9  O   UNL     1     126.167 125.139 127.540  1.00  0.00    -0.550 OA
ENDBRANCH   6   7
ENDBRANCH   5   6
ENDBRANCH   4   5
ENDBRANCH   3   4
ENDBRANCH   2   3
ENDBRANCH   1   2
BRANCH   1  10
ATOM     10  C   UNL     1     120.901 123.290 123.074  1.00  0.00     0.027 C 
BRANCH  10  11
ATOM     11  C   UNL     1     121.303 124.627 123.631  1.00  0.00    -0.031 C 
ATOM     12  C   UNL     1     122.095 125.462 122.943  1.00  0.00    -0.031 C 
BRANCH  12  13
ATOM     13  C   UNL     1     122.591 126.752 123.536  1.00  0.00     0.027 C 
BRANCH  13  14
ATOM     14  C   UNL     1     121.437 127.740 123.751  1.00  0.00     0.004 C 
BRANCH  14  15
ATOM     15  C   UNL     1     121.403 128.283 125.190  1.00  0.00     0.000 C 
BRANCH  15  16
ATOM     16  C   UNL     1     122.146 127.378 126.189  1.00  0.00    -0.000 C 
BRANCH  16  17
ATOM     17  C   UNL     1     121.246 126.400 126.966  1.00  0.00    -0.003 C 
ATOM     18  C   UNL     1     120.877 126.903 128.362  1.00  0.00     0.004 C 
ENDBRANCH  16  17
ENDBRANCH  15  16
ENDBRANCH  14  15
ENDBRANCH  13  14
ENDBRANCH  12  13
ENDBRANCH  10  11
ENDBRANCH   1  10
TORSDOF 13
ENDMDL
MODEL 7
REMARK VINA RESULT:    -2.661      4.052      6.877
REMARK INTER + INTRA:          -6.680
REMARK INTER:                  -5.345
REMARK INTRA:                  -1.335
REMARK UNBOUND:                -1.996
REMARK SMILES CCCCCCC=CCCCCCCCC(=O)[O-]
REMARK SMILES IDX 10 1 11 2 12 3 13 4 14 5 15 6 16 7 17 8 18 9 9 10 8 11 7 12
REMARK SMILES IDX 6 13 5 14 4 15 3 16 2 17 1 18
REMARK H PARENT
REMARK Flexibility Score: inf
ROOT
ATOM      1  C   UNL     1     121.479 126.120 127.932  1.00  0.00     0.004 C 
ENDROOT
BRANCH   1   2
ATOM      2  C   UNL     1     121.302 126.827 126.578  1.00  0.00     0.000 C 
BRANCH   2   3
ATOM      3  C   UNL     1     121.985 126.069 125.426  1.00  0.00     0.000 C 
BRANCH   3   4
ATOM      4  C   UNL     1     121.579 126.608 124.044  1.00  0.00     0.000 C 
BRANCH   4   5
ATOM      5  C   UNL     1     121.289 125.490 123.031  1.00  0.00     0.006 C 
BRANCH   5   6
ATOM      6  C   UNL     1     120.937 124.182 123.747  1.00  0.00     0.053 C 
BRANCH   6   7
ATOM      7  C   UNL     1     121.568 123.018 123.051  1.00  0.00     0.041 C 
ATOM      8  O   UNL     1     121.897 123.105 121.840  1.00  0.00    -0.550 OA
ATOM      9  O   UNL     1     121.841 121.851 123.756  1.00  0.00    -0.550 OA
ENDBRANCH   6   7
ENDBRANCH   5   6
ENDBRANCH   4   5
ENDBRANCH   3   4
ENDBRANCH   2   3
ENDBRANCH   1   2
BRANCH   1  10
ATOM     10  C   UNL     1     122.932 125.691 128.191  1.00  0.00     0.027 C 
BRANCH  10  11
ATOM     11  C   UNL     1     123.093 125.181 129.595  1.00  0.00    -0.031 C 
ATOM     12  C   UNL     1     122.101 124.531 130.222  1.00  0.00    -0.031 C 
BRANCH  12  13
ATOM     13  C   UNL     1     122.214 124.114 131.663  1.00  0.00     0.027 C 
BRANCH  13  14
ATOM     14  C   UNL     1     122.845 122.721 131.786  1.00  0.00     0.004 C 
BRANCH  14  15
ATOM     15  C   UNL     1     124.326 122.794 132.196  1.00  0.00     0.000 C 
BRANCH  15  16
ATOM     16  C   UNL     1     125.284 122.437 131.046  1.00  0.00    -0.000 C 
BRANCH  16  17
ATOM     17  C   UNL     1     124.678 121.528 129.961  1.00  0.00    -0.003 C 
ATOM     18  C   UNL     1     124.833 122.093 128.548  1.00  0.00     0.004 C 
ENDBRANCH  16  17
ENDBRANCH  15  16
ENDBRANCH  14  15
ENDBRANCH  13  14
ENDBRANCH  12  13
ENDBRANCH  10  11
ENDBRANCH   1  10
TORSDOF 13
ENDMDL
MODEL 8
REMARK VINA RESULT:    -2.646      3.542      5.396
REMARK INTER + INTRA:          -6.652
REMARK INTER:                  -5.773
REMARK INTRA:                  -0.879
REMARK UNBOUND:                -1.996
REMARK SMILES CCCCCCC=CCCCCCCCC(=O)[O-]
REMARK SMILES IDX 10 1 11 2 12 3 13 4 14 5 15 6 16 7 17 8 18 9 9 10 8 11 7 12
REMARK SMILES IDX 6 13 5 14 4 15 3 16 2 17 1 18
REMARK H PARENT
REMARK Flexibility Score: inf
ROOT
ATOM      1  C   UNL     1     120.999 126.135 128.184  1.00  0.00     0.004 C 
ENDROOT
BRANCH   1   2
ATOM      2  C   UNL     1     122.258 125.799 129.000  1.00  0.00     0.000 C 
BRANCH   2   3
ATOM      3  C   UNL     1     121.934 125.021 130.287  1.00  0.00     0.000 C 
BRANCH   3   4
ATOM      4  C   UNL     1     122.879 123.828 130.509  1.00  0.00     0.000 C 
BRANCH   4   5
ATOM      5  C   UNL     1     122.644 123.126 131.855  1.00  0.00     0.006 C 
BRANCH   5   6
ATOM      6  C   UNL     1     123.258 123.928 133.006  1.00  0.00     0.053 C 
BRANCH   6   7
ATOM      7  C   UNL     1     122.462 123.740 134.259  1.00  0.00     0.041 C 
ATOM      8  O   UNL     1     123.034 123.398 135.326  1.00  0.00    -0.550 OA
ATOM      9  O   UNL     1     121.096 123.993 134.259  1.00  0.00    -0.550 OA
ENDBRANCH   6   7
ENDBRANCH   5   6
ENDBRANCH   4   5
ENDBRANCH   3   4
ENDBRANCH   2   3
ENDBRANCH   1   2
BRANCH   1  10
ATOM     10  C   UNL     1     121.307 126.982 126.940  1.00  0.00     0.027 C 
BRANCH  10  11
ATOM     11  C   UNL     1     121.560 126.103 125.747  1.00  0.00    -0.031 C 
ATOM     12  C   UNL     1     122.654 126.254 124.986  1.00  0.00    -0.031 C 
BRANCH  12  13
ATOM     13  C   UNL     1     122.860 125.453 123.730  1.00  0.00     0.027 C 
BRANCH  13  14
ATOM     14  C   UNL     1     121.575 125.397 122.893  1.00  0.00     0.004 C 
BRANCH  14  15
ATOM     15  C   UNL     1     121.264 123.970 122.409  1.00  0.00     0.000 C 
BRANCH  15  16
ATOM     16  C   UNL     1     121.189 122.951 123.560  1.00  0.00    -0.000 C 
BRANCH  16  17
ATOM     17  C   UNL     1     121.918 121.621 123.293  1.00  0.00    -0.003 C 
ATOM     18  C   UNL     1     123.276 121.807 122.614  1.00  0.00     0.004 C 
ENDBRANCH  16  17
ENDBRANCH  15  16
ENDBRANCH  14  15
ENDBRANCH  13  14
ENDBRANCH  12  13
ENDBRANCH  10  11
ENDBRANCH   1  10
TORSDOF 13
ENDMDL
MODEL 9
REMARK VINA RESULT:    -2.617      2.436      5.036
REMARK INTER + INTRA:          -6.601
REMARK INTER:                  -4.606
REMARK INTRA:                  -1.995
REMARK UNBOUND:                -1.996
REMARK SMILES CCCCCCC=CCCCCCCCC(=O)[O-]
REMARK SMILES IDX 10 1 11 2 12 3 13 4 14 5 15 6 16 7 17 8 18 9 9 10 8 11 7 12
REMARK SMILES IDX 6 13 5 14 4 15 3 16 2 17 1 18
REMARK H PARENT
REMARK Flexibility Score: inf
ROOT
ATOM      1  C   UNL     1     121.441 124.141 122.448  1.00  0.00     0.004 C 
ENDROOT
BRANCH   1   2
ATOM      2  C   UNL     1     121.623 122.625 122.276  1.00  0.00     0.000 C 
BRANCH   2   3
ATOM      3  C   UNL     1     122.316 121.974 123.486  1.00  0.00     0.000 C 
BRANCH   3   4
ATOM      4  C   UNL     1     123.797 122.368 123.599  1.00  0.00     0.000 C 
BRANCH   4   5
ATOM      5  C   UNL     1     124.111 123.135 124.894  1.00  0.00     0.006 C 
BRANCH   5   6
ATOM      6  C   UNL     1     125.420 122.641 125.518  1.00  0.00     0.053 C 
BRANCH   6   7
ATOM      7  C   UNL     1     125.301 122.584 127.008  1.00  0.00     0.041 C 
ATOM      8  O   UNL     1     124.576 121.711 127.553  1.00  0.00    -0.550 OA
ATOM      9  O   UNL     1     126.030 123.464 127.799  1.00  0.00    -0.550 OA
ENDBRANCH   6   7
ENDBRANCH   5   6
ENDBRANCH   4   5
ENDBRANCH   3   4
ENDBRANCH   2   3
ENDBRANCH   1   2
BRANCH   1  10
ATOM     10  C   UNL     1     120.875 124.518 123.827  1.00  0.00     0.027 C 
BRANCH  10  11
ATOM     11  C   UNL     1     121.303 125.905 124.216  1.00  0.00    -0.031 C 
ATOM     12  C   UNL     1     122.203 126.589 123.494  1.00  0.00    -0.031 C 
BRANCH  12  13
ATOM     13  C   UNL     1     122.717 127.931 123.936  1.00  0.00     0.027 C 
BRANCH  13  14
ATOM     14  C   UNL     1     124.202 128.097 123.586  1.00  0.00     0.004 C 
BRANCH  14  15
ATOM     15  C   UNL     1     125.078 127.037 124.275  1.00  0.00     0.000 C 
BRANCH  15  16
ATOM     16  C   UNL     1     125.608 125.971 123.299  1.00  0.00    -0.000 C 
BRANCH  16  17
ATOM     17  C   UNL     1     125.442 126.322 121.809  1.00  0.00    -0.003 C 
ATOM     18  C   UNL     1     124.702 125.244 121.017  1.00  0.00     0.004 C 
ENDBRANCH  16  17
ENDBRANCH  15  16
ENDBRANCH  14  15
ENDBRANCH  13  14
ENDBRANCH  12  13
ENDBRANCH  10  11
ENDBRANCH   1  10
TORSDOF 13
ENDMDL
