MODEL 1
REMARK VINA RESULT:    -7.764      0.000      0.000
REMARK INTER + INTRA:          -7.764
REMARK INTER:                  -7.764
REMARK INTRA:                   0.000
REMARK UNBOUND:                 0.000
REMARK SMILES CC1=CC[C@@]23C[C@@H]1C(C)(C)[C@H]2CC[C@@H]3C
REMARK SMILES IDX 15 1 14 2 13 3 12 4 11 5 5 6 4 7 3 8 2 9 7 10 6 11 8 12 9 13
REMARK SMILES IDX 10 14 1 15
REMARK H PARENT
REMARK Flexibility Score: inf
ROOT
ATOM      1  C   UNL     1      -1.555 -17.232  13.070  1.00  0.00     0.008 C 
ATOM      2  C   UNL     1      -2.733 -16.337  12.651  1.00  0.00    -0.007 C 
ATOM      3  C   UNL     1      -2.445 -14.819  12.895  1.00  0.00     0.004 C 
ATOM      4  C   UNL     1      -2.302 -14.137  11.510  1.00  0.00     0.005 C 
ATOM      5  C   UNL     1      -2.133 -15.328  10.593  1.00  0.00     0.002 C 
ATOM      6  C   UNL     1      -3.070 -16.392  11.144  1.00  0.00    -0.020 C 
ATOM      7  C   UNL     1      -4.619 -16.099  10.966  1.00  0.00     0.035 C 
ATOM      8  C   UNL     1      -5.171 -16.376   9.578  1.00  0.00    -0.027 C 
ATOM      9  C   UNL     1      -4.361 -16.754   8.572  1.00  0.00    -0.074 C 
ATOM     10  C   UNL     1      -2.870 -16.828   8.843  1.00  0.00     0.021 C 
ATOM     11  C   UNL     1      -2.701 -17.548  10.213  1.00  0.00     0.016 C 
ATOM     12  C   UNL     1      -2.257 -15.382   9.054  1.00  0.00    -0.025 C 
ATOM     13  C   UNL     1      -0.861 -15.325   8.387  1.00  0.00     0.012 C 
ATOM     14  C   UNL     1      -3.088 -14.201   8.492  1.00  0.00     0.012 C 
ATOM     15  C   UNL     1      -4.925 -17.069   7.216  1.00  0.00     0.039 C 
ENDROOT
TORSDOF 0
ENDMDL
MODEL 2
REMARK VINA RESULT:    -7.266      1.397      4.353
REMARK INTER + INTRA:          -7.266
REMARK INTER:                  -7.266
REMARK INTRA:                   0.000
REMARK UNBOUND:                 0.000
REMARK SMILES CC1=CC[C@@]23C[C@@H]1C(C)(C)[C@H]2CC[C@@H]3C
REMARK SMILES IDX 15 1 14 2 13 3 12 4 11 5 5 6 4 7 3 8 2 9 7 10 6 11 8 12 9 13
REMARK SMILES IDX 10 14 1 15
REMARK H PARENT
REMARK Flexibility Score: inf
ROOT
ATOM      1  C   UNL     1      -5.008 -13.264   6.883  1.00  0.00     0.008 C 
ATOM      2  C   UNL     1      -5.274 -14.709   7.336  1.00  0.00    -0.007 C 
ATOM      3  C   UNL     1      -5.130 -15.737   6.166  1.00  0.00     0.004 C 
ATOM      4  C   UNL     1      -3.865 -16.591   6.442  1.00  0.00     0.005 C 
ATOM      5  C   UNL     1      -3.166 -15.776   7.508  1.00  0.00     0.002 C 
ATOM      6  C   UNL     1      -4.280 -15.239   8.394  1.00  0.00    -0.020 C 
ATOM      7  C   UNL     1      -5.026 -16.318   9.287  1.00  0.00     0.035 C 
ATOM      8  C   UNL     1      -4.279 -16.743  10.539  1.00  0.00    -0.027 C 
ATOM      9  C   UNL     1      -3.038 -16.288  10.795  1.00  0.00    -0.074 C 
ATOM     10  C   UNL     1      -2.377 -15.395   9.763  1.00  0.00     0.021 C 
ATOM     11  C   UNL     1      -3.448 -14.354   9.322  1.00  0.00     0.016 C 
ATOM     12  C   UNL     1      -2.019 -16.206   8.450  1.00  0.00    -0.025 C 
ATOM     13  C   UNL     1      -0.653 -15.717   7.913  1.00  0.00     0.012 C 
ATOM     14  C   UNL     1      -1.934 -17.746   8.603  1.00  0.00     0.012 C 
ATOM     15  C   UNL     1      -2.328 -16.682  12.059  1.00  0.00     0.039 C 
ENDROOT
TORSDOF 0
ENDMDL
MODEL 3
REMARK VINA RESULT:    -6.827      1.227      3.985
REMARK INTER + INTRA:          -6.827
REMARK INTER:                  -6.827
REMARK INTRA:                   0.000
REMARK UNBOUND:                 0.000
REMARK SMILES CC1=CC[C@@]23C[C@@H]1C(C)(C)[C@H]2CC[C@@H]3C
REMARK SMILES IDX 15 1 14 2 13 3 12 4 11 5 5 6 4 7 3 8 2 9 7 10 6 11 8 12 9 13
REMARK SMILES IDX 10 14 1 15
REMARK H PARENT
REMARK Flexibility Score: inf
ROOT
ATOM      1  C   UNL     1      -3.508 -18.374   7.889  1.00  0.00     0.008 C 
ATOM      2  C   UNL     1      -4.141 -17.019   8.249  1.00  0.00    -0.007 C 
ATOM      3  C   UNL     1      -5.346 -17.166   9.234  1.00  0.00     0.004 C 
ATOM      4  C   UNL     1      -4.915 -16.572  10.599  1.00  0.00     0.005 C 
ATOM      5  C   UNL     1      -3.413 -16.478  10.438  1.00  0.00     0.002 C 
ATOM      6  C   UNL     1      -3.194 -16.051   8.994  1.00  0.00    -0.020 C 
ATOM      7  C   UNL     1      -3.623 -14.564   8.647  1.00  0.00     0.035 C 
ATOM      8  C   UNL     1      -2.637 -13.492   9.080  1.00  0.00    -0.027 C 
ATOM      9  C   UNL     1      -1.535 -13.809   9.786  1.00  0.00    -0.074 C 
ATOM     10  C   UNL     1      -1.340 -15.255  10.198  1.00  0.00     0.021 C 
ATOM     11  C   UNL     1      -1.667 -16.124   8.948  1.00  0.00     0.016 C 
ATOM     12  C   UNL     1      -2.401 -15.685  11.293  1.00  0.00    -0.025 C 
ATOM     13  C   UNL     1      -1.712 -16.607  12.328  1.00  0.00     0.012 C 
ATOM     14  C   UNL     1      -3.076 -14.531  12.077  1.00  0.00     0.012 C 
ATOM     15  C   UNL     1      -0.545 -12.746  10.170  1.00  0.00     0.039 C 
ENDROOT
TORSDOF 0
ENDMDL
MODEL 4
REMARK VINA RESULT:    -6.571      1.705      4.595
REMARK INTER + INTRA:          -6.571
REMARK INTER:                  -6.571
REMARK INTRA:                   0.000
REMARK UNBOUND:                 0.000
REMARK SMILES CC1=CC[C@@]23C[C@@H]1C(C)(C)[C@H]2CC[C@@H]3C
REMARK SMILES IDX 15 1 14 2 13 3 12 4 11 5 5 6 4 7 3 8 2 9 7 10 6 11 8 12 9 13
REMARK SMILES IDX 10 14 1 15
REMARK H PARENT
REMARK Flexibility Score: inf
ROOT
ATOM      1  C   UNL     1      -5.095 -15.363   5.587  1.00  0.00     0.008 C 
ATOM      2  C   UNL     1      -4.999 -14.837   7.029  1.00  0.00    -0.007 C 
ATOM      3  C   UNL     1      -5.998 -15.557   7.993  1.00  0.00     0.004 C 
ATOM      4  C   UNL     1      -5.166 -16.432   8.966  1.00  0.00     0.005 C 
ATOM      5  C   UNL     1      -3.819 -16.468   8.279  1.00  0.00     0.002 C 
ATOM      6  C   UNL     1      -3.629 -15.072   7.703  1.00  0.00    -0.020 C 
ATOM      7  C   UNL     1      -3.389 -13.920   8.767  1.00  0.00     0.035 C 
ATOM      8  C   UNL     1      -1.980 -13.846   9.328  1.00  0.00    -0.027 C 
ATOM      9  C   UNL     1      -1.052 -14.762   8.996  1.00  0.00    -0.074 C 
ATOM     10  C   UNL     1      -1.471 -15.913   8.101  1.00  0.00     0.021 C 
ATOM     11  C   UNL     1      -2.318 -15.297   6.949  1.00  0.00     0.016 C 
ATOM     12  C   UNL     1      -2.453 -16.897   8.860  1.00  0.00    -0.025 C 
ATOM     13  C   UNL     1      -2.118 -18.354   8.457  1.00  0.00     0.012 C 
ATOM     14  C   UNL     1      -2.428 -16.826  10.408  1.00  0.00     0.012 C 
ATOM     15  C   UNL     1       0.351 -14.653   9.523  1.00  0.00     0.039 C 
ENDROOT
TORSDOF 0
ENDMDL
MODEL 5
REMARK VINA RESULT:    -6.515      1.405      2.090
REMARK INTER + INTRA:          -6.515
REMARK INTER:                  -6.515
REMARK INTRA:                   0.000
REMARK UNBOUND:                 0.000
REMARK SMILES CC1=CC[C@@]23C[C@@H]1C(C)(C)[C@H]2CC[C@@H]3C
REMARK SMILES IDX 15 1 14 2 13 3 12 4 11 5 5 6 4 7 3 8 2 9 7 10 6 11 8 12 9 13
REMARK SMILES IDX 10 14 1 15
REMARK H PARENT
REMARK Flexibility Score: inf
ROOT
ATOM      1  C   UNL     1      -3.504 -18.933  10.916  1.00  0.00     0.008 C 
ATOM      2  C   UNL     1      -4.347 -17.658  10.744  1.00  0.00    -0.007 C 
ATOM      3  C   UNL     1      -3.929 -16.528  11.741  1.00  0.00     0.004 C 
ATOM      4  C   UNL     1      -3.263 -15.396  10.917  1.00  0.00     0.005 C 
ATOM      5  C   UNL     1      -2.993 -16.087   9.599  1.00  0.00     0.002 C 
ATOM      6  C   UNL     1      -4.202 -16.980   9.363  1.00  0.00    -0.020 C 
ATOM      7  C   UNL     1      -5.557 -16.225   9.030  1.00  0.00     0.035 C 
ATOM      8  C   UNL     1      -5.684 -15.730   7.600  1.00  0.00    -0.027 C 
ATOM      9  C   UNL     1      -4.665 -15.858   6.729  1.00  0.00    -0.074 C 
ATOM     10  C   UNL     1      -3.361 -16.446   7.235  1.00  0.00     0.021 C 
ATOM     11  C   UNL     1      -3.736 -17.691   8.092  1.00  0.00     0.016 C 
ATOM     12  C   UNL     1      -2.638 -15.453   8.235  1.00  0.00    -0.025 C 
ATOM     13  C   UNL     1      -1.112 -15.509   7.984  1.00  0.00     0.012 C 
ATOM     14  C   UNL     1      -3.069 -13.967   8.151  1.00  0.00     0.012 C 
ATOM     15  C   UNL     1      -4.819 -15.405   5.305  1.00  0.00     0.039 C 
ENDROOT
TORSDOF 0
ENDMDL
MODEL 6
REMARK VINA RESULT:    -6.243      1.764      3.604
REMARK INTER + INTRA:          -6.243
REMARK INTER:                  -6.243
REMARK INTRA:                   0.000
REMARK UNBOUND:                 0.000
REMARK SMILES CC1=CC[C@@]23C[C@@H]1C(C)(C)[C@H]2CC[C@@H]3C
REMARK SMILES IDX 15 1 14 2 13 3 12 4 11 5 5 6 4 7 3 8 2 9 7 10 6 11 8 12 9 13
REMARK SMILES IDX 10 14 1 15
REMARK H PARENT
REMARK Flexibility Score: inf
ROOT
ATOM      1  C   UNL     1      -1.988 -12.928  10.419  1.00  0.00     0.008 C 
ATOM      2  C   UNL     1      -1.617 -14.052   9.437  1.00  0.00    -0.007 C 
ATOM      3  C   UNL     1      -1.060 -15.320  10.164  1.00  0.00     0.004 C 
ATOM      4  C   UNL     1      -2.113 -16.448  10.017  1.00  0.00     0.005 C 
ATOM      5  C   UNL     1      -3.336 -15.677   9.569  1.00  0.00     0.002 C 
ATOM      6  C   UNL     1      -2.808 -14.608   8.625  1.00  0.00    -0.020 C 
ATOM      7  C   UNL     1      -2.263 -15.133   7.231  1.00  0.00     0.035 C 
ATOM      8  C   UNL     1      -3.332 -15.466   6.205  1.00  0.00    -0.027 C 
ATOM      9  C   UNL     1      -4.640 -15.397   6.519  1.00  0.00    -0.074 C 
ATOM     10  C   UNL     1      -5.015 -15.046   7.946  1.00  0.00     0.021 C 
ATOM     11  C   UNL     1      -4.110 -13.849   8.364  1.00  0.00     0.016 C 
ATOM     12  C   UNL     1      -4.639 -16.220   8.941  1.00  0.00    -0.025 C 
ATOM     13  C   UNL     1      -5.751 -16.352  10.009  1.00  0.00     0.012 C 
ATOM     14  C   UNL     1      -4.441 -17.618   8.301  1.00  0.00     0.012 C 
ATOM     15  C   UNL     1      -5.689 -15.685   5.483  1.00  0.00     0.039 C 
ENDROOT
TORSDOF 0
ENDMDL
MODEL 7
REMARK VINA RESULT:    -5.964      1.238      4.248
REMARK INTER + INTRA:          -5.964
REMARK INTER:                  -5.964
REMARK INTRA:                   0.000
REMARK UNBOUND:                 0.000
REMARK SMILES CC1=CC[C@@]23C[C@@H]1C(C)(C)[C@H]2CC[C@@H]3C
REMARK SMILES IDX 15 1 14 2 13 3 12 4 11 5 5 6 4 7 3 8 2 9 7 10 6 11 8 12 9 13
REMARK SMILES IDX 10 14 1 15
REMARK H PARENT
REMARK Flexibility Score: inf
ROOT
ATOM      1  C   UNL     1      -1.287 -15.355   7.230  1.00  0.00     0.008 C 
ATOM      2  C   UNL     1      -2.196 -14.518   8.146  1.00  0.00    -0.007 C 
ATOM      3  C   UNL     1      -3.659 -14.417   7.603  1.00  0.00     0.004 C 
ATOM      4  C   UNL     1      -4.572 -15.229   8.557  1.00  0.00     0.005 C 
ATOM      5  C   UNL     1      -3.563 -16.041   9.339  1.00  0.00     0.002 C 
ATOM      6  C   UNL     1      -2.386 -15.103   9.563  1.00  0.00    -0.020 C 
ATOM      7  C   UNL     1      -2.646 -13.905  10.570  1.00  0.00     0.035 C 
ATOM      8  C   UNL     1      -2.589 -14.276  12.041  1.00  0.00    -0.027 C 
ATOM      9  C   UNL     1      -2.419 -15.555  12.427  1.00  0.00    -0.074 C 
ATOM     10  C   UNL     1      -2.357 -16.624  11.354  1.00  0.00     0.021 C 
ATOM     11  C   UNL     1      -1.420 -16.080  10.235  1.00  0.00     0.016 C 
ATOM     12  C   UNL     1      -3.767 -16.818  10.659  1.00  0.00    -0.025 C 
ATOM     13  C   UNL     1      -3.990 -18.324  10.381  1.00  0.00     0.012 C 
ATOM     14  C   UNL     1      -4.995 -16.306  11.455  1.00  0.00     0.012 C 
ATOM     15  C   UNL     1      -2.319 -15.903  13.885  1.00  0.00     0.039 C 
ENDROOT
TORSDOF 0
ENDMDL
MODEL 8
REMARK VINA RESULT:    -5.960      1.248      4.136
REMARK INTER + INTRA:          -5.960
REMARK INTER:                  -5.960
REMARK INTRA:                   0.000
REMARK UNBOUND:                 0.000
REMARK SMILES CC1=CC[C@@]23C[C@@H]1C(C)(C)[C@H]2CC[C@@H]3C
REMARK SMILES IDX 15 1 14 2 13 3 12 4 11 5 5 6 4 7 3 8 2 9 7 10 6 11 8 12 9 13
REMARK SMILES IDX 10 14 1 15
REMARK H PARENT
REMARK Flexibility Score: inf
ROOT
ATOM      1  C   UNL     1      -5.790 -15.373   7.622  1.00  0.00     0.008 C 
ATOM      2  C   UNL     1      -4.525 -16.247   7.663  1.00  0.00    -0.007 C 
ATOM      3  C   UNL     1      -3.491 -15.851   6.559  1.00  0.00     0.004 C 
ATOM      4  C   UNL     1      -2.266 -15.216   7.265  1.00  0.00     0.005 C 
ATOM      5  C   UNL     1      -2.814 -14.936   8.647  1.00  0.00     0.002 C 
ATOM      6  C   UNL     1      -3.708 -16.124   8.969  1.00  0.00    -0.020 C 
ATOM      7  C   UNL     1      -2.956 -17.498   9.221  1.00  0.00     0.035 C 
ATOM      8  C   UNL     1      -2.323 -17.643  10.594  1.00  0.00    -0.027 C 
ATOM      9  C   UNL     1      -2.338 -16.626  11.476  1.00  0.00    -0.074 C 
ATOM     10  C   UNL     1      -2.942 -15.306  11.035  1.00  0.00     0.021 C 
ATOM     11  C   UNL     1      -4.276 -15.647  10.306  1.00  0.00     0.016 C 
ATOM     12  C   UNL     1      -2.038 -14.602   9.941  1.00  0.00    -0.025 C 
ATOM     13  C   UNL     1      -2.031 -13.076  10.200  1.00  0.00     0.012 C 
ATOM     14  C   UNL     1      -0.562 -15.068   9.874  1.00  0.00     0.012 C 
ATOM     15  C   UNL     1      -1.748 -16.797  12.847  1.00  0.00     0.039 C 
ENDROOT
TORSDOF 0
ENDMDL
MODEL 9
REMARK VINA RESULT:    -5.535      1.335      3.516
REMARK INTER + INTRA:          -5.535
REMARK INTER:                  -5.535
REMARK INTRA:                   0.000
REMARK UNBOUND:                 0.000
REMARK SMILES CC1=CC[C@@]23C[C@@H]1C(C)(C)[C@H]2CC[C@@H]3C
REMARK SMILES IDX 15 1 14 2 13 3 12 4 11 5 5 6 4 7 3 8 2 9 7 10 6 11 8 12 9 13
REMARK SMILES IDX 10 14 1 15
REMARK H PARENT
REMARK Flexibility Score: inf
ROOT
ATOM      1  C   UNL     1      -3.128 -12.451   8.758  1.00  0.00     0.008 C 
ATOM      2  C   UNL     1      -2.108 -13.516   9.194  1.00  0.00    -0.007 C 
ATOM      3  C   UNL     1      -1.780 -13.438  10.721  1.00  0.00     0.004 C 
ATOM      4  C   UNL     1      -2.381 -14.697  11.398  1.00  0.00     0.005 C 
ATOM      5  C   UNL     1      -3.321 -15.207  10.327  1.00  0.00     0.002 C 
ATOM      6  C   UNL     1      -2.592 -14.973   9.013  1.00  0.00    -0.020 C 
ATOM      7  C   UNL     1      -1.325 -15.894   8.759  1.00  0.00     0.035 C 
ATOM      8  C   UNL     1      -1.639 -17.306   8.296  1.00  0.00    -0.027 C 
ATOM      9  C   UNL     1      -2.910 -17.740   8.207  1.00  0.00    -0.074 C 
ATOM     10  C   UNL     1      -4.018 -16.804   8.649  1.00  0.00     0.021 C 
ATOM     11  C   UNL     1      -3.691 -15.408   8.043  1.00  0.00     0.016 C 
ATOM     12  C   UNL     1      -3.995 -16.593  10.219  1.00  0.00    -0.025 C 
ATOM     13  C   UNL     1      -5.451 -16.539  10.742  1.00  0.00     0.012 C 
ATOM     14  C   UNL     1      -3.246 -17.673  11.041  1.00  0.00     0.012 C 
ATOM     15  C   UNL     1      -3.209 -19.125   7.706  1.00  0.00     0.039 C 
ENDROOT
TORSDOF 0
ENDMDL
