MODEL 1
REMARK VINA RESULT:    -4.462      0.000      0.000
REMARK INTER + INTRA:         -10.882
REMARK INTER:                  -8.113
REMARK INTRA:                  -2.769
REMARK UNBOUND:                -2.769
REMARK SMILES CCCCCCCCCCCCCC[C@H](C)C(=O)[O-]
REMARK SMILES IDX 9 1 10 2 11 3 12 4 13 5 14 6 15 7 16 8 17 9 18 10 19 11 8 12
REMARK SMILES IDX 7 13 6 14 5 15 4 16 3 17 2 18 1 19
REMARK H PARENT
REMARK Flexibility Score: inf
ROOT
ATOM      1  C   UNL     1      15.748  16.537  32.552  1.00  0.00     0.000 C 
ENDROOT
BRANCH   1   2
ATOM      2  C   UNL     1      16.903  15.673  32.024  1.00  0.00     0.000 C 
BRANCH   2   3
ATOM      3  C   UNL     1      17.600  14.871  33.135  1.00  0.00     0.000 C 
BRANCH   3   4
ATOM      4  C   UNL     1      18.925  15.505  33.590  1.00  0.00     0.000 C 
BRANCH   4   5
ATOM      5  C   UNL     1      18.821  16.265  34.930  1.00  0.00     0.001 C 
BRANCH   5   6
ATOM      6  C   UNL     1      17.637  15.770  35.784  1.00  0.00     0.009 C 
BRANCH   6   7
ATOM      7  C   UNL     1      16.617  16.867  36.161  1.00  0.00     0.032 C 
ATOM      8  C   UNL     1      17.289  18.129  36.721  1.00  0.00     0.014 C 
BRANCH   7   9
ATOM      9  C   UNL     1      15.553  16.347  37.091  1.00  0.00     0.044 C 
ATOM     10  O   UNL     1      15.415  16.858  38.234  1.00  0.00    -0.550 OA
ATOM     11  O   UNL     1      14.680  15.344  36.683  1.00  0.00    -0.550 OA
ENDBRANCH   7   9
ENDBRANCH   6   7
ENDBRANCH   5   6
ENDBRANCH   4   5
ENDBRANCH   3   4
ENDBRANCH   2   3
ENDBRANCH   1   2
BRANCH   1  12
ATOM     12  C   UNL     1      16.088  18.038  32.574  1.00  0.00     0.000 C 
BRANCH  12  13
ATOM     13  C   UNL     1      17.294  18.374  31.672  1.00  0.00    -0.000 C 
BRANCH  13  14
ATOM     14  C   UNL     1      18.461  19.034  32.426  1.00  0.00    -0.000 C 
BRANCH  14  15
ATOM     15  C   UNL     1      18.028  19.688  33.745  1.00  0.00    -0.000 C 
BRANCH  15  16
ATOM     16  C   UNL     1      19.204  20.409  34.415  1.00  0.00    -0.000 C 
BRANCH  16  17
ATOM     17  C   UNL     1      20.446  19.506  34.466  1.00  0.00    -0.000 C 
BRANCH  17  18
ATOM     18  C   UNL     1      20.940  19.262  35.899  1.00  0.00    -0.003 C 
ATOM     19  C   UNL     1      20.362  20.260  36.902  1.00  0.00     0.004 C 
ENDBRANCH  17  18
ENDBRANCH  16  17
ENDBRANCH  15  16
ENDBRANCH  14  15
ENDBRANCH  13  14
ENDBRANCH  12  13
ENDBRANCH   1  12
TORSDOF 14
ENDMDL
MODEL 2
REMARK VINA RESULT:    -4.310      1.832      4.736
REMARK INTER + INTRA:         -10.606
REMARK INTER:                  -8.451
REMARK INTRA:                  -2.155
REMARK UNBOUND:                -2.769
REMARK SMILES CCCCCCCCCCCCCC[C@H](C)C(=O)[O-]
REMARK SMILES IDX 9 1 10 2 11 3 12 4 13 5 14 6 15 7 16 8 17 9 18 10 19 11 8 12
REMARK SMILES IDX 7 13 6 14 5 15 4 16 3 17 2 18 1 19
REMARK H PARENT
REMARK Flexibility Score: inf
ROOT
ATOM      1  C   UNL     1      19.347  20.253  35.205  1.00  0.00     0.000 C 
ENDROOT
BRANCH   1   2
ATOM      2  C   UNL     1      19.214  19.510  36.543  1.00  0.00     0.000 C 
BRANCH   2   3
ATOM      3  C   UNL     1      17.750  19.279  36.950  1.00  0.00     0.000 C 
BRANCH   3   4
ATOM      4  C   UNL     1      17.118  18.063  36.251  1.00  0.00     0.000 C 
BRANCH   4   5
ATOM      5  C   UNL     1      18.053  16.836  36.178  1.00  0.00     0.001 C 
BRANCH   5   6
ATOM      6  C   UNL     1      17.541  15.778  35.181  1.00  0.00     0.009 C 
BRANCH   6   7
ATOM      7  C   UNL     1      16.049  15.413  35.346  1.00  0.00     0.032 C 
ATOM      8  C   UNL     1      15.758  14.710  36.679  1.00  0.00     0.014 C 
BRANCH   7   9
ATOM      9  C   UNL     1      15.535  14.615  34.176  1.00  0.00     0.044 C 
ATOM     10  O   UNL     1      16.342  14.169  33.318  1.00  0.00    -0.550 OA
ATOM     11  O   UNL     1      14.182  14.316  34.059  1.00  0.00    -0.550 OA
ENDBRANCH   7   9
ENDBRANCH   6   7
ENDBRANCH   5   6
ENDBRANCH   4   5
ENDBRANCH   3   4
ENDBRANCH   2   3
ENDBRANCH   1   2
BRANCH   1  12
ATOM     12  C   UNL     1      20.312  19.556  34.229  1.00  0.00     0.000 C 
BRANCH  12  13
ATOM     13  C   UNL     1      19.595  18.512  33.348  1.00  0.00    -0.000 C 
BRANCH  13  14
ATOM     14  C   UNL     1      18.291  19.032  32.717  1.00  0.00    -0.000 C 
BRANCH  14  15
ATOM     15  C   UNL     1      17.894  18.267  31.447  1.00  0.00    -0.000 C 
BRANCH  15  16
ATOM     16  C   UNL     1      16.693  17.350  31.708  1.00  0.00    -0.000 C 
BRANCH  16  17
ATOM     17  C   UNL     1      15.666  18.034  32.622  1.00  0.00    -0.000 C 
BRANCH  17  18
ATOM     18  C   UNL     1      14.636  18.859  31.838  1.00  0.00    -0.003 C 
ATOM     19  C   UNL     1      13.369  18.069  31.513  1.00  0.00     0.004 C 
ENDBRANCH  17  18
ENDBRANCH  16  17
ENDBRANCH  15  16
ENDBRANCH  14  15
ENDBRANCH  13  14
ENDBRANCH  12  13
ENDBRANCH   1  12
TORSDOF 14
ENDMDL
MODEL 3
REMARK VINA RESULT:    -4.261      1.366      4.741
REMARK INTER + INTRA:         -10.518
REMARK INTER:                  -8.703
REMARK INTRA:                  -1.814
REMARK UNBOUND:                -2.769
REMARK SMILES CCCCCCCCCCCCCC[C@H](C)C(=O)[O-]
REMARK SMILES IDX 9 1 10 2 11 3 12 4 13 5 14 6 15 7 16 8 17 9 18 10 19 11 8 12
REMARK SMILES IDX 7 13 6 14 5 15 4 16 3 17 2 18 1 19
REMARK H PARENT
REMARK Flexibility Score: inf
ROOT
ATOM      1  C   UNL     1      18.582  20.264  34.204  1.00  0.00     0.000 C 
ENDROOT
BRANCH   1   2
ATOM      2  C   UNL     1      19.589  20.236  35.364  1.00  0.00     0.000 C 
BRANCH   2   3
ATOM      3  C   UNL     1      20.572  19.058  35.267  1.00  0.00     0.000 C 
BRANCH   3   4
ATOM      4  C   UNL     1      20.229  17.911  36.234  1.00  0.00     0.000 C 
BRANCH   4   5
ATOM      5  C   UNL     1      19.180  16.924  35.678  1.00  0.00     0.001 C 
BRANCH   5   6
ATOM      6  C   UNL     1      17.790  17.146  36.306  1.00  0.00     0.009 C 
BRANCH   6   7
ATOM      7  C   UNL     1      16.885  15.893  36.315  1.00  0.00     0.032 C 
ATOM      8  C   UNL     1      16.621  15.346  34.906  1.00  0.00     0.014 C 
BRANCH   7   9
ATOM      9  C   UNL     1      15.601  16.135  37.065  1.00  0.00     0.044 C 
ATOM     10  O   UNL     1      14.570  15.474  36.772  1.00  0.00    -0.550 OA
ATOM     11  O   UNL     1      15.552  17.044  38.116  1.00  0.00    -0.550 OA
ENDBRANCH   7   9
ENDBRANCH   6   7
ENDBRANCH   5   6
ENDBRANCH   4   5
ENDBRANCH   3   4
ENDBRANCH   2   3
ENDBRANCH   1   2
BRANCH   1  12
ATOM     12  C   UNL     1      19.078  19.495  32.965  1.00  0.00     0.000 C 
BRANCH  12  13
ATOM     13  C   UNL     1      17.939  18.727  32.263  1.00  0.00    -0.000 C 
BRANCH  13  14
ATOM     14  C   UNL     1      16.664  18.603  33.116  1.00  0.00    -0.000 C 
BRANCH  14  15
ATOM     15  C   UNL     1      15.384  18.913  32.328  1.00  0.00    -0.000 C 
BRANCH  15  16
ATOM     16  C   UNL     1      15.165  17.889  31.208  1.00  0.00    -0.000 C 
BRANCH  16  17
ATOM     17  C   UNL     1      14.998  16.474  31.781  1.00  0.00    -0.000 C 
BRANCH  17  18
ATOM     18  C   UNL     1      13.615  15.876  31.484  1.00  0.00    -0.003 C 
ATOM     19  C   UNL     1      12.504  16.926  31.487  1.00  0.00     0.004 C 
ENDBRANCH  17  18
ENDBRANCH  16  17
ENDBRANCH  15  16
ENDBRANCH  14  15
ENDBRANCH  13  14
ENDBRANCH  12  13
ENDBRANCH   1  12
TORSDOF 14
ENDMDL
MODEL 4
REMARK VINA RESULT:    -4.247      1.484      4.569
REMARK INTER + INTRA:         -10.491
REMARK INTER:                  -8.542
REMARK INTRA:                  -1.949
REMARK UNBOUND:                -2.769
REMARK SMILES CCCCCCCCCCCCCC[C@H](C)C(=O)[O-]
REMARK SMILES IDX 9 1 10 2 11 3 12 4 13 5 14 6 15 7 16 8 17 9 18 10 19 11 8 12
REMARK SMILES IDX 7 13 6 14 5 15 4 16 3 17 2 18 1 19
REMARK H PARENT
REMARK Flexibility Score: inf
ROOT
ATOM      1  C   UNL     1      19.544  19.699  34.858  1.00  0.00     0.000 C 
ENDROOT
BRANCH   1   2
ATOM      2  C   UNL     1      20.761  18.849  35.253  1.00  0.00     0.000 C 
BRANCH   2   3
ATOM      3  C   UNL     1      20.369  17.569  36.009  1.00  0.00     0.000 C 
BRANCH   3   4
ATOM      4  C   UNL     1      20.154  16.364  35.076  1.00  0.00     0.000 C 
BRANCH   4   5
ATOM      5  C   UNL     1      18.669  16.001  34.865  1.00  0.00     0.001 C 
BRANCH   5   6
ATOM      6  C   UNL     1      17.903  15.901  36.199  1.00  0.00     0.009 C 
BRANCH   6   7
ATOM      7  C   UNL     1      16.667  16.823  36.298  1.00  0.00     0.032 C 
ATOM      8  C   UNL     1      17.011  18.214  36.850  1.00  0.00     0.014 C 
BRANCH   7   9
ATOM      9  C   UNL     1      15.549  16.179  37.076  1.00  0.00     0.044 C 
ATOM     10  O   UNL     1      15.277  16.587  38.235  1.00  0.00    -0.550 OA
ATOM     11  O   UNL     1      14.775  15.174  36.507  1.00  0.00    -0.550 OA
ENDBRANCH   7   9
ENDBRANCH   6   7
ENDBRANCH   5   6
ENDBRANCH   4   5
ENDBRANCH   3   4
ENDBRANCH   2   3
ENDBRANCH   1   2
BRANCH   1  12
ATOM     12  C   UNL     1      19.402  19.866  33.334  1.00  0.00     0.000 C 
BRANCH  12  13
ATOM     13  C   UNL     1      18.434  18.831  32.724  1.00  0.00    -0.000 C 
BRANCH  13  14
ATOM     14  C   UNL     1      16.990  18.962  33.238  1.00  0.00    -0.000 C 
BRANCH  14  15
ATOM     15  C   UNL     1      16.045  17.910  32.640  1.00  0.00    -0.000 C 
BRANCH  15  16
ATOM     16  C   UNL     1      15.467  18.386  31.302  1.00  0.00    -0.000 C 
BRANCH  16  17
ATOM     17  C   UNL     1      14.001  18.819  31.459  1.00  0.00    -0.000 C 
BRANCH  17  18
ATOM     18  C   UNL     1      13.028  17.632  31.416  1.00  0.00    -0.003 C 
ATOM     19  C   UNL     1      13.119  16.839  30.112  1.00  0.00     0.004 C 
ENDBRANCH  17  18
ENDBRANCH  16  17
ENDBRANCH  15  16
ENDBRANCH  14  15
ENDBRANCH  13  14
ENDBRANCH  12  13
ENDBRANCH   1  12
TORSDOF 14
ENDMDL
MODEL 5
REMARK VINA RESULT:    -4.201      1.209      2.033
REMARK INTER + INTRA:         -10.407
REMARK INTER:                  -8.366
REMARK INTRA:                  -2.041
REMARK UNBOUND:                -2.769
REMARK SMILES CCCCCCCCCCCCCC[C@H](C)C(=O)[O-]
REMARK SMILES IDX 9 1 10 2 11 3 12 4 13 5 14 6 15 7 16 8 17 9 18 10 19 11 8 12
REMARK SMILES IDX 7 13 6 14 5 15 4 16 3 17 2 18 1 19
REMARK H PARENT
REMARK Flexibility Score: inf
ROOT
ATOM      1  C   UNL     1      16.823  18.130  32.002  1.00  0.00     0.000 C 
ENDROOT
BRANCH   1   2
ATOM      2  C   UNL     1      16.769  16.641  31.624  1.00  0.00     0.000 C 
BRANCH   2   3
ATOM      3  C   UNL     1      18.115  15.928  31.832  1.00  0.00     0.000 C 
BRANCH   3   4
ATOM      4  C   UNL     1      18.229  15.253  33.210  1.00  0.00     0.000 C 
BRANCH   4   5
ATOM      5  C   UNL     1      16.899  15.212  33.992  1.00  0.00     0.001 C 
BRANCH   5   6
ATOM      6  C   UNL     1      16.922  16.143  35.221  1.00  0.00     0.009 C 
BRANCH   6   7
ATOM      7  C   UNL     1      16.191  15.582  36.461  1.00  0.00     0.032 C 
ATOM      8  C   UNL     1      15.135  14.529  36.098  1.00  0.00     0.014 C 
BRANCH   7   9
ATOM      9  C   UNL     1      15.608  16.681  37.312  1.00  0.00     0.044 C 
ATOM     10  O   UNL     1      16.288  17.711  37.557  1.00  0.00    -0.550 OA
ATOM     11  O   UNL     1      14.304  16.595  37.786  1.00  0.00    -0.550 OA
ENDBRANCH   7   9
ENDBRANCH   6   7
ENDBRANCH   5   6
ENDBRANCH   4   5
ENDBRANCH   3   4
ENDBRANCH   2   3
ENDBRANCH   1   2
BRANCH   1  12
ATOM     12  C   UNL     1      18.183  18.776  31.687  1.00  0.00     0.000 C 
BRANCH  12  13
ATOM     13  C   UNL     1      18.771  19.518  32.906  1.00  0.00    -0.000 C 
BRANCH  13  14
ATOM     14  C   UNL     1      17.750  19.756  34.032  1.00  0.00    -0.000 C 
BRANCH  14  15
ATOM     15  C   UNL     1      18.349  19.569  35.432  1.00  0.00    -0.000 C 
BRANCH  15  16
ATOM     16  C   UNL     1      19.719  20.248  35.541  1.00  0.00    -0.000 C 
BRANCH  16  17
ATOM     17  C   UNL     1      20.825  19.217  35.812  1.00  0.00    -0.000 C 
BRANCH  17  18
ATOM     18  C   UNL     1      20.281  17.911  36.407  1.00  0.00    -0.003 C 
ATOM     19  C   UNL     1      20.692  16.677  35.604  1.00  0.00     0.004 C 
ENDBRANCH  17  18
ENDBRANCH  16  17
ENDBRANCH  15  16
ENDBRANCH  14  15
ENDBRANCH  13  14
ENDBRANCH  12  13
ENDBRANCH   1  12
TORSDOF 14
ENDMDL
MODEL 6
REMARK VINA RESULT:    -4.199      1.387      3.082
REMARK INTER + INTRA:         -10.404
REMARK INTER:                  -7.679
REMARK INTRA:                  -2.725
REMARK UNBOUND:                -2.769
REMARK SMILES CCCCCCCCCCCCCC[C@H](C)C(=O)[O-]
REMARK SMILES IDX 9 1 10 2 11 3 12 4 13 5 14 6 15 7 16 8 17 9 18 10 19 11 8 12
REMARK SMILES IDX 7 13 6 14 5 15 4 16 3 17 2 18 1 19
REMARK H PARENT
REMARK Flexibility Score: inf
ROOT
ATOM      1  C   UNL     1      18.885  15.589  32.422  1.00  0.00     0.000 C 
ENDROOT
BRANCH   1   2
ATOM      2  C   UNL     1      19.369  17.041  32.286  1.00  0.00     0.000 C 
BRANCH   2   3
ATOM      3  C   UNL     1      18.215  18.056  32.329  1.00  0.00     0.000 C 
BRANCH   3   4
ATOM      4  C   UNL     1      17.808  18.440  33.762  1.00  0.00     0.000 C 
BRANCH   4   5
ATOM      5  C   UNL     1      16.658  17.582  34.331  1.00  0.00     0.001 C 
BRANCH   5   6
ATOM      6  C   UNL     1      16.896  17.202  35.806  1.00  0.00     0.009 C 
BRANCH   6   7
ATOM      7  C   UNL     1      16.504  15.751  36.163  1.00  0.00     0.032 C 
ATOM      8  C   UNL     1      15.867  15.004  34.983  1.00  0.00     0.014 C 
BRANCH   7   9
ATOM      9  C   UNL     1      15.633  15.692  37.390  1.00  0.00     0.044 C 
ATOM     10  O   UNL     1      15.270  14.577  37.849  1.00  0.00    -0.550 OA
ATOM     11  O   UNL     1      15.266  16.855  38.058  1.00  0.00    -0.550 OA
ENDBRANCH   7   9
ENDBRANCH   6   7
ENDBRANCH   5   6
ENDBRANCH   4   5
ENDBRANCH   3   4
ENDBRANCH   2   3
ENDBRANCH   1   2
BRANCH   1  12
ATOM     12  C   UNL     1      19.339  14.929  33.736  1.00  0.00     0.000 C 
BRANCH  12  13
ATOM     13  C   UNL     1      20.483  15.712  34.415  1.00  0.00    -0.000 C 
BRANCH  13  14
ATOM     14  C   UNL     1      20.241  15.981  35.910  1.00  0.00    -0.000 C 
BRANCH  14  15
ATOM     15  C   UNL     1      20.802  17.333  36.373  1.00  0.00    -0.000 C 
BRANCH  15  16
ATOM     16  C   UNL     1      21.119  18.237  35.176  1.00  0.00    -0.000 C 
BRANCH  16  17
ATOM     17  C   UNL     1      20.944  19.718  35.544  1.00  0.00    -0.000 C 
BRANCH  17  18
ATOM     18  C   UNL     1      19.872  19.937  36.620  1.00  0.00    -0.003 C 
ATOM     19  C   UNL     1      20.422  20.612  37.876  1.00  0.00     0.004 C 
ENDBRANCH  17  18
ENDBRANCH  16  17
ENDBRANCH  15  16
ENDBRANCH  14  15
ENDBRANCH  13  14
ENDBRANCH  12  13
ENDBRANCH   1  12
TORSDOF 14
ENDMDL
MODEL 7
REMARK VINA RESULT:    -4.180      2.515      5.436
REMARK INTER + INTRA:         -10.370
REMARK INTER:                  -8.220
REMARK INTRA:                  -2.150
REMARK UNBOUND:                -2.769
REMARK SMILES CCCCCCCCCCCCCC[C@H](C)C(=O)[O-]
REMARK SMILES IDX 9 1 10 2 11 3 12 4 13 5 14 6 15 7 16 8 17 9 18 10 19 11 8 12
REMARK SMILES IDX 7 13 6 14 5 15 4 16 3 17 2 18 1 19
REMARK H PARENT
REMARK Flexibility Score: inf
ROOT
ATOM      1  C   UNL     1      19.095  20.269  34.880  1.00  0.00     0.000 C 
ENDROOT
BRANCH   1   2
ATOM      2  C   UNL     1      19.662  19.777  33.539  1.00  0.00     0.000 C 
BRANCH   2   3
ATOM      3  C   UNL     1      18.635  18.980  32.718  1.00  0.00     0.000 C 
BRANCH   3   4
ATOM      4  C   UNL     1      17.213  19.058  33.300  1.00  0.00     0.000 C 
BRANCH   4   5
ATOM      5  C   UNL     1      16.283  17.925  32.818  1.00  0.00     0.001 C 
BRANCH   5   6
ATOM      6  C   UNL     1      14.961  18.469  32.239  1.00  0.00     0.009 C 
BRANCH   6   7
ATOM      7  C   UNL     1      14.423  17.681  31.024  1.00  0.00     0.032 C 
ATOM      8  C   UNL     1      14.628  18.428  29.698  1.00  0.00     0.014 C 
BRANCH   7   9
ATOM      9  C   UNL     1      12.985  17.273  31.213  1.00  0.00     0.044 C 
ATOM     10  O   UNL     1      12.244  17.931  31.988  1.00  0.00    -0.550 OA
ATOM     11  O   UNL     1      12.449  16.207  30.498  1.00  0.00    -0.550 OA
ENDBRANCH   7   9
ENDBRANCH   6   7
ENDBRANCH   5   6
ENDBRANCH   4   5
ENDBRANCH   3   4
ENDBRANCH   2   3
ENDBRANCH   1   2
BRANCH   1  12
ATOM     12  C   UNL     1      20.037  19.987  36.065  1.00  0.00     0.000 C 
BRANCH  12  13
ATOM     13  C   UNL     1      21.061  18.879  35.742  1.00  0.00    -0.000 C 
BRANCH  13  14
ATOM     14  C   UNL     1      20.702  17.513  36.354  1.00  0.00    -0.000 C 
BRANCH  14  15
ATOM     15  C   UNL     1      20.365  16.454  35.295  1.00  0.00    -0.000 C 
BRANCH  15  16
ATOM     16  C   UNL     1      18.848  16.299  35.133  1.00  0.00    -0.000 C 
BRANCH  16  17
ATOM     17  C   UNL     1      18.101  16.944  36.310  1.00  0.00    -0.000 C 
BRANCH  17  18
ATOM     18  C   UNL     1      16.595  16.646  36.287  1.00  0.00    -0.003 C 
ATOM     19  C   UNL     1      16.252  15.388  35.489  1.00  0.00     0.004 C 
ENDBRANCH  17  18
ENDBRANCH  16  17
ENDBRANCH  15  16
ENDBRANCH  14  15
ENDBRANCH  13  14
ENDBRANCH  12  13
ENDBRANCH   1  12
TORSDOF 14
ENDMDL
MODEL 8
REMARK VINA RESULT:    -4.129      2.598      5.187
REMARK INTER + INTRA:         -10.278
REMARK INTER:                  -8.014
REMARK INTRA:                  -2.264
REMARK UNBOUND:                -2.769
REMARK SMILES CCCCCCCCCCCCCC[C@H](C)C(=O)[O-]
REMARK SMILES IDX 9 1 10 2 11 3 12 4 13 5 14 6 15 7 16 8 17 9 18 10 19 11 8 12
REMARK SMILES IDX 7 13 6 14 5 15 4 16 3 17 2 18 1 19
REMARK H PARENT
REMARK Flexibility Score: inf
ROOT
ATOM      1  C   UNL     1      16.456  16.622  34.888  1.00  0.00     0.000 C 
ENDROOT
BRANCH   1   2
ATOM      2  C   UNL     1      17.525  16.760  35.984  1.00  0.00     0.000 C 
BRANCH   2   3
ATOM      3  C   UNL     1      18.666  15.742  35.830  1.00  0.00     0.000 C 
BRANCH   3   4
ATOM      4  C   UNL     1      20.048  16.406  35.702  1.00  0.00     0.000 C 
BRANCH   4   5
ATOM      5  C   UNL     1      20.138  17.432  34.552  1.00  0.00     0.001 C 
BRANCH   5   6
ATOM      6  C   UNL     1      20.894  18.708  34.973  1.00  0.00     0.009 C 
BRANCH   6   7
ATOM      7  C   UNL     1      19.985  19.923  35.264  1.00  0.00     0.032 C 
ATOM      8  C   UNL     1      19.401  19.897  36.683  1.00  0.00     0.014 C 
BRANCH   7   9
ATOM      9  C   UNL     1      18.905  20.076  34.224  1.00  0.00     0.044 C 
ATOM     10  O   UNL     1      17.695  20.065  34.571  1.00  0.00    -0.550 OA
ATOM     11  O   UNL     1      19.230  20.283  32.888  1.00  0.00    -0.550 OA
ENDBRANCH   7   9
ENDBRANCH   6   7
ENDBRANCH   5   6
ENDBRANCH   4   5
ENDBRANCH   3   4
ENDBRANCH   2   3
ENDBRANCH   1   2
BRANCH   1  12
ATOM     12  C   UNL     1      16.756  15.476  33.904  1.00  0.00     0.000 C 
BRANCH  12  13
ATOM     13  C   UNL     1      16.746  15.954  32.437  1.00  0.00    -0.000 C 
BRANCH  13  14
ATOM     14  C   UNL     1      17.343  17.358  32.243  1.00  0.00    -0.000 C 
BRANCH  14  15
ATOM     15  C   UNL     1      16.478  18.258  31.349  1.00  0.00    -0.000 C 
BRANCH  15  16
ATOM     16  C   UNL     1      15.188  18.672  32.067  1.00  0.00    -0.000 C 
BRANCH  16  17
ATOM     17  C   UNL     1      13.991  18.647  31.105  1.00  0.00    -0.000 C 
BRANCH  17  18
ATOM     18  C   UNL     1      12.942  17.596  31.495  1.00  0.00    -0.003 C 
ATOM     19  C   UNL     1      13.206  16.232  30.859  1.00  0.00     0.004 C 
ENDBRANCH  17  18
ENDBRANCH  16  17
ENDBRANCH  15  16
ENDBRANCH  14  15
ENDBRANCH  13  14
ENDBRANCH  12  13
ENDBRANCH   1  12
TORSDOF 14
ENDMDL
MODEL 9
REMARK VINA RESULT:    -4.116      1.244      4.614
REMARK INTER + INTRA:         -10.253
REMARK INTER:                  -8.087
REMARK INTRA:                  -2.166
REMARK UNBOUND:                -2.769
REMARK SMILES CCCCCCCCCCCCCC[C@H](C)C(=O)[O-]
REMARK SMILES IDX 9 1 10 2 11 3 12 4 13 5 14 6 15 7 16 8 17 9 18 10 19 11 8 12
REMARK SMILES IDX 7 13 6 14 5 15 4 16 3 17 2 18 1 19
REMARK H PARENT
REMARK Flexibility Score: inf
ROOT
ATOM      1  C   UNL     1      18.928  19.761  33.100  1.00  0.00     0.000 C 
ENDROOT
BRANCH   1   2
ATOM      2  C   UNL     1      20.231  19.123  33.608  1.00  0.00     0.000 C 
BRANCH   2   3
ATOM      3  C   UNL     1      20.632  19.628  35.004  1.00  0.00     0.000 C 
BRANCH   3   4
ATOM      4  C   UNL     1      19.445  20.202  35.797  1.00  0.00     0.000 C 
BRANCH   4   5
ATOM      5  C   UNL     1      18.840  19.208  36.812  1.00  0.00     0.001 C 
BRANCH   5   6
ATOM      6  C   UNL     1      17.518  18.597  36.306  1.00  0.00     0.009 C 
BRANCH   6   7
ATOM      7  C   UNL     1      17.437  17.059  36.427  1.00  0.00     0.032 C 
ATOM      8  C   UNL     1      17.949  16.340  35.170  1.00  0.00     0.014 C 
BRANCH   7   9
ATOM      9  C   UNL     1      16.053  16.599  36.802  1.00  0.00     0.044 C 
ATOM     10  O   UNL     1      15.400  15.867  36.014  1.00  0.00    -0.550 OA
ATOM     11  O   UNL     1      15.505  16.929  38.038  1.00  0.00    -0.550 OA
ENDBRANCH   7   9
ENDBRANCH   6   7
ENDBRANCH   5   6
ENDBRANCH   4   5
ENDBRANCH   3   4
ENDBRANCH   2   3
ENDBRANCH   1   2
BRANCH   1  12
ATOM     12  C   UNL     1      17.975  18.737  32.455  1.00  0.00     0.000 C 
BRANCH  12  13
ATOM     13  C   UNL     1      18.073  18.742  30.915  1.00  0.00    -0.000 C 
BRANCH  13  14
ATOM     14  C   UNL     1      17.898  17.350  30.284  1.00  0.00    -0.000 C 
BRANCH  14  15
ATOM     15  C   UNL     1      17.514  16.273  31.307  1.00  0.00    -0.000 C 
BRANCH  15  16
ATOM     16  C   UNL     1      16.082  15.776  31.073  1.00  0.00    -0.000 C 
BRANCH  16  17
ATOM     17  C   UNL     1      15.117  16.370  32.110  1.00  0.00    -0.000 C 
BRANCH  17  18
ATOM     18  C   UNL     1      14.014  17.225  31.469  1.00  0.00    -0.003 C 
ATOM     19  C   UNL     1      14.348  18.716  31.465  1.00  0.00     0.004 C 
ENDBRANCH  17  18
ENDBRANCH  16  17
ENDBRANCH  15  16
ENDBRANCH  14  15
ENDBRANCH  13  14
ENDBRANCH  12  13
ENDBRANCH   1  12
TORSDOF 14
ENDMDL
