MODEL 1
REMARK VINA RESULT:    -2.657      0.000      0.000
REMARK INTER + INTRA:          -3.349
REMARK INTER:                  -3.123
REMARK INTRA:                  -0.225
REMARK UNBOUND:                -0.225
REMARK SMILES [NH3+][C@H](CO)C(=O)[O-]
REMARK SMILES IDX 3 1 2 2 1 3 5 7 6 8 7 9 4 10
REMARK H PARENT 1 4 1 5 1 6 4 11
REMARK Flexibility Score: inf
ROOT
ATOM      1  C   UNL     1     -53.976 449.173  -9.598  1.00  0.00     0.227 C 
ENDROOT
BRANCH   1   2
ATOM      2  C   UNL     1     -53.205 447.842  -9.535  1.00  0.00     0.253 C 
BRANCH   2   3
ATOM      3  N   UNL     1     -52.842 447.521  -8.150  1.00  0.00    -0.348 N 
ATOM      4  H   UNL     1     -51.806 447.406  -8.056  1.00  0.00     0.345 HD
ATOM      5  H   UNL     1     -53.162 448.286  -7.513  1.00  0.00     0.345 HD
ATOM      6  H   UNL     1     -53.312 446.633  -7.858  1.00  0.00     0.345 HD
ENDBRANCH   2   3
BRANCH   2   7
ATOM      7  C   UNL     1     -54.022 446.726 -10.131  1.00  0.00     0.102 C 
ATOM      8  O   UNL     1     -54.074 445.606  -9.559  1.00  0.00    -0.544 OA
ATOM      9  O   UNL     1     -54.716 446.921 -11.319  1.00  0.00    -0.544 OA
ENDBRANCH   2   7
ENDBRANCH   1   2
BRANCH   1  10
ATOM     10  O   UNL     1     -53.972 449.685 -10.905  1.00  0.00    -0.390 OA
ATOM     11  H   UNL     1     -54.909 449.648 -11.230  1.00  0.00     0.210 HD
ENDBRANCH   1  10
TORSDOF 4
ENDMDL
MODEL 2
REMARK VINA RESULT:    -2.652      0.491      1.304
REMARK INTER + INTRA:          -3.343
REMARK INTER:                  -3.119
REMARK INTRA:                  -0.224
REMARK UNBOUND:                -0.225
REMARK SMILES [NH3+][C@H](CO)C(=O)[O-]
REMARK SMILES IDX 3 1 2 2 1 3 5 7 6 8 7 9 4 10
REMARK H PARENT 1 4 1 5 1 6 4 11
REMARK Flexibility Score: inf
ROOT
ATOM      1  C   UNL     1     -53.997 449.437  -9.126  1.00  0.00     0.227 C 
ENDROOT
BRANCH   1   2
ATOM      2  C   UNL     1     -53.197 448.127  -9.251  1.00  0.00     0.253 C 
BRANCH   2   3
ATOM      3  N   UNL     1     -52.860 447.600  -7.924  1.00  0.00    -0.348 N 
ATOM      4  H   UNL     1     -51.832 447.418  -7.849  1.00  0.00     0.345 HD
ATOM      5  H   UNL     1     -53.142 448.286  -7.187  1.00  0.00     0.345 HD
ATOM      6  H   UNL     1     -53.377 446.707  -7.755  1.00  0.00     0.345 HD
ENDBRANCH   2   3
BRANCH   2   7
ATOM      7  C   UNL     1     -53.975 447.102 -10.035  1.00  0.00     0.102 C 
ATOM      8  O   UNL     1     -54.409 447.381 -11.184  1.00  0.00    -0.544 OA
ATOM      9  O   UNL     1     -54.228 445.848  -9.493  1.00  0.00    -0.544 OA
ENDBRANCH   2   7
ENDBRANCH   1   2
BRANCH   1  10
ATOM     10  O   UNL     1     -53.908 450.185 -10.310  1.00  0.00    -0.390 OA
ATOM     11  H   UNL     1     -54.829 450.479 -10.533  1.00  0.00     0.210 HD
ENDBRANCH   1  10
TORSDOF 4
ENDMDL
MODEL 3
REMARK VINA RESULT:    -2.652      0.931      3.108
REMARK INTER + INTRA:          -3.343
REMARK INTER:                  -3.333
REMARK INTRA:                  -0.009
REMARK UNBOUND:                -0.225
REMARK SMILES [NH3+][C@H](CO)C(=O)[O-]
REMARK SMILES IDX 3 1 2 2 1 3 5 7 6 8 7 9 4 10
REMARK H PARENT 1 4 1 5 1 6 4 11
REMARK Flexibility Score: inf
ROOT
ATOM      1  C   UNL     1     -53.597 446.835 -10.376  1.00  0.00     0.227 C 
ENDROOT
BRANCH   1   2
ATOM      2  C   UNL     1     -53.722 447.836  -9.213  1.00  0.00     0.253 C 
BRANCH   2   3
ATOM      3  N   UNL     1     -52.616 447.666  -8.264  1.00  0.00    -0.348 N 
ATOM      4  H   UNL     1     -52.941 447.832  -7.283  1.00  0.00     0.345 HD
ATOM      5  H   UNL     1     -52.230 446.696  -8.338  1.00  0.00     0.345 HD
ATOM      6  H   UNL     1     -51.849 448.340  -8.488  1.00  0.00     0.345 HD
ENDBRANCH   2   3
BRANCH   2   7
ATOM      7  C   UNL     1     -53.750 449.250  -9.729  1.00  0.00     0.102 C 
ATOM      8  O   UNL     1     -54.011 449.476 -10.940  1.00  0.00    -0.544 OA
ATOM      9  O   UNL     1     -53.480 450.314  -8.878  1.00  0.00    -0.544 OA
ENDBRANCH   2   7
ENDBRANCH   1   2
BRANCH   1  10
ATOM     10  O   UNL     1     -53.709 445.517  -9.908  1.00  0.00    -0.390 OA
ATOM     11  H   UNL     1     -54.541 445.474  -9.369  1.00  0.00     0.210 HD
ENDBRANCH   1  10
TORSDOF 4
ENDMDL
MODEL 4
REMARK VINA RESULT:    -2.600      1.924      2.385
REMARK INTER + INTRA:          -3.282
REMARK INTER:                  -2.953
REMARK INTRA:                  -0.329
REMARK UNBOUND:                -0.225
REMARK SMILES [NH3+][C@H](CO)C(=O)[O-]
REMARK SMILES IDX 3 1 2 2 1 3 5 7 6 8 7 9 4 10
REMARK H PARENT 1 4 1 5 1 6 4 11
REMARK Flexibility Score: inf
ROOT
ATOM      1  C   UNL     1     -53.241 448.687  -8.493  1.00  0.00     0.227 C 
ENDROOT
BRANCH   1   2
ATOM      2  C   UNL     1     -54.076 448.630  -9.786  1.00  0.00     0.253 C 
BRANCH   2   3
ATOM      3  N   UNL     1     -53.758 449.768 -10.656  1.00  0.00    -0.348 N 
ATOM      4  H   UNL     1     -53.041 449.499 -11.369  1.00  0.00     0.345 HD
ATOM      5  H   UNL     1     -54.624 450.093 -11.145  1.00  0.00     0.345 HD
ATOM      6  H   UNL     1     -53.389 450.560 -10.082  1.00  0.00     0.345 HD
ENDBRANCH   2   3
BRANCH   2   7
ATOM      7  C   UNL     1     -53.836 447.334 -10.516  1.00  0.00     0.102 C 
ATOM      8  O   UNL     1     -53.176 447.326 -11.588  1.00  0.00    -0.544 OA
ATOM      9  O   UNL     1     -54.349 446.143 -10.019  1.00  0.00    -0.544 OA
ENDBRANCH   2   7
ENDBRANCH   1   2
BRANCH   1  10
ATOM     10  O   UNL     1     -52.432 447.546  -8.376  1.00  0.00    -0.390 OA
ATOM     11  H   UNL     1     -52.161 447.291  -9.296  1.00  0.00     0.210 HD
ENDBRANCH   1  10
TORSDOF 4
ENDMDL
MODEL 5
REMARK VINA RESULT:    -2.553      3.757      4.611
REMARK INTER + INTRA:          -3.226
REMARK INTER:                  -3.000
REMARK INTRA:                  -0.227
REMARK UNBOUND:                -0.225
REMARK SMILES [NH3+][C@H](CO)C(=O)[O-]
REMARK SMILES IDX 3 1 2 2 1 3 5 7 6 8 7 9 4 10
REMARK H PARENT 1 4 1 5 1 6 4 11
REMARK Flexibility Score: inf
ROOT
ATOM      1  C   UNL     1     -52.469 452.203 -10.948  1.00  0.00     0.227 C 
ENDROOT
BRANCH   1   2
ATOM      2  C   UNL     1     -53.693 451.822 -10.096  1.00  0.00     0.253 C 
BRANCH   2   3
ATOM      3  N   UNL     1     -54.632 451.007 -10.876  1.00  0.00    -0.348 N 
ATOM      4  H   UNL     1     -54.940 451.519 -11.736  1.00  0.00     0.345 HD
ATOM      5  H   UNL     1     -54.175 450.109 -11.156  1.00  0.00     0.345 HD
ATOM      6  H   UNL     1     -55.471 450.780 -10.295  1.00  0.00     0.345 HD
ENDBRANCH   2   3
BRANCH   2   7
ATOM      7  C   UNL     1     -53.268 451.080  -8.856  1.00  0.00     0.102 C 
ATOM      8  O   UNL     1     -52.602 451.669  -7.964  1.00  0.00    -0.544 OA
ATOM      9  O   UNL     1     -53.598 449.741  -8.692  1.00  0.00    -0.544 OA
ENDBRANCH   2   7
ENDBRANCH   1   2
BRANCH   1  10
ATOM     10  O   UNL     1     -51.678 453.151 -10.282  1.00  0.00    -0.390 OA
ATOM     11  H   UNL     1     -51.784 454.008 -10.772  1.00  0.00     0.210 HD
ENDBRANCH   1  10
TORSDOF 4
ENDMDL
MODEL 6
REMARK VINA RESULT:    -2.497      6.242      6.950
REMARK INTER + INTRA:          -3.160
REMARK INTER:                  -2.941
REMARK INTRA:                  -0.219
REMARK UNBOUND:                -0.225
REMARK SMILES [NH3+][C@H](CO)C(=O)[O-]
REMARK SMILES IDX 3 1 2 2 1 3 5 7 6 8 7 9 4 10
REMARK H PARENT 1 4 1 5 1 6 4 11
REMARK Flexibility Score: inf
ROOT
ATOM      1  C   UNL     1     -51.784 452.202 -12.501  1.00  0.00     0.227 C 
ENDROOT
BRANCH   1   2
ATOM      2  C   UNL     1     -51.117 453.221 -11.559  1.00  0.00     0.253 C 
BRANCH   2   3
ATOM      3  N   UNL     1     -51.596 453.042 -10.183  1.00  0.00    -0.348 N 
ATOM      4  H   UNL     1     -51.041 452.304  -9.692  1.00  0.00     0.345 HD
ATOM      5  H   UNL     1     -51.511 453.943  -9.658  1.00  0.00     0.345 HD
ATOM      6  H   UNL     1     -52.604 452.763 -10.192  1.00  0.00     0.345 HD
ENDBRANCH   2   3
BRANCH   2   7
ATOM      7  C   UNL     1     -49.618 453.089 -11.609  1.00  0.00     0.102 C 
ATOM      8  O   UNL     1     -48.892 453.873 -10.942  1.00  0.00    -0.544 OA
ATOM      9  O   UNL     1     -49.025 452.110 -12.396  1.00  0.00    -0.544 OA
ENDBRANCH   2   7
ENDBRANCH   1   2
BRANCH   1  10
ATOM     10  O   UNL     1     -51.655 452.607 -13.838  1.00  0.00    -0.390 OA
ATOM     11  H   UNL     1     -50.849 453.183 -13.888  1.00  0.00     0.210 HD
ENDBRANCH   1  10
TORSDOF 4
ENDMDL
MODEL 7
REMARK VINA RESULT:    -2.420      1.976      3.130
REMARK INTER + INTRA:          -3.070
REMARK INTER:                  -2.844
REMARK INTRA:                  -0.226
REMARK UNBOUND:                -0.225
REMARK SMILES [NH3+][C@H](CO)C(=O)[O-]
REMARK SMILES IDX 3 1 2 2 1 3 5 7 6 8 7 9 4 10
REMARK H PARENT 1 4 1 5 1 6 4 11
REMARK Flexibility Score: inf
ROOT
ATOM      1  C   UNL     1     -54.436 446.312 -10.480  1.00  0.00     0.227 C 
ENDROOT
BRANCH   1   2
ATOM      2  C   UNL     1     -53.661 447.640 -10.556  1.00  0.00     0.253 C 
BRANCH   2   3
ATOM      3  N   UNL     1     -54.272 448.537 -11.543  1.00  0.00    -0.348 N 
ATOM      4  H   UNL     1     -55.122 448.098 -11.967  1.00  0.00     0.345 HD
ATOM      5  H   UNL     1     -54.544 449.437 -11.085  1.00  0.00     0.345 HD
ATOM      6  H   UNL     1     -53.584 448.751 -12.301  1.00  0.00     0.345 HD
ENDBRANCH   2   3
BRANCH   2   7
ATOM      7  C   UNL     1     -53.616 448.306  -9.206  1.00  0.00     0.102 C 
ATOM      8  O   UNL     1     -53.212 447.668  -8.199  1.00  0.00    -0.544 OA
ATOM      9  O   UNL     1     -54.027 449.626  -9.060  1.00  0.00    -0.544 OA
ENDBRANCH   2   7
ENDBRANCH   1   2
BRANCH   1  10
ATOM     10  O   UNL     1     -53.647 445.313  -9.889  1.00  0.00    -0.390 OA
ATOM     11  H   UNL     1     -53.077 444.934 -10.607  1.00  0.00     0.210 HD
ENDBRANCH   1  10
TORSDOF 4
ENDMDL
MODEL 8
REMARK VINA RESULT:    -2.359      6.505      7.044
REMARK INTER + INTRA:          -2.999
REMARK INTER:                  -2.635
REMARK INTRA:                  -0.363
REMARK UNBOUND:                -0.225
REMARK SMILES [NH3+][C@H](CO)C(=O)[O-]
REMARK SMILES IDX 3 1 2 2 1 3 5 7 6 8 7 9 4 10
REMARK H PARENT 1 4 1 5 1 6 4 11
REMARK Flexibility Score: inf
ROOT
ATOM      1  C   UNL     1     -51.913 452.505 -11.340  1.00  0.00     0.227 C 
ENDROOT
BRANCH   1   2
ATOM      2  C   UNL     1     -51.298 452.138 -12.702  1.00  0.00     0.253 C 
BRANCH   2   3
ATOM      3  N   UNL     1     -52.157 452.599 -13.798  1.00  0.00    -0.348 N 
ATOM      4  H   UNL     1     -52.966 453.151 -13.427  1.00  0.00     0.345 HD
ATOM      5  H   UNL     1     -51.605 453.197 -14.455  1.00  0.00     0.345 HD
ATOM      6  H   UNL     1     -52.521 451.777 -14.332  1.00  0.00     0.345 HD
ENDBRANCH   2   3
BRANCH   2   7
ATOM      7  C   UNL     1     -49.919 452.729 -12.838  1.00  0.00     0.102 C 
ATOM      8  O   UNL     1     -48.929 452.153 -12.315  1.00  0.00    -0.544 OA
ATOM      9  O   UNL     1     -49.731 453.917 -13.534  1.00  0.00    -0.544 OA
ENDBRANCH   2   7
ENDBRANCH   1   2
BRANCH   1  10
ATOM     10  O   UNL     1     -51.271 453.626 -10.793  1.00  0.00    -0.390 OA
ATOM     11  H   UNL     1     -51.655 453.764  -9.888  1.00  0.00     0.210 HD
ENDBRANCH   1  10
TORSDOF 4
ENDMDL
