MODEL 1
REMARK VINA RESULT:    -4.929      0.000      0.000
REMARK INTER + INTRA:          -5.700
REMARK INTER:                  -5.649
REMARK INTRA:                  -0.051
REMARK UNBOUND:                -0.051
REMARK SMILES O=C([O-])c1cc(O)c(O)c(O)c1
REMARK SMILES IDX 4 1 5 2 12 3 6 4 10 5 8 6 2 7 1 8 3 9 7 10 11 12 9 14
REMARK H PARENT 7 11 11 13 9 15
REMARK Flexibility Score: inf
ROOT
ATOM      1  C   UNL     1       8.301  -7.962  -6.980  1.00  0.00     0.005 A 
ATOM      2  C   UNL     1       7.844  -7.222  -5.879  1.00  0.00     0.060 A 
ATOM      3  C   UNL     1       9.470  -7.550  -7.640  1.00  0.00     0.060 A 
ATOM      4  C   UNL     1       8.544  -6.089  -5.443  1.00  0.00     0.162 A 
ATOM      5  C   UNL     1      10.178  -6.420  -7.215  1.00  0.00     0.162 A 
ATOM      6  C   UNL     1       9.710  -5.679  -6.103  1.00  0.00     0.200 A 
ENDROOT
BRANCH   1   7
ATOM      7  C   UNL     1       7.559  -9.158  -7.435  1.00  0.00     0.072 C 
ATOM      8  O   UNL     1       7.620  -9.533  -8.637  1.00  0.00    -0.545 OA
ATOM      9  O   UNL     1       6.780  -9.887  -6.542  1.00  0.00    -0.545 OA
ENDBRANCH   1   7
BRANCH   4  10
ATOM     10  O   UNL     1       8.082  -5.359  -4.348  1.00  0.00    -0.504 OA
ATOM     11  H   UNL     1       8.073  -5.753  -3.414  1.00  0.00     0.293 HD
ENDBRANCH   4  10
BRANCH   5  12
ATOM     12  O   UNL     1      11.331  -6.072  -7.921  1.00  0.00    -0.504 OA
ATOM     13  H   UNL     1      11.795  -6.679  -8.582  1.00  0.00     0.293 HD
ENDBRANCH   5  12
BRANCH   6  14
ATOM     14  O   UNL     1      10.368  -4.542  -5.627  1.00  0.00    -0.502 OA
ATOM     15  H   UNL     1       9.975  -3.901  -4.953  1.00  0.00     0.293 HD
ENDBRANCH   6  14
TORSDOF 4
ENDMDL
MODEL 2
REMARK VINA RESULT:    -4.909      0.342      2.626
REMARK INTER + INTRA:          -5.677
REMARK INTER:                  -5.625
REMARK INTRA:                  -0.052
REMARK UNBOUND:                -0.051
REMARK SMILES O=C([O-])c1cc(O)c(O)c(O)c1
REMARK SMILES IDX 4 1 5 2 12 3 6 4 10 5 8 6 2 7 1 8 3 9 7 10 11 12 9 14
REMARK H PARENT 7 11 11 13 9 15
REMARK Flexibility Score: inf
ROOT
ATOM      1  C   UNL     1       8.149  -7.967  -6.627  1.00  0.00     0.005 A 
ATOM      2  C   UNL     1       9.276  -7.577  -7.365  1.00  0.00     0.060 A 
ATOM      3  C   UNL     1       7.753  -7.191  -5.526  1.00  0.00     0.060 A 
ATOM      4  C   UNL     1       9.997  -6.429  -7.009  1.00  0.00     0.162 A 
ATOM      5  C   UNL     1       8.464  -6.042  -5.160  1.00  0.00     0.162 A 
ATOM      6  C   UNL     1       9.601  -5.656  -5.911  1.00  0.00     0.200 A 
ENDROOT
BRANCH   1   7
ATOM      7  C   UNL     1       7.391  -9.179  -7.008  1.00  0.00     0.072 C 
ATOM      8  O   UNL     1       6.552  -9.687  -6.216  1.00  0.00    -0.545 OA
ATOM      9  O   UNL     1       7.594  -9.778  -8.247  1.00  0.00    -0.545 OA
ENDBRANCH   1   7
BRANCH   4  10
ATOM     10  O   UNL     1      11.117  -6.049  -7.749  1.00  0.00    -0.504 OA
ATOM     11  H   UNL     1      11.395  -5.077  -7.830  1.00  0.00     0.293 HD
ENDBRANCH   4  10
BRANCH   5  12
ATOM     12  O   UNL     1       8.010  -5.321  -4.053  1.00  0.00    -0.504 OA
ATOM     13  H   UNL     1       7.464  -4.474  -4.116  1.00  0.00     0.293 HD
ENDBRANCH   5  12
BRANCH   6  14
ATOM     14  O   UNL     1      10.355  -4.522  -5.600  1.00  0.00    -0.502 OA
ATOM     15  H   UNL     1      10.809  -3.937  -6.287  1.00  0.00     0.293 HD
ENDBRANCH   6  14
TORSDOF 4
ENDMDL
MODEL 3
REMARK VINA RESULT:    -4.897      0.998      1.419
REMARK INTER + INTRA:          -5.664
REMARK INTER:                  -5.618
REMARK INTRA:                  -0.046
REMARK UNBOUND:                -0.051
REMARK SMILES O=C([O-])c1cc(O)c(O)c(O)c1
REMARK SMILES IDX 4 1 5 2 12 3 6 4 10 5 8 6 2 7 1 8 3 9 7 10 11 12 9 14
REMARK H PARENT 7 11 11 13 9 15
REMARK Flexibility Score: inf
ROOT
ATOM      1  C   UNL     1       8.410  -7.822  -8.135  1.00  0.00     0.005 A 
ATOM      2  C   UNL     1       7.791  -7.275  -7.002  1.00  0.00     0.060 A 
ATOM      3  C   UNL     1       9.694  -7.379  -8.491  1.00  0.00     0.060 A 
ATOM      4  C   UNL     1       8.444  -6.300  -6.235  1.00  0.00     0.162 A 
ATOM      5  C   UNL     1      10.357  -6.406  -7.734  1.00  0.00     0.162 A 
ATOM      6  C   UNL     1       9.725  -5.859  -6.592  1.00  0.00     0.200 A 
ENDROOT
BRANCH   1   7
ATOM      7  C   UNL     1       7.716  -8.852  -8.940  1.00  0.00     0.072 C 
ATOM      8  O   UNL     1       7.472  -9.989  -8.454  1.00  0.00    -0.545 OA
ATOM      9  O   UNL     1       7.324  -8.579 -10.247  1.00  0.00    -0.545 OA
ENDBRANCH   1   7
BRANCH   4  10
ATOM     10  O   UNL     1       7.821  -5.761  -5.110  1.00  0.00    -0.504 OA
ATOM     11  H   UNL     1       7.748  -6.282  -4.243  1.00  0.00     0.293 HD
ENDBRANCH   4  10
BRANCH   5  12
ATOM     12  O   UNL     1      11.632  -6.016  -8.151  1.00  0.00    -0.504 OA
ATOM     13  H   UNL     1      12.244  -5.418  -7.614  1.00  0.00     0.293 HD
ENDBRANCH   5  12
BRANCH   6  14
ATOM     14  O   UNL     1      10.330  -4.886  -5.793  1.00  0.00    -0.502 OA
ATOM     15  H   UNL     1      11.073  -5.075  -5.135  1.00  0.00     0.293 HD
ENDBRANCH   6  14
TORSDOF 4
ENDMDL
MODEL 4
REMARK VINA RESULT:    -4.863      1.024      2.810
REMARK INTER + INTRA:          -5.625
REMARK INTER:                  -5.579
REMARK INTRA:                  -0.046
REMARK UNBOUND:                -0.051
REMARK SMILES O=C([O-])c1cc(O)c(O)c(O)c1
REMARK SMILES IDX 4 1 5 2 12 3 6 4 10 5 8 6 2 7 1 8 3 9 7 10 11 12 9 14
REMARK H PARENT 7 11 11 13 9 15
REMARK Flexibility Score: inf
ROOT
ATOM      1  C   UNL     1       8.383  -7.852  -8.164  1.00  0.00     0.005 A 
ATOM      2  C   UNL     1       9.667  -7.429  -8.536  1.00  0.00     0.060 A 
ATOM      3  C   UNL     1       7.775  -7.273  -7.038  1.00  0.00     0.060 A 
ATOM      4  C   UNL     1      10.335  -6.444  -7.797  1.00  0.00     0.162 A 
ATOM      5  C   UNL     1       8.431  -6.288  -6.290  1.00  0.00     0.162 A 
ATOM      6  C   UNL     1       9.727  -5.868  -6.674  1.00  0.00     0.200 A 
ENDROOT
BRANCH   1   7
ATOM      7  C   UNL     1       7.681  -8.891  -8.949  1.00  0.00     0.072 C 
ATOM      8  O   UNL     1       7.438 -10.020  -8.446  1.00  0.00    -0.545 OA
ATOM      9  O   UNL     1       7.281  -8.637 -10.257  1.00  0.00    -0.545 OA
ENDBRANCH   1   7
BRANCH   4  10
ATOM     10  O   UNL     1      11.612  -6.030  -8.175  1.00  0.00    -0.504 OA
ATOM     11  H   UNL     1      12.438  -6.327  -7.667  1.00  0.00     0.293 HD
ENDBRANCH   4  10
BRANCH   5  12
ATOM     12  O   UNL     1       7.763  -5.760  -5.183  1.00  0.00    -0.504 OA
ATOM     13  H   UNL     1       8.148  -5.735  -4.249  1.00  0.00     0.293 HD
ENDBRANCH   5  12
BRANCH   6  14
ATOM     14  O   UNL     1      10.438  -4.891  -5.972  1.00  0.00    -0.502 OA
ATOM     15  H   UNL     1      10.541  -3.935  -6.281  1.00  0.00     0.293 HD
ENDBRANCH   6  14
TORSDOF 4
ENDMDL
MODEL 5
REMARK VINA RESULT:    -4.709      1.541      3.360
REMARK INTER + INTRA:          -5.448
REMARK INTER:                  -5.398
REMARK INTRA:                  -0.050
REMARK UNBOUND:                -0.051
REMARK SMILES O=C([O-])c1cc(O)c(O)c(O)c1
REMARK SMILES IDX 4 1 5 2 12 3 6 4 10 5 8 6 2 7 1 8 3 9 7 10 11 12 9 14
REMARK H PARENT 7 11 11 13 9 15
REMARK Flexibility Score: inf
ROOT
ATOM      1  C   UNL     1       9.712  -7.110  -8.412  1.00  0.00     0.005 A 
ATOM      2  C   UNL     1      10.283  -6.106  -7.616  1.00  0.00     0.060 A 
ATOM      3  C   UNL     1       8.538  -7.743  -7.972  1.00  0.00     0.060 A 
ATOM      4  C   UNL     1       9.692  -5.739  -6.400  1.00  0.00     0.162 A 
ATOM      5  C   UNL     1       7.937  -7.386  -6.759  1.00  0.00     0.162 A 
ATOM      6  C   UNL     1       8.521  -6.372  -5.962  1.00  0.00     0.200 A 
ENDROOT
BRANCH   1   7
ATOM      7  C   UNL     1      10.340  -7.492  -9.696  1.00  0.00     0.072 C 
ATOM      8  O   UNL     1      11.590  -7.430  -9.842  1.00  0.00    -0.545 OA
ATOM      9  O   UNL     1       9.558  -7.925 -10.762  1.00  0.00    -0.545 OA
ENDBRANCH   1   7
BRANCH   4  10
ATOM     10  O   UNL     1      10.267  -4.740  -5.614  1.00  0.00    -0.504 OA
ATOM     11  H   UNL     1       9.829  -4.420  -4.758  1.00  0.00     0.293 HD
ENDBRANCH   4  10
BRANCH   5  12
ATOM     12  O   UNL     1       6.772  -8.060  -6.388  1.00  0.00    -0.504 OA
ATOM     13  H   UNL     1       5.844  -7.666  -6.456  1.00  0.00     0.293 HD
ENDBRANCH   5  12
BRANCH   6  14
ATOM     14  O   UNL     1       7.973  -5.968  -4.742  1.00  0.00    -0.502 OA
ATOM     15  H   UNL     1       8.470  -5.992  -3.863  1.00  0.00     0.293 HD
ENDBRANCH   6  14
TORSDOF 4
ENDMDL
MODEL 6
REMARK VINA RESULT:    -4.709     15.893     18.060
REMARK INTER + INTRA:          -5.448
REMARK INTER:                  -5.395
REMARK INTRA:                  -0.053
REMARK UNBOUND:                -0.051
REMARK SMILES O=C([O-])c1cc(O)c(O)c(O)c1
REMARK SMILES IDX 4 1 5 2 12 3 6 4 10 5 8 6 2 7 1 8 3 9 7 10 11 12 9 14
REMARK H PARENT 7 11 11 13 9 15
REMARK Flexibility Score: inf
ROOT
ATOM      1  C   UNL     1      20.245  -0.814 -20.076  1.00  0.00     0.005 A 
ATOM      2  C   UNL     1      19.889   0.030 -19.014  1.00  0.00     0.060 A 
ATOM      3  C   UNL     1      19.922  -2.178 -20.001  1.00  0.00     0.060 A 
ATOM      4  C   UNL     1      19.222  -0.480 -17.892  1.00  0.00     0.162 A 
ATOM      5  C   UNL     1      19.256  -2.701 -18.886  1.00  0.00     0.162 A 
ATOM      6  C   UNL     1      18.901  -1.842 -17.818  1.00  0.00     0.200 A 
ENDROOT
BRANCH   1   7
ATOM      7  C   UNL     1      20.948  -0.269 -21.259  1.00  0.00     0.072 C 
ATOM      8  O   UNL     1      21.098  -0.970 -22.295  1.00  0.00    -0.545 OA
ATOM      9  O   UNL     1      21.456   1.026 -21.242  1.00  0.00    -0.545 OA
ENDBRANCH   1   7
BRANCH   4  10
ATOM     10  O   UNL     1      18.873   0.366 -16.840  1.00  0.00    -0.504 OA
ATOM     11  H   UNL     1      18.722   1.358 -16.984  1.00  0.00     0.293 HD
ENDBRANCH   4  10
BRANCH   5  12
ATOM     12  O   UNL     1      18.969  -4.068 -18.882  1.00  0.00    -0.504 OA
ATOM     13  H   UNL     1      19.452  -4.749 -19.451  1.00  0.00     0.293 HD
ENDBRANCH   5  12
BRANCH   6  14
ATOM     14  O   UNL     1      18.236  -2.298 -16.677  1.00  0.00    -0.502 OA
ATOM     15  H   UNL     1      17.810  -1.693 -15.990  1.00  0.00     0.293 HD
ENDBRANCH   6  14
TORSDOF 4
ENDMDL
MODEL 7
REMARK VINA RESULT:    -4.653      1.737      2.553
REMARK INTER + INTRA:          -5.384
REMARK INTER:                  -5.339
REMARK INTRA:                  -0.046
REMARK UNBOUND:                -0.051
REMARK SMILES O=C([O-])c1cc(O)c(O)c(O)c1
REMARK SMILES IDX 4 1 5 2 12 3 6 4 10 5 8 6 2 7 1 8 3 9 7 10 11 12 9 14
REMARK H PARENT 7 11 11 13 9 15
REMARK Flexibility Score: inf
ROOT
ATOM      1  C   UNL     1       8.238  -7.584  -7.307  1.00  0.00     0.005 A 
ATOM      2  C   UNL     1       7.677  -8.363  -6.285  1.00  0.00     0.060 A 
ATOM      3  C   UNL     1       8.713  -6.298  -7.001  1.00  0.00     0.060 A 
ATOM      4  C   UNL     1       7.591  -7.867  -4.977  1.00  0.00     0.162 A 
ATOM      5  C   UNL     1       8.633  -5.791  -5.699  1.00  0.00     0.162 A 
ATOM      6  C   UNL     1       8.065  -6.584  -4.674  1.00  0.00     0.200 A 
ENDROOT
BRANCH   1   7
ATOM      7  C   UNL     1       8.327  -8.113  -8.686  1.00  0.00     0.072 C 
ATOM      8  O   UNL     1       7.644  -7.602  -9.614  1.00  0.00    -0.545 OA
ATOM      9  O   UNL     1       9.165  -9.184  -8.977  1.00  0.00    -0.545 OA
ENDBRANCH   1   7
BRANCH   4  10
ATOM     10  O   UNL     1       7.031  -8.649  -3.967  1.00  0.00    -0.504 OA
ATOM     11  H   UNL     1       7.107  -8.388  -2.990  1.00  0.00     0.293 HD
ENDBRANCH   4  10
BRANCH   5  12
ATOM     12  O   UNL     1       9.126  -4.504  -5.472  1.00  0.00    -0.504 OA
ATOM     13  H   UNL     1       9.160  -3.778  -6.174  1.00  0.00     0.293 HD
ENDBRANCH   5  12
BRANCH   6  14
ATOM     14  O   UNL     1       7.955  -6.139  -3.354  1.00  0.00    -0.502 OA
ATOM     15  H   UNL     1       8.534  -6.468  -2.595  1.00  0.00     0.293 HD
ENDBRANCH   6  14
TORSDOF 4
ENDMDL
MODEL 8
REMARK VINA RESULT:    -4.652      1.722      2.949
REMARK INTER + INTRA:          -5.383
REMARK INTER:                  -5.337
REMARK INTRA:                  -0.046
REMARK UNBOUND:                -0.051
REMARK SMILES O=C([O-])c1cc(O)c(O)c(O)c1
REMARK SMILES IDX 4 1 5 2 12 3 6 4 10 5 8 6 2 7 1 8 3 9 7 10 11 12 9 14
REMARK H PARENT 7 11 11 13 9 15
REMARK Flexibility Score: inf
ROOT
ATOM      1  C   UNL     1       8.244  -7.606  -7.311  1.00  0.00     0.005 A 
ATOM      2  C   UNL     1       8.725  -6.320  -7.026  1.00  0.00     0.060 A 
ATOM      3  C   UNL     1       7.675  -8.365  -6.275  1.00  0.00     0.060 A 
ATOM      4  C   UNL     1       8.641  -5.799  -5.728  1.00  0.00     0.162 A 
ATOM      5  C   UNL     1       7.585  -7.857  -4.974  1.00  0.00     0.162 A 
ATOM      6  C   UNL     1       8.074  -6.558  -4.696  1.00  0.00     0.200 A 
ENDROOT
BRANCH   1   7
ATOM      7  C   UNL     1       8.335  -8.150  -8.684  1.00  0.00     0.072 C 
ATOM      8  O   UNL     1       7.660  -7.645  -9.620  1.00  0.00    -0.545 OA
ATOM      9  O   UNL     1       9.167  -9.229  -8.960  1.00  0.00    -0.545 OA
ENDBRANCH   1   7
BRANCH   4  10
ATOM     10  O   UNL     1       9.122  -4.519  -5.454  1.00  0.00    -0.504 OA
ATOM     11  H   UNL     1       9.817  -4.356  -4.735  1.00  0.00     0.293 HD
ENDBRANCH   4  10
BRANCH   5  12
ATOM     12  O   UNL     1       7.008  -8.671  -3.997  1.00  0.00    -0.504 OA
ATOM     13  H   UNL     1       6.802  -9.652  -4.127  1.00  0.00     0.293 HD
ENDBRANCH   5  12
BRANCH   6  14
ATOM     14  O   UNL     1       8.015  -5.990  -3.421  1.00  0.00    -0.502 OA
ATOM     15  H   UNL     1       7.540  -6.412  -2.635  1.00  0.00     0.293 HD
ENDBRANCH   6  14
TORSDOF 4
ENDMDL
MODEL 9
REMARK VINA RESULT:    -4.609      1.649      3.081
REMARK INTER + INTRA:          -5.334
REMARK INTER:                  -5.284
REMARK INTRA:                  -0.050
REMARK UNBOUND:                -0.051
REMARK SMILES O=C([O-])c1cc(O)c(O)c(O)c1
REMARK SMILES IDX 4 1 5 2 12 3 6 4 10 5 8 6 2 7 1 8 3 9 7 10 11 12 9 14
REMARK H PARENT 7 11 11 13 9 15
REMARK Flexibility Score: inf
ROOT
ATOM      1  C   UNL     1      10.142  -7.751  -8.251  1.00  0.00     0.005 A 
ATOM      2  C   UNL     1       8.891  -8.278  -7.901  1.00  0.00     0.060 A 
ATOM      3  C   UNL     1      10.606  -6.600  -7.593  1.00  0.00     0.060 A 
ATOM      4  C   UNL     1       8.113  -7.667  -6.908  1.00  0.00     0.162 A 
ATOM      5  C   UNL     1       9.839  -5.980  -6.600  1.00  0.00     0.162 A 
ATOM      6  C   UNL     1       8.577  -6.519  -6.252  1.00  0.00     0.200 A 
ENDROOT
BRANCH   1   7
ATOM      7  C   UNL     1      10.959  -8.401  -9.299  1.00  0.00     0.072 C 
ATOM      8  O   UNL     1      11.697  -7.714 -10.056  1.00  0.00    -0.545 OA
ATOM      9  O   UNL     1      10.924  -9.782  -9.465  1.00  0.00    -0.545 OA
ENDBRANCH   1   7
BRANCH   4  10
ATOM     10  O   UNL     1       6.870  -8.198  -6.566  1.00  0.00    -0.504 OA
ATOM     11  H   UNL     1       6.126  -8.289  -7.249  1.00  0.00     0.293 HD
ENDBRANCH   4  10
BRANCH   5  12
ATOM     12  O   UNL     1      10.366  -4.839  -5.990  1.00  0.00    -0.504 OA
ATOM     13  H   UNL     1      10.545  -3.970  -6.473  1.00  0.00     0.293 HD
ENDBRANCH   5  12
BRANCH   6  14
ATOM     14  O   UNL     1       7.761  -5.949  -5.271  1.00  0.00    -0.502 OA
ATOM     15  H   UNL     1       7.824  -6.167  -4.287  1.00  0.00     0.293 HD
ENDBRANCH   6  14
TORSDOF 4
ENDMDL
