MODEL 1
REMARK VINA RESULT:    97.512      0.000      0.000
REMARK INTER + INTRA:         231.897
REMARK INTER:                 231.475
REMARK INTRA:                   0.422
REMARK UNBOUND:                 0.422
REMARK SMILES O=C(OC[C@H]1O[C@@H](OC(=O)c2cc(O)c(O)c(O)c2)[C@@H](OC(=O)c2cc(O)c(O)c(O)c2)[C@@H](OC(=O)c2cc(O)c(O)c(O)c2)[C@@H]1OC(=O)c1cc(O)c(O)c(O)c1)c1cc(O)c(O)c(O)c1
REMARK SMILES IDX 5 1 46 2 33 3 20 4 7 5 6 6 4 7 3 8 2 9 1 10 59 11 60 12
REMARK SMILES IDX 61 13 67 14 63 15 65 16 62 17 64 19 66 21 47 23 48 24 49 25
REMARK SMILES IDX 50 26 58 27 51 28 56 29 52 30 54 31 57 32 53 34 55 36 34 38
REMARK SMILES IDX 35 39 36 40 37 41 45 42 38 43 43 44 39 45 41 46 44 47 40 49
REMARK SMILES IDX 42 51 8 53 9 54 10 55 11 56 19 57 12 58 17 59 13 60 15 61
REMARK SMILES IDX 18 62 14 64 16 66 21 68 22 69 23 70 24 71 32 72 25 73 30 74
REMARK SMILES IDX 26 75 28 76 31 77 27 79 29 81
REMARK H PARENT 62 18 64 20 66 22 57 33 53 35 55 37 44 48 40 50 42 52 18 63
REMARK H PARENT 14 65 16 67 31 78 27 80 29 82
REMARK Flexibility Score: inf
ROOT
ATOM      1  C   UNL     1      59.255  55.175  -4.549  1.00  0.00     0.205 C 
ATOM      2  C   UNL     1      60.202  55.894  -3.534  1.00  0.00     0.254 C 
ATOM      3  C   UNL     1      59.462  57.066  -2.859  1.00  0.00     0.267 C 
ATOM      4  C   UNL     1      58.854  57.966  -3.950  1.00  0.00     0.290 C 
ATOM      5  C   UNL     1      58.013  57.124  -4.951  1.00  0.00     0.357 C 
ATOM      6  O   UNL     1      57.962  55.758  -4.567  1.00  0.00    -0.329 OA
ENDROOT
BRANCH   1   7
ATOM      7  C   UNL     1      59.085  53.683  -4.209  1.00  0.00     0.269 C 
BRANCH   7   8
ATOM      8  O   UNL     1      59.811  53.359  -3.021  1.00  0.00    -0.459 OA
BRANCH   8   9
ATOM      9  C   UNL     1      59.454  53.807  -1.736  1.00  0.00     0.338 C 
ATOM     10  O   UNL     1      58.235  53.838  -1.415  1.00  0.00    -0.246 OA
BRANCH   9  11
ATOM     11  C   UNL     1      60.464  54.231  -0.750  1.00  0.00     0.067 A 
ATOM     12  C   UNL     1      61.644  54.858  -1.175  1.00  0.00     0.066 A 
ATOM     13  C   UNL     1      62.645  55.183  -0.255  1.00  0.00     0.162 A 
ATOM     14  C   UNL     1      60.282  53.943   0.608  1.00  0.00     0.066 A 
ATOM     15  C   UNL     1      62.470  54.882   1.109  1.00  0.00     0.200 A 
ATOM     16  C   UNL     1      61.286  54.253   1.538  1.00  0.00     0.162 A 
BRANCH  13  17
ATOM     17  O   UNL     1      63.809  55.796  -0.713  1.00  0.00    -0.504 OA
ATOM     18  H   UNL     1      64.723  55.571  -0.333  1.00  0.00     0.293 HD
ENDBRANCH  13  17
BRANCH  15  19
ATOM     19  O   UNL     1      63.472  55.212   2.022  1.00  0.00    -0.502 OA
ATOM     20  H   UNL     1      63.575  56.145   2.400  1.00  0.00     0.293 HD
ENDBRANCH  15  19
BRANCH  16  21
ATOM     21  O   UNL     1      61.111  53.933   2.883  1.00  0.00    -0.504 OA
ATOM     22  H   UNL     1      61.213  54.631   3.610  1.00  0.00     0.293 HD
ENDBRANCH  16  21
ENDBRANCH   9  11
ENDBRANCH   8   9
ENDBRANCH   7   8
ENDBRANCH   1   7
BRANCH   2  23
ATOM     23  O   UNL     1      61.343  56.404  -4.227  1.00  0.00    -0.452 OA
BRANCH  23  24
ATOM     24  C   UNL     1      62.630  56.403  -3.674  1.00  0.00     0.338 C 
ATOM     25  O   UNL     1      62.941  57.257  -2.798  1.00  0.00    -0.246 OA
BRANCH  24  26
ATOM     26  C   UNL     1      63.635  55.427  -4.147  1.00  0.00     0.067 A 
ATOM     27  C   UNL     1      63.754  54.167  -3.538  1.00  0.00     0.066 A 
ATOM     28  C   UNL     1      64.521  55.773  -5.183  1.00  0.00     0.066 A 
ATOM     29  C   UNL     1      64.740  53.264  -3.950  1.00  0.00     0.162 A 
ATOM     30  C   UNL     1      65.517  54.879  -5.595  1.00  0.00     0.162 A 
ATOM     31  C   UNL     1      65.627  53.619  -4.982  1.00  0.00     0.200 A 
BRANCH  29  32
ATOM     32  O   UNL     1      64.824  52.023  -3.323  1.00  0.00    -0.504 OA
ATOM     33  H   UNL     1      64.037  51.611  -2.836  1.00  0.00     0.293 HD
ENDBRANCH  29  32
BRANCH  30  34
ATOM     34  O   UNL     1      66.403  55.242  -6.608  1.00  0.00    -0.504 OA
ATOM     35  H   UNL     1      66.506  56.205  -6.904  1.00  0.00     0.293 HD
ENDBRANCH  30  34
BRANCH  31  36
ATOM     36  O   UNL     1      66.617  52.718  -5.379  1.00  0.00    -0.502 OA
ATOM     37  H   UNL     1      67.553  52.740  -4.992  1.00  0.00     0.293 HD
ENDBRANCH  31  36
ENDBRANCH  24  26
ENDBRANCH  23  24
ENDBRANCH   2  23
BRANCH   3  38
ATOM     38  O   UNL     1      58.402  56.572  -2.043  1.00  0.00    -0.450 OA
BRANCH  38  39
ATOM     39  C   UNL     1      57.919  57.203  -0.894  1.00  0.00     0.338 C 
ATOM     40  O   UNL     1      58.581  58.121  -0.338  1.00  0.00    -0.246 OA
BRANCH  39  41
ATOM     41  C   UNL     1      56.616  56.777  -0.346  1.00  0.00     0.067 A 
ATOM     42  C   UNL     1      55.545  56.532  -1.224  1.00  0.00     0.066 A 
ATOM     43  C   UNL     1      56.424  56.608   1.036  1.00  0.00     0.066 A 
ATOM     44  C   UNL     1      54.305  56.112  -0.732  1.00  0.00     0.162 A 
ATOM     45  C   UNL     1      55.177  56.203   1.533  1.00  0.00     0.162 A 
ATOM     46  C   UNL     1      54.120  55.938   0.643  1.00  0.00     0.200 A 
BRANCH  44  47
ATOM     47  O   UNL     1      53.248  55.861  -1.607  1.00  0.00    -0.504 OA
ATOM     48  H   UNL     1      52.985  56.528  -2.323  1.00  0.00     0.293 HD
ENDBRANCH  44  47
BRANCH  45  49
ATOM     49  O   UNL     1      54.972  56.083   2.908  1.00  0.00    -0.504 OA
ATOM     50  H   UNL     1      54.622  55.231   3.331  1.00  0.00     0.293 HD
ENDBRANCH  45  49
BRANCH  46  51
ATOM     51  O   UNL     1      52.876  55.511   1.114  1.00  0.00    -0.502 OA
ATOM     52  H   UNL     1      52.112  55.308   0.484  1.00  0.00     0.293 HD
ENDBRANCH  46  51
ENDBRANCH  39  41
ENDBRANCH  38  39
ENDBRANCH   3  38
BRANCH   5  53
ATOM     53  O   UNL     1      56.671  57.611  -5.005  1.00  0.00    -0.428 OA
BRANCH  53  54
ATOM     54  C   UNL     1      55.584  56.817  -4.622  1.00  0.00     0.340 C 
ATOM     55  O   UNL     1      55.282  56.709  -3.401  1.00  0.00    -0.246 OA
BRANCH  54  56
ATOM     56  C   UNL     1      54.749  56.166  -5.654  1.00  0.00     0.067 A 
ATOM     57  C   UNL     1      55.234  55.986  -6.957  1.00  0.00     0.066 A 
ATOM     58  C   UNL     1      53.487  55.654  -5.317  1.00  0.00     0.066 A 
ATOM     59  C   UNL     1      54.478  55.289  -7.908  1.00  0.00     0.162 A 
ATOM     60  C   UNL     1      52.717  54.962  -6.260  1.00  0.00     0.162 A 
ATOM     61  C   UNL     1      53.216  54.779  -7.572  1.00  0.00     0.200 A 
BRANCH  59  62
ATOM     62  O   UNL     1      54.987  55.087  -9.191  1.00  0.00    -0.504 OA
ATOM     63  H   UNL     1      54.996  55.829  -9.879  1.00  0.00     0.293 HD
ENDBRANCH  59  62
BRANCH  60  64
ATOM     64  O   UNL     1      51.478  54.467  -5.846  1.00  0.00    -0.504 OA
ATOM     65  H   UNL     1      51.067  53.610  -6.183  1.00  0.00     0.293 HD
ENDBRANCH  60  64
BRANCH  61  66
ATOM     66  O   UNL     1      52.499  54.100  -8.559  1.00  0.00    -0.502 OA
ATOM     67  H   UNL     1      52.624  53.117  -8.767  1.00  0.00     0.293 HD
ENDBRANCH  61  66
ENDBRANCH  54  56
ENDBRANCH  53  54
ENDBRANCH   5  53
BRANCH   4  68
ATOM     68  O   UNL     1      58.064  58.984  -3.333  1.00  0.00    -0.448 OA
BRANCH  68  69
ATOM     69  C   UNL     1      57.608  60.113  -4.024  1.00  0.00     0.339 C 
ATOM     70  O   UNL     1      58.436  60.940  -4.498  1.00  0.00    -0.246 OA
BRANCH  69  71
ATOM     71  C   UNL     1      56.157  60.347  -4.176  1.00  0.00     0.067 A 
ATOM     72  C   UNL     1      55.585  60.439  -5.453  1.00  0.00     0.066 A 
ATOM     73  C   UNL     1      55.328  60.435  -3.048  1.00  0.00     0.066 A 
ATOM     74  C   UNL     1      54.202  60.603  -5.612  1.00  0.00     0.162 A 
ATOM     75  C   UNL     1      53.947  60.607  -3.191  1.00  0.00     0.162 A 
ATOM     76  C   UNL     1      53.373  60.687  -4.468  1.00  0.00     0.200 A 
BRANCH  74  77
ATOM     77  O   UNL     1      53.700  60.672  -6.914  1.00  0.00    -0.504 OA
ATOM     78  H   UNL     1      52.793  60.324  -7.189  1.00  0.00     0.293 HD
ENDBRANCH  74  77
BRANCH  75  79
ATOM     79  O   UNL     1      53.134  60.697  -2.062  1.00  0.00    -0.504 OA
ATOM     80  H   UNL     1      52.160  60.965  -2.129  1.00  0.00     0.293 HD
ENDBRANCH  75  79
BRANCH  76  81
ATOM     81  O   UNL     1      51.987  60.844  -4.553  1.00  0.00    -0.502 OA
ATOM     82  H   UNL     1      51.341  60.085  -4.721  1.00  0.00     0.293 HD
ENDBRANCH  76  81
ENDBRANCH  69  71
ENDBRANCH  68  69
ENDBRANCH   4  68
TORSDOF 31
ENDMDL
MODEL 2
REMARK VINA RESULT:    99.164      2.108      7.470
REMARK INTER + INTRA:         235.819
REMARK INTER:                 235.462
REMARK INTRA:                   0.357
REMARK UNBOUND:                 0.422
REMARK SMILES O=C(OC[C@H]1O[C@@H](OC(=O)c2cc(O)c(O)c(O)c2)[C@@H](OC(=O)c2cc(O)c(O)c(O)c2)[C@@H](OC(=O)c2cc(O)c(O)c(O)c2)[C@@H]1OC(=O)c1cc(O)c(O)c(O)c1)c1cc(O)c(O)c(O)c1
REMARK SMILES IDX 5 1 46 2 33 3 20 4 7 5 6 6 4 7 3 8 2 9 1 10 59 11 60 12
REMARK SMILES IDX 61 13 67 14 63 15 65 16 62 17 64 19 66 21 47 23 48 24 49 25
REMARK SMILES IDX 50 26 58 27 51 28 56 29 52 30 54 31 57 32 53 34 55 36 34 38
REMARK SMILES IDX 35 39 36 40 37 41 45 42 38 43 43 44 39 45 41 46 44 47 40 49
REMARK SMILES IDX 42 51 8 53 9 54 10 55 11 56 19 57 12 58 17 59 13 60 15 61
REMARK SMILES IDX 18 62 14 64 16 66 21 68 22 69 23 70 24 71 32 72 25 73 30 74
REMARK SMILES IDX 26 75 28 76 31 77 27 79 29 81
REMARK H PARENT 62 18 64 20 66 22 57 33 53 35 55 37 44 48 40 50 42 52 18 63
REMARK H PARENT 14 65 16 67 31 78 27 80 29 82
REMARK Flexibility Score: inf
ROOT
ATOM      1  C   UNL     1      59.007  54.927  -1.620  1.00  0.00     0.205 C 
ATOM      2  C   UNL     1      57.628  55.598  -1.319  1.00  0.00     0.254 C 
ATOM      3  C   UNL     1      57.207  56.495  -2.500  1.00  0.00     0.267 C 
ATOM      4  C   UNL     1      58.358  57.464  -2.824  1.00  0.00     0.290 C 
ATOM      5  C   UNL     1      59.694  56.689  -3.008  1.00  0.00     0.357 C 
ATOM      6  O   UNL     1      59.500  55.287  -2.900  1.00  0.00    -0.329 OA
ENDROOT
BRANCH   1   7
ATOM      7  C   UNL     1      58.916  53.391  -1.574  1.00  0.00     0.269 C 
BRANCH   7   8
ATOM      8  O   UNL     1      59.173  52.918  -0.250  1.00  0.00    -0.459 OA
BRANCH   8   9
ATOM      9  C   UNL     1      60.325  53.245   0.490  1.00  0.00     0.338 C 
ATOM     10  O   UNL     1      61.138  54.084   0.017  1.00  0.00    -0.246 OA
BRANCH   9  11
ATOM     11  C   UNL     1      60.602  52.643   1.807  1.00  0.00     0.067 A 
ATOM     12  C   UNL     1      61.917  52.583   2.291  1.00  0.00     0.066 A 
ATOM     13  C   UNL     1      62.198  51.936   3.498  1.00  0.00     0.162 A 
ATOM     14  C   UNL     1      59.564  52.063   2.544  1.00  0.00     0.066 A 
ATOM     15  C   UNL     1      61.157  51.341   4.236  1.00  0.00     0.200 A 
ATOM     16  C   UNL     1      59.837  51.400   3.751  1.00  0.00     0.162 A 
BRANCH  13  17
ATOM     17  O   UNL     1      63.517  51.886   3.945  1.00  0.00    -0.504 OA
ATOM     18  H   UNL     1      64.117  51.087   3.767  1.00  0.00     0.293 HD
ENDBRANCH  13  17
BRANCH  15  19
ATOM     19  O   UNL     1      61.446  50.699   5.441  1.00  0.00    -0.502 OA
ATOM     20  H   UNL     1      61.547  49.695   5.508  1.00  0.00     0.293 HD
ENDBRANCH  15  19
BRANCH  16  21
ATOM     21  O   UNL     1      58.802  50.797   4.463  1.00  0.00    -0.504 OA
ATOM     22  H   UNL     1      58.978  50.039   5.112  1.00  0.00     0.293 HD
ENDBRANCH  16  21
ENDBRANCH   9  11
ENDBRANCH   8   9
ENDBRANCH   7   8
ENDBRANCH   1   7
BRANCH   2  23
ATOM     23  O   UNL     1      57.735  56.401  -0.142  1.00  0.00    -0.452 OA
BRANCH  23  24
ATOM     24  C   UNL     1      56.619  56.863   0.567  1.00  0.00     0.338 C 
ATOM     25  O   UNL     1      55.507  56.988  -0.018  1.00  0.00    -0.246 OA
BRANCH  24  26
ATOM     26  C   UNL     1      56.754  57.242   1.990  1.00  0.00     0.067 A 
ATOM     27  C   UNL     1      56.618  56.281   3.005  1.00  0.00     0.066 A 
ATOM     28  C   UNL     1      56.969  58.585   2.345  1.00  0.00     0.066 A 
ATOM     29  C   UNL     1      56.693  56.648   4.352  1.00  0.00     0.162 A 
ATOM     30  C   UNL     1      57.035  58.964   3.691  1.00  0.00     0.162 A 
ATOM     31  C   UNL     1      56.901  57.995   4.701  1.00  0.00     0.200 A 
BRANCH  29  32
ATOM     32  O   UNL     1      56.556  55.664   5.329  1.00  0.00    -0.504 OA
ATOM     33  H   UNL     1      56.957  54.740   5.224  1.00  0.00     0.293 HD
ENDBRANCH  29  32
BRANCH  30  34
ATOM     34  O   UNL     1      57.226  60.303   4.030  1.00  0.00    -0.504 OA
ATOM     35  H   UNL     1      57.908  60.582   4.724  1.00  0.00     0.293 HD
ENDBRANCH  30  34
BRANCH  31  36
ATOM     36  O   UNL     1      56.962  58.356   6.048  1.00  0.00    -0.502 OA
ATOM     37  H   UNL     1      56.199  58.174   6.689  1.00  0.00     0.293 HD
ENDBRANCH  31  36
ENDBRANCH  24  26
ENDBRANCH  23  24
ENDBRANCH   2  23
BRANCH   3  38
ATOM     38  O   UNL     1      56.953  55.698  -3.655  1.00  0.00    -0.450 OA
BRANCH  38  39
ATOM     39  C   UNL     1      56.673  56.203  -4.927  1.00  0.00     0.338 C 
ATOM     40  O   UNL     1      57.607  56.539  -5.705  1.00  0.00    -0.246 OA
BRANCH  39  41
ATOM     41  C   UNL     1      55.263  56.331  -5.345  1.00  0.00     0.067 A 
ATOM     42  C   UNL     1      54.421  55.207  -5.284  1.00  0.00     0.066 A 
ATOM     43  C   UNL     1      54.743  57.556  -5.798  1.00  0.00     0.066 A 
ATOM     44  C   UNL     1      53.076  55.305  -5.658  1.00  0.00     0.162 A 
ATOM     45  C   UNL     1      53.400  57.652  -6.190  1.00  0.00     0.162 A 
ATOM     46  C   UNL     1      52.561  56.526  -6.102  1.00  0.00     0.200 A 
BRANCH  44  47
ATOM     47  O   UNL     1      52.242  54.189  -5.587  1.00  0.00    -0.504 OA
ATOM     48  H   UNL     1      52.604  53.250  -5.708  1.00  0.00     0.293 HD
ENDBRANCH  44  47
BRANCH  45  49
ATOM     49  O   UNL     1      52.896  58.855  -6.688  1.00  0.00    -0.504 OA
ATOM     50  H   UNL     1      53.492  59.557  -7.111  1.00  0.00     0.293 HD
ENDBRANCH  45  49
BRANCH  46  51
ATOM     51  O   UNL     1      51.214  56.605  -6.465  1.00  0.00    -0.502 OA
ATOM     52  H   UNL     1      50.891  57.260  -7.163  1.00  0.00     0.293 HD
ENDBRANCH  46  51
ENDBRANCH  39  41
ENDBRANCH  38  39
ENDBRANCH   3  38
BRANCH   5  53
ATOM     53  O   UNL     1      60.248  56.955  -4.297  1.00  0.00    -0.428 OA
BRANCH  53  54
ATOM     54  C   UNL     1      61.625  56.881  -4.536  1.00  0.00     0.340 C 
ATOM     55  O   UNL     1      62.099  57.309  -5.626  1.00  0.00    -0.246 OA
BRANCH  54  56
ATOM     56  C   UNL     1      62.528  56.368  -3.484  1.00  0.00     0.067 A 
ATOM     57  C   UNL     1      62.880  57.171  -2.390  1.00  0.00     0.066 A 
ATOM     58  C   UNL     1      62.985  55.043  -3.534  1.00  0.00     0.066 A 
ATOM     59  C   UNL     1      63.661  56.654  -1.350  1.00  0.00     0.162 A 
ATOM     60  C   UNL     1      63.775  54.515  -2.505  1.00  0.00     0.162 A 
ATOM     61  C   UNL     1      64.120  55.330  -1.401  1.00  0.00     0.200 A 
BRANCH  59  62
ATOM     62  O   UNL     1      63.975  57.453  -0.250  1.00  0.00    -0.504 OA
ATOM     63  H   UNL     1      63.989  58.463  -0.317  1.00  0.00     0.293 HD
ENDBRANCH  59  62
BRANCH  60  64
ATOM     64  O   UNL     1      64.178  53.182  -2.617  1.00  0.00    -0.504 OA
ATOM     65  H   UNL     1      63.555  52.414  -2.816  1.00  0.00     0.293 HD
ENDBRANCH  60  64
BRANCH  61  66
ATOM     66  O   UNL     1      64.903  54.866  -0.343  1.00  0.00    -0.502 OA
ATOM     67  H   UNL     1      65.829  54.474  -0.459  1.00  0.00     0.293 HD
ENDBRANCH  61  66
ENDBRANCH  54  56
ENDBRANCH  53  54
ENDBRANCH   5  53
BRANCH   4  68
ATOM     68  O   UNL     1      58.025  58.215  -3.993  1.00  0.00    -0.448 OA
BRANCH  68  69
ATOM     69  C   UNL     1      57.631  59.558  -3.946  1.00  0.00     0.339 C 
ATOM     70  O   UNL     1      58.483  60.456  -3.699  1.00  0.00    -0.246 OA
BRANCH  69  71
ATOM     71  C   UNL     1      56.215  59.918  -4.160  1.00  0.00     0.067 A 
ATOM     72  C   UNL     1      55.312  59.909  -3.087  1.00  0.00     0.066 A 
ATOM     73  C   UNL     1      55.766  60.316  -5.428  1.00  0.00     0.066 A 
ATOM     74  C   UNL     1      53.979  60.305  -3.266  1.00  0.00     0.162 A 
ATOM     75  C   UNL     1      54.436  60.706  -5.622  1.00  0.00     0.162 A 
ATOM     76  C   UNL     1      53.535  60.709  -4.547  1.00  0.00     0.200 A 
BRANCH  74  77
ATOM     77  O   UNL     1      53.140  60.286  -2.148  1.00  0.00    -0.504 OA
ATOM     78  H   UNL     1      53.127  61.007  -1.440  1.00  0.00     0.293 HD
ENDBRANCH  74  77
BRANCH  75  79
ATOM     79  O   UNL     1      54.000  61.096  -6.888  1.00  0.00    -0.504 OA
ATOM     80  H   UNL     1      53.083  61.500  -7.033  1.00  0.00     0.293 HD
ENDBRANCH  75  79
BRANCH  76  81
ATOM     81  O   UNL     1      52.224  61.122  -4.794  1.00  0.00    -0.502 OA
ATOM     82  H   UNL     1      51.631  61.565  -4.106  1.00  0.00     0.293 HD
ENDBRANCH  76  81
ENDBRANCH  69  71
ENDBRANCH  68  69
ENDBRANCH   4  68
TORSDOF 31
ENDMDL
MODEL 3
REMARK VINA RESULT:   100.339      1.636      6.892
REMARK INTER + INTRA:         238.608
REMARK INTER:                 236.657
REMARK INTRA:                   1.951
REMARK UNBOUND:                 0.422
REMARK SMILES O=C(OC[C@H]1O[C@@H](OC(=O)c2cc(O)c(O)c(O)c2)[C@@H](OC(=O)c2cc(O)c(O)c(O)c2)[C@@H](OC(=O)c2cc(O)c(O)c(O)c2)[C@@H]1OC(=O)c1cc(O)c(O)c(O)c1)c1cc(O)c(O)c(O)c1
REMARK SMILES IDX 5 1 46 2 33 3 20 4 7 5 6 6 4 7 3 8 2 9 1 10 59 11 60 12
REMARK SMILES IDX 61 13 67 14 63 15 65 16 62 17 64 19 66 21 47 23 48 24 49 25
REMARK SMILES IDX 50 26 58 27 51 28 56 29 52 30 54 31 57 32 53 34 55 36 34 38
REMARK SMILES IDX 35 39 36 40 37 41 45 42 38 43 43 44 39 45 41 46 44 47 40 49
REMARK SMILES IDX 42 51 8 53 9 54 10 55 11 56 19 57 12 58 17 59 13 60 15 61
REMARK SMILES IDX 18 62 14 64 16 66 21 68 22 69 23 70 24 71 32 72 25 73 30 74
REMARK SMILES IDX 26 75 28 76 31 77 27 79 29 81
REMARK H PARENT 62 18 64 20 66 22 57 33 53 35 55 37 44 48 40 50 42 52 18 63
REMARK H PARENT 14 65 16 67 31 78 27 80 29 82
REMARK Flexibility Score: inf
ROOT
ATOM      1  C   UNL     1      58.468  54.882  -3.642  1.00  0.00     0.205 C 
ATOM      2  C   UNL     1      58.742  55.757  -4.909  1.00  0.00     0.254 C 
ATOM      3  C   UNL     1      59.205  57.166  -4.489  1.00  0.00     0.267 C 
ATOM      4  C   UNL     1      58.189  57.747  -3.490  1.00  0.00     0.290 C 
ATOM      5  C   UNL     1      57.928  56.748  -2.327  1.00  0.00     0.357 C 
ATOM      6  O   UNL     1      58.742  55.590  -2.444  1.00  0.00    -0.329 OA
ENDROOT
BRANCH   1   7
ATOM      7  C   UNL     1      59.331  53.607  -3.633  1.00  0.00     0.269 C 
BRANCH   7   8
ATOM      8  O   UNL     1      59.974  53.453  -2.366  1.00  0.00    -0.459 OA
BRANCH   8   9
ATOM      9  C   UNL     1      59.318  53.012  -1.202  1.00  0.00     0.338 C 
ATOM     10  O   UNL     1      58.172  52.497  -1.303  1.00  0.00    -0.246 OA
BRANCH   9  11
ATOM     11  C   UNL     1      59.938  53.122   0.131  1.00  0.00     0.067 A 
ATOM     12  C   UNL     1      59.644  52.177   1.125  1.00  0.00     0.066 A 
ATOM     13  C   UNL     1      60.159  52.324   2.416  1.00  0.00     0.162 A 
ATOM     14  C   UNL     1      60.763  54.211   0.432  1.00  0.00     0.066 A 
ATOM     15  C   UNL     1      60.979  53.426   2.725  1.00  0.00     0.200 A 
ATOM     16  C   UNL     1      61.275  54.375   1.729  1.00  0.00     0.162 A 
BRANCH  13  17
ATOM     17  O   UNL     1      59.839  51.372   3.382  1.00  0.00    -0.504 OA
ATOM     18  H   UNL     1      59.790  50.381   3.167  1.00  0.00     0.293 HD
ENDBRANCH  13  17
BRANCH  15  19
ATOM     19  O   UNL     1      61.492  53.564   4.016  1.00  0.00    -0.502 OA
ATOM     20  H   UNL     1      62.051  52.846   4.456  1.00  0.00     0.293 HD
ENDBRANCH  15  19
BRANCH  16  21
ATOM     21  O   UNL     1      62.069  55.480   2.028  1.00  0.00    -0.504 OA
ATOM     22  H   UNL     1      61.661  56.375   2.270  1.00  0.00     0.293 HD
ENDBRANCH  16  21
ENDBRANCH   9  11
ENDBRANCH   8   9
ENDBRANCH   7   8
ENDBRANCH   1   7
BRANCH   2  23
ATOM     23  O   UNL     1      57.542  55.873  -5.676  1.00  0.00    -0.452 OA
BRANCH  23  24
ATOM     24  C   UNL     1      56.534  56.797  -5.375  1.00  0.00     0.338 C 
ATOM     25  O   UNL     1      56.837  57.940  -4.934  1.00  0.00    -0.246 OA
BRANCH  24  26
ATOM     26  C   UNL     1      55.114  56.417  -5.534  1.00  0.00     0.067 A 
ATOM     27  C   UNL     1      54.682  55.114  -5.235  1.00  0.00     0.066 A 
ATOM     28  C   UNL     1      54.187  57.345  -6.037  1.00  0.00     0.066 A 
ATOM     29  C   UNL     1      53.350  54.739  -5.435  1.00  0.00     0.162 A 
ATOM     30  C   UNL     1      52.854  56.976  -6.251  1.00  0.00     0.162 A 
ATOM     31  C   UNL     1      52.429  55.672  -5.946  1.00  0.00     0.200 A 
BRANCH  29  32
ATOM     32  O   UNL     1      52.960  53.438  -5.124  1.00  0.00    -0.504 OA
ATOM     33  H   UNL     1      52.648  53.175  -4.197  1.00  0.00     0.293 HD
ENDBRANCH  29  32
BRANCH  30  34
ATOM     34  O   UNL     1      51.949  57.901  -6.772  1.00  0.00    -0.504 OA
ATOM     35  H   UNL     1      51.292  58.393  -6.179  1.00  0.00     0.293 HD
ENDBRANCH  30  34
BRANCH  31  36
ATOM     36  O   UNL     1      51.103  55.286  -6.156  1.00  0.00    -0.502 OA
ATOM     37  H   UNL     1      50.764  54.365  -5.907  1.00  0.00     0.293 HD
ENDBRANCH  31  36
ENDBRANCH  24  26
ENDBRANCH  23  24
ENDBRANCH   2  23
BRANCH   3  38
ATOM     38  O   UNL     1      60.476  57.093  -3.844  1.00  0.00    -0.450 OA
BRANCH  38  39
ATOM     39  C   UNL     1      61.622  56.521  -4.402  1.00  0.00     0.338 C 
ATOM     40  O   UNL     1      61.857  56.626  -5.637  1.00  0.00    -0.246 OA
BRANCH  39  41
ATOM     41  C   UNL     1      62.555  55.795  -3.517  1.00  0.00     0.067 A 
ATOM     42  C   UNL     1      62.725  56.229  -2.190  1.00  0.00     0.066 A 
ATOM     43  C   UNL     1      63.273  54.677  -3.972  1.00  0.00     0.066 A 
ATOM     44  C   UNL     1      63.591  55.550  -1.326  1.00  0.00     0.162 A 
ATOM     45  C   UNL     1      64.154  54.005  -3.113  1.00  0.00     0.162 A 
ATOM     46  C   UNL     1      64.298  54.433  -1.781  1.00  0.00     0.200 A 
BRANCH  44  47
ATOM     47  O   UNL     1      63.749  55.978  -0.008  1.00  0.00    -0.504 OA
ATOM     48  H   UNL     1      63.689  56.960   0.239  1.00  0.00     0.293 HD
ENDBRANCH  44  47
BRANCH  45  49
ATOM     49  O   UNL     1      64.906  52.925  -3.579  1.00  0.00    -0.504 OA
ATOM     50  H   UNL     1      64.490  52.162  -4.101  1.00  0.00     0.293 HD
ENDBRANCH  45  49
BRANCH  46  51
ATOM     51  O   UNL     1      65.152  53.765  -0.901  1.00  0.00    -0.502 OA
ATOM     52  H   UNL     1      65.915  53.191  -1.234  1.00  0.00     0.293 HD
ENDBRANCH  46  51
ENDBRANCH  39  41
ENDBRANCH  38  39
ENDBRANCH   3  38
BRANCH   5  53
ATOM     53  O   UNL     1      58.221  57.361  -1.070  1.00  0.00    -0.428 OA
BRANCH  53  54
ATOM     54  C   UNL     1      57.276  57.417  -0.040  1.00  0.00     0.340 C 
ATOM     55  O   UNL     1      57.639  57.709   1.133  1.00  0.00    -0.246 OA
BRANCH  54  56
ATOM     56  C   UNL     1      55.844  57.204  -0.342  1.00  0.00     0.067 A 
ATOM     57  C   UNL     1      55.253  55.948  -0.152  1.00  0.00     0.066 A 
ATOM     58  C   UNL     1      55.045  58.282  -0.754  1.00  0.00     0.066 A 
ATOM     59  C   UNL     1      53.878  55.771  -0.353  1.00  0.00     0.162 A 
ATOM     60  C   UNL     1      53.671  58.117  -0.966  1.00  0.00     0.162 A 
ATOM     61  C   UNL     1      53.079  56.847  -0.766  1.00  0.00     0.200 A 
BRANCH  59  62
ATOM     62  O   UNL     1      53.295  54.524  -0.126  1.00  0.00    -0.504 OA
ATOM     63  H   UNL     1      52.331  54.339  -0.373  1.00  0.00     0.293 HD
ENDBRANCH  59  62
BRANCH  60  64
ATOM     64  O   UNL     1      52.938  59.239  -1.360  1.00  0.00    -0.504 OA
ATOM     65  H   UNL     1      52.148  59.212  -1.987  1.00  0.00     0.293 HD
ENDBRANCH  60  64
BRANCH  61  66
ATOM     66  O   UNL     1      51.716  56.615  -0.961  1.00  0.00    -0.502 OA
ATOM     67  H   UNL     1      51.042  56.569  -0.208  1.00  0.00     0.293 HD
ENDBRANCH  61  66
ENDBRANCH  54  56
ENDBRANCH  53  54
ENDBRANCH   5  53
BRANCH   4  68
ATOM     68  O   UNL     1      58.673  59.000  -3.002  1.00  0.00    -0.448 OA
BRANCH  68  69
ATOM     69  C   UNL     1      57.892  60.162  -2.990  1.00  0.00     0.339 C 
ATOM     70  O   UNL     1      58.200  61.121  -2.229  1.00  0.00    -0.246 OA
BRANCH  69  71
ATOM     71  C   UNL     1      56.693  60.253  -3.848  1.00  0.00     0.067 A 
ATOM     72  C   UNL     1      55.423  60.420  -3.276  1.00  0.00     0.066 A 
ATOM     73  C   UNL     1      56.814  60.218  -5.245  1.00  0.00     0.066 A 
ATOM     74  C   UNL     1      54.285  60.565  -4.082  1.00  0.00     0.162 A 
ATOM     75  C   UNL     1      55.685  60.354  -6.061  1.00  0.00     0.162 A 
ATOM     76  C   UNL     1      54.417  60.533  -5.491  1.00  0.00     0.200 A 
BRANCH  74  77
ATOM     77  O   UNL     1      53.055  60.743  -3.443  1.00  0.00    -0.504 OA
ATOM     78  H   UNL     1      52.182  60.890  -3.929  1.00  0.00     0.293 HD
ENDBRANCH  74  77
BRANCH  75  79
ATOM     79  O   UNL     1      55.818  60.314  -7.449  1.00  0.00    -0.504 OA
ATOM     80  H   UNL     1      55.912  61.160  -7.998  1.00  0.00     0.293 HD
ENDBRANCH  75  79
BRANCH  76  81
ATOM     81  O   UNL     1      53.327  60.679  -6.351  1.00  0.00    -0.502 OA
ATOM     82  H   UNL     1      52.395  60.926  -6.049  1.00  0.00     0.293 HD
ENDBRANCH  76  81
ENDBRANCH  69  71
ENDBRANCH  68  69
ENDBRANCH   4  68
TORSDOF 31
ENDMDL
