MODEL 1
REMARK VINA RESULT:    -2.923      0.000      0.000
REMARK INTER + INTRA:         -13.126
REMARK INTER:                  -7.623
REMARK INTRA:                  -5.503
REMARK UNBOUND:                -5.503
REMARK SMILES CCCCCCCCCCCCCCCCCCCCCCCCCCCCCO
REMARK SMILES IDX 16 1 15 2 14 3 13 4 12 5 11 6 10 7 9 8 8 9 7 10 6 11 5 12
REMARK SMILES IDX 4 13 3 14 2 15 1 16 17 17 18 18 19 19 20 20 21 21 22 22
REMARK SMILES IDX 23 23 24 24 25 25 26 26 27 27 28 28 29 29 30 30
REMARK H PARENT 30 31
REMARK Flexibility Score: inf
ROOT
ATOM      1  C   UNL     1     169.855 173.700 160.072  1.00  0.00     0.000 C 
ENDROOT
BRANCH   1   2
ATOM      2  C   UNL     1     169.258 174.622 158.994  1.00  0.00     0.000 C 
BRANCH   2   3
ATOM      3  C   UNL     1     168.865 176.004 159.546  1.00  0.00     0.000 C 
BRANCH   3   4
ATOM      4  C   UNL     1     169.204 176.157 161.042  1.00  0.00     0.000 C 
BRANCH   4   5
ATOM      5  C   UNL     1     167.977 176.405 161.945  1.00  0.00     0.000 C 
BRANCH   5   6
ATOM      6  C   UNL     1     166.629 176.388 161.198  1.00  0.00     0.000 C 
BRANCH   6   7
ATOM      7  C   UNL     1     165.469 176.908 162.065  1.00  0.00     0.000 C 
BRANCH   7   8
ATOM      8  C   UNL     1     164.557 175.779 162.575  1.00  0.00    -0.000 C 
BRANCH   8   9
ATOM      9  C   UNL     1     164.163 174.731 161.514  1.00  0.00    -0.000 C 
BRANCH   9  10
ATOM     10  C   UNL     1     162.836 173.997 161.783  1.00  0.00    -0.000 C 
BRANCH  10  11
ATOM     11  C   UNL     1     162.629 172.784 160.865  1.00  0.00    -0.000 C 
BRANCH  11  12
ATOM     12  C   UNL     1     163.893 171.913 160.806  1.00  0.00    -0.000 C 
BRANCH  12  13
ATOM     13  C   UNL     1     163.962 171.040 159.540  1.00  0.00    -0.000 C 
BRANCH  13  14
ATOM     14  C   UNL     1     165.351 170.452 159.229  1.00  0.00    -0.000 C 
BRANCH  14  15
ATOM     15  C   UNL     1     165.925 170.945 157.893  1.00  0.00    -0.003 C 
ATOM     16  C   UNL     1     166.141 172.457 157.914  1.00  0.00     0.004 C 
ENDBRANCH  14  15
ENDBRANCH  13  14
ENDBRANCH  12  13
ENDBRANCH  11  12
ENDBRANCH  10  11
ENDBRANCH   9  10
ENDBRANCH   8   9
ENDBRANCH   7   8
ENDBRANCH   6   7
ENDBRANCH   5   6
ENDBRANCH   4   5
ENDBRANCH   3   4
ENDBRANCH   2   3
ENDBRANCH   1   2
BRANCH   1  17
ATOM     17  C   UNL     1     169.492 172.209 159.921  1.00  0.00     0.000 C 
BRANCH  17  18
ATOM     18  C   UNL     1     168.397 171.702 160.881  1.00  0.00     0.000 C 
BRANCH  18  19
ATOM     19  C   UNL     1     167.387 172.771 161.340  1.00  0.00     0.000 C 
BRANCH  19  20
ATOM     20  C   UNL     1     167.133 172.817 162.859  1.00  0.00     0.000 C 
BRANCH  20  21
ATOM     21  C   UNL     1     168.376 172.481 163.711  1.00  0.00     0.000 C 
BRANCH  21  22
ATOM     22  C   UNL     1     169.287 173.701 163.941  1.00  0.00     0.000 C 
BRANCH  22  23
ATOM     23  C   UNL     1     170.771 173.380 163.662  1.00  0.00     0.000 C 
BRANCH  23  24
ATOM     24  C   UNL     1     171.121 171.892 163.834  1.00  0.00     0.000 C 
BRANCH  24  25
ATOM     25  C   UNL     1     172.121 171.389 162.782  1.00  0.00     0.000 C 
BRANCH  25  26
ATOM     26  C   UNL     1     173.171 172.462 162.469  1.00  0.00     0.000 C 
BRANCH  26  27
ATOM     27  C   UNL     1     173.322 172.660 160.956  1.00  0.00     0.002 C 
BRANCH  27  28
ATOM     28  C   UNL     1     173.502 171.315 160.241  1.00  0.00     0.028 C 
BRANCH  28  29
ATOM     29  C   UNL     1     174.985 170.987 160.047  1.00  0.00     0.156 C 
BRANCH  29  30
ATOM     30  O   UNL     1     175.432 170.145 161.074  1.00  0.00    -0.396 OA
ATOM     31  H   UNL     1     175.678 170.732 161.837  1.00  0.00     0.210 HD
ENDBRANCH  29  30
ENDBRANCH  28  29
ENDBRANCH  27  28
ENDBRANCH  26  27
ENDBRANCH  25  26
ENDBRANCH  24  25
ENDBRANCH  23  24
ENDBRANCH  22  23
ENDBRANCH  21  22
ENDBRANCH  20  21
ENDBRANCH  19  20
ENDBRANCH  18  19
ENDBRANCH  17  18
ENDBRANCH   1  17
TORSDOF 28
ENDMDL
MODEL 2
REMARK VINA RESULT:    -2.860      3.435      7.978
REMARK INTER + INTRA:         -12.962
REMARK INTER:                  -7.545
REMARK INTRA:                  -5.418
REMARK UNBOUND:                -5.503
REMARK SMILES CCCCCCCCCCCCCCCCCCCCCCCCCCCCCO
REMARK SMILES IDX 16 1 15 2 14 3 13 4 12 5 11 6 10 7 9 8 8 9 7 10 6 11 5 12
REMARK SMILES IDX 4 13 3 14 2 15 1 16 17 17 18 18 19 19 20 20 21 21 22 22
REMARK SMILES IDX 23 23 24 24 25 25 26 26 27 27 28 28 29 29 30 30
REMARK H PARENT 30 31
REMARK Flexibility Score: inf
ROOT
ATOM      1  C   UNL     1     166.015 169.287 158.571  1.00  0.00     0.000 C 
ENDROOT
BRANCH   1   2
ATOM      2  C   UNL     1     166.509 170.439 159.464  1.00  0.00     0.000 C 
BRANCH   2   3
ATOM      3  C   UNL     1     168.028 170.661 159.361  1.00  0.00     0.000 C 
BRANCH   3   4
ATOM      4  C   UNL     1     168.407 172.154 159.402  1.00  0.00     0.000 C 
BRANCH   4   5
ATOM      5  C   UNL     1     167.599 173.038 158.430  1.00  0.00     0.000 C 
BRANCH   5   6
ATOM      6  C   UNL     1     167.314 174.459 158.955  1.00  0.00     0.000 C 
BRANCH   6   7
ATOM      7  C   UNL     1     167.868 174.687 160.372  1.00  0.00     0.000 C 
BRANCH   7   8
ATOM      8  C   UNL     1     166.846 175.356 161.308  1.00  0.00    -0.000 C 
BRANCH   8   9
ATOM      9  C   UNL     1     166.423 174.507 162.524  1.00  0.00    -0.000 C 
BRANCH   9  10
ATOM     10  C   UNL     1     166.599 172.986 162.351  1.00  0.00    -0.000 C 
BRANCH  10  11
ATOM     11  C   UNL     1     167.714 172.410 163.236  1.00  0.00    -0.000 C 
BRANCH  11  12
ATOM     12  C   UNL     1     168.456 173.527 163.986  1.00  0.00    -0.000 C 
BRANCH  12  13
ATOM     13  C   UNL     1     169.979 173.491 163.762  1.00  0.00    -0.000 C 
BRANCH  13  14
ATOM     14  C   UNL     1     170.424 172.958 162.387  1.00  0.00    -0.000 C 
BRANCH  14  15
ATOM     15  C   UNL     1     171.466 171.836 162.488  1.00  0.00    -0.003 C 
ATOM     16  C   UNL     1     171.847 171.571 163.943  1.00  0.00     0.004 C 
ENDBRANCH  14  15
ENDBRANCH  13  14
ENDBRANCH  12  13
ENDBRANCH  11  12
ENDBRANCH  10  11
ENDBRANCH   9  10
ENDBRANCH   8   9
ENDBRANCH   7   8
ENDBRANCH   6   7
ENDBRANCH   5   6
ENDBRANCH   4   5
ENDBRANCH   3   4
ENDBRANCH   2   3
ENDBRANCH   1   2
BRANCH   1  17
ATOM     17  C   UNL     1     164.784 169.621 157.706  1.00  0.00     0.000 C 
BRANCH  17  18
ATOM     18  C   UNL     1     164.786 171.031 157.083  1.00  0.00     0.000 C 
BRANCH  18  19
ATOM     19  C   UNL     1     163.392 171.637 156.836  1.00  0.00     0.000 C 
BRANCH  19  20
ATOM     20  C   UNL     1     162.939 172.676 157.880  1.00  0.00     0.000 C 
BRANCH  20  21
ATOM     21  C   UNL     1     164.027 173.038 158.914  1.00  0.00     0.000 C 
BRANCH  21  22
ATOM     22  C   UNL     1     163.511 172.986 160.364  1.00  0.00     0.000 C 
BRANCH  22  23
ATOM     23  C   UNL     1     162.428 171.903 160.557  1.00  0.00     0.000 C 
BRANCH  23  24
ATOM     24  C   UNL     1     162.984 170.469 160.549  1.00  0.00     0.000 C 
BRANCH  24  25
ATOM     25  C   UNL     1     161.911 169.415 160.240  1.00  0.00     0.000 C 
BRANCH  25  26
ATOM     26  C   UNL     1     160.971 169.900 159.130  1.00  0.00     0.000 C 
BRANCH  26  27
ATOM     27  C   UNL     1     160.884 168.874 157.994  1.00  0.00     0.002 C 
BRANCH  27  28
ATOM     28  C   UNL     1     161.840 167.700 158.239  1.00  0.00     0.028 C 
BRANCH  28  29
ATOM     29  C   UNL     1     161.070 166.387 158.404  1.00  0.00     0.156 C 
BRANCH  29  30
ATOM     30  O   UNL     1     161.611 165.638 159.458  1.00  0.00    -0.396 OA
ATOM     31  H   UNL     1     162.564 165.475 159.230  1.00  0.00     0.210 HD
ENDBRANCH  29  30
ENDBRANCH  28  29
ENDBRANCH  27  28
ENDBRANCH  26  27
ENDBRANCH  25  26
ENDBRANCH  24  25
ENDBRANCH  23  24
ENDBRANCH  22  23
ENDBRANCH  21  22
ENDBRANCH  20  21
ENDBRANCH  19  20
ENDBRANCH  18  19
ENDBRANCH  17  18
ENDBRANCH   1  17
TORSDOF 28
ENDMDL
MODEL 3
REMARK VINA RESULT:    -2.839      2.426      5.944
REMARK INTER + INTRA:         -12.907
REMARK INTER:                  -8.439
REMARK INTRA:                  -4.468
REMARK UNBOUND:                -5.503
REMARK SMILES CCCCCCCCCCCCCCCCCCCCCCCCCCCCCO
REMARK SMILES IDX 16 1 15 2 14 3 13 4 12 5 11 6 10 7 9 8 8 9 7 10 6 11 5 12
REMARK SMILES IDX 4 13 3 14 2 15 1 16 17 17 18 18 19 19 20 20 21 21 22 22
REMARK SMILES IDX 23 23 24 24 25 25 26 26 27 27 28 28 29 29 30 30
REMARK H PARENT 30 31
REMARK Flexibility Score: inf
ROOT
ATOM      1  C   UNL     1     173.931 172.572 162.198  1.00  0.00     0.000 C 
ENDROOT
BRANCH   1   2
ATOM      2  C   UNL     1     173.024 171.348 162.420  1.00  0.00     0.000 C 
BRANCH   2   3
ATOM      3  C   UNL     1     172.202 171.446 163.718  1.00  0.00     0.000 C 
BRANCH   3   4
ATOM      4  C   UNL     1     171.480 172.800 163.855  1.00  0.00     0.000 C 
BRANCH   4   5
ATOM      5  C   UNL     1     169.955 172.728 163.634  1.00  0.00     0.000 C 
BRANCH   5   6
ATOM      6  C   UNL     1     169.533 172.649 162.153  1.00  0.00     0.000 C 
BRANCH   6   7
ATOM      7  C   UNL     1     169.919 173.910 161.362  1.00  0.00     0.000 C 
BRANCH   7   8
ATOM      8  C   UNL     1     168.696 174.739 160.933  1.00  0.00    -0.000 C 
BRANCH   8   9
ATOM      9  C   UNL     1     167.921 175.402 162.090  1.00  0.00    -0.000 C 
BRANCH   9  10
ATOM     10  C   UNL     1     166.431 175.023 162.180  1.00  0.00    -0.000 C 
BRANCH  10  11
ATOM     11  C   UNL     1     166.158 173.919 163.210  1.00  0.00    -0.000 C 
BRANCH  11  12
ATOM     12  C   UNL     1     165.974 172.556 162.525  1.00  0.00    -0.000 C 
BRANCH  12  13
ATOM     13  C   UNL     1     164.847 172.559 161.476  1.00  0.00    -0.000 C 
BRANCH  13  14
ATOM     14  C   UNL     1     164.542 171.188 160.844  1.00  0.00    -0.000 C 
BRANCH  14  15
ATOM     15  C   UNL     1     163.091 171.063 160.358  1.00  0.00    -0.003 C 
ATOM     16  C   UNL     1     162.996 170.139 159.146  1.00  0.00     0.004 C 
ENDBRANCH  14  15
ENDBRANCH  13  14
ENDBRANCH  12  13
ENDBRANCH  11  12
ENDBRANCH  10  11
ENDBRANCH   9  10
ENDBRANCH   8   9
ENDBRANCH   7   8
ENDBRANCH   6   7
ENDBRANCH   5   6
ENDBRANCH   4   5
ENDBRANCH   3   4
ENDBRANCH   2   3
ENDBRANCH   1   2
BRANCH   1  17
ATOM     17  C   UNL     1     175.300 172.256 161.565  1.00  0.00     0.000 C 
BRANCH  17  18
ATOM     18  C   UNL     1     175.442 170.831 160.992  1.00  0.00     0.000 C 
BRANCH  18  19
ATOM     19  C   UNL     1     175.455 170.746 159.454  1.00  0.00     0.000 C 
BRANCH  19  20
ATOM     20  C   UNL     1     174.066 170.637 158.795  1.00  0.00     0.000 C 
BRANCH  20  21
ATOM     21  C   UNL     1     173.496 171.989 158.313  1.00  0.00     0.000 C 
BRANCH  21  22
ATOM     22  C   UNL     1     172.084 172.267 158.861  1.00  0.00     0.000 C 
BRANCH  22  23
ATOM     23  C   UNL     1     171.304 170.967 159.146  1.00  0.00     0.000 C 
BRANCH  23  24
ATOM     24  C   UNL     1     170.059 170.788 158.260  1.00  0.00     0.000 C 
BRANCH  24  25
ATOM     25  C   UNL     1     168.903 171.715 158.662  1.00  0.00     0.000 C 
BRANCH  25  26
ATOM     26  C   UNL     1     167.751 170.916 159.284  1.00  0.00     0.000 C 
BRANCH  26  27
ATOM     27  C   UNL     1     167.808 169.444 158.857  1.00  0.00     0.002 C 
BRANCH  27  28
ATOM     28  C   UNL     1     166.475 168.998 158.245  1.00  0.00     0.028 C 
BRANCH  28  29
ATOM     29  C   UNL     1     166.700 168.114 157.015  1.00  0.00     0.156 C 
BRANCH  29  30
ATOM     30  O   UNL     1     166.951 166.792 157.408  1.00  0.00    -0.396 OA
ATOM     31  H   UNL     1     167.873 166.577 157.109  1.00  0.00     0.210 HD
ENDBRANCH  29  30
ENDBRANCH  28  29
ENDBRANCH  27  28
ENDBRANCH  26  27
ENDBRANCH  25  26
ENDBRANCH  24  25
ENDBRANCH  23  24
ENDBRANCH  22  23
ENDBRANCH  21  22
ENDBRANCH  20  21
ENDBRANCH  19  20
ENDBRANCH  18  19
ENDBRANCH  17  18
ENDBRANCH   1  17
TORSDOF 28
ENDMDL
MODEL 4
REMARK VINA RESULT:    -2.818      2.311      7.581
REMARK INTER + INTRA:         -12.853
REMARK INTER:                  -7.661
REMARK INTRA:                  -5.191
REMARK UNBOUND:                -5.503
REMARK SMILES CCCCCCCCCCCCCCCCCCCCCCCCCCCCCO
REMARK SMILES IDX 16 1 15 2 14 3 13 4 12 5 11 6 10 7 9 8 8 9 7 10 6 11 5 12
REMARK SMILES IDX 4 13 3 14 2 15 1 16 17 17 18 18 19 19 20 20 21 21 22 22
REMARK SMILES IDX 23 23 24 24 25 25 26 26 27 27 28 28 29 29 30 30
REMARK H PARENT 30 31
REMARK Flexibility Score: inf
ROOT
ATOM      1  C   UNL     1     169.843 172.523 163.547  1.00  0.00     0.000 C 
ENDROOT
BRANCH   1   2
ATOM      2  C   UNL     1     171.357 172.742 163.715  1.00  0.00     0.000 C 
BRANCH   2   3
ATOM      3  C   UNL     1     172.136 171.422 163.859  1.00  0.00     0.000 C 
BRANCH   3   4
ATOM      4  C   UNL     1     173.128 171.196 162.701  1.00  0.00     0.000 C 
BRANCH   4   5
ATOM      5  C   UNL     1     173.952 172.445 162.323  1.00  0.00     0.000 C 
BRANCH   5   6
ATOM      6  C   UNL     1     175.182 172.149 161.443  1.00  0.00     0.000 C 
BRANCH   6   7
ATOM      7  C   UNL     1     174.958 170.956 160.498  1.00  0.00     0.000 C 
BRANCH   7   8
ATOM      8  C   UNL     1     174.959 171.366 159.015  1.00  0.00    -0.000 C 
BRANCH   8   9
ATOM      9  C   UNL     1     173.649 171.070 158.256  1.00  0.00    -0.000 C 
BRANCH   9  10
ATOM     10  C   UNL     1     172.522 170.463 159.112  1.00  0.00    -0.000 C 
BRANCH  10  11
ATOM     11  C   UNL     1     171.165 171.142 158.879  1.00  0.00    -0.000 C 
BRANCH  11  12
ATOM     12  C   UNL     1     170.769 172.014 160.080  1.00  0.00    -0.000 C 
BRANCH  12  13
ATOM     13  C   UNL     1     171.311 173.452 159.982  1.00  0.00    -0.000 C 
BRANCH  13  14
ATOM     14  C   UNL     1     171.253 174.075 158.574  1.00  0.00    -0.000 C 
BRANCH  14  15
ATOM     15  C   UNL     1     172.541 174.822 158.198  1.00  0.00    -0.003 C 
ATOM     16  C   UNL     1     173.555 174.776 159.339  1.00  0.00     0.004 C 
ENDBRANCH  14  15
ENDBRANCH  13  14
ENDBRANCH  12  13
ENDBRANCH  11  12
ENDBRANCH  10  11
ENDBRANCH   9  10
ENDBRANCH   8   9
ENDBRANCH   7   8
ENDBRANCH   6   7
ENDBRANCH   5   6
ENDBRANCH   4   5
ENDBRANCH   3   4
ENDBRANCH   2   3
ENDBRANCH   1   2
BRANCH   1  17
ATOM     17  C   UNL     1     168.960 173.662 164.092  1.00  0.00     0.000 C 
BRANCH  17  18
ATOM     18  C   UNL     1     167.839 174.131 163.143  1.00  0.00     0.000 C 
BRANCH  18  19
ATOM     19  C   UNL     1     168.318 174.898 161.896  1.00  0.00     0.000 C 
BRANCH  19  20
ATOM     20  C   UNL     1     167.922 176.387 161.855  1.00  0.00     0.000 C 
BRANCH  20  21
ATOM     21  C   UNL     1     166.396 176.628 161.872  1.00  0.00     0.000 C 
BRANCH  21  22
ATOM     22  C   UNL     1     165.710 176.184 160.566  1.00  0.00     0.000 C 
BRANCH  22  23
ATOM     23  C   UNL     1     164.360 175.483 160.827  1.00  0.00     0.000 C 
BRANCH  23  24
ATOM     24  C   UNL     1     164.391 174.516 162.023  1.00  0.00     0.000 C 
BRANCH  24  25
ATOM     25  C   UNL     1     163.968 173.089 161.647  1.00  0.00     0.000 C 
BRANCH  25  26
ATOM     26  C   UNL     1     165.157 172.124 161.741  1.00  0.00     0.000 C 
BRANCH  26  27
ATOM     27  C   UNL     1     165.919 172.057 160.412  1.00  0.00     0.002 C 
BRANCH  27  28
ATOM     28  C   UNL     1     167.288 171.390 160.597  1.00  0.00     0.028 C 
BRANCH  28  29
ATOM     29  C   UNL     1     167.411 170.133 159.732  1.00  0.00     0.156 C 
BRANCH  29  30
ATOM     30  O   UNL     1     166.220 169.913 159.025  1.00  0.00    -0.396 OA
ATOM     31  H   UNL     1     166.291 170.432 158.181  1.00  0.00     0.210 HD
ENDBRANCH  29  30
ENDBRANCH  28  29
ENDBRANCH  27  28
ENDBRANCH  26  27
ENDBRANCH  25  26
ENDBRANCH  24  25
ENDBRANCH  23  24
ENDBRANCH  22  23
ENDBRANCH  21  22
ENDBRANCH  20  21
ENDBRANCH  19  20
ENDBRANCH  18  19
ENDBRANCH  17  18
ENDBRANCH   1  17
TORSDOF 28
ENDMDL
MODEL 5
REMARK VINA RESULT:    -2.817      2.367      6.846
REMARK INTER + INTRA:         -12.850
REMARK INTER:                  -6.762
REMARK INTRA:                  -6.088
REMARK UNBOUND:                -5.503
REMARK SMILES CCCCCCCCCCCCCCCCCCCCCCCCCCCCCO
REMARK SMILES IDX 16 1 15 2 14 3 13 4 12 5 11 6 10 7 9 8 8 9 7 10 6 11 5 12
REMARK SMILES IDX 4 13 3 14 2 15 1 16 17 17 18 18 19 19 20 20 21 21 22 22
REMARK SMILES IDX 23 23 24 24 25 25 26 26 27 27 28 28 29 29 30 30
REMARK H PARENT 30 31
REMARK Flexibility Score: inf
ROOT
ATOM      1  C   UNL     1     168.706 175.141 158.340  1.00  0.00     0.000 C 
ENDROOT
BRANCH   1   2
ATOM      2  C   UNL     1     170.075 174.594 158.782  1.00  0.00     0.000 C 
BRANCH   2   3
ATOM      3  C   UNL     1     169.962 173.277 159.570  1.00  0.00     0.000 C 
BRANCH   3   4
ATOM      4  C   UNL     1     170.900 173.241 160.792  1.00  0.00     0.000 C 
BRANCH   4   5
ATOM      5  C   UNL     1     170.801 171.947 161.627  1.00  0.00     0.000 C 
BRANCH   5   6
ATOM      6  C   UNL     1     171.434 172.049 163.029  1.00  0.00     0.000 C 
BRANCH   6   7
ATOM      7  C   UNL     1     172.936 172.374 162.976  1.00  0.00     0.000 C 
BRANCH   7   8
ATOM      8  C   UNL     1     173.775 171.214 162.412  1.00  0.00    -0.000 C 
BRANCH   8   9
ATOM      9  C   UNL     1     174.912 171.635 161.459  1.00  0.00    -0.000 C 
BRANCH   9  10
ATOM     10  C   UNL     1     174.918 173.125 161.068  1.00  0.00    -0.000 C 
BRANCH  10  11
ATOM     11  C   UNL     1     174.302 173.382 159.686  1.00  0.00    -0.000 C 
BRANCH  11  12
ATOM     12  C   UNL     1     174.422 172.141 158.788  1.00  0.00    -0.000 C 
BRANCH  12  13
ATOM     13  C   UNL     1     173.060 171.631 158.283  1.00  0.00    -0.000 C 
BRANCH  13  14
ATOM     14  C   UNL     1     172.600 170.292 158.888  1.00  0.00    -0.000 C 
BRANCH  14  15
ATOM     15  C   UNL     1     171.207 169.864 158.405  1.00  0.00    -0.003 C 
ATOM     16  C   UNL     1     170.780 170.670 157.180  1.00  0.00     0.004 C 
ENDBRANCH  14  15
ENDBRANCH  13  14
ENDBRANCH  12  13
ENDBRANCH  11  12
ENDBRANCH  10  11
ENDBRANCH   9  10
ENDBRANCH   8   9
ENDBRANCH   7   8
ENDBRANCH   6   7
ENDBRANCH   5   6
ENDBRANCH   4   5
ENDBRANCH   3   4
ENDBRANCH   2   3
ENDBRANCH   1   2
BRANCH   1  17
ATOM     17  C   UNL     1     167.492 174.372 158.896  1.00  0.00     0.000 C 
BRANCH  17  18
ATOM     18  C   UNL     1     166.613 175.164 159.885  1.00  0.00     0.000 C 
BRANCH  18  19
ATOM     19  C   UNL     1     167.368 176.192 160.748  1.00  0.00     0.000 C 
BRANCH  19  20
ATOM     20  C   UNL     1     167.405 175.875 162.256  1.00  0.00     0.000 C 
BRANCH  20  21
ATOM     21  C   UNL     1     168.451 174.808 162.644  1.00  0.00     0.000 C 
BRANCH  21  22
ATOM     22  C   UNL     1     167.907 173.783 163.657  1.00  0.00     0.000 C 
BRANCH  22  23
ATOM     23  C   UNL     1     167.505 172.455 162.982  1.00  0.00     0.000 C 
BRANCH  23  24
ATOM     24  C   UNL     1     166.039 172.421 162.516  1.00  0.00     0.000 C 
BRANCH  24  25
ATOM     25  C   UNL     1     165.830 171.552 161.268  1.00  0.00     0.000 C 
BRANCH  25  26
ATOM     26  C   UNL     1     167.174 171.179 160.629  1.00  0.00     0.000 C 
BRANCH  26  27
ATOM     27  C   UNL     1     166.980 170.667 159.197  1.00  0.00     0.002 C 
BRANCH  27  28
ATOM     28  C   UNL     1     167.398 169.197 159.077  1.00  0.00     0.028 C 
BRANCH  28  29
ATOM     29  C   UNL     1     167.418 168.746 157.614  1.00  0.00     0.156 C 
BRANCH  29  30
ATOM     30  O   UNL     1     168.454 167.824 157.406  1.00  0.00    -0.396 OA
ATOM     31  H   UNL     1     168.761 167.949 156.470  1.00  0.00     0.210 HD
ENDBRANCH  29  30
ENDBRANCH  28  29
ENDBRANCH  27  28
ENDBRANCH  26  27
ENDBRANCH  25  26
ENDBRANCH  24  25
ENDBRANCH  23  24
ENDBRANCH  22  23
ENDBRANCH  21  22
ENDBRANCH  20  21
ENDBRANCH  19  20
ENDBRANCH  18  19
ENDBRANCH  17  18
ENDBRANCH   1  17
TORSDOF 28
ENDMDL
MODEL 6
REMARK VINA RESULT:    -2.801      1.612      2.209
REMARK INTER + INTRA:         -12.806
REMARK INTER:                  -8.294
REMARK INTRA:                  -4.512
REMARK UNBOUND:                -5.503
REMARK SMILES CCCCCCCCCCCCCCCCCCCCCCCCCCCCCO
REMARK SMILES IDX 16 1 15 2 14 3 13 4 12 5 11 6 10 7 9 8 8 9 7 10 6 11 5 12
REMARK SMILES IDX 4 13 3 14 2 15 1 16 17 17 18 18 19 19 20 20 21 21 22 22
REMARK SMILES IDX 23 23 24 24 25 25 26 26 27 27 28 28 29 29 30 30
REMARK H PARENT 30 31
REMARK Flexibility Score: inf
ROOT
ATOM      1  C   UNL     1     166.257 172.884 159.155  1.00  0.00     0.000 C 
ENDROOT
BRANCH   1   2
ATOM      2  C   UNL     1     166.973 174.241 159.036  1.00  0.00     0.000 C 
BRANCH   2   3
ATOM      3  C   UNL     1     167.979 174.485 160.176  1.00  0.00     0.000 C 
BRANCH   3   4
ATOM      4  C   UNL     1     168.057 175.969 160.583  1.00  0.00     0.000 C 
BRANCH   4   5
ATOM      5  C   UNL     1     167.386 176.289 161.935  1.00  0.00     0.000 C 
BRANCH   5   6
ATOM      6  C   UNL     1     165.935 176.796 161.817  1.00  0.00     0.000 C 
BRANCH   6   7
ATOM      7  C   UNL     1     164.904 175.737 162.244  1.00  0.00     0.000 C 
BRANCH   7   8
ATOM      8  C   UNL     1     164.013 175.274 161.078  1.00  0.00    -0.000 C 
BRANCH   8   9
ATOM      9  C   UNL     1     163.027 174.138 161.424  1.00  0.00    -0.000 C 
BRANCH   9  10
ATOM     10  C   UNL     1     162.732 173.159 160.273  1.00  0.00    -0.000 C 
BRANCH  10  11
ATOM     11  C   UNL     1     161.771 172.032 160.681  1.00  0.00    -0.000 C 
BRANCH  11  12
ATOM     12  C   UNL     1     162.428 170.655 160.504  1.00  0.00    -0.000 C 
BRANCH  12  13
ATOM     13  C   UNL     1     163.329 170.575 159.258  1.00  0.00    -0.000 C 
BRANCH  13  14
ATOM     14  C   UNL     1     162.952 169.473 158.250  1.00  0.00    -0.000 C 
BRANCH  14  15
ATOM     15  C   UNL     1     161.894 168.502 158.795  1.00  0.00    -0.003 C 
ATOM     16  C   UNL     1     161.552 167.429 157.763  1.00  0.00     0.004 C 
ENDBRANCH  14  15
ENDBRANCH  13  14
ENDBRANCH  12  13
ENDBRANCH  11  12
ENDBRANCH  10  11
ENDBRANCH   9  10
ENDBRANCH   8   9
ENDBRANCH   7   8
ENDBRANCH   6   7
ENDBRANCH   5   6
ENDBRANCH   4   5
ENDBRANCH   3   4
ENDBRANCH   2   3
ENDBRANCH   1   2
BRANCH   1  17
ATOM     17  C   UNL     1     167.168 171.704 159.547  1.00  0.00     0.000 C 
BRANCH  17  18
ATOM     18  C   UNL     1     166.830 171.037 160.896  1.00  0.00     0.000 C 
BRANCH  18  19
ATOM     19  C   UNL     1     165.745 171.753 161.722  1.00  0.00     0.000 C 
BRANCH  19  20
ATOM     20  C   UNL     1     166.262 172.507 162.962  1.00  0.00     0.000 C 
BRANCH  20  21
ATOM     21  C   UNL     1     167.788 172.392 163.172  1.00  0.00     0.000 C 
BRANCH  21  22
ATOM     22  C   UNL     1     168.383 173.614 163.896  1.00  0.00     0.000 C 
BRANCH  22  23
ATOM     23  C   UNL     1     169.915 173.699 163.731  1.00  0.00     0.000 C 
BRANCH  23  24
ATOM     24  C   UNL     1     170.496 172.609 162.814  1.00  0.00     0.000 C 
BRANCH  24  25
ATOM     25  C   UNL     1     171.348 171.582 163.574  1.00  0.00     0.000 C 
BRANCH  25  26
ATOM     26  C   UNL     1     172.843 171.816 163.322  1.00  0.00     0.000 C 
BRANCH  26  27
ATOM     27  C   UNL     1     173.216 171.482 161.872  1.00  0.00     0.002 C 
BRANCH  27  28
ATOM     28  C   UNL     1     174.360 172.375 161.379  1.00  0.00     0.028 C 
BRANCH  28  29
ATOM     29  C   UNL     1     175.675 171.594 161.298  1.00  0.00     0.156 C 
BRANCH  29  30
ATOM     30  O   UNL     1     175.415 170.228 161.121  1.00  0.00    -0.396 OA
ATOM     31  H   UNL     1     175.490 170.048 160.147  1.00  0.00     0.210 HD
ENDBRANCH  29  30
ENDBRANCH  28  29
ENDBRANCH  27  28
ENDBRANCH  26  27
ENDBRANCH  25  26
ENDBRANCH  24  25
ENDBRANCH  23  24
ENDBRANCH  22  23
ENDBRANCH  21  22
ENDBRANCH  20  21
ENDBRANCH  19  20
ENDBRANCH  18  19
ENDBRANCH  17  18
ENDBRANCH   1  17
TORSDOF 28
ENDMDL
MODEL 7
REMARK VINA RESULT:    -2.792      1.623      4.327
REMARK INTER + INTRA:         -12.783
REMARK INTER:                  -7.198
REMARK INTRA:                  -5.585
REMARK UNBOUND:                -5.503
REMARK SMILES CCCCCCCCCCCCCCCCCCCCCCCCCCCCCO
REMARK SMILES IDX 16 1 15 2 14 3 13 4 12 5 11 6 10 7 9 8 8 9 7 10 6 11 5 12
REMARK SMILES IDX 4 13 3 14 2 15 1 16 17 17 18 18 19 19 20 20 21 21 22 22
REMARK SMILES IDX 23 23 24 24 25 25 26 26 27 27 28 28 29 29 30 30
REMARK H PARENT 30 31
REMARK Flexibility Score: inf
ROOT
ATOM      1  C   UNL     1     168.654 175.645 159.648  1.00  0.00     0.000 C 
ENDROOT
BRANCH   1   2
ATOM      2  C   UNL     1     169.002 174.183 159.315  1.00  0.00     0.000 C 
BRANCH   2   3
ATOM      3  C   UNL     1     167.756 173.288 159.198  1.00  0.00     0.000 C 
BRANCH   3   4
ATOM      4  C   UNL     1     168.095 171.790 159.323  1.00  0.00     0.000 C 
BRANCH   4   5
ATOM      5  C   UNL     1     166.871 170.882 159.560  1.00  0.00     0.000 C 
BRANCH   5   6
ATOM      6  C   UNL     1     167.097 169.403 159.188  1.00  0.00     0.000 C 
BRANCH   6   7
ATOM      7  C   UNL     1     166.127 168.915 158.098  1.00  0.00     0.000 C 
BRANCH   7   8
ATOM      8  C   UNL     1     165.508 170.071 157.294  1.00  0.00    -0.000 C 
BRANCH   8   9
ATOM      9  C   UNL     1     163.971 170.026 157.168  1.00  0.00    -0.000 C 
BRANCH   9  10
ATOM     10  C   UNL     1     163.269 169.012 158.091  1.00  0.00    -0.000 C 
BRANCH  10  11
ATOM     11  C   UNL     1     162.328 169.680 159.104  1.00  0.00    -0.000 C 
BRANCH  11  12
ATOM     12  C   UNL     1     163.120 170.331 160.248  1.00  0.00    -0.000 C 
BRANCH  12  13
ATOM     13  C   UNL     1     162.776 171.819 160.446  1.00  0.00    -0.000 C 
BRANCH  13  14
ATOM     14  C   UNL     1     163.808 172.809 159.874  1.00  0.00    -0.000 C 
BRANCH  14  15
ATOM     15  C   UNL     1     163.373 173.420 158.535  1.00  0.00    -0.003 C 
ATOM     16  C   UNL     1     164.574 173.648 157.619  1.00  0.00     0.004 C 
ENDBRANCH  14  15
ENDBRANCH  13  14
ENDBRANCH  12  13
ENDBRANCH  11  12
ENDBRANCH  10  11
ENDBRANCH   9  10
ENDBRANCH   8   9
ENDBRANCH   7   8
ENDBRANCH   6   7
ENDBRANCH   5   6
ENDBRANCH   4   5
ENDBRANCH   3   4
ENDBRANCH   2   3
ENDBRANCH   1   2
BRANCH   1  17
ATOM     17  C   UNL     1     169.088 176.109 161.052  1.00  0.00     0.000 C 
BRANCH  17  18
ATOM     18  C   UNL     1     167.942 176.269 162.071  1.00  0.00     0.000 C 
BRANCH  18  19
ATOM     19  C   UNL     1     166.530 176.332 161.459  1.00  0.00     0.000 C 
BRANCH  19  20
ATOM     20  C   UNL     1     165.671 175.071 161.672  1.00  0.00     0.000 C 
BRANCH  20  21
ATOM     21  C   UNL     1     166.061 174.253 162.923  1.00  0.00     0.000 C 
BRANCH  21  22
ATOM     22  C   UNL     1     166.234 172.753 162.623  1.00  0.00     0.000 C 
BRANCH  22  23
ATOM     23  C   UNL     1     167.483 172.162 163.309  1.00  0.00     0.000 C 
BRANCH  23  24
ATOM     24  C   UNL     1     168.808 172.721 162.761  1.00  0.00     0.000 C 
BRANCH  24  25
ATOM     25  C   UNL     1     169.593 173.526 163.806  1.00  0.00     0.000 C 
BRANCH  25  26
ATOM     26  C   UNL     1     171.097 173.243 163.699  1.00  0.00     0.000 C 
BRANCH  26  27
ATOM     27  C   UNL     1     171.380 171.737 163.752  1.00  0.00     0.002 C 
BRANCH  27  28
ATOM     28  C   UNL     1     172.528 171.359 162.808  1.00  0.00     0.028 C 
BRANCH  28  29
ATOM     29  C   UNL     1     172.403 172.088 161.468  1.00  0.00     0.156 C 
BRANCH  29  30
ATOM     30  O   UNL     1     171.456 171.450 160.656  1.00  0.00    -0.396 OA
ATOM     31  H   UNL     1     171.846 171.408 159.744  1.00  0.00     0.210 HD
ENDBRANCH  29  30
ENDBRANCH  28  29
ENDBRANCH  27  28
ENDBRANCH  26  27
ENDBRANCH  25  26
ENDBRANCH  24  25
ENDBRANCH  23  24
ENDBRANCH  22  23
ENDBRANCH  21  22
ENDBRANCH  20  21
ENDBRANCH  19  20
ENDBRANCH  18  19
ENDBRANCH  17  18
ENDBRANCH   1  17
TORSDOF 28
ENDMDL
MODEL 8
REMARK VINA RESULT:    -2.767      1.287      2.490
REMARK INTER + INTRA:         -12.719
REMARK INTER:                  -7.299
REMARK INTRA:                  -5.419
REMARK UNBOUND:                -5.503
REMARK SMILES CCCCCCCCCCCCCCCCCCCCCCCCCCCCCO
REMARK SMILES IDX 16 1 15 2 14 3 13 4 12 5 11 6 10 7 9 8 8 9 7 10 6 11 5 12
REMARK SMILES IDX 4 13 3 14 2 15 1 16 17 17 18 18 19 19 20 20 21 21 22 22
REMARK SMILES IDX 23 23 24 24 25 25 26 26 27 27 28 28 29 29 30 30
REMARK H PARENT 30 31
REMARK Flexibility Score: inf
ROOT
ATOM      1  C   UNL     1     168.418 175.221 158.793  1.00  0.00     0.000 C 
ENDROOT
BRANCH   1   2
ATOM      2  C   UNL     1     168.460 176.604 159.466  1.00  0.00     0.000 C 
BRANCH   2   3
ATOM      3  C   UNL     1     169.093 176.563 160.869  1.00  0.00     0.000 C 
BRANCH   3   4
ATOM      4  C   UNL     1     168.054 176.300 161.975  1.00  0.00     0.000 C 
BRANCH   4   5
ATOM      5  C   UNL     1     166.634 176.801 161.639  1.00  0.00     0.000 C 
BRANCH   5   6
ATOM      6  C   UNL     1     165.533 175.732 161.789  1.00  0.00     0.000 C 
BRANCH   6   7
ATOM      7  C   UNL     1     164.780 175.474 160.472  1.00  0.00     0.000 C 
BRANCH   7   8
ATOM      8  C   UNL     1     164.517 173.979 160.223  1.00  0.00    -0.000 C 
BRANCH   8   9
ATOM      9  C   UNL     1     163.685 173.273 161.313  1.00  0.00    -0.000 C 
BRANCH   9  10
ATOM     10  C   UNL     1     162.732 172.177 160.799  1.00  0.00    -0.000 C 
BRANCH  10  11
ATOM     11  C   UNL     1     163.426 170.820 160.620  1.00  0.00    -0.000 C 
BRANCH  11  12
ATOM     12  C   UNL     1     163.088 170.202 159.255  1.00  0.00    -0.000 C 
BRANCH  12  13
ATOM     13  C   UNL     1     163.813 170.895 158.086  1.00  0.00    -0.000 C 
BRANCH  13  14
ATOM     14  C   UNL     1     165.341 170.705 158.063  1.00  0.00    -0.000 C 
BRANCH  14  15
ATOM     15  C   UNL     1     165.760 169.254 157.787  1.00  0.00    -0.003 C 
ATOM     16  C   UNL     1     167.050 168.905 158.526  1.00  0.00     0.004 C 
ENDBRANCH  14  15
ENDBRANCH  13  14
ENDBRANCH  12  13
ENDBRANCH  11  12
ENDBRANCH  10  11
ENDBRANCH   9  10
ENDBRANCH   8   9
ENDBRANCH   7   8
ENDBRANCH   6   7
ENDBRANCH   5   6
ENDBRANCH   4   5
ENDBRANCH   3   4
ENDBRANCH   2   3
ENDBRANCH   1   2
BRANCH   1  17
ATOM     17  C   UNL     1     169.542 174.258 159.221  1.00  0.00     0.000 C 
BRANCH  17  18
ATOM     18  C   UNL     1     169.396 172.812 158.704  1.00  0.00     0.000 C 
BRANCH  18  19
ATOM     19  C   UNL     1     168.779 171.820 159.708  1.00  0.00     0.000 C 
BRANCH  19  20
ATOM     20  C   UNL     1     167.557 172.352 160.482  1.00  0.00     0.000 C 
BRANCH  20  21
ATOM     21  C   UNL     1     166.842 171.280 161.334  1.00  0.00     0.000 C 
BRANCH  21  22
ATOM     22  C   UNL     1     166.753 171.665 162.822  1.00  0.00     0.000 C 
BRANCH  22  23
ATOM     23  C   UNL     1     167.518 172.970 163.131  1.00  0.00     0.000 C 
BRANCH  23  24
ATOM     24  C   UNL     1     168.724 172.769 164.065  1.00  0.00     0.000 C 
BRANCH  24  25
ATOM     25  C   UNL     1     169.887 173.721 163.750  1.00  0.00     0.000 C 
BRANCH  25  26
ATOM     26  C   UNL     1     170.631 173.276 162.485  1.00  0.00     0.000 C 
BRANCH  26  27
ATOM     27  C   UNL     1     171.090 171.817 162.598  1.00  0.00     0.002 C 
BRANCH  27  28
ATOM     28  C   UNL     1     172.437 171.720 163.325  1.00  0.00     0.028 C 
BRANCH  28  29
ATOM     29  C   UNL     1     173.575 171.440 162.341  1.00  0.00     0.156 C 
BRANCH  29  30
ATOM     30  O   UNL     1     174.365 172.586 162.176  1.00  0.00    -0.396 OA
ATOM     31  H   UNL     1     175.014 172.595 162.927  1.00  0.00     0.210 HD
ENDBRANCH  29  30
ENDBRANCH  28  29
ENDBRANCH  27  28
ENDBRANCH  26  27
ENDBRANCH  25  26
ENDBRANCH  24  25
ENDBRANCH  23  24
ENDBRANCH  22  23
ENDBRANCH  21  22
ENDBRANCH  20  21
ENDBRANCH  19  20
ENDBRANCH  18  19
ENDBRANCH  17  18
ENDBRANCH   1  17
TORSDOF 28
ENDMDL
MODEL 9
REMARK VINA RESULT:    -2.763      2.303      5.219
REMARK INTER + INTRA:         -12.707
REMARK INTER:                  -8.006
REMARK INTRA:                  -4.701
REMARK UNBOUND:                -5.503
REMARK SMILES CCCCCCCCCCCCCCCCCCCCCCCCCCCCCO
REMARK SMILES IDX 16 1 15 2 14 3 13 4 12 5 11 6 10 7 9 8 8 9 7 10 6 11 5 12
REMARK SMILES IDX 4 13 3 14 2 15 1 16 17 17 18 18 19 19 20 20 21 21 22 22
REMARK SMILES IDX 23 23 24 24 25 25 26 26 27 27 28 28 29 29 30 30
REMARK H PARENT 30 31
REMARK Flexibility Score: inf
ROOT
ATOM      1  C   UNL     1     173.570 171.197 162.139  1.00  0.00     0.000 C 
ENDROOT
BRANCH   1   2
ATOM      2  C   UNL     1     173.009 172.240 163.121  1.00  0.00     0.000 C 
BRANCH   2   3
ATOM      3  C   UNL     1     171.642 171.835 163.701  1.00  0.00     0.000 C 
BRANCH   3   4
ATOM      4  C   UNL     1     170.631 172.998 163.692  1.00  0.00     0.000 C 
BRANCH   4   5
ATOM      5  C   UNL     1     169.156 172.554 163.774  1.00  0.00     0.000 C 
BRANCH   5   6
ATOM      6  C   UNL     1     168.146 173.718 163.806  1.00  0.00     0.000 C 
BRANCH   6   7
ATOM      7  C   UNL     1     166.769 173.319 163.246  1.00  0.00     0.000 C 
BRANCH   7   8
ATOM      8  C   UNL     1     166.724 171.856 162.771  1.00  0.00    -0.000 C 
BRANCH   8   9
ATOM      9  C   UNL     1     165.712 171.569 161.643  1.00  0.00    -0.000 C 
BRANCH   9  10
ATOM     10  C   UNL     1     164.913 172.792 161.155  1.00  0.00    -0.000 C 
BRANCH  10  11
ATOM     11  C   UNL     1     163.910 172.445 160.046  1.00  0.00    -0.000 C 
BRANCH  11  12
ATOM     12  C   UNL     1     163.003 171.278 160.467  1.00  0.00    -0.000 C 
BRANCH  12  13
ATOM     13  C   UNL     1     163.165 170.038 159.568  1.00  0.00    -0.000 C 
BRANCH  13  14
ATOM     14  C   UNL     1     164.105 170.225 158.363  1.00  0.00    -0.000 C 
BRANCH  14  15
ATOM     15  C   UNL     1     165.147 169.104 158.238  1.00  0.00    -0.003 C 
ATOM     16  C   UNL     1     166.553 169.628 158.524  1.00  0.00     0.004 C 
ENDBRANCH  14  15
ENDBRANCH  13  14
ENDBRANCH  12  13
ENDBRANCH  11  12
ENDBRANCH  10  11
ENDBRANCH   9  10
ENDBRANCH   8   9
ENDBRANCH   7   8
ENDBRANCH   6   7
ENDBRANCH   5   6
ENDBRANCH   4   5
ENDBRANCH   3   4
ENDBRANCH   2   3
ENDBRANCH   1   2
BRANCH   1  17
ATOM     17  C   UNL     1     174.982 171.506 161.605  1.00  0.00     0.000 C 
BRANCH  17  18
ATOM     18  C   UNL     1     175.360 173.001 161.582  1.00  0.00     0.000 C 
BRANCH  18  19
ATOM     19  C   UNL     1     175.265 173.676 160.200  1.00  0.00     0.000 C 
BRANCH  19  20
ATOM     20  C   UNL     1     173.844 174.097 159.778  1.00  0.00     0.000 C 
BRANCH  20  21
ATOM     21  C   UNL     1     173.537 173.848 158.284  1.00  0.00     0.000 C 
BRANCH  21  22
ATOM     22  C   UNL     1     172.262 173.011 158.071  1.00  0.00     0.000 C 
BRANCH  22  23
ATOM     23  C   UNL     1     171.980 172.068 159.260  1.00  0.00     0.000 C 
BRANCH  23  24
ATOM     24  C   UNL     1     170.573 171.447 159.232  1.00  0.00     0.000 C 
BRANCH  24  25
ATOM     25  C   UNL     1     169.603 172.123 160.211  1.00  0.00     0.000 C 
BRANCH  25  26
ATOM     26  C   UNL     1     168.405 172.727 159.466  1.00  0.00     0.000 C 
BRANCH  26  27
ATOM     27  C   UNL     1     168.171 174.183 159.887  1.00  0.00     0.002 C 
BRANCH  27  28
ATOM     28  C   UNL     1     169.365 174.723 160.684  1.00  0.00     0.028 C 
BRANCH  28  29
ATOM     29  C   UNL     1     169.267 176.240 160.864  1.00  0.00     0.156 C 
BRANCH  29  30
ATOM     30  O   UNL     1     170.545 176.793 161.019  1.00  0.00    -0.396 OA
ATOM     31  H   UNL     1     171.156 176.040 161.233  1.00  0.00     0.210 HD
ENDBRANCH  29  30
ENDBRANCH  28  29
ENDBRANCH  27  28
ENDBRANCH  26  27
ENDBRANCH  25  26
ENDBRANCH  24  25
ENDBRANCH  23  24
ENDBRANCH  22  23
ENDBRANCH  21  22
ENDBRANCH  20  21
ENDBRANCH  19  20
ENDBRANCH  18  19
ENDBRANCH  17  18
ENDBRANCH   1  17
TORSDOF 28
ENDMDL
