MODEL 1
REMARK VINA RESULT:    44.365      0.000      0.000
REMARK INTER + INTRA:          63.958
REMARK INTER:                  62.519
REMARK INTRA:                   1.439
REMARK UNBOUND:                 1.439
REMARK SMILES C=C(CC[C@@H](C(=O)[O-])[C@@H]1[C@@H](O)C[C@@]2(C)C3=C(CC[C@]12C)[C@]1(C)CC[C@@H](O)C(C)(C)[C@H]1CC3)C(C)C
REMARK SMILES IDX 4 1 5 2 6 3 7 4 8 5 9 6 10 7 19 8 12 9 13 10 18 11 20 12
REMARK SMILES IDX 14 13 15 14 17 15 16 16 32 17 21 18 31 19 30 20 23 21 22 22
REMARK SMILES IDX 27 23 24 24 25 25 28 26 29 27 11 28 26 30 3 32 2 33 1 34
REMARK SMILES IDX 33 35 34 36 35 37
REMARK H PARENT 11 29 26 31
REMARK Flexibility Score: inf
ROOT
ATOM      1  C   UNL     1      18.928  28.843  29.836  1.00  0.00     0.014 C 
ENDROOT
BRANCH   1   2
ATOM      2  C   UNL     1      20.096  27.819  29.972  1.00  0.00     0.042 C 
BRANCH   2   3
ATOM      3  C   UNL     1      19.711  26.798  31.022  1.00  0.00     0.045 C 
ATOM      4  O   UNL     1      20.154  25.622  30.944  1.00  0.00    -0.550 OA
ATOM      5  O   UNL     1      18.908  27.152  32.099  1.00  0.00    -0.550 OA
ENDBRANCH   2   3
BRANCH   2   6
ATOM      6  C   UNL     1      20.595  27.117  28.650  1.00  0.00     0.033 C 
ATOM      7  C   UNL     1      20.667  25.557  28.779  1.00  0.00     0.119 C 
ATOM      8  C   UNL     1      22.009  27.501  28.073  1.00  0.00    -0.017 C 
ATOM      9  C   UNL     1      22.062  25.109  28.310  1.00  0.00     0.043 C 
ATOM     10  C   UNL     1      22.948  26.340  28.519  1.00  0.00    -0.003 C 
ATOM     11  C   UNL     1      22.671  28.827  28.501  1.00  0.00     0.012 C 
ATOM     12  C   UNL     1      21.830  27.566  26.510  1.00  0.00     0.013 C 
ATOM     13  C   UNL     1      23.365  26.350  30.023  1.00  0.00     0.017 C 
ATOM     14  C   UNL     1      24.249  26.403  27.729  1.00  0.00    -0.064 C 
ATOM     15  C   UNL     1      24.164  28.911  28.073  1.00  0.00     0.032 C 
ATOM     16  C   UNL     1      24.809  27.633  27.475  1.00  0.00    -0.064 C 
ATOM     17  C   UNL     1      24.873  25.100  27.268  1.00  0.00     0.032 C 
ATOM     18  C   UNL     1      26.182  27.771  26.763  1.00  0.00    -0.008 C 
ATOM     19  C   UNL     1      26.350  25.223  26.914  1.00  0.00     0.009 C 
ATOM     20  C   UNL     1      26.554  26.444  26.005  1.00  0.00     0.007 C 
ATOM     21  C   UNL     1      26.127  28.933  25.709  1.00  0.00     0.014 C 
ATOM     22  C   UNL     1      27.197  28.136  27.882  1.00  0.00     0.016 C 
ATOM     23  C   UNL     1      27.926  26.460  25.211  1.00  0.00    -0.006 C 
ATOM     24  C   UNL     1      26.938  28.706  24.414  1.00  0.00     0.033 C 
ATOM     25  C   UNL     1      28.223  27.890  24.612  1.00  0.00     0.120 C 
ATOM     26  C   UNL     1      29.119  25.955  26.071  1.00  0.00     0.014 C 
ATOM     27  C   UNL     1      27.811  25.471  24.015  1.00  0.00     0.014 C 
BRANCH   7  28
ATOM     28  O   UNL     1      19.675  24.953  27.995  1.00  0.00    -0.393 OA
ATOM     29  H   UNL     1      18.956  24.665  28.616  1.00  0.00     0.210 HD
ENDBRANCH   7  28
BRANCH  25  30
ATOM     30  O   UNL     1      29.123  28.641  25.392  1.00  0.00    -0.393 OA
ATOM     31  H   UNL     1      28.994  29.599  25.164  1.00  0.00     0.210 HD
ENDBRANCH  25  30
ENDBRANCH   2   6
ENDBRANCH   1   2
BRANCH   1  32
ATOM     32  C   UNL     1      17.548  28.436  30.390  1.00  0.00     0.031 C 
BRANCH  32  33
ATOM     33  C   UNL     1      16.385  29.065  29.650  1.00  0.00    -0.075 C 
ATOM     34  C   UNL     1      16.030  28.585  28.446  1.00  0.00     0.008 C 
BRANCH  33  35
ATOM     35  C   UNL     1      15.714  30.307  30.231  1.00  0.00     0.008 C 
ATOM     36  C   UNL     1      14.251  30.450  29.789  1.00  0.00     0.012 C 
ATOM     37  C   UNL     1      16.514  31.565  29.887  1.00  0.00     0.012 C 
ENDBRANCH  33  35
ENDBRANCH  32  33
ENDBRANCH   1  32
TORSDOF 8
ENDMDL
MODEL 2
REMARK VINA RESULT:    45.504      1.709      3.305
REMARK INTER + INTRA:          65.564
REMARK INTER:                  58.738
REMARK INTRA:                   6.826
REMARK UNBOUND:                 1.439
REMARK SMILES C=C(CC[C@@H](C(=O)[O-])[C@@H]1[C@@H](O)C[C@@]2(C)C3=C(CC[C@]12C)[C@]1(C)CC[C@@H](O)C(C)(C)[C@H]1CC3)C(C)C
REMARK SMILES IDX 4 1 5 2 6 3 7 4 8 5 9 6 10 7 19 8 12 9 13 10 18 11 20 12
REMARK SMILES IDX 14 13 15 14 17 15 16 16 32 17 21 18 31 19 30 20 23 21 22 22
REMARK SMILES IDX 27 23 24 24 25 25 28 26 29 27 11 28 26 30 3 32 2 33 1 34
REMARK SMILES IDX 33 35 34 36 35 37
REMARK H PARENT 11 29 26 31
REMARK Flexibility Score: inf
ROOT
ATOM      1  C   UNL     1      19.018  28.411  29.494  1.00  0.00     0.014 C 
ENDROOT
BRANCH   1   2
ATOM      2  C   UNL     1      19.752  27.048  29.690  1.00  0.00     0.042 C 
BRANCH   2   3
ATOM      3  C   UNL     1      19.471  26.181  28.481  1.00  0.00     0.045 C 
ATOM      4  O   UNL     1      18.399  26.333  27.839  1.00  0.00    -0.550 OA
ATOM      5  O   UNL     1      20.400  25.246  28.042  1.00  0.00    -0.550 OA
ENDBRANCH   2   3
BRANCH   2   6
ATOM      6  C   UNL     1      21.297  27.103  30.006  1.00  0.00     0.033 C 
ATOM      7  C   UNL     1      21.881  28.556  29.938  1.00  0.00     0.119 C 
ATOM      8  C   UNL     1      22.287  26.270  29.110  1.00  0.00    -0.017 C 
ATOM      9  C   UNL     1      23.123  28.522  29.031  1.00  0.00     0.043 C 
ATOM     10  C   UNL     1      22.900  27.309  28.124  1.00  0.00    -0.003 C 
ATOM     11  C   UNL     1      21.746  25.094  28.270  1.00  0.00     0.012 C 
ATOM     12  C   UNL     1      23.356  25.669  30.096  1.00  0.00     0.013 C 
ATOM     13  C   UNL     1      21.964  27.774  26.965  1.00  0.00     0.017 C 
ATOM     14  C   UNL     1      24.128  26.710  27.449  1.00  0.00    -0.064 C 
ATOM     15  C   UNL     1      22.786  24.573  27.238  1.00  0.00     0.032 C 
ATOM     16  C   UNL     1      24.093  25.390  27.064  1.00  0.00    -0.064 C 
ATOM     17  C   UNL     1      25.331  27.606  27.221  1.00  0.00     0.032 C 
ATOM     18  C   UNL     1      25.266  24.738  26.284  1.00  0.00    -0.008 C 
ATOM     19  C   UNL     1      26.290  27.080  26.161  1.00  0.00     0.009 C 
ATOM     20  C   UNL     1      26.578  25.595  26.429  1.00  0.00     0.007 C 
ATOM     21  C   UNL     1      25.557  23.304  26.850  1.00  0.00     0.014 C 
ATOM     22  C   UNL     1      24.775  24.623  24.813  1.00  0.00     0.016 C 
ATOM     23  C   UNL     1      27.863  25.024  25.697  1.00  0.00    -0.006 C 
ATOM     24  C   UNL     1      27.042  22.877  26.871  1.00  0.00     0.033 C 
ATOM     25  C   UNL     1      27.875  23.445  25.713  1.00  0.00     0.120 C 
ATOM     26  C   UNL     1      28.018  25.570  24.251  1.00  0.00     0.014 C 
ATOM     27  C   UNL     1      29.122  25.504  26.475  1.00  0.00     0.014 C 
BRANCH   7  28
ATOM     28  O   UNL     1      22.227  29.007  31.218  1.00  0.00    -0.393 OA
ATOM     29  H   UNL     1      22.715  28.264  31.660  1.00  0.00     0.210 HD
ENDBRANCH   7  28
BRANCH  25  30
ATOM     30  O   UNL     1      27.424  22.877  24.506  1.00  0.00    -0.393 OA
ATOM     31  H   UNL     1      26.505  23.211  24.340  1.00  0.00     0.210 HD
ENDBRANCH  25  30
ENDBRANCH   2   6
ENDBRANCH   1   2
BRANCH   1  32
ATOM     32  C   UNL     1      17.681  28.619  30.233  1.00  0.00     0.031 C 
BRANCH  32  33
ATOM     33  C   UNL     1      16.698  29.489  29.476  1.00  0.00    -0.075 C 
ATOM     34  C   UNL     1      16.107  29.010  28.369  1.00  0.00     0.008 C 
BRANCH  33  35
ATOM     35  C   UNL     1      16.485  30.934  29.920  1.00  0.00     0.008 C 
ATOM     36  C   UNL     1      15.031  31.395  29.752  1.00  0.00     0.012 C 
ATOM     37  C   UNL     1      17.444  31.872  29.183  1.00  0.00     0.012 C 
ENDBRANCH  33  35
ENDBRANCH  32  33
ENDBRANCH   1  32
TORSDOF 8
ENDMDL
