MODEL 1
REMARK VINA RESULT:    -6.470      0.000      0.000
REMARK INTER + INTRA:         -10.779
REMARK INTER:                 -10.063
REMARK INTRA:                  -0.717
REMARK UNBOUND:                -0.717
REMARK SMILES COc1cc(CNC(=O)CCCCC=CC(C)C)ccc1O
REMARK SMILES IDX 11 1 12 2 13 3 14 4 15 5 16 6 17 7 18 8 10 9 8 10 9 11 7 12
REMARK SMILES IDX 6 14 5 15 4 16 19 17 3 18 20 19 21 20 2 21 1 22 22 23
REMARK H PARENT 7 13 22 24
REMARK Flexibility Score: inf
ROOT
ATOM      1  C   UNL     1       3.383   0.319  24.482  1.00  0.00     0.010 C 
ENDROOT
BRANCH   1   2
ATOM      2  C   UNL     1       4.790   0.539  23.905  1.00  0.00     0.005 C 
BRANCH   2   3
ATOM      3  C   UNL     1       4.765   0.727  22.378  1.00  0.00     0.027 C 
BRANCH   3   4
ATOM      4  C   UNL     1       4.709   2.180  21.986  1.00  0.00    -0.031 C 
ATOM      5  C   UNL     1       3.545   2.794  21.728  1.00  0.00    -0.028 C 
BRANCH   5   6
ATOM      6  C   UNL     1       3.498   4.242  21.302  1.00  0.00     0.005 C 
ATOM      7  C   UNL     1       4.824   4.942  21.627  1.00  0.00     0.012 C 
ATOM      8  C   UNL     1       3.194   4.350  19.804  1.00  0.00     0.012 C 
ENDBRANCH   5   6
ENDBRANCH   3   4
ENDBRANCH   2   3
ENDBRANCH   1   2
BRANCH   1   9
ATOM      9  C   UNL     1       2.753  -0.961  23.921  1.00  0.00     0.100 C 
BRANCH   9  10
ATOM     10  C   UNL     1       2.904  -2.084  24.904  1.00  0.00     0.220 C 
ATOM     11  O   UNL     1       3.800  -2.953  24.714  1.00  0.00    -0.275 OA
ATOM     12  N   UNL     1       2.064  -2.148  26.070  1.00  0.00    -0.352 N 
ATOM     13  H   UNL     1       1.270  -1.476  26.163  1.00  0.00     0.163 HD
BRANCH  12  14
ATOM     14  C   UNL     1       2.360  -3.029  27.196  1.00  0.00     0.151 C 
BRANCH  14  15
ATOM     15  C   UNL     1       1.532  -4.282  27.095  1.00  0.00    -0.025 A 
ATOM     16  C   UNL     1       1.800  -5.380  27.929  1.00  0.00     0.056 A 
ATOM     17  C   UNL     1       0.443  -4.335  26.215  1.00  0.00     0.009 A 
ATOM     18  C   UNL     1       0.988  -6.530  27.883  1.00  0.00     0.160 A 
ATOM     19  C   UNL     1      -0.358  -5.477  26.154  1.00  0.00     0.050 A 
ATOM     20  C   UNL     1      -0.090  -6.574  26.986  1.00  0.00     0.157 A 
BRANCH  18  21
ATOM     21  O   UNL     1       1.219  -7.642  28.710  1.00  0.00    -0.493 OA
ATOM     22  C   UNL     1       2.493  -8.011  29.230  1.00  0.00     0.278 C 
ENDBRANCH  18  21
BRANCH  20  23
ATOM     23  O   UNL     1      -0.893  -7.711  26.930  1.00  0.00    -0.504 OA
ATOM     24  H   UNL     1      -0.738  -8.501  27.546  1.00  0.00     0.293 HD
ENDBRANCH  20  23
ENDBRANCH  14  15
ENDBRANCH  12  14
ENDBRANCH   9  10
ENDBRANCH   1   9
TORSDOF 10
ENDMDL
MODEL 2
REMARK VINA RESULT:    -6.227      3.104      4.996
REMARK INTER + INTRA:         -10.402
REMARK INTER:                  -9.610
REMARK INTRA:                  -0.791
REMARK UNBOUND:                -0.717
REMARK SMILES COc1cc(CNC(=O)CCCCC=CC(C)C)ccc1O
REMARK SMILES IDX 11 1 12 2 13 3 14 4 15 5 16 6 17 7 18 8 10 9 8 10 9 11 7 12
REMARK SMILES IDX 6 14 5 15 4 16 19 17 3 18 20 19 21 20 2 21 1 22 22 23
REMARK H PARENT 7 13 22 24
REMARK Flexibility Score: inf
ROOT
ATOM      1  C   UNL     1       3.593   2.820  20.364  1.00  0.00     0.010 C 
ENDROOT
BRANCH   1   2
ATOM      2  C   UNL     1       4.601   3.633  19.537  1.00  0.00     0.005 C 
BRANCH   2   3
ATOM      3  C   UNL     1       4.779   5.060  20.084  1.00  0.00     0.027 C 
BRANCH   3   4
ATOM      4  C   UNL     1       4.171   6.096  19.175  1.00  0.00    -0.031 C 
ATOM      5  C   UNL     1       2.842   6.210  19.029  1.00  0.00    -0.028 C 
BRANCH   5   6
ATOM      6  C   UNL     1       2.240   7.227  18.090  1.00  0.00     0.005 C 
ATOM      7  C   UNL     1       2.458   6.808  16.630  1.00  0.00     0.012 C 
ATOM      8  C   UNL     1       0.744   7.399  18.376  1.00  0.00     0.012 C 
ENDBRANCH   5   6
ENDBRANCH   3   4
ENDBRANCH   2   3
ENDBRANCH   1   2
BRANCH   1   9
ATOM      9  C   UNL     1       3.551   3.311  21.816  1.00  0.00     0.100 C 
BRANCH   9  10
ATOM     10  C   UNL     1       4.256   2.336  22.712  1.00  0.00     0.220 C 
ATOM     11  O   UNL     1       5.465   2.055  22.486  1.00  0.00    -0.275 OA
ATOM     12  N   UNL     1       3.573   1.759  23.838  1.00  0.00    -0.352 N 
ATOM     13  H   UNL     1       2.550   1.931  23.957  1.00  0.00     0.163 HD
BRANCH  12  14
ATOM     14  C   UNL     1       4.282   1.053  24.901  1.00  0.00     0.151 C 
BRANCH  14  15
ATOM     15  C   UNL     1       3.795  -0.369  24.983  1.00  0.00    -0.025 A 
ATOM     16  C   UNL     1       4.157  -1.183  26.069  1.00  0.00     0.056 A 
ATOM     17  C   UNL     1       2.917  -0.867  24.010  1.00  0.00     0.009 A 
ATOM     18  C   UNL     1       3.651  -2.493  26.183  1.00  0.00     0.160 A 
ATOM     19  C   UNL     1       2.422  -2.170  24.110  1.00  0.00     0.050 A 
ATOM     20  C   UNL     1       2.785  -2.983  25.193  1.00  0.00     0.157 A 
BRANCH  18  21
ATOM     21  O   UNL     1       3.982  -3.331  27.261  1.00  0.00    -0.493 OA
ATOM     22  C   UNL     1       5.212  -4.039  27.385  1.00  0.00     0.278 C 
ENDBRANCH  18  21
BRANCH  20  23
ATOM     23  O   UNL     1       2.287  -4.280  25.296  1.00  0.00    -0.504 OA
ATOM     24  H   UNL     1       2.392  -4.950  24.542  1.00  0.00     0.293 HD
ENDBRANCH  20  23
ENDBRANCH  14  15
ENDBRANCH  12  14
ENDBRANCH   9  10
ENDBRANCH   1   9
TORSDOF 10
ENDMDL
MODEL 3
REMARK VINA RESULT:    -6.189      3.807      5.935
REMARK INTER + INTRA:         -10.343
REMARK INTER:                  -9.699
REMARK INTRA:                  -0.643
REMARK UNBOUND:                -0.717
REMARK SMILES COc1cc(CNC(=O)CCCCC=CC(C)C)ccc1O
REMARK SMILES IDX 11 1 12 2 13 3 14 4 15 5 16 6 17 7 18 8 10 9 8 10 9 11 7 12
REMARK SMILES IDX 6 14 5 15 4 16 19 17 3 18 20 19 21 20 2 21 1 22 22 23
REMARK H PARENT 7 13 22 24
REMARK Flexibility Score: inf
ROOT
ATOM      1  C   UNL     1       1.136  -3.745  26.814  1.00  0.00     0.010 C 
ENDROOT
BRANCH   1   2
ATOM      2  C   UNL     1       2.622  -3.795  26.429  1.00  0.00     0.005 C 
BRANCH   2   3
ATOM      3  C   UNL     1       2.831  -3.678  24.910  1.00  0.00     0.027 C 
BRANCH   3   4
ATOM      4  C   UNL     1       3.460  -2.365  24.522  1.00  0.00    -0.031 C 
ATOM      5  C   UNL     1       2.876  -1.193  24.814  1.00  0.00    -0.028 C 
BRANCH   5   6
ATOM      6  C   UNL     1       3.495   0.119  24.392  1.00  0.00     0.005 C 
ATOM      7  C   UNL     1       4.420   0.656  25.492  1.00  0.00     0.012 C 
ATOM      8  C   UNL     1       4.271  -0.052  23.082  1.00  0.00     0.012 C 
ENDBRANCH   5   6
ENDBRANCH   3   4
ENDBRANCH   2   3
ENDBRANCH   1   2
BRANCH   1   9
ATOM      9  C   UNL     1       0.376  -4.939  26.225  1.00  0.00     0.100 C 
BRANCH   9  10
ATOM     10  C   UNL     1       0.054  -5.929  27.304  1.00  0.00     0.220 C 
ATOM     11  O   UNL     1       0.553  -5.773  28.452  1.00  0.00    -0.275 OA
ATOM     12  N   UNL     1      -0.844  -7.023  27.043  1.00  0.00    -0.352 N 
ATOM     13  H   UNL     1      -1.174  -7.190  26.067  1.00  0.00     0.163 HD
BRANCH  12  14
ATOM     14  C   UNL     1      -1.423  -7.827  28.115  1.00  0.00     0.151 C 
BRANCH  14  15
ATOM     15  C   UNL     1      -2.733  -8.414  27.662  1.00  0.00    -0.025 A 
ATOM     16  C   UNL     1      -3.437  -9.306  28.489  1.00  0.00     0.056 A 
ATOM     17  C   UNL     1      -3.295  -8.018  26.440  1.00  0.00     0.009 A 
ATOM     18  C   UNL     1      -4.694  -9.806  28.097  1.00  0.00     0.160 A 
ATOM     19  C   UNL     1      -4.535  -8.521  26.039  1.00  0.00     0.050 A 
ATOM     20  C   UNL     1      -5.236  -9.412  26.864  1.00  0.00     0.157 A 
BRANCH  18  21
ATOM     21  O   UNL     1      -5.430 -10.690  28.903  1.00  0.00    -0.493 OA
ATOM     22  C   UNL     1      -6.296 -10.289  29.961  1.00  0.00     0.278 C 
ENDBRANCH  18  21
BRANCH  20  23
ATOM     23  O   UNL     1      -6.476  -9.910  26.467  1.00  0.00    -0.504 OA
ATOM     24  H   UNL     1      -7.194 -10.144  27.143  1.00  0.00     0.293 HD
ENDBRANCH  20  23
ENDBRANCH  14  15
ENDBRANCH  12  14
ENDBRANCH   9  10
ENDBRANCH   1   9
TORSDOF 10
ENDMDL
MODEL 4
REMARK VINA RESULT:    -5.987      3.620     10.601
REMARK INTER + INTRA:         -10.029
REMARK INTER:                  -9.345
REMARK INTRA:                  -0.684
REMARK UNBOUND:                -0.717
REMARK SMILES COc1cc(CNC(=O)CCCCC=CC(C)C)ccc1O
REMARK SMILES IDX 11 1 12 2 13 3 14 4 15 5 16 6 17 7 18 8 10 9 8 10 9 11 7 12
REMARK SMILES IDX 6 14 5 15 4 16 19 17 3 18 20 19 21 20 2 21 1 22 22 23
REMARK H PARENT 7 13 22 24
REMARK Flexibility Score: inf
ROOT
ATOM      1  C   UNL     1       2.722  -1.722  24.053  1.00  0.00     0.010 C 
ENDROOT
BRANCH   1   2
ATOM      2  C   UNL     1       3.548  -2.872  24.648  1.00  0.00     0.005 C 
BRANCH   2   3
ATOM      3  C   UNL     1       3.772  -2.701  26.160  1.00  0.00     0.027 C 
BRANCH   3   4
ATOM      4  C   UNL     1       2.855  -3.577  26.973  1.00  0.00    -0.031 C 
ATOM      5  C   UNL     1       1.805  -4.200  26.419  1.00  0.00    -0.028 C 
BRANCH   5   6
ATOM      6  C   UNL     1       0.869  -5.049  27.246  1.00  0.00     0.005 C 
ATOM      7  C   UNL     1      -0.263  -5.608  26.375  1.00  0.00     0.012 C 
ATOM      8  C   UNL     1       1.636  -6.193  27.917  1.00  0.00     0.012 C 
ENDBRANCH   5   6
ENDBRANCH   3   4
ENDBRANCH   2   3
ENDBRANCH   1   2
BRANCH   1   9
ATOM      9  C   UNL     1       3.167  -0.372  24.627  1.00  0.00     0.100 C 
BRANCH   9  10
ATOM     10  C   UNL     1       4.061   0.334  23.651  1.00  0.00     0.220 C 
ATOM     11  O   UNL     1       5.152   0.822  24.057  1.00  0.00    -0.275 OA
ATOM     12  N   UNL     1       3.698   0.420  22.262  1.00  0.00    -0.352 N 
ATOM     13  H   UNL     1       2.753   0.093  21.961  1.00  0.00     0.163 HD
BRANCH  12  14
ATOM     14  C   UNL     1       4.651   0.819  21.231  1.00  0.00     0.151 C 
BRANCH  14  15
ATOM     15  C   UNL     1       4.390   2.243  20.819  1.00  0.00    -0.025 A 
ATOM     16  C   UNL     1       5.175   2.852  19.825  1.00  0.00     0.056 A 
ATOM     17  C   UNL     1       3.314   2.949  21.376  1.00  0.00     0.009 A 
ATOM     18  C   UNL     1       4.893   4.162  19.391  1.00  0.00     0.160 A 
ATOM     19  C   UNL     1       3.037   4.253  20.959  1.00  0.00     0.050 A 
ATOM     20  C   UNL     1       3.822   4.861  19.968  1.00  0.00     0.157 A 
BRANCH  18  21
ATOM     21  O   UNL     1       5.649   4.797  18.392  1.00  0.00    -0.493 OA
ATOM     22  C   UNL     1       5.349   4.754  17.001  1.00  0.00     0.278 C 
ENDBRANCH  18  21
BRANCH  20  23
ATOM     23  O   UNL     1       3.542   6.160  19.549  1.00  0.00    -0.504 OA
ATOM     24  H   UNL     1       3.446   6.390  18.566  1.00  0.00     0.293 HD
ENDBRANCH  20  23
ENDBRANCH  14  15
ENDBRANCH  12  14
ENDBRANCH   9  10
ENDBRANCH   1   9
TORSDOF 10
ENDMDL
MODEL 5
REMARK VINA RESULT:    -5.916      3.187     10.588
REMARK INTER + INTRA:          -9.918
REMARK INTER:                  -9.385
REMARK INTRA:                  -0.533
REMARK UNBOUND:                -0.717
REMARK SMILES COc1cc(CNC(=O)CCCCC=CC(C)C)ccc1O
REMARK SMILES IDX 11 1 12 2 13 3 14 4 15 5 16 6 17 7 18 8 10 9 8 10 9 11 7 12
REMARK SMILES IDX 6 14 5 15 4 16 19 17 3 18 20 19 21 20 2 21 1 22 22 23
REMARK H PARENT 7 13 22 24
REMARK Flexibility Score: inf
ROOT
ATOM      1  C   UNL     1       2.855  -2.954  25.331  1.00  0.00     0.010 C 
ENDROOT
BRANCH   1   2
ATOM      2  C   UNL     1       1.583  -3.085  26.182  1.00  0.00     0.005 C 
BRANCH   2   3
ATOM      3  C   UNL     1       1.887  -3.588  27.604  1.00  0.00     0.027 C 
BRANCH   3   4
ATOM      4  C   UNL     1       1.024  -4.761  27.988  1.00  0.00    -0.031 C 
ATOM      5  C   UNL     1       0.741  -5.741  27.117  1.00  0.00    -0.028 C 
BRANCH   5   6
ATOM      6  C   UNL     1      -0.154  -6.896  27.497  1.00  0.00     0.005 C 
ATOM      7  C   UNL     1      -0.067  -7.171  29.004  1.00  0.00     0.012 C 
ATOM      8  C   UNL     1      -1.603  -6.607  27.093  1.00  0.00     0.012 C 
ENDBRANCH   5   6
ENDBRANCH   3   4
ENDBRANCH   2   3
ENDBRANCH   1   2
BRANCH   1   9
ATOM      9  C   UNL     1       2.621  -2.027  24.133  1.00  0.00     0.100 C 
BRANCH   9  10
ATOM     10  C   UNL     1       3.165  -0.660  24.423  1.00  0.00     0.220 C 
ATOM     11  O   UNL     1       3.731  -0.445  25.530  1.00  0.00    -0.275 OA
ATOM     12  N   UNL     1       3.078   0.382  23.435  1.00  0.00    -0.352 N 
ATOM     13  H   UNL     1       2.527   0.214  22.564  1.00  0.00     0.163 HD
BRANCH  12  14
ATOM     14  C   UNL     1       3.844   1.620  23.540  1.00  0.00     0.151 C 
BRANCH  14  15
ATOM     15  C   UNL     1       4.138   2.157  22.165  1.00  0.00    -0.025 A 
ATOM     16  C   UNL     1       3.694   3.436  21.790  1.00  0.00     0.056 A 
ATOM     17  C   UNL     1       4.920   1.410  21.273  1.00  0.00     0.009 A 
ATOM     18  C   UNL     1       4.022   3.967  20.527  1.00  0.00     0.160 A 
ATOM     19  C   UNL     1       5.238   1.925  20.014  1.00  0.00     0.050 A 
ATOM     20  C   UNL     1       4.793   3.201  19.639  1.00  0.00     0.157 A 
BRANCH  18  21
ATOM     21  O   UNL     1       3.604   5.246  20.124  1.00  0.00    -0.493 OA
ATOM     22  C   UNL     1       2.424   5.511  19.372  1.00  0.00     0.278 C 
ENDBRANCH  18  21
BRANCH  20  23
ATOM     23  O   UNL     1       5.115   3.718  18.386  1.00  0.00    -0.504 OA
ATOM     24  H   UNL     1       6.071   3.735  18.049  1.00  0.00     0.293 HD
ENDBRANCH  20  23
ENDBRANCH  14  15
ENDBRANCH  12  14
ENDBRANCH   9  10
ENDBRANCH   1   9
TORSDOF 10
ENDMDL
MODEL 6
REMARK VINA RESULT:    -5.858     11.892     13.781
REMARK INTER + INTRA:          -9.828
REMARK INTER:                  -8.345
REMARK INTRA:                  -1.483
REMARK UNBOUND:                -0.717
REMARK SMILES COc1cc(CNC(=O)CCCCC=CC(C)C)ccc1O
REMARK SMILES IDX 11 1 12 2 13 3 14 4 15 5 16 6 17 7 18 8 10 9 8 10 9 11 7 12
REMARK SMILES IDX 6 14 5 15 4 16 19 17 3 18 20 19 21 20 2 21 1 22 22 23
REMARK H PARENT 7 13 22 24
REMARK Flexibility Score: inf
ROOT
ATOM      1  C   UNL     1       2.137 -10.299  16.605  1.00  0.00     0.010 C 
ENDROOT
BRANCH   1   2
ATOM      2  C   UNL     1       0.954 -11.230  16.908  1.00  0.00     0.005 C 
BRANCH   2   3
ATOM      3  C   UNL     1      -0.213 -11.020  15.928  1.00  0.00     0.027 C 
BRANCH   3   4
ATOM      4  C   UNL     1       0.258 -10.900  14.502  1.00  0.00    -0.031 C 
ATOM      5  C   UNL     1      -0.590 -11.017  13.470  1.00  0.00    -0.028 C 
BRANCH   5   6
ATOM      6  C   UNL     1      -0.106 -10.930  12.042  1.00  0.00     0.005 C 
ATOM      7  C   UNL     1       0.630  -9.605  11.803  1.00  0.00     0.012 C 
ATOM      8  C   UNL     1       0.811 -12.113  11.715  1.00  0.00     0.012 C 
ENDBRANCH   5   6
ENDBRANCH   3   4
ENDBRANCH   2   3
ENDBRANCH   1   2
BRANCH   1   9
ATOM      9  C   UNL     1       2.371  -9.315  17.757  1.00  0.00     0.100 C 
BRANCH   9  10
ATOM     10  C   UNL     1       1.945  -7.935  17.353  1.00  0.00     0.220 C 
ATOM     11  O   UNL     1       2.819  -7.105  16.979  1.00  0.00    -0.275 OA
ATOM     12  N   UNL     1       0.552  -7.575  17.353  1.00  0.00    -0.352 N 
ATOM     13  H   UNL     1      -0.146  -8.241  17.752  1.00  0.00     0.163 HD
BRANCH  12  14
ATOM     14  C   UNL     1       0.059  -6.370  16.693  1.00  0.00     0.151 C 
BRANCH  14  15
ATOM     15  C   UNL     1      -1.257  -6.657  16.023  1.00  0.00    -0.025 A 
ATOM     16  C   UNL     1      -2.374  -5.842  16.270  1.00  0.00     0.056 A 
ATOM     17  C   UNL     1      -1.358  -7.700  15.091  1.00  0.00     0.009 A 
ATOM     18  C   UNL     1      -3.590  -6.068  15.596  1.00  0.00     0.160 A 
ATOM     19  C   UNL     1      -2.565  -7.938  14.429  1.00  0.00     0.050 A 
ATOM     20  C   UNL     1      -3.680  -7.125  14.678  1.00  0.00     0.157 A 
BRANCH  18  21
ATOM     21  O   UNL     1      -4.724  -5.267  15.811  1.00  0.00    -0.493 OA
ATOM     22  C   UNL     1      -4.813  -3.886  15.473  1.00  0.00     0.278 C 
ENDBRANCH  18  21
BRANCH  20  23
ATOM     23  O   UNL     1      -4.882  -7.360  14.013  1.00  0.00    -0.504 OA
ATOM     24  H   UNL     1      -4.936  -7.990  13.221  1.00  0.00     0.293 HD
ENDBRANCH  20  23
ENDBRANCH  14  15
ENDBRANCH  12  14
ENDBRANCH   9  10
ENDBRANCH   1   9
TORSDOF 10
ENDMDL
MODEL 7
REMARK VINA RESULT:    -5.776     11.006     12.226
REMARK INTER + INTRA:          -9.701
REMARK INTER:                  -8.478
REMARK INTRA:                  -1.223
REMARK UNBOUND:                -0.717
REMARK SMILES COc1cc(CNC(=O)CCCCC=CC(C)C)ccc1O
REMARK SMILES IDX 11 1 12 2 13 3 14 4 15 5 16 6 17 7 18 8 10 9 8 10 9 11 7 12
REMARK SMILES IDX 6 14 5 15 4 16 19 17 3 18 20 19 21 20 2 21 1 22 22 23
REMARK H PARENT 7 13 22 24
REMARK Flexibility Score: inf
ROOT
ATOM      1  C   UNL     1      -1.532  -3.172  14.902  1.00  0.00     0.010 C 
ENDROOT
BRANCH   1   2
ATOM      2  C   UNL     1      -1.787  -3.923  16.218  1.00  0.00     0.005 C 
BRANCH   2   3
ATOM      3  C   UNL     1      -3.212  -4.497  16.290  1.00  0.00     0.027 C 
BRANCH   3   4
ATOM      4  C   UNL     1      -4.263  -3.432  16.109  1.00  0.00    -0.031 C 
ATOM      5  C   UNL     1      -4.779  -2.769  17.155  1.00  0.00    -0.028 C 
BRANCH   5   6
ATOM      6  C   UNL     1      -5.857  -1.727  16.970  1.00  0.00     0.005 C 
ATOM      7  C   UNL     1      -6.949  -2.245  16.025  1.00  0.00     0.012 C 
ATOM      8  C   UNL     1      -6.464  -1.340  18.322  1.00  0.00     0.012 C 
ENDBRANCH   5   6
ENDBRANCH   3   4
ENDBRANCH   2   3
ENDBRANCH   1   2
BRANCH   1   9
ATOM      9  C   UNL     1      -0.096  -2.638  14.844  1.00  0.00     0.100 C 
BRANCH   9  10
ATOM     10  C   UNL     1       0.872  -3.773  14.687  1.00  0.00     0.220 C 
ATOM     11  O   UNL     1       1.835  -3.877  15.495  1.00  0.00    -0.275 OA
ATOM     12  N   UNL     1       0.680  -4.753  13.652  1.00  0.00    -0.352 N 
ATOM     13  H   UNL     1      -0.066  -4.602  12.938  1.00  0.00     0.163 HD
BRANCH  12  14
ATOM     14  C   UNL     1       1.400  -6.023  13.639  1.00  0.00     0.151 C 
BRANCH  14  15
ATOM     15  C   UNL     1       0.636  -7.051  14.430  1.00  0.00    -0.025 A 
ATOM     16  C   UNL     1      -0.769  -7.020  14.465  1.00  0.00     0.056 A 
ATOM     17  C   UNL     1       1.319  -8.088  15.078  1.00  0.00     0.009 A 
ATOM     18  C   UNL     1      -1.490  -8.018  15.150  1.00  0.00     0.160 A 
ATOM     19  C   UNL     1       0.611  -9.073  15.771  1.00  0.00     0.050 A 
ATOM     20  C   UNL     1      -0.791  -9.042  15.808  1.00  0.00     0.157 A 
BRANCH  18  21
ATOM     21  O   UNL     1      -2.894  -8.026  15.197  1.00  0.00    -0.493 OA
ATOM     22  C   UNL     1      -3.738  -7.399  14.236  1.00  0.00     0.278 C 
ENDBRANCH  18  21
BRANCH  20  23
ATOM     23  O   UNL     1      -1.498 -10.027  16.494  1.00  0.00    -0.504 OA
ATOM     24  H   UNL     1      -1.770 -10.895  16.044  1.00  0.00     0.293 HD
ENDBRANCH  20  23
ENDBRANCH  14  15
ENDBRANCH  12  14
ENDBRANCH   9  10
ENDBRANCH   1   9
TORSDOF 10
ENDMDL
MODEL 8
REMARK VINA RESULT:    -5.720     11.541     13.364
REMARK INTER + INTRA:          -9.613
REMARK INTER:                  -7.170
REMARK INTRA:                  -2.443
REMARK UNBOUND:                -0.717
REMARK SMILES COc1cc(CNC(=O)CCCCC=CC(C)C)ccc1O
REMARK SMILES IDX 11 1 12 2 13 3 14 4 15 5 16 6 17 7 18 8 10 9 8 10 9 11 7 12
REMARK SMILES IDX 6 14 5 15 4 16 19 17 3 18 20 19 21 20 2 21 1 22 22 23
REMARK H PARENT 7 13 22 24
REMARK Flexibility Score: inf
ROOT
ATOM      1  C   UNL     1       0.923 -10.579  14.553  1.00  0.00     0.010 C 
ENDROOT
BRANCH   1   2
ATOM      2  C   UNL     1      -0.202 -10.616  15.598  1.00  0.00     0.005 C 
BRANCH   2   3
ATOM      3  C   UNL     1      -0.046  -9.507  16.654  1.00  0.00     0.027 C 
BRANCH   3   4
ATOM      4  C   UNL     1       1.021  -8.513  16.280  1.00  0.00    -0.031 C 
ATOM      5  C   UNL     1       1.131  -7.331  16.905  1.00  0.00    -0.028 C 
BRANCH   5   6
ATOM      6  C   UNL     1       2.182  -6.324  16.502  1.00  0.00     0.005 C 
ATOM      7  C   UNL     1       3.473  -6.545  17.299  1.00  0.00     0.012 C 
ATOM      8  C   UNL     1       2.463  -6.417  14.998  1.00  0.00     0.012 C 
ENDBRANCH   5   6
ENDBRANCH   3   4
ENDBRANCH   2   3
ENDBRANCH   1   2
BRANCH   1   9
ATOM      9  C   UNL     1       0.392 -10.945  13.162  1.00  0.00     0.100 C 
BRANCH   9  10
ATOM     10  C   UNL     1      -0.549  -9.885  12.672  1.00  0.00     0.220 C 
ATOM     11  O   UNL     1      -1.722 -10.209  12.338  1.00  0.00    -0.275 OA
ATOM     12  N   UNL     1      -0.132  -8.509  12.623  1.00  0.00    -0.352 N 
ATOM     13  H   UNL     1       0.866  -8.272  12.815  1.00  0.00     0.163 HD
BRANCH  12  14
ATOM     14  C   UNL     1      -1.081  -7.414  12.448  1.00  0.00     0.151 C 
BRANCH  14  15
ATOM     15  C   UNL     1      -1.369  -6.771  13.778  1.00  0.00    -0.025 A 
ATOM     16  C   UNL     1      -0.858  -5.497  14.078  1.00  0.00     0.056 A 
ATOM     17  C   UNL     1      -2.208  -7.411  14.700  1.00  0.00     0.009 A 
ATOM     18  C   UNL     1      -1.178  -4.864  15.295  1.00  0.00     0.160 A 
ATOM     19  C   UNL     1      -2.518  -6.796  15.915  1.00  0.00     0.050 A 
ATOM     20  C   UNL     1      -2.007  -5.524  16.215  1.00  0.00     0.157 A 
BRANCH  18  21
ATOM     21  O   UNL     1      -0.695  -3.587  15.623  1.00  0.00    -0.493 OA
ATOM     22  C   UNL     1       0.600  -3.101  15.283  1.00  0.00     0.278 C 
ENDBRANCH  18  21
BRANCH  20  23
ATOM     23  O   UNL     1      -2.322  -4.908  17.424  1.00  0.00    -0.504 OA
ATOM     24  H   UNL     1      -2.648  -3.949  17.461  1.00  0.00     0.293 HD
ENDBRANCH  20  23
ENDBRANCH  14  15
ENDBRANCH  12  14
ENDBRANCH   9  10
ENDBRANCH   1   9
TORSDOF 10
ENDMDL
MODEL 9
REMARK VINA RESULT:    -5.714     10.805     12.144
REMARK INTER + INTRA:          -9.604
REMARK INTER:                  -7.821
REMARK INTRA:                  -1.783
REMARK UNBOUND:                -0.717
REMARK SMILES COc1cc(CNC(=O)CCCCC=CC(C)C)ccc1O
REMARK SMILES IDX 11 1 12 2 13 3 14 4 15 5 16 6 17 7 18 8 10 9 8 10 9 11 7 12
REMARK SMILES IDX 6 14 5 15 4 16 19 17 3 18 20 19 21 20 2 21 1 22 22 23
REMARK H PARENT 7 13 22 24
REMARK Flexibility Score: inf
ROOT
ATOM      1  C   UNL     1       1.774  -8.023  16.183  1.00  0.00     0.010 C 
ENDROOT
BRANCH   1   2
ATOM      2  C   UNL     1       1.952  -6.875  17.187  1.00  0.00     0.005 C 
BRANCH   2   3
ATOM      3  C   UNL     1       2.894  -5.781  16.654  1.00  0.00     0.027 C 
BRANCH   3   4
ATOM      4  C   UNL     1       2.344  -5.109  15.423  1.00  0.00    -0.031 C 
ATOM      5  C   UNL     1       1.427  -4.133  15.505  1.00  0.00    -0.028 C 
BRANCH   5   6
ATOM      6  C   UNL     1       0.854  -3.487  14.266  1.00  0.00     0.005 C 
ATOM      7  C   UNL     1       0.285  -4.551  13.319  1.00  0.00     0.012 C 
ATOM      8  C   UNL     1      -0.233  -2.476  14.644  1.00  0.00     0.012 C 
ENDBRANCH   5   6
ENDBRANCH   3   4
ENDBRANCH   2   3
ENDBRANCH   1   2
BRANCH   1   9
ATOM      9  C   UNL     1       0.824  -9.093  16.735  1.00  0.00     0.100 C 
BRANCH   9  10
ATOM     10  C   UNL     1      -0.480  -9.057  15.996  1.00  0.00     0.220 C 
ATOM     11  O   UNL     1      -1.367  -9.911  16.269  1.00  0.00    -0.275 OA
ATOM     12  N   UNL     1      -0.731  -8.035  15.014  1.00  0.00    -0.352 N 
ATOM     13  H   UNL     1       0.045  -7.395  14.735  1.00  0.00     0.163 HD
BRANCH  12  14
ATOM     14  C   UNL     1      -2.068  -7.769  14.492  1.00  0.00     0.151 C 
BRANCH  14  15
ATOM     15  C   UNL     1      -2.629  -6.528  15.133  1.00  0.00    -0.025 A 
ATOM     16  C   UNL     1      -3.958  -6.141  14.890  1.00  0.00     0.056 A 
ATOM     17  C   UNL     1      -1.849  -5.789  16.032  1.00  0.00     0.009 A 
ATOM     18  C   UNL     1      -4.506  -5.017  15.538  1.00  0.00     0.160 A 
ATOM     19  C   UNL     1      -2.383  -4.665  16.668  1.00  0.00     0.050 A 
ATOM     20  C   UNL     1      -3.709  -4.278  16.425  1.00  0.00     0.157 A 
BRANCH  18  21
ATOM     21  O   UNL     1      -5.834  -4.608  15.328  1.00  0.00    -0.493 OA
ATOM     22  C   UNL     1      -6.772  -5.297  14.507  1.00  0.00     0.278 C 
ENDBRANCH  18  21
BRANCH  20  23
ATOM     23  O   UNL     1      -4.242  -3.161  17.063  1.00  0.00    -0.504 OA
ATOM     24  H   UNL     1      -3.772  -2.263  17.042  1.00  0.00     0.293 HD
ENDBRANCH  20  23
ENDBRANCH  14  15
ENDBRANCH  12  14
ENDBRANCH   9  10
ENDBRANCH   1   9
TORSDOF 10
ENDMDL
