MODEL 1
REMARK VINA RESULT:    -3.254      0.000      0.000
REMARK INTER + INTRA:          -5.281
REMARK INTER:                  -4.585
REMARK INTRA:                  -0.695
REMARK UNBOUND:                -0.695
REMARK SMILES C=CCCCCCCC(=O)[O-]
REMARK SMILES IDX 6 1 7 2 8 3 9 4 10 5 11 6 5 7 4 8 3 9 2 10 1 11
REMARK H PARENT
REMARK Flexibility Score: inf
ROOT
ATOM      1  C   UNL     1      23.963  -4.644 -29.259  1.00  0.00     0.000 C 
ENDROOT
BRANCH   1   2
ATOM      2  C   UNL     1      23.929  -5.463 -30.557  1.00  0.00     0.006 C 
BRANCH   2   3
ATOM      3  C   UNL     1      25.143  -5.183 -31.452  1.00  0.00     0.053 C 
BRANCH   3   4
ATOM      4  C   UNL     1      24.739  -4.895 -32.866  1.00  0.00     0.041 C 
ATOM      5  O   UNL     1      25.519  -5.168 -33.816  1.00  0.00    -0.550 OA
ATOM      6  O   UNL     1      23.516  -4.293 -33.131  1.00  0.00    -0.550 OA
ENDBRANCH   3   4
ENDBRANCH   2   3
ENDBRANCH   1   2
BRANCH   1   7
ATOM      7  C   UNL     1      24.227  -5.545 -28.047  1.00  0.00     0.000 C 
BRANCH   7   8
ATOM      8  C   UNL     1      24.034  -7.024 -28.407  1.00  0.00     0.004 C 
BRANCH   8   9
ATOM      9  C   UNL     1      25.239  -7.882 -28.000  1.00  0.00     0.027 C 
BRANCH   9  10
ATOM     10  C   UNL     1      26.273  -7.937 -29.093  1.00  0.00    -0.035 C 
ATOM     11  C   UNL     1      27.439  -7.293 -28.992  1.00  0.00     0.004 C 
ENDBRANCH   9  10
ENDBRANCH   8   9
ENDBRANCH   7   8
ENDBRANCH   1   7
TORSDOF 7
ENDMDL
MODEL 2
REMARK VINA RESULT:    -3.166     15.230     16.248
REMARK INTER + INTRA:          -5.156
REMARK INTER:                  -4.521
REMARK INTRA:                  -0.635
REMARK UNBOUND:                -0.695
REMARK SMILES C=CCCCCCCC(=O)[O-]
REMARK SMILES IDX 6 1 7 2 8 3 9 4 10 5 11 6 5 7 4 8 3 9 2 10 1 11
REMARK H PARENT
REMARK Flexibility Score: inf
ROOT
ATOM      1  C   UNL     1      35.096   6.642 -31.039  1.00  0.00     0.000 C 
ENDROOT
BRANCH   1   2
ATOM      2  C   UNL     1      34.339   7.886 -31.525  1.00  0.00     0.006 C 
BRANCH   2   3
ATOM      3  C   UNL     1      33.075   8.156 -30.697  1.00  0.00     0.053 C 
BRANCH   3   4
ATOM      4  C   UNL     1      32.789   9.622 -30.580  1.00  0.00     0.041 C 
ATOM      5  O   UNL     1      33.261  10.429 -31.424  1.00  0.00    -0.550 OA
ATOM      6  O   UNL     1      32.030  10.101 -29.520  1.00  0.00    -0.550 OA
ENDBRANCH   3   4
ENDBRANCH   2   3
ENDBRANCH   1   2
BRANCH   1   7
ATOM      7  C   UNL     1      35.959   6.051 -32.160  1.00  0.00     0.000 C 
BRANCH   7   8
ATOM      8  C   UNL     1      35.085   5.482 -33.287  1.00  0.00     0.004 C 
BRANCH   8   9
ATOM      9  C   UNL     1      34.406   4.165 -32.886  1.00  0.00     0.027 C 
BRANCH   9  10
ATOM     10  C   UNL     1      32.931   4.190 -33.188  1.00  0.00    -0.035 C 
ATOM     11  C   UNL     1      32.093   5.005 -32.543  1.00  0.00     0.004 C 
ENDBRANCH   9  10
ENDBRANCH   8   9
ENDBRANCH   7   8
ENDBRANCH   1   7
TORSDOF 7
ENDMDL
MODEL 3
REMARK VINA RESULT:    -3.116      0.948      1.167
REMARK INTER + INTRA:          -5.087
REMARK INTER:                  -4.345
REMARK INTRA:                  -0.742
REMARK UNBOUND:                -0.695
REMARK SMILES C=CCCCCCCC(=O)[O-]
REMARK SMILES IDX 6 1 7 2 8 3 9 4 10 5 11 6 5 7 4 8 3 9 2 10 1 11
REMARK H PARENT
REMARK Flexibility Score: inf
ROOT
ATOM      1  C   UNL     1      24.169  -5.275 -28.961  1.00  0.00     0.000 C 
ENDROOT
BRANCH   1   2
ATOM      2  C   UNL     1      23.833  -5.883 -30.330  1.00  0.00     0.006 C 
BRANCH   2   3
ATOM      3  C   UNL     1      24.864  -5.504 -31.402  1.00  0.00     0.053 C 
BRANCH   3   4
ATOM      4  C   UNL     1      24.437  -4.299 -32.183  1.00  0.00     0.041 C 
ATOM      5  O   UNL     1      23.563  -4.406 -33.084  1.00  0.00    -0.550 OA
ATOM      6  O   UNL     1      25.028  -3.066 -31.940  1.00  0.00    -0.550 OA
ENDBRANCH   3   4
ENDBRANCH   2   3
ENDBRANCH   1   2
BRANCH   1   7
ATOM      7  C   UNL     1      24.052  -6.324 -27.849  1.00  0.00     0.000 C 
BRANCH   7   8
ATOM      8  C   UNL     1      24.577  -7.687 -28.320  1.00  0.00     0.004 C 
BRANCH   8   9
ATOM      9  C   UNL     1      26.021  -7.941 -27.867  1.00  0.00     0.027 C 
BRANCH   9  10
ATOM     10  C   UNL     1      26.985  -7.861 -29.020  1.00  0.00    -0.035 C 
ATOM     11  C   UNL     1      27.800  -6.816 -29.187  1.00  0.00     0.004 C 
ENDBRANCH   9  10
ENDBRANCH   8   9
ENDBRANCH   7   8
ENDBRANCH   1   7
TORSDOF 7
ENDMDL
MODEL 4
REMARK VINA RESULT:    -3.061      2.786      4.209
REMARK INTER + INTRA:          -5.009
REMARK INTER:                  -4.139
REMARK INTRA:                  -0.870
REMARK UNBOUND:                -0.695
REMARK SMILES C=CCCCCCCC(=O)[O-]
REMARK SMILES IDX 6 1 7 2 8 3 9 4 10 5 11 6 5 7 4 8 3 9 2 10 1 11
REMARK H PARENT
REMARK Flexibility Score: inf
ROOT
ATOM      1  C   UNL     1      24.561  -7.802 -28.157  1.00  0.00     0.000 C 
ENDROOT
BRANCH   1   2
ATOM      2  C   UNL     1      26.033  -7.965 -27.751  1.00  0.00     0.006 C 
BRANCH   2   3
ATOM      3  C   UNL     1      26.981  -7.875 -28.956  1.00  0.00     0.053 C 
BRANCH   3   4
ATOM      4  C   UNL     1      27.902  -6.699 -28.853  1.00  0.00     0.041 C 
ATOM      5  O   UNL     1      28.920  -6.625 -29.590  1.00  0.00    -0.550 OA
ATOM      6  O   UNL     1      27.656  -5.702 -27.917  1.00  0.00    -0.550 OA
ENDBRANCH   3   4
ENDBRANCH   2   3
ENDBRANCH   1   2
BRANCH   1   7
ATOM      7  C   UNL     1      24.014  -6.444 -27.704  1.00  0.00     0.000 C 
BRANCH   7   8
ATOM      8  C   UNL     1      24.225  -5.375 -28.786  1.00  0.00     0.004 C 
BRANCH   8   9
ATOM      9  C   UNL     1      23.829  -5.876 -30.181  1.00  0.00     0.027 C 
BRANCH   9  10
ATOM     10  C   UNL     1      24.868  -5.522 -31.211  1.00  0.00    -0.035 C 
ATOM     11  C   UNL     1      25.816  -4.612 -30.973  1.00  0.00     0.004 C 
ENDBRANCH   9  10
ENDBRANCH   8   9
ENDBRANCH   7   8
ENDBRANCH   1   7
TORSDOF 7
ENDMDL
MODEL 5
REMARK VINA RESULT:    -3.056      1.611      2.799
REMARK INTER + INTRA:          -5.002
REMARK INTER:                  -4.328
REMARK INTRA:                  -0.675
REMARK UNBOUND:                -0.695
REMARK SMILES C=CCCCCCCC(=O)[O-]
REMARK SMILES IDX 6 1 7 2 8 3 9 4 10 5 11 6 5 7 4 8 3 9 2 10 1 11
REMARK H PARENT
REMARK Flexibility Score: inf
ROOT
ATOM      1  C   UNL     1      26.756  -6.685 -29.031  1.00  0.00     0.000 C 
ENDROOT
BRANCH   1   2
ATOM      2  C   UNL     1      25.918  -5.430 -29.316  1.00  0.00     0.006 C 
BRANCH   2   3
ATOM      3  C   UNL     1      25.787  -5.149 -30.820  1.00  0.00     0.053 C 
BRANCH   3   4
ATOM      4  C   UNL     1      24.380  -5.333 -31.300  1.00  0.00     0.041 C 
ATOM      5  O   UNL     1      23.486  -5.727 -30.505  1.00  0.00    -0.550 OA
ATOM      6  O   UNL     1      24.064  -5.104 -32.633  1.00  0.00    -0.550 OA
ENDBRANCH   3   4
ENDBRANCH   2   3
ENDBRANCH   1   2
BRANCH   1   7
ATOM      7  C   UNL     1      25.893  -7.950 -29.101  1.00  0.00     0.000 C 
BRANCH   7   8
ATOM      8  C   UNL     1      24.763  -7.905 -28.063  1.00  0.00     0.004 C 
BRANCH   8   9
ATOM      9  C   UNL     1      25.294  -7.968 -26.625  1.00  0.00     0.027 C 
BRANCH   9  10
ATOM     10  C   UNL     1      24.819  -6.796 -25.808  1.00  0.00    -0.035 C 
ATOM     11  C   UNL     1      23.970  -5.891 -26.301  1.00  0.00     0.004 C 
ENDBRANCH   9  10
ENDBRANCH   8   9
ENDBRANCH   7   8
ENDBRANCH   1   7
TORSDOF 7
ENDMDL
MODEL 6
REMARK VINA RESULT:    -2.993     14.785     15.889
REMARK INTER + INTRA:          -4.912
REMARK INTER:                  -4.473
REMARK INTRA:                  -0.439
REMARK UNBOUND:                -0.695
REMARK SMILES C=CCCCCCCC(=O)[O-]
REMARK SMILES IDX 6 1 7 2 8 3 9 4 10 5 11 6 5 7 4 8 3 9 2 10 1 11
REMARK H PARENT
REMARK Flexibility Score: inf
ROOT
ATOM      1  C   UNL     1      35.810   6.789 -31.468  1.00  0.00     0.000 C 
ENDROOT
BRANCH   1   2
ATOM      2  C   UNL     1      35.315   5.345 -31.633  1.00  0.00     0.006 C 
BRANCH   2   3
ATOM      3  C   UNL     1      35.070   4.980 -33.104  1.00  0.00     0.053 C 
BRANCH   3   4
ATOM      4  C   UNL     1      33.828   4.161 -33.275  1.00  0.00     0.041 C 
ATOM      5  O   UNL     1      33.902   2.980 -33.704  1.00  0.00    -0.550 OA
ATOM      6  O   UNL     1      32.585   4.715 -32.994  1.00  0.00    -0.550 OA
ENDBRANCH   3   4
ENDBRANCH   2   3
ENDBRANCH   1   2
BRANCH   1   7
ATOM      7  C   UNL     1      34.639   7.778 -31.489  1.00  0.00     0.000 C 
BRANCH   7   8
ATOM      8  C   UNL     1      33.485   7.285 -30.604  1.00  0.00     0.004 C 
BRANCH   8   9
ATOM      9  C   UNL     1      32.269   8.218 -30.664  1.00  0.00     0.027 C 
BRANCH   9  10
ATOM     10  C   UNL     1      32.607   9.599 -30.170  1.00  0.00    -0.035 C 
ATOM     11  C   UNL     1      32.780   9.862 -28.873  1.00  0.00     0.004 C 
ENDBRANCH   9  10
ENDBRANCH   8   9
ENDBRANCH   7   8
ENDBRANCH   1   7
TORSDOF 7
ENDMDL
MODEL 7
REMARK VINA RESULT:    -2.939      2.486      3.979
REMARK INTER + INTRA:          -4.837
REMARK INTER:                  -4.087
REMARK INTRA:                  -0.750
REMARK UNBOUND:                -0.695
REMARK SMILES C=CCCCCCCC(=O)[O-]
REMARK SMILES IDX 6 1 7 2 8 3 9 4 10 5 11 6 5 7 4 8 3 9 2 10 1 11
REMARK H PARENT
REMARK Flexibility Score: inf
ROOT
ATOM      1  C   UNL     1      26.904  -8.096 -27.345  1.00  0.00     0.000 C 
ENDROOT
BRANCH   1   2
ATOM      2  C   UNL     1      27.062  -7.954 -28.866  1.00  0.00     0.006 C 
BRANCH   2   3
ATOM      3  C   UNL     1      27.942  -6.756 -29.248  1.00  0.00     0.053 C 
BRANCH   3   4
ATOM      4  C   UNL     1      27.135  -5.508 -29.431  1.00  0.00     0.041 C 
ATOM      5  O   UNL     1      27.199  -4.582 -28.580  1.00  0.00    -0.550 OA
ATOM      6  O   UNL     1      26.285  -5.382 -30.522  1.00  0.00    -0.550 OA
ENDBRANCH   3   4
ENDBRANCH   2   3
ENDBRANCH   1   2
BRANCH   1   7
ATOM      7  C   UNL     1      25.423  -8.112 -26.946  1.00  0.00     0.000 C 
BRANCH   7   8
ATOM      8  C   UNL     1      24.519  -7.962 -28.177  1.00  0.00     0.004 C 
BRANCH   8   9
ATOM      9  C   UNL     1      23.847  -6.584 -28.239  1.00  0.00     0.027 C 
BRANCH   9  10
ATOM     10  C   UNL     1      23.882  -5.891 -26.903  1.00  0.00    -0.035 C 
ATOM     11  C   UNL     1      24.152  -4.588 -26.791  1.00  0.00     0.004 C 
ENDBRANCH   9  10
ENDBRANCH   8   9
ENDBRANCH   7   8
ENDBRANCH   1   7
TORSDOF 7
ENDMDL
MODEL 8
REMARK VINA RESULT:    -2.938     15.957     16.928
REMARK INTER + INTRA:          -4.835
REMARK INTER:                  -4.523
REMARK INTRA:                  -0.312
REMARK UNBOUND:                -0.695
REMARK SMILES C=CCCCCCCC(=O)[O-]
REMARK SMILES IDX 6 1 7 2 8 3 9 4 10 5 11 6 5 7 4 8 3 9 2 10 1 11
REMARK H PARENT
REMARK Flexibility Score: inf
ROOT
ATOM      1  C   UNL     1      33.516   7.816 -30.447  1.00  0.00     0.000 C 
ENDROOT
BRANCH   1   2
ATOM      2  C   UNL     1      34.595   7.691 -31.533  1.00  0.00     0.006 C 
BRANCH   2   3
ATOM      3  C   UNL     1      35.488   6.460 -31.324  1.00  0.00     0.053 C 
BRANCH   3   4
ATOM      4  C   UNL     1      35.191   5.381 -32.320  1.00  0.00     0.041 C 
ATOM      5  O   UNL     1      35.642   5.460 -33.493  1.00  0.00    -0.550 OA
ATOM      6  O   UNL     1      34.386   4.306 -31.962  1.00  0.00    -0.550 OA
ENDBRANCH   3   4
ENDBRANCH   2   3
ENDBRANCH   1   2
BRANCH   1   7
ATOM      7  C   UNL     1      32.613   9.027 -30.707  1.00  0.00     0.000 C 
BRANCH   7   8
ATOM      8  C   UNL     1      32.476   9.893 -29.446  1.00  0.00     0.004 C 
BRANCH   8   9
ATOM      9  C   UNL     1      32.830   9.119 -28.170  1.00  0.00     0.027 C 
BRANCH   9  10
ATOM     10  C   UNL     1      32.971  10.040 -26.987  1.00  0.00    -0.035 C 
ATOM     11  C   UNL     1      33.796  11.089 -27.004  1.00  0.00     0.004 C 
ENDBRANCH   9  10
ENDBRANCH   8   9
ENDBRANCH   7   8
ENDBRANCH   1   7
TORSDOF 7
ENDMDL
MODEL 9
REMARK VINA RESULT:    -2.935      1.054      1.892
REMARK INTER + INTRA:          -4.831
REMARK INTER:                  -4.041
REMARK INTRA:                  -0.790
REMARK UNBOUND:                -0.695
REMARK SMILES C=CCCCCCCC(=O)[O-]
REMARK SMILES IDX 6 1 7 2 8 3 9 4 10 5 11 6 5 7 4 8 3 9 2 10 1 11
REMARK H PARENT
REMARK Flexibility Score: inf
ROOT
ATOM      1  C   UNL     1      25.442  -4.302 -29.962  1.00  0.00     0.000 C 
ENDROOT
BRANCH   1   2
ATOM      2  C   UNL     1      24.058  -4.774 -30.429  1.00  0.00     0.006 C 
BRANCH   2   3
ATOM      3  C   UNL     1      24.125  -5.543 -31.756  1.00  0.00     0.053 C 
BRANCH   3   4
ATOM      4  C   UNL     1      24.260  -4.621 -32.929  1.00  0.00     0.041 C 
ATOM      5  O   UNL     1      25.183  -4.795 -33.768  1.00  0.00    -0.550 OA
ATOM      6  O   UNL     1      23.389  -3.549 -33.075  1.00  0.00    -0.550 OA
ENDBRANCH   3   4
ENDBRANCH   2   3
ENDBRANCH   1   2
BRANCH   1   7
ATOM      7  C   UNL     1      26.501  -5.384 -30.202  1.00  0.00     0.000 C 
BRANCH   7   8
ATOM      8  C   UNL     1      26.762  -6.194 -28.924  1.00  0.00     0.004 C 
BRANCH   8   9
ATOM      9  C   UNL     1      26.417  -7.679 -29.098  1.00  0.00     0.027 C 
BRANCH   9  10
ATOM     10  C   UNL     1      24.979  -7.956 -28.750  1.00  0.00    -0.035 C 
ATOM     11  C   UNL     1      24.371  -7.349 -27.727  1.00  0.00     0.004 C 
ENDBRANCH   9  10
ENDBRANCH   8   9
ENDBRANCH   7   8
ENDBRANCH   1   7
TORSDOF 7
ENDMDL
