MODEL 1
REMARK VINA RESULT:    -5.707      0.000      0.000
REMARK INTER + INTRA:          -6.207
REMARK INTER:                  -6.207
REMARK INTRA:                   0.000
REMARK UNBOUND:                 0.000
REMARK SMILES Cc1cc(O)c2c(c1)C(=O)c1cc(O)cc(O)c1C2=O
REMARK SMILES IDX 1 1 2 2 8 3 7 4 6 5 4 6 3 7 19 8 20 9 18 10 11 11 9 12 10 13
REMARK SMILES IDX 12 14 13 15 15 16 16 17 5 18 17 20 14 22
REMARK H PARENT 5 19 17 21 14 23
REMARK Flexibility Score: inf
ROOT
ATOM      1  C   UNL     1      -4.448 -39.032 220.698  1.00  0.00     0.044 C 
ATOM      2  C   UNL     1      -4.907 -39.611 219.393  1.00  0.00    -0.047 A 
ATOM      3  C   UNL     1      -4.031 -39.677 218.305  1.00  0.00     0.016 A 
ATOM      4  C   UNL     1      -4.456 -40.194 217.070  1.00  0.00     0.038 A 
ATOM      5  C   UNL     1      -5.785 -40.654 216.918  1.00  0.00     0.076 A 
ATOM      6  C   UNL     1      -6.695 -40.490 217.997  1.00  0.00     0.127 A 
ATOM      7  C   UNL     1      -6.240 -39.998 219.224  1.00  0.00     0.050 A 
ATOM      8  C   UNL     1      -6.157 -41.340 215.649  1.00  0.00     0.201 C 
ATOM      9  O   UNL     1      -7.152 -42.112 215.616  1.00  0.00    -0.288 OA
ATOM     10  C   UNL     1      -5.293 -41.208 214.447  1.00  0.00     0.076 A 
ATOM     11  C   UNL     1      -3.990 -40.685 214.593  1.00  0.00     0.041 A 
ATOM     12  C   UNL     1      -3.517 -40.244 215.924  1.00  0.00     0.194 C 
ATOM     13  O   UNL     1      -2.314 -39.896 216.079  1.00  0.00    -0.289 OA
ATOM     14  C   UNL     1      -3.147 -40.589 213.472  1.00  0.00     0.059 A 
ATOM     15  C   UNL     1      -3.590 -40.999 212.214  1.00  0.00     0.120 A 
ATOM     16  C   UNL     1      -4.882 -41.509 212.064  1.00  0.00     0.093 A 
ATOM     17  C   UNL     1      -5.737 -41.616 213.168  1.00  0.00     0.131 A 
ENDROOT
BRANCH   6  18
ATOM     18  O   UNL     1      -8.061 -40.764 217.888  1.00  0.00    -0.507 OA
ATOM     19  H   UNL     1      -8.785 -40.149 218.230  1.00  0.00     0.293 HD
ENDBRANCH   6  18
BRANCH  17  20
ATOM     20  O   UNL     1      -7.026 -42.116 212.988  1.00  0.00    -0.507 OA
ATOM     21  H   UNL     1      -7.553 -41.943 212.139  1.00  0.00     0.293 HD
ENDBRANCH  17  20
BRANCH  15  22
ATOM     22  O   UNL     1      -2.736 -40.892 211.117  1.00  0.00    -0.508 OA
ATOM     23  H   UNL     1      -2.943 -41.353 210.238  1.00  0.00     0.293 HD
ENDBRANCH  15  22
TORSDOF 3
ENDMDL
MODEL 2
REMARK VINA RESULT:    -5.689      1.486      5.471
REMARK INTER + INTRA:          -6.187
REMARK INTER:                  -6.187
REMARK INTRA:                   0.000
REMARK UNBOUND:                 0.000
REMARK SMILES Cc1cc(O)c2c(c1)C(=O)c1cc(O)cc(O)c1C2=O
REMARK SMILES IDX 1 1 2 2 8 3 7 4 6 5 4 6 3 7 19 8 20 9 18 10 11 11 9 12 10 13
REMARK SMILES IDX 12 14 13 15 15 16 16 17 5 18 17 20 14 22
REMARK H PARENT 5 19 17 21 14 23
REMARK Flexibility Score: inf
ROOT
ATOM      1  C   UNL     1       0.115 -40.250 212.073  1.00  0.00     0.044 C 
ATOM      2  C   UNL     1      -1.321 -40.478 212.442  1.00  0.00    -0.047 A 
ATOM      3  C   UNL     1      -1.783 -40.135 213.716  1.00  0.00     0.016 A 
ATOM      4  C   UNL     1      -3.120 -40.367 214.082  1.00  0.00     0.038 A 
ATOM      5  C   UNL     1      -4.012 -40.955 213.155  1.00  0.00     0.076 A 
ATOM      6  C   UNL     1      -3.509 -41.392 211.900  1.00  0.00     0.127 A 
ATOM      7  C   UNL     1      -2.182 -41.124 211.551  1.00  0.00     0.050 A 
ATOM      8  C   UNL     1      -5.455 -41.041 213.518  1.00  0.00     0.201 C 
ATOM      9  O   UNL     1      -6.327 -41.157 212.617  1.00  0.00    -0.288 OA
ATOM     10  C   UNL     1      -5.881 -40.875 214.933  1.00  0.00     0.076 A 
ATOM     11  C   UNL     1      -4.964 -40.350 215.868  1.00  0.00     0.041 A 
ATOM     12  C   UNL     1      -3.589 -40.008 215.441  1.00  0.00     0.194 C 
ATOM     13  O   UNL     1      -2.809 -39.424 216.244  1.00  0.00    -0.289 OA
ATOM     14  C   UNL     1      -5.364 -40.153 217.202  1.00  0.00     0.059 A 
ATOM     15  C   UNL     1      -6.658 -40.478 217.610  1.00  0.00     0.120 A 
ATOM     16  C   UNL     1      -7.566 -41.005 216.689  1.00  0.00     0.093 A 
ATOM     17  C   UNL     1      -7.189 -41.208 215.354  1.00  0.00     0.131 A 
ENDROOT
BRANCH   6  18
ATOM     18  O   UNL     1      -4.273 -42.125 210.988  1.00  0.00    -0.507 OA
ATOM     19  H   UNL     1      -4.379 -43.128 211.025  1.00  0.00     0.293 HD
ENDBRANCH   6  18
BRANCH  17  20
ATOM     20  O   UNL     1      -8.111 -41.749 214.458  1.00  0.00    -0.507 OA
ATOM     21  H   UNL     1      -9.009 -42.103 214.766  1.00  0.00     0.293 HD
ENDBRANCH  17  20
BRANCH  15  22
ATOM     22  O   UNL     1      -7.030 -40.274 218.937  1.00  0.00    -0.508 OA
ATOM     23  H   UNL     1      -7.627 -40.931 219.427  1.00  0.00     0.293 HD
ENDBRANCH  15  22
TORSDOF 3
ENDMDL
MODEL 3
REMARK VINA RESULT:    -5.340      1.276      5.491
REMARK INTER + INTRA:          -5.808
REMARK INTER:                  -5.808
REMARK INTRA:                   0.000
REMARK UNBOUND:                 0.000
REMARK SMILES Cc1cc(O)c2c(c1)C(=O)c1cc(O)cc(O)c1C2=O
REMARK SMILES IDX 1 1 2 2 8 3 7 4 6 5 4 6 3 7 19 8 20 9 18 10 11 11 9 12 10 13
REMARK SMILES IDX 12 14 13 15 15 16 16 17 5 18 17 20 14 22
REMARK H PARENT 5 19 17 21 14 23
REMARK Flexibility Score: inf
ROOT
ATOM      1  C   UNL     1      -2.922 -41.243 211.175  1.00  0.00     0.044 C 
ATOM      2  C   UNL     1      -3.827 -41.111 212.365  1.00  0.00    -0.047 A 
ATOM      3  C   UNL     1      -3.338 -40.588 213.566  1.00  0.00     0.016 A 
ATOM      4  C   UNL     1      -4.169 -40.482 214.694  1.00  0.00     0.038 A 
ATOM      5  C   UNL     1      -5.516 -40.908 214.620  1.00  0.00     0.076 A 
ATOM      6  C   UNL     1      -5.975 -41.530 213.427  1.00  0.00     0.127 A 
ATOM      7  C   UNL     1      -5.136 -41.598 212.311  1.00  0.00     0.050 A 
ATOM      8  C   UNL     1      -6.409 -40.636 215.781  1.00  0.00     0.201 C 
ATOM      9  O   UNL     1      -7.659 -40.607 215.623  1.00  0.00    -0.288 OA
ATOM     10  C   UNL     1      -5.830 -40.285 217.104  1.00  0.00     0.076 A 
ATOM     11  C   UNL     1      -4.468 -39.925 217.183  1.00  0.00     0.041 A 
ATOM     12  C   UNL     1      -3.630 -39.937 215.963  1.00  0.00     0.194 C 
ATOM     13  O   UNL     1      -2.448 -39.497 216.009  1.00  0.00    -0.289 OA
ATOM     14  C   UNL     1      -3.915 -39.555 218.421  1.00  0.00     0.059 A 
ATOM     15  C   UNL     1      -4.700 -39.546 219.575  1.00  0.00     0.120 A 
ATOM     16  C   UNL     1      -6.047 -39.909 219.503  1.00  0.00     0.093 A 
ATOM     17  C   UNL     1      -6.618 -40.280 218.278  1.00  0.00     0.131 A 
ENDROOT
BRANCH   6  18
ATOM     18  O   UNL     1      -7.234 -42.125 213.316  1.00  0.00    -0.507 OA
ATOM     19  H   UNL     1      -8.043 -41.658 212.932  1.00  0.00     0.293 HD
ENDBRANCH   6  18
BRANCH  17  20
ATOM     20  O   UNL     1      -7.962 -40.651 218.236  1.00  0.00    -0.507 OA
ATOM     21  H   UNL     1      -8.310 -41.324 217.563  1.00  0.00     0.293 HD
ENDBRANCH  17  20
BRANCH  15  22
ATOM     22  O   UNL     1      -4.128 -39.176 220.791  1.00  0.00    -0.508 OA
ATOM     23  H   UNL     1      -4.531 -38.444 221.365  1.00  0.00     0.293 HD
ENDBRANCH  15  22
TORSDOF 3
ENDMDL
MODEL 4
REMARK VINA RESULT:    -4.914      8.286     11.321
REMARK INTER + INTRA:          -5.345
REMARK INTER:                  -5.345
REMARK INTRA:                   0.000
REMARK UNBOUND:                 0.000
REMARK SMILES Cc1cc(O)c2c(c1)C(=O)c1cc(O)cc(O)c1C2=O
REMARK SMILES IDX 1 1 2 2 8 3 7 4 6 5 4 6 3 7 19 8 20 9 18 10 11 11 9 12 10 13
REMARK SMILES IDX 12 14 13 15 15 16 16 17 5 18 17 20 14 22
REMARK H PARENT 5 19 17 21 14 23
REMARK Flexibility Score: inf
ROOT
ATOM      1  C   UNL     1      -2.579 -29.675 225.657  1.00  0.00     0.044 C 
ATOM      2  C   UNL     1      -3.415 -30.916 225.560  1.00  0.00    -0.047 A 
ATOM      3  C   UNL     1      -2.884 -32.080 224.997  1.00  0.00     0.016 A 
ATOM      4  C   UNL     1      -3.666 -33.242 224.878  1.00  0.00     0.038 A 
ATOM      5  C   UNL     1      -5.006 -33.240 225.331  1.00  0.00     0.076 A 
ATOM      6  C   UNL     1      -5.567 -32.024 225.809  1.00  0.00     0.127 A 
ATOM      7  C   UNL     1      -4.760 -30.891 225.942  1.00  0.00     0.050 A 
ATOM      8  C   UNL     1      -5.754 -34.528 225.336  1.00  0.00     0.201 C 
ATOM      9  O   UNL     1      -6.757 -34.673 226.085  1.00  0.00    -0.288 OA
ATOM     10  C   UNL     1      -5.256 -35.685 224.546  1.00  0.00     0.076 A 
ATOM     11  C   UNL     1      -3.940 -35.653 224.039  1.00  0.00     0.041 A 
ATOM     12  C   UNL     1      -3.090 -34.463 224.267  1.00  0.00     0.194 C 
ATOM     13  O   UNL     1      -1.875 -34.485 223.924  1.00  0.00    -0.289 OA
ATOM     14  C   UNL     1      -3.442 -36.756 223.322  1.00  0.00     0.059 A 
ATOM     15  C   UNL     1      -4.241 -37.878 223.101  1.00  0.00     0.120 A 
ATOM     16  C   UNL     1      -5.548 -37.910 223.594  1.00  0.00     0.093 A 
ATOM     17  C   UNL     1      -6.063 -36.823 224.313  1.00  0.00     0.131 A 
ENDROOT
BRANCH   6  18
ATOM     18  O   UNL     1      -6.921 -31.884 226.125  1.00  0.00    -0.507 OA
ATOM     19  H   UNL     1      -7.587 -31.408 225.535  1.00  0.00     0.293 HD
ENDBRANCH   6  18
BRANCH  17  20
ATOM     20  O   UNL     1      -7.375 -36.875 224.783  1.00  0.00    -0.507 OA
ATOM     21  H   UNL     1      -8.068 -36.189 224.508  1.00  0.00     0.293 HD
ENDBRANCH  17  20
BRANCH  15  22
ATOM     22  O   UNL     1      -3.725 -38.958 222.387  1.00  0.00    -0.508 OA
ATOM     23  H   UNL     1      -3.467 -39.823 222.847  1.00  0.00     0.293 HD
ENDBRANCH  15  22
TORSDOF 3
ENDMDL
MODEL 5
REMARK VINA RESULT:    -4.845      2.052      5.478
REMARK INTER + INTRA:          -5.269
REMARK INTER:                  -5.269
REMARK INTRA:                   0.000
REMARK UNBOUND:                 0.000
REMARK SMILES Cc1cc(O)c2c(c1)C(=O)c1cc(O)cc(O)c1C2=O
REMARK SMILES IDX 1 1 2 2 8 3 7 4 6 5 4 6 3 7 19 8 20 9 18 10 11 11 9 12 10 13
REMARK SMILES IDX 12 14 13 15 15 16 16 17 5 18 17 20 14 22
REMARK H PARENT 5 19 17 21 14 23
REMARK Flexibility Score: inf
ROOT
ATOM      1  C   UNL     1      -0.874 -40.272 211.872  1.00  0.00     0.044 C 
ATOM      2  C   UNL     1      -1.761 -40.515 213.058  1.00  0.00    -0.047 A 
ATOM      3  C   UNL     1      -3.127 -40.749 212.879  1.00  0.00     0.016 A 
ATOM      4  C   UNL     1      -3.972 -40.954 213.984  1.00  0.00     0.038 A 
ATOM      5  C   UNL     1      -3.439 -40.923 215.294  1.00  0.00     0.076 A 
ATOM      6  C   UNL     1      -2.070 -40.584 215.470  1.00  0.00     0.127 A 
ATOM      7  C   UNL     1      -1.246 -40.413 214.354  1.00  0.00     0.050 A 
ATOM      8  C   UNL     1      -4.327 -41.299 216.429  1.00  0.00     0.201 C 
ATOM      9  O   UNL     1      -3.829 -41.685 217.520  1.00  0.00    -0.288 OA
ATOM     10  C   UNL     1      -5.802 -41.332 216.245  1.00  0.00     0.076 A 
ATOM     11  C   UNL     1      -6.331 -41.295 214.937  1.00  0.00     0.041 A 
ATOM     12  C   UNL     1      -5.420 -41.188 213.776  1.00  0.00     0.194 C 
ATOM     13  O   UNL     1      -5.883 -41.282 212.605  1.00  0.00    -0.289 OA
ATOM     14  C   UNL     1      -7.722 -41.362 214.745  1.00  0.00     0.059 A 
ATOM     15  C   UNL     1      -8.585 -41.458 215.837  1.00  0.00     0.120 A 
ATOM     16  C   UNL     1      -8.066 -41.487 217.134  1.00  0.00     0.093 A 
ATOM     17  C   UNL     1      -6.682 -41.423 217.348  1.00  0.00     0.131 A 
ENDROOT
BRANCH   6  18
ATOM     18  O   UNL     1      -1.495 -40.371 216.726  1.00  0.00    -0.507 OA
ATOM     19  H   UNL     1      -0.500 -40.394 216.898  1.00  0.00     0.293 HD
ENDBRANCH   6  18
BRANCH  17  20
ATOM     20  O   UNL     1      -6.191 -41.440 218.652  1.00  0.00    -0.507 OA
ATOM     21  H   UNL     1      -6.771 -41.714 219.438  1.00  0.00     0.293 HD
ENDBRANCH  17  20
BRANCH  15  22
ATOM     22  O   UNL     1      -9.961 -41.523 215.622  1.00  0.00    -0.508 OA
ATOM     23  H   UNL     1     -10.449 -40.805 215.098  1.00  0.00     0.293 HD
ENDBRANCH  15  22
TORSDOF 3
ENDMDL
MODEL 6
REMARK VINA RESULT:    -4.607      2.204      6.483
REMARK INTER + INTRA:          -5.011
REMARK INTER:                  -5.011
REMARK INTRA:                   0.000
REMARK UNBOUND:                 0.000
REMARK SMILES Cc1cc(O)c2c(c1)C(=O)c1cc(O)cc(O)c1C2=O
REMARK SMILES IDX 1 1 2 2 8 3 7 4 6 5 4 6 3 7 19 8 20 9 18 10 11 11 9 12 10 13
REMARK SMILES IDX 12 14 13 15 15 16 16 17 5 18 17 20 14 22
REMARK H PARENT 5 19 17 21 14 23
REMARK Flexibility Score: inf
ROOT
ATOM      1  C   UNL     1      -2.492 -40.627 211.924  1.00  0.00     0.044 C 
ATOM      2  C   UNL     1      -2.491 -40.550 213.422  1.00  0.00    -0.047 A 
ATOM      3  C   UNL     1      -3.681 -40.309 214.115  1.00  0.00     0.016 A 
ATOM      4  C   UNL     1      -3.687 -40.209 215.517  1.00  0.00     0.038 A 
ATOM      5  C   UNL     1      -2.480 -40.354 216.240  1.00  0.00     0.076 A 
ATOM      6  C   UNL     1      -1.263 -40.499 215.521  1.00  0.00     0.127 A 
ATOM      7  C   UNL     1      -1.287 -40.622 214.129  1.00  0.00     0.050 A 
ATOM      8  C   UNL     1      -2.547 -40.402 217.728  1.00  0.00     0.201 C 
ATOM      9  O   UNL     1      -1.610 -40.929 218.385  1.00  0.00    -0.288 OA
ATOM     10  C   UNL     1      -3.766 -39.934 218.437  1.00  0.00     0.076 A 
ATOM     11  C   UNL     1      -4.952 -39.726 217.699  1.00  0.00     0.041 A 
ATOM     12  C   UNL     1      -4.956 -39.940 216.235  1.00  0.00     0.194 C 
ATOM     13  O   UNL     1      -6.042 -39.877 215.595  1.00  0.00    -0.289 OA
ATOM     14  C   UNL     1      -6.123 -39.319 218.362  1.00  0.00     0.059 A 
ATOM     15  C   UNL     1      -6.123 -39.112 219.741  1.00  0.00     0.120 A 
ATOM     16  C   UNL     1      -4.949 -39.309 220.474  1.00  0.00     0.093 A 
ATOM     17  C   UNL     1      -3.771 -39.716 219.834  1.00  0.00     0.131 A 
ENDROOT
BRANCH   6  18
ATOM     18  O   UNL     1      -0.009 -40.487 216.139  1.00  0.00    -0.507 OA
ATOM     19  H   UNL     1       0.127 -40.606 217.132  1.00  0.00     0.293 HD
ENDBRANCH   6  18
BRANCH  17  20
ATOM     20  O   UNL     1      -2.611 -39.892 220.587  1.00  0.00    -0.507 OA
ATOM     21  H   UNL     1      -2.644 -40.095 221.580  1.00  0.00     0.293 HD
ENDBRANCH  17  20
BRANCH  15  22
ATOM     22  O   UNL     1      -7.296 -38.708 220.375  1.00  0.00    -0.508 OA
ATOM     23  H   UNL     1      -8.202 -38.819 219.933  1.00  0.00     0.293 HD
ENDBRANCH  15  22
TORSDOF 3
ENDMDL
MODEL 7
REMARK VINA RESULT:    -4.596      1.957      5.644
REMARK INTER + INTRA:          -4.999
REMARK INTER:                  -4.999
REMARK INTRA:                   0.000
REMARK UNBOUND:                 0.000
REMARK SMILES Cc1cc(O)c2c(c1)C(=O)c1cc(O)cc(O)c1C2=O
REMARK SMILES IDX 1 1 2 2 8 3 7 4 6 5 4 6 3 7 19 8 20 9 18 10 11 11 9 12 10 13
REMARK SMILES IDX 12 14 13 15 15 16 16 17 5 18 17 20 14 22
REMARK H PARENT 5 19 17 21 14 23
REMARK Flexibility Score: inf
ROOT
ATOM      1  C   UNL     1      -6.050 -40.997 212.647  1.00  0.00     0.044 C 
ATOM      2  C   UNL     1      -6.076 -40.838 214.139  1.00  0.00    -0.047 A 
ATOM      3  C   UNL     1      -4.882 -40.695 214.852  1.00  0.00     0.016 A 
ATOM      4  C   UNL     1      -4.892 -40.570 216.252  1.00  0.00     0.038 A 
ATOM      5  C   UNL     1      -6.121 -40.590 216.953  1.00  0.00     0.076 A 
ATOM      6  C   UNL     1      -7.319 -40.837 216.230  1.00  0.00     0.127 A 
ATOM      7  C   UNL     1      -7.284 -40.931 214.836  1.00  0.00     0.050 A 
ATOM      8  C   UNL     1      -6.108 -40.298 218.413  1.00  0.00     0.201 C 
ATOM      9  O   UNL     1      -7.157 -39.899 218.987  1.00  0.00    -0.288 OA
ATOM     10  C   UNL     1      -4.835 -40.363 219.178  1.00  0.00     0.076 A 
ATOM     11  C   UNL     1      -3.613 -40.411 218.473  1.00  0.00     0.041 A 
ATOM     12  C   UNL     1      -3.616 -40.432 216.993  1.00  0.00     0.194 C 
ATOM     13  O   UNL     1      -2.526 -40.348 216.362  1.00  0.00    -0.289 OA
ATOM     14  C   UNL     1      -2.400 -40.435 219.182  1.00  0.00     0.059 A 
ATOM     15  C   UNL     1      -2.392 -40.419 220.577  1.00  0.00     0.120 A 
ATOM     16  C   UNL     1      -3.600 -40.381 221.279  1.00  0.00     0.093 A 
ATOM     17  C   UNL     1      -4.821 -40.354 220.592  1.00  0.00     0.131 A 
ENDROOT
BRANCH   6  18
ATOM     18  O   UNL     1      -8.555 -41.035 216.851  1.00  0.00    -0.507 OA
ATOM     19  H   UNL     1      -9.417 -40.619 216.529  1.00  0.00     0.293 HD
ENDBRANCH   6  18
BRANCH  17  20
ATOM     20  O   UNL     1      -6.012 -40.329 221.317  1.00  0.00    -0.507 OA
ATOM     21  H   UNL     1      -6.038 -40.537 222.308  1.00  0.00     0.293 HD
ENDBRANCH  17  20
BRANCH  15  22
ATOM     22  O   UNL     1      -1.176 -40.445 221.257  1.00  0.00    -0.508 OA
ATOM     23  H   UNL     1      -0.436 -39.786 221.045  1.00  0.00     0.293 HD
ENDBRANCH  15  22
TORSDOF 3
ENDMDL
MODEL 8
REMARK VINA RESULT:    -4.594      1.778      6.613
REMARK INTER + INTRA:          -4.997
REMARK INTER:                  -4.997
REMARK INTRA:                   0.000
REMARK UNBOUND:                 0.000
REMARK SMILES Cc1cc(O)c2c(c1)C(=O)c1cc(O)cc(O)c1C2=O
REMARK SMILES IDX 1 1 2 2 8 3 7 4 6 5 4 6 3 7 19 8 20 9 18 10 11 11 9 12 10 13
REMARK SMILES IDX 12 14 13 15 15 16 16 17 5 18 17 20 14 22
REMARK H PARENT 5 19 17 21 14 23
REMARK Flexibility Score: inf
ROOT
ATOM      1  C   UNL     1      -5.521 -41.199 212.624  1.00  0.00     0.044 C 
ATOM      2  C   UNL     1      -4.929 -40.953 213.981  1.00  0.00    -0.047 A 
ATOM      3  C   UNL     1      -5.761 -40.737 215.083  1.00  0.00     0.016 A 
ATOM      4  C   UNL     1      -5.219 -40.480 216.353  1.00  0.00     0.038 A 
ATOM      5  C   UNL     1      -3.815 -40.439 216.526  1.00  0.00     0.076 A 
ATOM      6  C   UNL     1      -2.980 -40.561 215.382  1.00  0.00     0.127 A 
ATOM      7  C   UNL     1      -3.544 -40.842 214.135  1.00  0.00     0.050 A 
ATOM      8  C   UNL     1      -3.275 -40.324 217.909  1.00  0.00     0.201 C 
ATOM      9  O   UNL     1      -2.096 -40.691 218.159  1.00  0.00    -0.288 OA
ATOM     10  C   UNL     1      -4.156 -39.883 219.022  1.00  0.00     0.076 A 
ATOM     11  C   UNL     1      -5.553 -39.862 218.823  1.00  0.00     0.041 A 
ATOM     12  C   UNL     1      -6.117 -40.240 217.508  1.00  0.00     0.194 C 
ATOM     13  O   UNL     1      -7.367 -40.343 217.367  1.00  0.00    -0.289 OA
ATOM     14  C   UNL     1      -6.402 -39.484 219.878  1.00  0.00     0.059 A 
ATOM     15  C   UNL     1      -5.875 -39.122 221.118  1.00  0.00     0.120 A 
ATOM     16  C   UNL     1      -4.492 -39.134 221.317  1.00  0.00     0.093 A 
ATOM     17  C   UNL     1      -3.628 -39.510 220.279  1.00  0.00     0.131 A 
ENDROOT
BRANCH   6  18
ATOM     18  O   UNL     1      -1.596 -40.372 215.429  1.00  0.00    -0.507 OA
ATOM     19  H   UNL     1      -1.157 -39.509 215.715  1.00  0.00     0.293 HD
ENDBRANCH   6  18
BRANCH  17  20
ATOM     20  O   UNL     1      -2.251 -39.500 220.500  1.00  0.00    -0.507 OA
ATOM     21  H   UNL     1      -1.749 -40.336 220.777  1.00  0.00     0.293 HD
ENDBRANCH  17  20
BRANCH  15  22
ATOM     22  O   UNL     1      -6.737 -38.750 222.148  1.00  0.00    -0.508 OA
ATOM     23  H   UNL     1      -7.317 -37.921 222.080  1.00  0.00     0.293 HD
ENDBRANCH  15  22
TORSDOF 3
ENDMDL
