MODEL 1
REMARK VINA RESULT:    -4.717      0.000      0.000
REMARK INTER + INTRA:         -11.560
REMARK INTER:                  -8.854
REMARK INTRA:                  -2.706
REMARK UNBOUND:                -2.706
REMARK SMILES CCCCCC=CCC=CCCCCCCCC(=O)OC
REMARK SMILES IDX 11 1 10 2 9 3 8 4 7 5 6 6 5 7 4 8 3 9 2 10 1 11 12 12 13 13
REMARK SMILES IDX 14 14 15 15 16 16 17 17 18 18 19 19 20 20 21 21
REMARK H PARENT
REMARK Flexibility Score: inf
ROOT
ATOM      1  C   UNL     1       1.157  55.704  10.102  1.00  0.00     0.027 C 
ENDROOT
BRANCH   1   2
ATOM      2  C   UNL     1       1.835  57.029  10.342  1.00  0.00    -0.031 C 
ATOM      3  C   UNL     1       3.109  57.307  10.008  1.00  0.00    -0.027 C 
BRANCH   3   4
ATOM      4  C   UNL     1       4.044  56.312   9.365  1.00  0.00     0.054 C 
BRANCH   4   5
ATOM      5  C   UNL     1       5.290  56.120  10.189  1.00  0.00    -0.027 C 
ATOM      6  C   UNL     1       5.382  55.323  11.271  1.00  0.00    -0.031 C 
BRANCH   6   7
ATOM      7  C   UNL     1       4.242  54.523  11.861  1.00  0.00     0.027 C 
BRANCH   7   8
ATOM      8  C   UNL     1       4.331  53.038  11.484  1.00  0.00     0.004 C 
BRANCH   8   9
ATOM      9  C   UNL     1       3.475  52.689  10.257  1.00  0.00     0.000 C 
BRANCH   9  10
ATOM     10  C   UNL     1       4.284  51.882   9.236  1.00  0.00    -0.003 C 
ATOM     11  C   UNL     1       5.451  52.697   8.687  1.00  0.00     0.004 C 
ENDBRANCH   9  10
ENDBRANCH   8   9
ENDBRANCH   7   8
ENDBRANCH   6   7
ENDBRANCH   4   5
ENDBRANCH   3   4
ENDBRANCH   1   2
BRANCH   1  12
ATOM     12  C   UNL     1      -0.164  55.891   9.348  1.00  0.00     0.004 C 
BRANCH  12  13
ATOM     13  C   UNL     1      -0.354  54.794   8.292  1.00  0.00     0.000 C 
BRANCH  13  14
ATOM     14  C   UNL     1       0.876  53.880   8.163  1.00  0.00     0.000 C 
BRANCH  14  15
ATOM     15  C   UNL     1       1.379  53.766   6.713  1.00  0.00     0.001 C 
BRANCH  15  16
ATOM     16  C   UNL     1       2.854  54.174   6.553  1.00  0.00     0.012 C 
BRANCH  16  17
ATOM     17  C   UNL     1       3.187  54.784   5.179  1.00  0.00     0.123 C 
BRANCH  17  18
ATOM     18  C   UNL     1       4.460  54.244   4.604  1.00  0.00     0.305 C 
ATOM     19  O   UNL     1       5.114  53.369   5.235  1.00  0.00    -0.252 OA
BRANCH  18  20
ATOM     20  O   UNL     1       4.921  54.729   3.376  1.00  0.00    -0.469 OA
ATOM     21  C   UNL     1       6.266  54.562   2.943  1.00  0.00     0.282 C 
ENDBRANCH  18  20
ENDBRANCH  17  18
ENDBRANCH  16  17
ENDBRANCH  15  16
ENDBRANCH  14  15
ENDBRANCH  13  14
ENDBRANCH  12  13
ENDBRANCH   1  12
TORSDOF 15
ENDMDL
MODEL 2
REMARK VINA RESULT:    -4.700      1.510      3.951
REMARK INTER + INTRA:         -11.528
REMARK INTER:                  -8.788
REMARK INTRA:                  -2.740
REMARK UNBOUND:                -2.706
REMARK SMILES CCCCCC=CCC=CCCCCCCCC(=O)OC
REMARK SMILES IDX 11 1 10 2 9 3 8 4 7 5 6 6 5 7 4 8 3 9 2 10 1 11 12 12 13 13
REMARK SMILES IDX 14 14 15 15 16 16 17 17 18 18 19 19 20 20 21 21
REMARK H PARENT
REMARK Flexibility Score: inf
ROOT
ATOM      1  C   UNL     1       1.676  51.000  10.064  1.00  0.00     0.027 C 
ENDROOT
BRANCH   1   2
ATOM      2  C   UNL     1       2.351  50.128   9.036  1.00  0.00    -0.031 C 
ATOM      3  C   UNL     1       3.675  50.119   8.794  1.00  0.00    -0.027 C 
BRANCH   3   4
ATOM      4  C   UNL     1       4.666  51.006   9.507  1.00  0.00     0.054 C 
BRANCH   4   5
ATOM      5  C   UNL     1       5.251  52.034   8.574  1.00  0.00    -0.027 C 
ATOM      6  C   UNL     1       5.350  53.350   8.844  1.00  0.00    -0.031 C 
BRANCH   6   7
ATOM      7  C   UNL     1       4.854  54.018  10.107  1.00  0.00     0.027 C 
BRANCH   7   8
ATOM      8  C   UNL     1       5.508  55.390  10.323  1.00  0.00     0.004 C 
BRANCH   8   9
ATOM      9  C   UNL     1       4.689  56.536   9.711  1.00  0.00     0.000 C 
BRANCH   9  10
ATOM     10  C   UNL     1       4.082  57.420  10.806  1.00  0.00    -0.003 C 
ATOM     11  C   UNL     1       3.256  58.554  10.205  1.00  0.00     0.004 C 
ENDBRANCH   9  10
ENDBRANCH   8   9
ENDBRANCH   7   8
ENDBRANCH   6   7
ENDBRANCH   4   5
ENDBRANCH   3   4
ENDBRANCH   1   2
BRANCH   1  12
ATOM     12  C   UNL     1       0.779  52.046   9.394  1.00  0.00     0.004 C 
BRANCH  12  13
ATOM     13  C   UNL     1       1.354  53.458   9.573  1.00  0.00     0.000 C 
BRANCH  13  14
ATOM     14  C   UNL     1       1.727  54.117   8.235  1.00  0.00     0.000 C 
BRANCH  14  15
ATOM     15  C   UNL     1       1.375  53.237   7.023  1.00  0.00     0.001 C 
BRANCH  15  16
ATOM     16  C   UNL     1       2.581  52.956   6.110  1.00  0.00     0.012 C 
BRANCH  16  17
ATOM     17  C   UNL     1       3.562  54.135   5.989  1.00  0.00     0.123 C 
BRANCH  17  18
ATOM     18  C   UNL     1       3.488  54.811   4.655  1.00  0.00     0.305 C 
ATOM     19  O   UNL     1       2.490  55.530   4.370  1.00  0.00    -0.252 OA
BRANCH  18  20
ATOM     20  O   UNL     1       4.518  54.625   3.729  1.00  0.00    -0.469 OA
ATOM     21  C   UNL     1       5.862  54.367   4.120  1.00  0.00     0.282 C 
ENDBRANCH  18  20
ENDBRANCH  17  18
ENDBRANCH  16  17
ENDBRANCH  15  16
ENDBRANCH  14  15
ENDBRANCH  13  14
ENDBRANCH  12  13
ENDBRANCH   1  12
TORSDOF 15
ENDMDL
MODEL 3
REMARK VINA RESULT:    -4.530      1.223      3.786
REMARK INTER + INTRA:         -11.208
REMARK INTER:                  -8.627
REMARK INTRA:                  -2.581
REMARK UNBOUND:                -2.706
REMARK SMILES CCCCCC=CCC=CCCCCCCCC(=O)OC
REMARK SMILES IDX 11 1 10 2 9 3 8 4 7 5 6 6 5 7 4 8 3 9 2 10 1 11 12 12 13 13
REMARK SMILES IDX 14 14 15 15 16 16 17 17 18 18 19 19 20 20 21 21
REMARK H PARENT
REMARK Flexibility Score: inf
ROOT
ATOM      1  C   UNL     1       4.357  53.314  10.666  1.00  0.00     0.027 C 
ENDROOT
BRANCH   1   2
ATOM      2  C   UNL     1       5.156  54.413  10.015  1.00  0.00    -0.031 C 
ATOM      3  C   UNL     1       4.621  55.505   9.437  1.00  0.00    -0.027 C 
BRANCH   3   4
ATOM      4  C   UNL     1       3.138  55.764   9.341  1.00  0.00     0.054 C 
BRANCH   4   5
ATOM      5  C   UNL     1       2.683  56.742  10.393  1.00  0.00    -0.027 C 
ATOM      6  C   UNL     1       1.491  56.699  11.019  1.00  0.00    -0.031 C 
BRANCH   6   7
ATOM      7  C   UNL     1       0.398  55.692  10.740  1.00  0.00     0.027 C 
BRANCH   7   8
ATOM      8  C   UNL     1      -0.318  55.979   9.414  1.00  0.00     0.004 C 
BRANCH   8   9
ATOM      9  C   UNL     1      -0.778  54.698   8.703  1.00  0.00     0.000 C 
BRANCH   9  10
ATOM     10  C   UNL     1       0.423  53.868   8.238  1.00  0.00    -0.003 C 
ATOM     11  C   UNL     1       0.644  54.012   6.735  1.00  0.00     0.004 C 
ENDBRANCH   9  10
ENDBRANCH   8   9
ENDBRANCH   7   8
ENDBRANCH   6   7
ENDBRANCH   4   5
ENDBRANCH   3   4
ENDBRANCH   1   2
BRANCH   1  12
ATOM     12  C   UNL     1       4.482  52.004   9.880  1.00  0.00     0.004 C 
BRANCH  12  13
ATOM     13  C   UNL     1       3.203  51.720   9.079  1.00  0.00     0.000 C 
BRANCH  13  14
ATOM     14  C   UNL     1       3.475  51.549   7.575  1.00  0.00     0.000 C 
BRANCH  14  15
ATOM     15  C   UNL     1       4.975  51.584   7.237  1.00  0.00     0.001 C 
BRANCH  15  16
ATOM     16  C   UNL     1       5.354  52.736   6.290  1.00  0.00     0.012 C 
BRANCH  16  17
ATOM     17  C   UNL     1       4.295  53.850   6.206  1.00  0.00     0.123 C 
BRANCH  17  18
ATOM     18  C   UNL     1       4.325  54.574   4.896  1.00  0.00     0.305 C 
ATOM     19  O   UNL     1       3.261  55.060   4.421  1.00  0.00    -0.252 OA
BRANCH  18  20
ATOM     20  O   UNL     1       5.532  54.690   4.199  1.00  0.00    -0.469 OA
ATOM     21  C   UNL     1       5.597  54.708   2.778  1.00  0.00     0.282 C 
ENDBRANCH  18  20
ENDBRANCH  17  18
ENDBRANCH  16  17
ENDBRANCH  15  16
ENDBRANCH  14  15
ENDBRANCH  13  14
ENDBRANCH  12  13
ENDBRANCH   1  12
TORSDOF 15
ENDMDL
MODEL 4
REMARK VINA RESULT:    -4.519      2.324      6.188
REMARK INTER + INTRA:         -11.188
REMARK INTER:                  -8.733
REMARK INTRA:                  -2.455
REMARK UNBOUND:                -2.706
REMARK SMILES CCCCCC=CCC=CCCCCCCCC(=O)OC
REMARK SMILES IDX 11 1 10 2 9 3 8 4 7 5 6 6 5 7 4 8 3 9 2 10 1 11 12 12 13 13
REMARK SMILES IDX 14 14 15 15 16 16 17 17 18 18 19 19 20 20 21 21
REMARK H PARENT
REMARK Flexibility Score: inf
ROOT
ATOM      1  C   UNL     1       6.025  52.093   7.095  1.00  0.00     0.027 C 
ENDROOT
BRANCH   1   2
ATOM      2  C   UNL     1       5.710  52.713   5.757  1.00  0.00    -0.031 C 
ATOM      3  C   UNL     1       4.649  53.505   5.515  1.00  0.00    -0.027 C 
BRANCH   3   4
ATOM      4  C   UNL     1       3.610  53.859   6.551  1.00  0.00     0.054 C 
BRANCH   4   5
ATOM      5  C   UNL     1       2.354  53.048   6.365  1.00  0.00    -0.027 C 
ATOM      6  C   UNL     1       1.208  53.238   7.049  1.00  0.00    -0.031 C 
BRANCH   6   7
ATOM      7  C   UNL     1       1.007  54.264   8.141  1.00  0.00     0.027 C 
BRANCH   7   8
ATOM      8  C   UNL     1      -0.439  54.272   8.657  1.00  0.00     0.004 C 
BRANCH   8   9
ATOM      9  C   UNL     1      -0.601  55.102   9.940  1.00  0.00     0.000 C 
BRANCH   9  10
ATOM     10  C   UNL     1      -0.680  56.598   9.618  1.00  0.00    -0.003 C 
ATOM     11  C   UNL     1      -0.045  57.436  10.724  1.00  0.00     0.004 C 
ENDBRANCH   9  10
ENDBRANCH   8   9
ENDBRANCH   7   8
ENDBRANCH   6   7
ENDBRANCH   4   5
ENDBRANCH   3   4
ENDBRANCH   1   2
BRANCH   1  12
ATOM     12  C   UNL     1       5.459  50.672   7.188  1.00  0.00     0.004 C 
BRANCH  12  13
ATOM     13  C   UNL     1       4.346  50.592   8.243  1.00  0.00     0.000 C 
BRANCH  13  14
ATOM     14  C   UNL     1       4.660  51.426   9.496  1.00  0.00     0.000 C 
BRANCH  14  15
ATOM     15  C   UNL     1       3.442  52.220   9.997  1.00  0.00     0.001 C 
BRANCH  15  16
ATOM     16  C   UNL     1       3.803  53.632  10.490  1.00  0.00     0.012 C 
BRANCH  16  17
ATOM     17  C   UNL     1       5.046  54.233   9.810  1.00  0.00     0.123 C 
BRANCH  17  18
ATOM     18  C   UNL     1       5.249  55.677  10.152  1.00  0.00     0.305 C 
ATOM     19  O   UNL     1       4.642  56.569   9.497  1.00  0.00    -0.252 OA
BRANCH  18  20
ATOM     20  O   UNL     1       6.124  56.024  11.185  1.00  0.00    -0.469 OA
ATOM     21  C   UNL     1       6.084  57.292  11.829  1.00  0.00     0.282 C 
ENDBRANCH  18  20
ENDBRANCH  17  18
ENDBRANCH  16  17
ENDBRANCH  15  16
ENDBRANCH  14  15
ENDBRANCH  13  14
ENDBRANCH  12  13
ENDBRANCH   1  12
TORSDOF 15
ENDMDL
MODEL 5
REMARK VINA RESULT:    -4.462     12.551     15.355
REMARK INTER + INTRA:         -11.081
REMARK INTER:                  -8.868
REMARK INTRA:                  -2.213
REMARK UNBOUND:                -2.706
REMARK SMILES CCCCCC=CCC=CCCCCCCCC(=O)OC
REMARK SMILES IDX 11 1 10 2 9 3 8 4 7 5 6 6 5 7 4 8 3 9 2 10 1 11 12 12 13 13
REMARK SMILES IDX 14 14 15 15 16 16 17 17 18 18 19 19 20 20 21 21
REMARK H PARENT
REMARK Flexibility Score: inf
ROOT
ATOM      1  C   UNL     1     -11.047  65.485   3.519  1.00  0.00     0.027 C 
ENDROOT
BRANCH   1   2
ATOM      2  C   UNL     1      -9.885  65.754   2.597  1.00  0.00    -0.031 C 
ATOM      3  C   UNL     1      -9.004  64.821   2.189  1.00  0.00    -0.027 C 
BRANCH   3   4
ATOM      4  C   UNL     1      -9.047  63.376   2.623  1.00  0.00     0.054 C 
BRANCH   4   5
ATOM      5  C   UNL     1      -8.314  63.173   3.923  1.00  0.00    -0.027 C 
ATOM      6  C   UNL     1      -7.396  62.213   4.146  1.00  0.00    -0.031 C 
BRANCH   6   7
ATOM      7  C   UNL     1      -6.981  61.157   3.146  1.00  0.00     0.027 C 
BRANCH   7   8
ATOM      8  C   UNL     1      -5.507  60.762   3.311  1.00  0.00     0.004 C 
BRANCH   8   9
ATOM      9  C   UNL     1      -4.654  61.899   3.894  1.00  0.00     0.000 C 
BRANCH   9  10
ATOM     10  C   UNL     1      -3.794  61.397   5.059  1.00  0.00    -0.003 C 
ATOM     11  C   UNL     1      -4.419  61.759   6.403  1.00  0.00     0.004 C 
ENDBRANCH   9  10
ENDBRANCH   8   9
ENDBRANCH   7   8
ENDBRANCH   6   7
ENDBRANCH   4   5
ENDBRANCH   3   4
ENDBRANCH   1   2
BRANCH   1  12
ATOM     12  C   UNL     1     -10.963  66.354   4.778  1.00  0.00     0.004 C 
BRANCH  12  13
ATOM     13  C   UNL     1      -9.851  65.860   5.714  1.00  0.00     0.000 C 
BRANCH  13  14
ATOM     14  C   UNL     1      -8.651  66.819   5.764  1.00  0.00     0.000 C 
BRANCH  14  15
ATOM     15  C   UNL     1      -7.631  66.435   6.849  1.00  0.00     0.001 C 
BRANCH  15  16
ATOM     16  C   UNL     1      -6.830  65.167   6.503  1.00  0.00     0.012 C 
BRANCH  16  17
ATOM     17  C   UNL     1      -5.576  65.433   5.652  1.00  0.00     0.123 C 
BRANCH  17  18
ATOM     18  C   UNL     1      -4.397  65.846   6.477  1.00  0.00     0.305 C 
ATOM     19  O   UNL     1      -3.925  67.011   6.362  1.00  0.00    -0.252 OA
BRANCH  18  20
ATOM     20  O   UNL     1      -3.816  64.928   7.358  1.00  0.00    -0.469 OA
ATOM     21  C   UNL     1      -3.719  65.164   8.757  1.00  0.00     0.282 C 
ENDBRANCH  18  20
ENDBRANCH  17  18
ENDBRANCH  16  17
ENDBRANCH  15  16
ENDBRANCH  14  15
ENDBRANCH  13  14
ENDBRANCH  12  13
ENDBRANCH   1  12
TORSDOF 15
ENDMDL
MODEL 6
REMARK VINA RESULT:    -4.456      3.687      6.747
REMARK INTER + INTRA:         -11.070
REMARK INTER:                  -8.276
REMARK INTRA:                  -2.793
REMARK UNBOUND:                -2.706
REMARK SMILES CCCCCC=CCC=CCCCCCCCC(=O)OC
REMARK SMILES IDX 11 1 10 2 9 3 8 4 7 5 6 6 5 7 4 8 3 9 2 10 1 11 12 12 13 13
REMARK SMILES IDX 14 14 15 15 16 16 17 17 18 18 19 19 20 20 21 21
REMARK H PARENT
REMARK Flexibility Score: inf
ROOT
ATOM      1  C   UNL     1       5.233  52.018   6.723  1.00  0.00     0.027 C 
ENDROOT
BRANCH   1   2
ATOM      2  C   UNL     1       4.737  53.217   5.954  1.00  0.00    -0.031 C 
ATOM      3  C   UNL     1       3.439  53.517   5.764  1.00  0.00    -0.027 C 
BRANCH   3   4
ATOM      4  C   UNL     1       2.297  52.675   6.278  1.00  0.00     0.054 C 
BRANCH   4   5
ATOM      5  C   UNL     1       1.174  53.534   6.798  1.00  0.00    -0.027 C 
ATOM      6  C   UNL     1       1.085  54.003   8.058  1.00  0.00    -0.031 C 
BRANCH   6   7
ATOM      7  C   UNL     1       2.071  53.711   9.167  1.00  0.00     0.027 C 
BRANCH   7   8
ATOM      8  C   UNL     1       2.682  54.997   9.741  1.00  0.00     0.004 C 
BRANCH   8   9
ATOM      9  C   UNL     1       3.874  55.502   8.915  1.00  0.00     0.000 C 
BRANCH   9  10
ATOM     10  C   UNL     1       4.509  56.735   9.567  1.00  0.00    -0.003 C 
ATOM     11  C   UNL     1       3.455  57.783   9.910  1.00  0.00     0.004 C 
ENDBRANCH   9  10
ENDBRANCH   8   9
ENDBRANCH   7   8
ENDBRANCH   6   7
ENDBRANCH   4   5
ENDBRANCH   3   4
ENDBRANCH   1   2
BRANCH   1  12
ATOM     12  C   UNL     1       5.575  52.395   8.168  1.00  0.00     0.004 C 
BRANCH  12  13
ATOM     13  C   UNL     1       4.842  51.483   9.162  1.00  0.00     0.000 C 
BRANCH  13  14
ATOM     14  C   UNL     1       4.263  50.225   8.493  1.00  0.00     0.000 C 
BRANCH  14  15
ATOM     15  C   UNL     1       2.764  50.038   8.783  1.00  0.00     0.001 C 
BRANCH  15  16
ATOM     16  C   UNL     1       2.415  50.181  10.275  1.00  0.00     0.012 C 
BRANCH  16  17
ATOM     17  C   UNL     1       0.940  50.534  10.540  1.00  0.00     0.123 C 
BRANCH  17  18
ATOM     18  C   UNL     1       0.111  49.330  10.867  1.00  0.00     0.305 C 
ATOM     19  O   UNL     1       0.590  48.415  11.593  1.00  0.00    -0.252 OA
BRANCH  18  20
ATOM     20  O   UNL     1      -1.183  49.223  10.349  1.00  0.00    -0.469 OA
ATOM     21  C   UNL     1      -1.915  48.004  10.362  1.00  0.00     0.282 C 
ENDBRANCH  18  20
ENDBRANCH  17  18
ENDBRANCH  16  17
ENDBRANCH  15  16
ENDBRANCH  14  15
ENDBRANCH  13  14
ENDBRANCH  12  13
ENDBRANCH   1  12
TORSDOF 15
ENDMDL
MODEL 7
REMARK VINA RESULT:    -4.431     11.956     15.002
REMARK INTER + INTRA:         -11.023
REMARK INTER:                  -8.586
REMARK INTRA:                  -2.437
REMARK UNBOUND:                -2.706
REMARK SMILES CCCCCC=CCC=CCCCCCCCC(=O)OC
REMARK SMILES IDX 11 1 10 2 9 3 8 4 7 5 6 6 5 7 4 8 3 9 2 10 1 11 12 12 13 13
REMARK SMILES IDX 14 14 15 15 16 16 17 17 18 18 19 19 20 20 21 21
REMARK H PARENT
REMARK Flexibility Score: inf
ROOT
ATOM      1  C   UNL     1      -4.602  65.437   6.302  1.00  0.00     0.027 C 
ENDROOT
BRANCH   1   2
ATOM      2  C   UNL     1      -5.980  65.933   6.660  1.00  0.00    -0.031 C 
ATOM      3  C   UNL     1      -7.034  65.929   5.821  1.00  0.00    -0.027 C 
BRANCH   3   4
ATOM      4  C   UNL     1      -6.969  65.447   4.393  1.00  0.00     0.054 C 
BRANCH   4   5
ATOM      5  C   UNL     1      -7.360  63.997   4.286  1.00  0.00    -0.027 C 
ATOM      6  C   UNL     1      -8.425  63.536   3.600  1.00  0.00    -0.031 C 
BRANCH   6   7
ATOM      7  C   UNL     1      -9.424  64.398   2.863  1.00  0.00     0.027 C 
BRANCH   7   8
ATOM      8  C   UNL     1     -10.665  64.693   3.718  1.00  0.00     0.004 C 
BRANCH   8   9
ATOM      9  C   UNL     1     -11.125  66.154   3.604  1.00  0.00     0.000 C 
BRANCH   9  10
ATOM     10  C   UNL     1     -10.674  66.968   4.822  1.00  0.00    -0.003 C 
ATOM     11  C   UNL     1     -10.596  66.095   6.071  1.00  0.00     0.004 C 
ENDBRANCH   9  10
ENDBRANCH   8   9
ENDBRANCH   7   8
ENDBRANCH   6   7
ENDBRANCH   4   5
ENDBRANCH   3   4
ENDBRANCH   1   2
BRANCH   1  12
ATOM     12  C   UNL     1      -3.997  64.619   7.448  1.00  0.00     0.004 C 
BRANCH  12  13
ATOM     13  C   UNL     1      -3.914  63.132   7.077  1.00  0.00     0.000 C 
BRANCH  13  14
ATOM     14  C   UNL     1      -5.271  62.417   7.194  1.00  0.00     0.000 C 
BRANCH  14  15
ATOM     15  C   UNL     1      -5.574  61.521   5.981  1.00  0.00     0.001 C 
BRANCH  15  16
ATOM     16  C   UNL     1      -4.493  61.598   4.888  1.00  0.00     0.012 C 
BRANCH  16  17
ATOM     17  C   UNL     1      -5.044  61.496   3.455  1.00  0.00     0.123 C 
BRANCH  17  18
ATOM     18  C   UNL     1      -5.579  60.133   3.140  1.00  0.00     0.305 C 
ATOM     19  O   UNL     1      -4.783  59.169   2.966  1.00  0.00    -0.252 OA
BRANCH  18  20
ATOM     20  O   UNL     1      -6.960  59.944   3.025  1.00  0.00    -0.469 OA
ATOM     21  C   UNL     1      -7.627  59.912   1.769  1.00  0.00     0.282 C 
ENDBRANCH  18  20
ENDBRANCH  17  18
ENDBRANCH  16  17
ENDBRANCH  15  16
ENDBRANCH  14  15
ENDBRANCH  13  14
ENDBRANCH  12  13
ENDBRANCH   1  12
TORSDOF 15
ENDMDL
MODEL 8
REMARK VINA RESULT:    -4.398      2.783      5.974
REMARK INTER + INTRA:         -10.961
REMARK INTER:                  -8.400
REMARK INTRA:                  -2.561
REMARK UNBOUND:                -2.706
REMARK SMILES CCCCCC=CCC=CCCCCCCCC(=O)OC
REMARK SMILES IDX 11 1 10 2 9 3 8 4 7 5 6 6 5 7 4 8 3 9 2 10 1 11 12 12 13 13
REMARK SMILES IDX 14 14 15 15 16 16 17 17 18 18 19 19 20 20 21 21
REMARK H PARENT
REMARK Flexibility Score: inf
ROOT
ATOM      1  C   UNL     1       1.765  51.974   7.713  1.00  0.00     0.027 C 
ENDROOT
BRANCH   1   2
ATOM      2  C   UNL     1       1.597  50.707   8.513  1.00  0.00    -0.031 C 
ATOM      3  C   UNL     1       2.600  50.059   9.135  1.00  0.00    -0.027 C 
BRANCH   3   4
ATOM      4  C   UNL     1       4.041  50.505   9.094  1.00  0.00     0.054 C 
BRANCH   4   5
ATOM      5  C   UNL     1       4.708  50.083   7.811  1.00  0.00    -0.027 C 
ATOM      6  C   UNL     1       5.538  50.857   7.085  1.00  0.00    -0.031 C 
BRANCH   6   7
ATOM      7  C   UNL     1       5.903  52.287   7.413  1.00  0.00     0.027 C 
BRANCH   7   8
ATOM      8  C   UNL     1       4.952  53.288   6.743  1.00  0.00     0.004 C 
BRANCH   8   9
ATOM      9  C   UNL     1       5.164  53.374   5.224  1.00  0.00     0.000 C 
BRANCH   9  10
ATOM     10  C   UNL     1       4.586  54.678   4.663  1.00  0.00    -0.003 C 
ATOM     11  C   UNL     1       3.098  54.803   4.977  1.00  0.00     0.004 C 
ENDBRANCH   9  10
ENDBRANCH   8   9
ENDBRANCH   7   8
ENDBRANCH   6   7
ENDBRANCH   4   5
ENDBRANCH   3   4
ENDBRANCH   1   2
BRANCH   1  12
ATOM     12  C   UNL     1       1.250  53.189   8.493  1.00  0.00     0.004 C 
BRANCH  12  13
ATOM     13  C   UNL     1       2.415  54.053   8.995  1.00  0.00     0.000 C 
BRANCH  13  14
ATOM     14  C   UNL     1       2.780  53.759  10.459  1.00  0.00     0.000 C 
BRANCH  14  15
ATOM     15  C   UNL     1       4.300  53.722  10.694  1.00  0.00     0.001 C 
BRANCH  15  16
ATOM     16  C   UNL     1       5.053  54.843   9.956  1.00  0.00     0.012 C 
BRANCH  16  17
ATOM     17  C   UNL     1       5.489  56.006  10.866  1.00  0.00     0.123 C 
BRANCH  17  18
ATOM     18  C   UNL     1       4.608  57.209  10.724  1.00  0.00     0.305 C 
ATOM     19  O   UNL     1       3.834  57.308   9.732  1.00  0.00    -0.252 OA
BRANCH  18  20
ATOM     20  O   UNL     1       4.665  58.222  11.685  1.00  0.00    -0.469 OA
ATOM     21  C   UNL     1       3.526  58.635  12.431  1.00  0.00     0.282 C 
ENDBRANCH  18  20
ENDBRANCH  17  18
ENDBRANCH  16  17
ENDBRANCH  15  16
ENDBRANCH  14  15
ENDBRANCH  13  14
ENDBRANCH  12  13
ENDBRANCH   1  12
TORSDOF 15
ENDMDL
MODEL 9
REMARK VINA RESULT:    -4.336      2.421      5.230
REMARK INTER + INTRA:         -10.843
REMARK INTER:                  -7.582
REMARK INTRA:                  -3.261
REMARK UNBOUND:                -2.706
REMARK SMILES CCCCCC=CCC=CCCCCCCCC(=O)OC
REMARK SMILES IDX 11 1 10 2 9 3 8 4 7 5 6 6 5 7 4 8 3 9 2 10 1 11 12 12 13 13
REMARK SMILES IDX 14 14 15 15 16 16 17 17 18 18 19 19 20 20 21 21
REMARK H PARENT
REMARK Flexibility Score: inf
ROOT
ATOM      1  C   UNL     1       2.718  57.265  10.093  1.00  0.00     0.027 C 
ENDROOT
BRANCH   1   2
ATOM      2  C   UNL     1       2.028  56.447  11.155  1.00  0.00    -0.031 C 
ATOM      3  C   UNL     1       1.109  55.495  10.907  1.00  0.00    -0.027 C 
BRANCH   3   4
ATOM      4  C   UNL     1       0.625  55.133   9.524  1.00  0.00     0.054 C 
BRANCH   4   5
ATOM      5  C   UNL     1       0.838  53.671   9.234  1.00  0.00    -0.027 C 
ATOM      6  C   UNL     1       1.053  53.153   8.009  1.00  0.00    -0.031 C 
BRANCH   6   7
ATOM      7  C   UNL     1       1.072  53.945   6.721  1.00  0.00     0.027 C 
BRANCH   7   8
ATOM      8  C   UNL     1       2.468  53.963   6.082  1.00  0.00     0.004 C 
BRANCH   8   9
ATOM      9  C   UNL     1       3.386  52.868   6.644  1.00  0.00     0.000 C 
BRANCH   9  10
ATOM     10  C   UNL     1       4.815  53.025   6.113  1.00  0.00    -0.003 C 
ATOM     11  C   UNL     1       5.754  51.999   6.740  1.00  0.00     0.004 C 
ENDBRANCH   9  10
ENDBRANCH   8   9
ENDBRANCH   7   8
ENDBRANCH   6   7
ENDBRANCH   4   5
ENDBRANCH   3   4
ENDBRANCH   1   2
BRANCH   1  12
ATOM     12  C   UNL     1       4.165  56.801   9.895  1.00  0.00     0.004 C 
BRANCH  12  13
ATOM     13  C   UNL     1       4.224  55.549   9.009  1.00  0.00     0.000 C 
BRANCH  13  14
ATOM     14  C   UNL     1       5.054  54.418   9.638  1.00  0.00     0.000 C 
BRANCH  14  15
ATOM     15  C   UNL     1       4.192  53.426  10.436  1.00  0.00     0.001 C 
BRANCH  15  16
ATOM     16  C   UNL     1       4.568  51.956  10.179  1.00  0.00     0.012 C 
BRANCH  16  17
ATOM     17  C   UNL     1       3.453  50.955  10.529  1.00  0.00     0.123 C 
BRANCH  17  18
ATOM     18  C   UNL     1       2.992  50.168   9.342  1.00  0.00     0.305 C 
ATOM     19  O   UNL     1       3.839  49.667   8.551  1.00  0.00    -0.252 OA
BRANCH  18  20
ATOM     20  O   UNL     1       1.622  50.010   9.109  1.00  0.00    -0.469 OA
ATOM     21  C   UNL     1       0.684  49.820  10.161  1.00  0.00     0.282 C 
ENDBRANCH  18  20
ENDBRANCH  17  18
ENDBRANCH  16  17
ENDBRANCH  15  16
ENDBRANCH  14  15
ENDBRANCH  13  14
ENDBRANCH  12  13
ENDBRANCH   1  12
TORSDOF 15
ENDMDL
