MODEL 1
REMARK VINA RESULT:    -3.480      0.000      0.000
REMARK INTER + INTRA:          -5.680
REMARK INTER:                  -4.803
REMARK INTRA:                  -0.878
REMARK UNBOUND:                -0.878
REMARK SMILES OC[C@@H](O)[C@H](O)[C@@H](O)CO
REMARK SMILES IDX 5 1 3 2 2 3 1 4 4 6 7 8 9 9 10 10 8 12 6 14
REMARK H PARENT 1 5 4 7 10 11 8 13 6 15
REMARK Flexibility Score: inf
ROOT
ATOM      1  C   UNL     1     161.677 178.832 168.220  1.00  0.00     0.176 C 
ENDROOT
BRANCH   1   2
ATOM      2  C   UNL     1     160.187 178.955 168.645  1.00  0.00     0.171 C 
BRANCH   2   3
ATOM      3  C   UNL     1     159.323 177.792 168.118  1.00  0.00     0.190 C 
BRANCH   3   4
ATOM      4  O   UNL     1     159.650 176.594 168.772  1.00  0.00    -0.394 OA
ATOM      5  H   UNL     1     160.045 175.991 168.089  1.00  0.00     0.210 HD
ENDBRANCH   3   4
ENDBRANCH   2   3
BRANCH   2   6
ATOM      6  O   UNL     1     160.053 179.081 170.040  1.00  0.00    -0.388 OA
ATOM      7  H   UNL     1     159.182 179.517 170.231  1.00  0.00     0.211 HD
ENDBRANCH   2   6
ENDBRANCH   1   2
BRANCH   1   8
ATOM      8  C   UNL     1     162.635 178.663 169.432  1.00  0.00     0.171 C 
BRANCH   8   9
ATOM      9  C   UNL     1     164.114 178.628 169.006  1.00  0.00     0.190 C 
BRANCH   9  10
ATOM     10  O   UNL     1     164.367 177.487 168.233  1.00  0.00    -0.394 OA
ATOM     11  H   UNL     1     164.788 177.810 167.394  1.00  0.00     0.210 HD
ENDBRANCH   9  10
ENDBRANCH   8   9
BRANCH   8  12
ATOM     12  O   UNL     1     162.309 177.529 170.199  1.00  0.00    -0.388 OA
ATOM     13  H   UNL     1     162.387 176.729 169.617  1.00  0.00     0.211 HD
ENDBRANCH   8  12
ENDBRANCH   1   8
BRANCH   1  14
ATOM     14  O   UNL     1     161.869 177.824 167.254  1.00  0.00    -0.388 OA
ATOM     15  H   UNL     1     162.225 178.245 166.432  1.00  0.00     0.211 HD
ENDBRANCH   1  14
TORSDOF 9
ENDMDL
MODEL 2
REMARK VINA RESULT:    -3.446      1.210      3.895
REMARK INTER + INTRA:          -5.634
REMARK INTER:                  -4.984
REMARK INTRA:                  -0.649
REMARK UNBOUND:                -0.878
REMARK SMILES OC[C@@H](O)[C@H](O)[C@@H](O)CO
REMARK SMILES IDX 5 1 3 2 2 3 1 4 4 6 7 8 9 9 10 10 8 12 6 14
REMARK H PARENT 1 5 4 7 10 11 8 13 6 15
REMARK Flexibility Score: inf
ROOT
ATOM      1  C   UNL     1     161.656 178.492 169.428  1.00  0.00     0.176 C 
ENDROOT
BRANCH   1   2
ATOM      2  C   UNL     1     162.387 178.609 168.062  1.00  0.00     0.171 C 
BRANCH   2   3
ATOM      3  C   UNL     1     163.899 178.323 168.173  1.00  0.00     0.190 C 
BRANCH   3   4
ATOM      4  O   UNL     1     164.513 179.230 169.051  1.00  0.00    -0.394 OA
ATOM      5  H   UNL     1     164.199 180.136 168.795  1.00  0.00     0.210 HD
ENDBRANCH   3   4
ENDBRANCH   2   3
BRANCH   2   6
ATOM      6  O   UNL     1     161.797 177.787 167.083  1.00  0.00    -0.388 OA
ATOM      7  H   UNL     1     161.230 177.115 167.544  1.00  0.00     0.211 HD
ENDBRANCH   2   6
ENDBRANCH   1   2
BRANCH   1   8
ATOM      8  C   UNL     1     160.137 178.202 169.273  1.00  0.00     0.171 C 
BRANCH   8   9
ATOM      9  C   UNL     1     159.338 178.583 170.533  1.00  0.00     0.190 C 
BRANCH   9  10
ATOM     10  O   UNL     1     160.169 178.547 171.661  1.00  0.00    -0.394 OA
ATOM     11  H   UNL     1     159.686 178.010 172.342  1.00  0.00     0.210 HD
ENDBRANCH   9  10
ENDBRANCH   8   9
BRANCH   8  12
ATOM     12  O   UNL     1     159.897 176.861 168.916  1.00  0.00    -0.388 OA
ATOM     13  H   UNL     1     160.721 176.501 168.496  1.00  0.00     0.211 HD
ENDBRANCH   8  12
ENDBRANCH   1   8
BRANCH   1  14
ATOM     14  O   UNL     1     162.283 177.566 170.286  1.00  0.00    -0.388 OA
ATOM     15  H   UNL     1     162.774 178.070 170.981  1.00  0.00     0.211 HD
ENDBRANCH   1  14
TORSDOF 9
ENDMDL
MODEL 3
REMARK VINA RESULT:    -3.440     21.748     22.668
REMARK INTER + INTRA:          -5.625
REMARK INTER:                  -5.230
REMARK INTRA:                  -0.395
REMARK UNBOUND:                -0.878
REMARK SMILES OC[C@@H](O)[C@H](O)[C@@H](O)CO
REMARK SMILES IDX 5 1 3 2 2 3 1 4 4 6 7 8 9 9 10 10 8 12 6 14
REMARK H PARENT 1 5 4 7 10 11 8 13 6 15
REMARK Flexibility Score: inf
ROOT
ATOM      1  C   UNL     1     177.902 161.893 168.511  1.00  0.00     0.176 C 
ENDROOT
BRANCH   1   2
ATOM      2  C   UNL     1     178.203 163.183 167.697  1.00  0.00     0.171 C 
BRANCH   2   3
ATOM      3  C   UNL     1     178.724 162.880 166.278  1.00  0.00     0.190 C 
BRANCH   3   4
ATOM      4  O   UNL     1     177.657 162.735 165.377  1.00  0.00    -0.394 OA
ATOM      5  H   UNL     1     177.629 161.779 165.114  1.00  0.00     0.210 HD
ENDBRANCH   3   4
ENDBRANCH   2   3
BRANCH   2   6
ATOM      6  O   UNL     1     177.086 164.037 167.644  1.00  0.00    -0.388 OA
ATOM      7  H   UNL     1     176.546 163.894 168.465  1.00  0.00     0.211 HD
ENDBRANCH   2   6
ENDBRANCH   1   2
BRANCH   1   8
ATOM      8  C   UNL     1     177.137 162.182 169.833  1.00  0.00     0.171 C 
BRANCH   8   9
ATOM      9  C   UNL     1     177.755 161.448 171.037  1.00  0.00     0.190 C 
BRANCH   9  10
ATOM     10  O   UNL     1     176.759 160.773 171.755  1.00  0.00    -0.394 OA
ATOM     11  H   UNL     1     176.196 161.475 172.172  1.00  0.00     0.210 HD
ENDBRANCH   9  10
ENDBRANCH   8   9
BRANCH   8  12
ATOM     12  O   UNL     1     175.766 161.883 169.716  1.00  0.00    -0.388 OA
ATOM     13  H   UNL     1     175.283 162.722 169.499  1.00  0.00     0.211 HD
ENDBRANCH   8  12
ENDBRANCH   1   8
BRANCH   1  14
ATOM     14  O   UNL     1     177.253 160.915 167.731  1.00  0.00    -0.388 OA
ATOM     15  H   UNL     1     176.682 161.376 167.067  1.00  0.00     0.211 HD
ENDBRANCH   1  14
TORSDOF 9
ENDMDL
MODEL 4
REMARK VINA RESULT:    -3.421     21.797     23.148
REMARK INTER + INTRA:          -5.598
REMARK INTER:                  -4.924
REMARK INTRA:                  -0.674
REMARK UNBOUND:                -0.878
REMARK SMILES OC[C@@H](O)[C@H](O)[C@@H](O)CO
REMARK SMILES IDX 5 1 3 2 2 3 1 4 4 6 7 8 9 9 10 10 8 12 6 14
REMARK H PARENT 1 5 4 7 10 11 8 13 6 15
REMARK Flexibility Score: inf
ROOT
ATOM      1  C   UNL     1     177.526 162.015 168.894  1.00  0.00     0.176 C 
ENDROOT
BRANCH   1   2
ATOM      2  C   UNL     1     178.356 161.264 169.972  1.00  0.00     0.171 C 
BRANCH   2   3
ATOM      3  C   UNL     1     177.876 161.567 171.406  1.00  0.00     0.190 C 
BRANCH   3   4
ATOM      4  O   UNL     1     176.709 160.846 171.702  1.00  0.00    -0.394 OA
ATOM      5  H   UNL     1     176.981 160.071 172.258  1.00  0.00     0.210 HD
ENDBRANCH   3   4
ENDBRANCH   2   3
BRANCH   2   6
ATOM      6  O   UNL     1     178.379 159.877 169.739  1.00  0.00    -0.388 OA
ATOM      7  H   UNL     1     178.537 159.419 170.605  1.00  0.00     0.211 HD
ENDBRANCH   2   6
ENDBRANCH   1   2
BRANCH   1   8
ATOM      8  C   UNL     1     178.083 161.811 167.458  1.00  0.00     0.171 C 
BRANCH   8   9
ATOM      9  C   UNL     1     177.803 163.020 166.546  1.00  0.00     0.190 C 
BRANCH   9  10
ATOM     10  O   UNL     1     177.293 164.086 167.299  1.00  0.00    -0.394 OA
ATOM     11  H   UNL     1     177.685 163.994 168.206  1.00  0.00     0.210 HD
ENDBRANCH   9  10
ENDBRANCH   8   9
BRANCH   8  12
ATOM     12  O   UNL     1     177.599 160.624 166.876  1.00  0.00    -0.388 OA
ATOM     13  H   UNL     1     177.867 160.616 165.920  1.00  0.00     0.211 HD
ENDBRANCH   8  12
ENDBRANCH   1   8
BRANCH   1  14
ATOM     14  O   UNL     1     176.153 161.707 168.974  1.00  0.00    -0.388 OA
ATOM     15  H   UNL     1     175.792 162.109 169.803  1.00  0.00     0.211 HD
ENDBRANCH   1  14
TORSDOF 9
ENDMDL
MODEL 5
REMARK VINA RESULT:    -3.270      1.827      3.979
REMARK INTER + INTRA:          -5.390
REMARK INTER:                  -4.469
REMARK INTRA:                  -0.921
REMARK UNBOUND:                -0.878
REMARK SMILES OC[C@@H](O)[C@H](O)[C@@H](O)CO
REMARK SMILES IDX 5 1 3 2 2 3 1 4 4 6 7 8 9 9 10 10 8 12 6 14
REMARK H PARENT 1 5 4 7 10 11 8 13 6 15
REMARK Flexibility Score: inf
ROOT
ATOM      1  C   UNL     1     162.268 178.693 167.602  1.00  0.00     0.176 C 
ENDROOT
BRANCH   1   2
ATOM      2  C   UNL     1     163.757 178.401 167.940  1.00  0.00     0.171 C 
BRANCH   2   3
ATOM      3  C   UNL     1     164.130 178.817 169.377  1.00  0.00     0.190 C 
BRANCH   3   4
ATOM      4  O   UNL     1     163.023 178.701 170.232  1.00  0.00    -0.394 OA
ATOM      5  H   UNL     1     162.240 179.063 169.741  1.00  0.00     0.210 HD
ENDBRANCH   3   4
ENDBRANCH   2   3
BRANCH   2   6
ATOM      6  O   UNL     1     164.087 177.052 167.713  1.00  0.00    -0.388 OA
ATOM      7  H   UNL     1     164.763 176.780 168.387  1.00  0.00     0.211 HD
ENDBRANCH   2   6
ENDBRANCH   1   2
BRANCH   1   8
ATOM      8  C   UNL     1     162.000 178.748 166.072  1.00  0.00     0.171 C 
BRANCH   8   9
ATOM      9  C   UNL     1     161.121 177.579 165.591  1.00  0.00     0.190 C 
BRANCH   9  10
ATOM     10  O   UNL     1     161.771 176.359 165.822  1.00  0.00    -0.394 OA
ATOM     11  H   UNL     1     161.237 175.890 166.515  1.00  0.00     0.210 HD
ENDBRANCH   9  10
ENDBRANCH   8   9
BRANCH   8  12
ATOM     12  O   UNL     1     163.199 178.807 165.336  1.00  0.00    -0.388 OA
ATOM     13  H   UNL     1     163.682 179.634 165.598  1.00  0.00     0.211 HD
ENDBRANCH   8  12
ENDBRANCH   1   8
BRANCH   1  14
ATOM     14  O   UNL     1     161.393 177.805 168.257  1.00  0.00    -0.388 OA
ATOM     15  H   UNL     1     161.374 178.039 169.219  1.00  0.00     0.211 HD
ENDBRANCH   1  14
TORSDOF 9
ENDMDL
MODEL 6
REMARK VINA RESULT:    -3.261      1.328      2.274
REMARK INTER + INTRA:          -5.377
REMARK INTER:                  -4.669
REMARK INTRA:                  -0.708
REMARK UNBOUND:                -0.878
REMARK SMILES OC[C@@H](O)[C@H](O)[C@@H](O)CO
REMARK SMILES IDX 5 1 3 2 2 3 1 4 4 6 7 8 9 9 10 10 8 12 6 14
REMARK H PARENT 1 5 4 7 10 11 8 13 6 15
REMARK Flexibility Score: inf
ROOT
ATOM      1  C   UNL     1     160.767 178.060 167.135  1.00  0.00     0.176 C 
ENDROOT
BRANCH   1   2
ATOM      2  C   UNL     1     159.515 177.221 167.516  1.00  0.00     0.171 C 
BRANCH   2   3
ATOM      3  C   UNL     1     159.187 176.139 166.467  1.00  0.00     0.190 C 
BRANCH   3   4
ATOM      4  O   UNL     1     159.839 174.935 166.774  1.00  0.00    -0.394 OA
ATOM      5  H   UNL     1     159.559 174.273 166.090  1.00  0.00     0.210 HD
ENDBRANCH   3   4
ENDBRANCH   2   3
BRANCH   2   6
ATOM      6  O   UNL     1     159.642 176.650 168.796  1.00  0.00    -0.388 OA
ATOM      7  H   UNL     1     160.603 176.654 169.044  1.00  0.00     0.211 HD
ENDBRANCH   2   6
ENDBRANCH   1   2
BRANCH   1   8
ATOM      8  C   UNL     1     161.196 179.043 168.260  1.00  0.00     0.171 C 
BRANCH   8   9
ATOM      9  C   UNL     1     162.462 178.570 168.998  1.00  0.00     0.190 C 
BRANCH   9  10
ATOM     10  O   UNL     1     162.112 177.806 170.119  1.00  0.00    -0.394 OA
ATOM     11  H   UNL     1     162.963 177.586 170.579  1.00  0.00     0.210 HD
ENDBRANCH   9  10
ENDBRANCH   8   9
BRANCH   8  12
ATOM     12  O   UNL     1     160.148 179.280 169.170  1.00  0.00    -0.388 OA
ATOM     13  H   UNL     1     159.381 178.704 168.916  1.00  0.00     0.211 HD
ENDBRANCH   8  12
ENDBRANCH   1   8
BRANCH   1  14
ATOM     14  O   UNL     1     161.838 177.250 166.709  1.00  0.00    -0.388 OA
ATOM     15  H   UNL     1     161.616 176.308 166.915  1.00  0.00     0.211 HD
ENDBRANCH   1  14
TORSDOF 9
ENDMDL
MODEL 7
REMARK VINA RESULT:    -3.216     20.976     22.348
REMARK INTER + INTRA:          -5.315
REMARK INTER:                  -4.810
REMARK INTRA:                  -0.505
REMARK UNBOUND:                -0.878
REMARK SMILES OC[C@@H](O)[C@H](O)[C@@H](O)CO
REMARK SMILES IDX 5 1 3 2 2 3 1 4 4 6 7 8 9 9 10 10 8 12 6 14
REMARK H PARENT 1 5 4 7 10 11 8 13 6 15
REMARK Flexibility Score: inf
ROOT
ATOM      1  C   UNL     1     177.943 162.996 168.441  1.00  0.00     0.176 C 
ENDROOT
BRANCH   1   2
ATOM      2  C   UNL     1     177.151 162.408 169.643  1.00  0.00     0.171 C 
BRANCH   2   3
ATOM      3  C   UNL     1     175.674 162.848 169.650  1.00  0.00     0.190 C 
BRANCH   3   4
ATOM      4  O   UNL     1     174.823 161.733 169.708  1.00  0.00    -0.394 OA
ATOM      5  H   UNL     1     173.974 161.994 169.266  1.00  0.00     0.210 HD
ENDBRANCH   3   4
ENDBRANCH   2   3
BRANCH   2   6
ATOM      6  O   UNL     1     177.252 161.006 169.695  1.00  0.00    -0.388 OA
ATOM      7  H   UNL     1     178.175 160.771 169.975  1.00  0.00     0.211 HD
ENDBRANCH   2   6
ENDBRANCH   1   2
BRANCH   1   8
ATOM      8  C   UNL     1     178.288 161.926 167.368  1.00  0.00     0.171 C 
BRANCH   8   9
ATOM      9  C   UNL     1     178.977 162.537 166.134  1.00  0.00     0.190 C 
BRANCH   9  10
ATOM     10  O   UNL     1     178.018 162.945 165.197  1.00  0.00    -0.394 OA
ATOM     11  H   UNL     1     178.504 163.490 164.525  1.00  0.00     0.210 HD
ENDBRANCH   9  10
ENDBRANCH   8   9
BRANCH   8  12
ATOM     12  O   UNL     1     177.152 161.186 166.989  1.00  0.00    -0.388 OA
ATOM     13  H   UNL     1     177.436 160.496 166.335  1.00  0.00     0.211 HD
ENDBRANCH   8  12
ENDBRANCH   1   8
BRANCH   1  14
ATOM     14  O   UNL     1     177.298 164.116 167.879  1.00  0.00    -0.388 OA
ATOM     15  H   UNL     1     176.624 164.443 168.526  1.00  0.00     0.211 HD
ENDBRANCH   1  14
TORSDOF 9
ENDMDL
MODEL 8
REMARK VINA RESULT:    -3.165      2.162      2.795
REMARK INTER + INTRA:          -5.245
REMARK INTER:                  -4.560
REMARK INTRA:                  -0.684
REMARK UNBOUND:                -0.878
REMARK SMILES OC[C@@H](O)[C@H](O)[C@@H](O)CO
REMARK SMILES IDX 5 1 3 2 2 3 1 4 4 6 7 8 9 9 10 10 8 12 6 14
REMARK H PARENT 1 5 4 7 10 11 8 13 6 15
REMARK Flexibility Score: inf
ROOT
ATOM      1  C   UNL     1     162.689 178.120 166.529  1.00  0.00     0.176 C 
ENDROOT
BRANCH   1   2
ATOM      2  C   UNL     1     161.552 178.119 165.469  1.00  0.00     0.171 C 
BRANCH   2   3
ATOM      3  C   UNL     1     161.243 176.706 164.934  1.00  0.00     0.190 C 
BRANCH   3   4
ATOM      4  O   UNL     1     160.925 175.834 165.986  1.00  0.00    -0.394 OA
ATOM      5  H   UNL     1     161.782 175.570 166.412  1.00  0.00     0.210 HD
ENDBRANCH   3   4
ENDBRANCH   2   3
BRANCH   2   6
ATOM      6  O   UNL     1     160.383 178.730 165.960  1.00  0.00    -0.388 OA
ATOM      7  H   UNL     1     160.397 179.686 165.692  1.00  0.00     0.211 HD
ENDBRANCH   2   6
ENDBRANCH   1   2
BRANCH   1   8
ATOM      8  C   UNL     1     162.200 178.575 167.933  1.00  0.00     0.171 C 
BRANCH   8   9
ATOM      9  C   UNL     1     163.345 178.625 168.961  1.00  0.00     0.190 C 
BRANCH   9  10
ATOM     10  O   UNL     1     162.825 178.700 170.260  1.00  0.00    -0.394 OA
ATOM     11  H   UNL     1     161.994 179.237 170.194  1.00  0.00     0.210 HD
ENDBRANCH   9  10
ENDBRANCH   8   9
BRANCH   8  12
ATOM     12  O   UNL     1     161.144 177.772 168.401  1.00  0.00    -0.388 OA
ATOM     13  H   UNL     1     161.518 177.107 169.036  1.00  0.00     0.211 HD
ENDBRANCH   8  12
ENDBRANCH   1   8
BRANCH   1  14
ATOM     14  O   UNL     1     163.363 176.884 166.583  1.00  0.00    -0.388 OA
ATOM     15  H   UNL     1     164.272 177.041 166.941  1.00  0.00     0.211 HD
ENDBRANCH   1  14
TORSDOF 9
ENDMDL
MODEL 9
REMARK VINA RESULT:    -3.161      1.848      2.877
REMARK INTER + INTRA:          -5.240
REMARK INTER:                  -4.496
REMARK INTRA:                  -0.744
REMARK UNBOUND:                -0.878
REMARK SMILES OC[C@@H](O)[C@H](O)[C@@H](O)CO
REMARK SMILES IDX 5 1 3 2 2 3 1 4 4 6 7 8 9 9 10 10 8 12 6 14
REMARK H PARENT 1 5 4 7 10 11 8 13 6 15
REMARK Flexibility Score: inf
ROOT
ATOM      1  C   UNL     1     160.535 178.117 167.321  1.00  0.00     0.176 C 
ENDROOT
BRANCH   1   2
ATOM      2  C   UNL     1     161.108 178.583 168.688  1.00  0.00     0.171 C 
BRANCH   2   3
ATOM      3  C   UNL     1     160.239 178.132 169.879  1.00  0.00     0.190 C 
BRANCH   3   4
ATOM      4  O   UNL     1     161.011 178.025 171.046  1.00  0.00    -0.394 OA
ATOM      5  H   UNL     1     160.761 177.169 171.481  1.00  0.00     0.210 HD
ENDBRANCH   3   4
ENDBRANCH   2   3
BRANCH   2   6
ATOM      6  O   UNL     1     162.442 178.169 168.862  1.00  0.00    -0.388 OA
ATOM      7  H   UNL     1     162.548 177.848 169.795  1.00  0.00     0.211 HD
ENDBRANCH   2   6
ENDBRANCH   1   2
BRANCH   1   8
ATOM      8  C   UNL     1     161.404 178.576 166.117  1.00  0.00     0.171 C 
BRANCH   8   9
ATOM      9  C   UNL     1     162.136 177.401 165.442  1.00  0.00     0.190 C 
BRANCH   9  10
ATOM     10  O   UNL     1     163.054 176.828 166.332  1.00  0.00    -0.394 OA
ATOM     11  H   UNL     1     163.709 176.335 165.773  1.00  0.00     0.210 HD
ENDBRANCH   9  10
ENDBRANCH   8   9
BRANCH   8  12
ATOM     12  O   UNL     1     162.315 179.583 166.489  1.00  0.00    -0.388 OA
ATOM     13  H   UNL     1     163.231 179.204 166.444  1.00  0.00     0.211 HD
ENDBRANCH   8  12
ENDBRANCH   1   8
BRANCH   1  14
ATOM     14  O   UNL     1     160.293 176.729 167.295  1.00  0.00    -0.388 OA
ATOM     15  H   UNL     1     159.991 176.483 166.385  1.00  0.00     0.211 HD
ENDBRANCH   1  14
TORSDOF 9
ENDMDL
