MODEL 1
REMARK VINA RESULT:    -5.497      0.000      0.000
REMARK INTER + INTRA:          -6.550
REMARK INTER:                  -6.461
REMARK INTRA:                  -0.089
REMARK UNBOUND:                -0.089
REMARK SMILES O=C([O-])C=Cc1ccc(O)c(O)c1
REMARK SMILES IDX 6 1 13 2 7 3 11 4 8 5 9 6 5 7 4 8 2 9 1 10 3 11 12 12 10 14
REMARK H PARENT 12 13 10 15
REMARK Flexibility Score: inf
ROOT
ATOM      1  C   UNL     1      11.854   1.763  14.689  1.00  0.00    -0.022 A 
ATOM      2  C   UNL     1      11.316   2.763  13.860  1.00  0.00     0.058 A 
ATOM      3  C   UNL     1      13.244   1.606  14.761  1.00  0.00     0.012 A 
ATOM      4  C   UNL     1      12.159   3.561  13.072  1.00  0.00     0.157 A 
ATOM      5  C   UNL     1      14.086   2.399  13.977  1.00  0.00     0.051 A 
ATOM      6  C   UNL     1      13.551   3.373  13.129  1.00  0.00     0.157 A 
ENDROOT
BRANCH   1   7
ATOM      7  C   UNL     1      10.987   0.949  15.566  1.00  0.00     0.010 C 
ATOM      8  C   UNL     1      10.807  -0.378  15.463  1.00  0.00     0.025 C 
BRANCH   8   9
ATOM      9  C   UNL     1      11.578  -1.282  14.589  1.00  0.00     0.064 C 
ATOM     10  O   UNL     1      12.477  -2.005  15.092  1.00  0.00    -0.545 OA
ATOM     11  O   UNL     1      11.383  -1.303  13.214  1.00  0.00    -0.545 OA
ENDBRANCH   8   9
ENDBRANCH   1   7
BRANCH   4  12
ATOM     12  O   UNL     1      11.619   4.539  12.238  1.00  0.00    -0.504 OA
ATOM     13  H   UNL     1      10.618   4.672  12.155  1.00  0.00     0.293 HD
ENDBRANCH   4  12
BRANCH   6  14
ATOM     14  O   UNL     1      14.415   4.148  12.355  1.00  0.00    -0.504 OA
ATOM     15  H   UNL     1      14.554   5.136  12.529  1.00  0.00     0.293 HD
ENDBRANCH   6  14
TORSDOF 4
ENDMDL
MODEL 2
REMARK VINA RESULT:    -5.350      1.692      2.791
REMARK INTER + INTRA:          -6.378
REMARK INTER:                  -6.279
REMARK INTRA:                  -0.099
REMARK UNBOUND:                -0.089
REMARK SMILES O=C([O-])C=Cc1ccc(O)c(O)c1
REMARK SMILES IDX 6 1 13 2 7 3 11 4 8 5 9 6 5 7 4 8 2 9 1 10 3 11 12 12 10 14
REMARK H PARENT 12 13 10 15
REMARK Flexibility Score: inf
ROOT
ATOM      1  C   UNL     1      11.997  -0.462  15.243  1.00  0.00    -0.022 A 
ATOM      2  C   UNL     1      13.163  -0.128  14.533  1.00  0.00     0.058 A 
ATOM      3  C   UNL     1      10.890   0.393  15.184  1.00  0.00     0.012 A 
ATOM      4  C   UNL     1      13.239   1.075  13.816  1.00  0.00     0.157 A 
ATOM      5  C   UNL     1      10.961   1.593  14.469  1.00  0.00     0.051 A 
ATOM      6  C   UNL     1      12.131   1.941  13.788  1.00  0.00     0.157 A 
ENDROOT
BRANCH   1   7
ATOM      7  C   UNL     1      11.880  -1.748  15.961  1.00  0.00     0.010 C 
ATOM      8  C   UNL     1      11.804  -2.956  15.381  1.00  0.00     0.025 C 
BRANCH   8   9
ATOM      9  C   UNL     1      12.014  -3.233  13.948  1.00  0.00     0.064 C 
ATOM     10  O   UNL     1      13.081  -3.789  13.578  1.00  0.00    -0.545 OA
ATOM     11  O   UNL     1      11.094  -2.830  12.988  1.00  0.00    -0.545 OA
ENDBRANCH   8   9
ENDBRANCH   1   7
BRANCH   4  12
ATOM     12  O   UNL     1      14.404   1.409  13.128  1.00  0.00    -0.504 OA
ATOM     13  H   UNL     1      15.280   0.933  13.306  1.00  0.00     0.293 HD
ENDBRANCH   4  12
BRANCH   6  14
ATOM     14  O   UNL     1      12.175   3.146  13.087  1.00  0.00    -0.504 OA
ATOM     15  H   UNL     1      11.462   3.856  13.192  1.00  0.00     0.293 HD
ENDBRANCH   6  14
TORSDOF 4
ENDMDL
MODEL 3
REMARK VINA RESULT:    -5.335      2.228      5.034
REMARK INTER + INTRA:          -6.360
REMARK INTER:                  -6.101
REMARK INTRA:                  -0.258
REMARK UNBOUND:                -0.089
REMARK SMILES O=C([O-])C=Cc1ccc(O)c(O)c1
REMARK SMILES IDX 6 1 13 2 7 3 11 4 8 5 9 6 5 7 4 8 2 9 1 10 3 11 12 12 10 14
REMARK H PARENT 12 13 10 15
REMARK Flexibility Score: inf
ROOT
ATOM      1  C   UNL     1      11.346  -0.699  15.142  1.00  0.00    -0.022 A 
ATOM      2  C   UNL     1      11.388  -0.838  13.743  1.00  0.00     0.058 A 
ATOM      3  C   UNL     1      11.737  -1.774  15.950  1.00  0.00     0.012 A 
ATOM      4  C   UNL     1      11.767  -2.057  13.162  1.00  0.00     0.157 A 
ATOM      5  C   UNL     1      12.115  -2.990  15.374  1.00  0.00     0.051 A 
ATOM      6  C   UNL     1      12.128  -3.139  13.984  1.00  0.00     0.157 A 
ENDROOT
BRANCH   1   7
ATOM      7  C   UNL     1      11.001   0.592  15.772  1.00  0.00     0.010 C 
ATOM      8  C   UNL     1      11.854   1.607  15.978  1.00  0.00     0.025 C 
BRANCH   8   9
ATOM      9  C   UNL     1      13.228   1.693  15.448  1.00  0.00     0.064 C 
ATOM     10  O   UNL     1      13.420   2.215  14.320  1.00  0.00    -0.545 OA
ATOM     11  O   UNL     1      14.306   1.147  16.134  1.00  0.00    -0.545 OA
ENDBRANCH   8   9
ENDBRANCH   1   7
BRANCH   4  12
ATOM     12  O   UNL     1      11.790  -2.195  11.775  1.00  0.00    -0.504 OA
ATOM     13  H   UNL     1      10.995  -1.934  11.203  1.00  0.00     0.293 HD
ENDBRANCH   4  12
BRANCH   6  14
ATOM     14  O   UNL     1      12.506  -4.365  13.436  1.00  0.00    -0.504 OA
ATOM     15  H   UNL     1      13.413  -4.507  13.008  1.00  0.00     0.293 HD
ENDBRANCH   6  14
TORSDOF 4
ENDMDL
MODEL 4
REMARK VINA RESULT:    -5.314      1.808      4.784
REMARK INTER + INTRA:          -6.335
REMARK INTER:                  -6.052
REMARK INTRA:                  -0.283
REMARK UNBOUND:                -0.089
REMARK SMILES O=C([O-])C=Cc1ccc(O)c(O)c1
REMARK SMILES IDX 6 1 13 2 7 3 11 4 8 5 9 6 5 7 4 8 2 9 1 10 3 11 12 12 10 14
REMARK H PARENT 12 13 10 15
REMARK Flexibility Score: inf
ROOT
ATOM      1  C   UNL     1      11.373   1.112  14.312  1.00  0.00    -0.022 A 
ATOM      2  C   UNL     1      11.766   0.379  13.179  1.00  0.00     0.058 A 
ATOM      3  C   UNL     1      10.963   0.427  15.464  1.00  0.00     0.012 A 
ATOM      4  C   UNL     1      11.699  -1.022  13.180  1.00  0.00     0.157 A 
ATOM      5  C   UNL     1      10.895  -0.969  15.469  1.00  0.00     0.051 A 
ATOM      6  C   UNL     1      11.257  -1.698  14.331  1.00  0.00     0.157 A 
ENDROOT
BRANCH   1   7
ATOM      7  C   UNL     1      11.486   2.584  14.349  1.00  0.00     0.010 C 
ATOM      8  C   UNL     1      12.571   3.270  14.743  1.00  0.00     0.025 C 
BRANCH   8   9
ATOM      9  C   UNL     1      13.895   2.687  15.026  1.00  0.00     0.064 C 
ATOM     10  O   UNL     1      14.749   2.622  14.104  1.00  0.00    -0.545 OA
ATOM     11  O   UNL     1      14.199   2.144  16.268  1.00  0.00    -0.545 OA
ENDBRANCH   8   9
ENDBRANCH   1   7
BRANCH   4  12
ATOM     12  O   UNL     1      12.074  -1.742  12.047  1.00  0.00    -0.504 OA
ATOM     13  H   UNL     1      11.463  -2.437  11.634  1.00  0.00     0.293 HD
ENDBRANCH   4  12
BRANCH   6  14
ATOM     14  O   UNL     1      11.176  -3.090  14.363  1.00  0.00    -0.504 OA
ATOM     15  H   UNL     1      10.290  -3.576  14.433  1.00  0.00     0.293 HD
ENDBRANCH   6  14
TORSDOF 4
ENDMDL
MODEL 5
REMARK VINA RESULT:    -5.307      1.417      4.875
REMARK INTER + INTRA:          -6.327
REMARK INTER:                  -6.106
REMARK INTRA:                  -0.221
REMARK UNBOUND:                -0.089
REMARK SMILES O=C([O-])C=Cc1ccc(O)c(O)c1
REMARK SMILES IDX 6 1 13 2 7 3 11 4 8 5 9 6 5 7 4 8 2 9 1 10 3 11 12 12 10 14
REMARK H PARENT 12 13 10 15
REMARK Flexibility Score: inf
ROOT
ATOM      1  C   UNL     1      12.134   1.422  14.638  1.00  0.00    -0.022 A 
ATOM      2  C   UNL     1      12.581   0.709  13.512  1.00  0.00     0.058 A 
ATOM      3  C   UNL     1      11.257   0.802  15.538  1.00  0.00     0.012 A 
ATOM      4  C   UNL     1      12.114  -0.590  13.261  1.00  0.00     0.157 A 
ATOM      5  C   UNL     1      10.790  -0.492  15.292  1.00  0.00     0.051 A 
ATOM      6  C   UNL     1      11.210  -1.190  14.156  1.00  0.00     0.157 A 
ENDROOT
BRANCH   1   7
ATOM      7  C   UNL     1      12.653   2.769  14.947  1.00  0.00     0.010 C 
ATOM      8  C   UNL     1      12.341   3.893  14.282  1.00  0.00     0.025 C 
BRANCH   8   9
ATOM      9  C   UNL     1      11.289   4.016  13.256  1.00  0.00     0.064 C 
ATOM     10  O   UNL     1      11.614   4.266  12.067  1.00  0.00    -0.545 OA
ATOM     11  O   UNL     1       9.941   3.932  13.585  1.00  0.00    -0.545 OA
ENDBRANCH   8   9
ENDBRANCH   1   7
BRANCH   4  12
ATOM     12  O   UNL     1      12.547  -1.285  12.134  1.00  0.00    -0.504 OA
ATOM     13  H   UNL     1      12.677  -2.290  12.147  1.00  0.00     0.293 HD
ENDBRANCH   4  12
BRANCH   6  14
ATOM     14  O   UNL     1      10.725  -2.479  13.933  1.00  0.00    -0.504 OA
ATOM     15  H   UNL     1      10.023  -2.676  13.230  1.00  0.00     0.293 HD
ENDBRANCH   6  14
TORSDOF 4
ENDMDL
MODEL 6
REMARK VINA RESULT:    -5.273      2.663      5.194
REMARK INTER + INTRA:          -6.286
REMARK INTER:                  -6.062
REMARK INTRA:                  -0.225
REMARK UNBOUND:                -0.089
REMARK SMILES O=C([O-])C=Cc1ccc(O)c(O)c1
REMARK SMILES IDX 6 1 13 2 7 3 11 4 8 5 9 6 5 7 4 8 2 9 1 10 3 11 12 12 10 14
REMARK H PARENT 12 13 10 15
REMARK Flexibility Score: inf
ROOT
ATOM      1  C   UNL     1      11.841  -0.281  14.061  1.00  0.00    -0.022 A 
ATOM      2  C   UNL     1      12.975  -0.829  13.437  1.00  0.00     0.058 A 
ATOM      3  C   UNL     1      11.074  -1.083  14.917  1.00  0.00     0.012 A 
ATOM      4  C   UNL     1      13.307  -2.179  13.624  1.00  0.00     0.157 A 
ATOM      5  C   UNL     1      11.402  -2.429  15.106  1.00  0.00     0.051 A 
ATOM      6  C   UNL     1      12.512  -2.983  14.460  1.00  0.00     0.157 A 
ENDROOT
BRANCH   1   7
ATOM      7  C   UNL     1      11.505   1.150  13.919  1.00  0.00     0.010 C 
ATOM      8  C   UNL     1      11.719   2.094  14.849  1.00  0.00     0.025 C 
BRANCH   8   9
ATOM      9  C   UNL     1      12.492   1.911  16.092  1.00  0.00     0.064 C 
ATOM     10  O   UNL     1      11.898   1.972  17.200  1.00  0.00    -0.545 OA
ATOM     11  O   UNL     1      13.871   1.744  16.071  1.00  0.00    -0.545 OA
ENDBRANCH   8   9
ENDBRANCH   1   7
BRANCH   4  12
ATOM     12  O   UNL     1      14.422  -2.721  12.988  1.00  0.00    -0.504 OA
ATOM     13  H   UNL     1      15.361  -2.404  13.201  1.00  0.00     0.293 HD
ENDBRANCH   4  12
BRANCH   6  14
ATOM     14  O   UNL     1      12.814  -4.330  14.664  1.00  0.00    -0.504 OA
ATOM     15  H   UNL     1      12.818  -4.746  15.588  1.00  0.00     0.293 HD
ENDBRANCH   6  14
TORSDOF 4
ENDMDL
MODEL 7
REMARK VINA RESULT:    -5.260      1.353      2.426
REMARK INTER + INTRA:          -6.272
REMARK INTER:                  -6.115
REMARK INTRA:                  -0.157
REMARK UNBOUND:                -0.089
REMARK SMILES O=C([O-])C=Cc1ccc(O)c(O)c1
REMARK SMILES IDX 6 1 13 2 7 3 11 4 8 5 9 6 5 7 4 8 2 9 1 10 3 11 12 12 10 14
REMARK H PARENT 12 13 10 15
REMARK Flexibility Score: inf
ROOT
ATOM      1  C   UNL     1      11.958   0.366  15.028  1.00  0.00    -0.022 A 
ATOM      2  C   UNL     1      13.297   0.517  14.627  1.00  0.00     0.058 A 
ATOM      3  C   UNL     1      11.015   1.328  14.647  1.00  0.00     0.012 A 
ATOM      4  C   UNL     1      13.696   1.647  13.897  1.00  0.00     0.157 A 
ATOM      5  C   UNL     1      11.409   2.455  13.920  1.00  0.00     0.051 A 
ATOM      6  C   UNL     1      12.746   2.622  13.546  1.00  0.00     0.157 A 
ENDROOT
BRANCH   1   7
ATOM      7  C   UNL     1      11.508  -0.841  15.751  1.00  0.00     0.010 C 
ATOM      8  C   UNL     1      11.373  -2.063  15.212  1.00  0.00     0.025 C 
BRANCH   8   9
ATOM      9  C   UNL     1      11.825  -2.460  13.865  1.00  0.00     0.064 C 
ATOM     10  O   UNL     1      11.023  -2.380  12.899  1.00  0.00    -0.545 OA
ATOM     11  O   UNL     1      13.093  -2.985  13.650  1.00  0.00    -0.545 OA
ENDBRANCH   8   9
ENDBRANCH   1   7
BRANCH   4  12
ATOM     12  O   UNL     1      15.028   1.801  13.516  1.00  0.00    -0.504 OA
ATOM     13  H   UNL     1      15.762   1.224  13.910  1.00  0.00     0.293 HD
ENDBRANCH   4  12
BRANCH   6  14
ATOM     14  O   UNL     1      13.112   3.758  12.824  1.00  0.00    -0.504 OA
ATOM     15  H   UNL     1      13.977   3.808  12.300  1.00  0.00     0.293 HD
ENDBRANCH   6  14
TORSDOF 4
ENDMDL
MODEL 8
REMARK VINA RESULT:    -5.231      2.322      5.460
REMARK INTER + INTRA:          -6.238
REMARK INTER:                  -6.063
REMARK INTRA:                  -0.175
REMARK UNBOUND:                -0.089
REMARK SMILES O=C([O-])C=Cc1ccc(O)c(O)c1
REMARK SMILES IDX 6 1 13 2 7 3 11 4 8 5 9 6 5 7 4 8 2 9 1 10 3 11 12 12 10 14
REMARK H PARENT 12 13 10 15
REMARK Flexibility Score: inf
ROOT
ATOM      1  C   UNL     1      11.511  -0.827  15.039  1.00  0.00    -0.022 A 
ATOM      2  C   UNL     1      11.676  -2.030  15.748  1.00  0.00     0.058 A 
ATOM      3  C   UNL     1      11.744  -0.808  13.658  1.00  0.00     0.012 A 
ATOM      4  C   UNL     1      12.122  -3.186  15.091  1.00  0.00     0.157 A 
ATOM      5  C   UNL     1      12.189  -1.958  13.000  1.00  0.00     0.051 A 
ATOM      6  C   UNL     1      12.384  -3.147  13.710  1.00  0.00     0.157 A 
ENDROOT
BRANCH   1   7
ATOM      7  C   UNL     1      10.992   0.387  15.702  1.00  0.00     0.010 C 
ATOM      8  C   UNL     1      11.709   1.487  15.977  1.00  0.00     0.025 C 
BRANCH   8   9
ATOM      9  C   UNL     1      13.079   1.757  15.503  1.00  0.00     0.064 C 
ATOM     10  O   UNL     1      13.246   2.440  14.460  1.00  0.00    -0.545 OA
ATOM     11  O   UNL     1      14.188   1.217  16.143  1.00  0.00    -0.545 OA
ENDBRANCH   8   9
ENDBRANCH   1   7
BRANCH   4  12
ATOM     12  O   UNL     1      12.301  -4.371  15.803  1.00  0.00    -0.504 OA
ATOM     13  H   UNL     1      11.539  -5.022  15.950  1.00  0.00     0.293 HD
ENDBRANCH   4  12
BRANCH   6  14
ATOM     14  O   UNL     1      12.831  -4.279  13.029  1.00  0.00    -0.504 OA
ATOM     15  H   UNL     1      13.805  -4.409  12.784  1.00  0.00     0.293 HD
ENDBRANCH   6  14
TORSDOF 4
ENDMDL
MODEL 9
REMARK VINA RESULT:    -5.091      1.893      2.939
REMARK INTER + INTRA:          -6.073
REMARK INTER:                  -5.855
REMARK INTRA:                  -0.218
REMARK UNBOUND:                -0.089
REMARK SMILES O=C([O-])C=Cc1ccc(O)c(O)c1
REMARK SMILES IDX 6 1 13 2 7 3 11 4 8 5 9 6 5 7 4 8 2 9 1 10 3 11 12 12 10 14
REMARK H PARENT 12 13 10 15
REMARK Flexibility Score: inf
ROOT
ATOM      1  C   UNL     1      12.392  -0.225  13.199  1.00  0.00    -0.022 A 
ATOM      2  C   UNL     1      13.798  -0.225  13.197  1.00  0.00     0.058 A 
ATOM      3  C   UNL     1      11.707   0.977  13.415  1.00  0.00     0.012 A 
ATOM      4  C   UNL     1      14.509   0.956  13.461  1.00  0.00     0.157 A 
ATOM      5  C   UNL     1      12.411   2.155  13.678  1.00  0.00     0.051 A 
ATOM      6  C   UNL     1      13.809   2.150  13.706  1.00  0.00     0.157 A 
ENDROOT
BRANCH   1   7
ATOM      7  C   UNL     1      11.627  -1.445  12.872  1.00  0.00     0.010 C 
ATOM      8  C   UNL     1      11.324  -2.427  13.737  1.00  0.00     0.025 C 
BRANCH   8   9
ATOM      9  C   UNL     1      11.531  -2.376  15.196  1.00  0.00     0.064 C 
ATOM     10  O   UNL     1      12.219  -3.272  15.751  1.00  0.00    -0.545 OA
ATOM     11  O   UNL     1      10.928  -1.402  15.982  1.00  0.00    -0.545 OA
ENDBRANCH   8   9
ENDBRANCH   1   7
BRANCH   4  12
ATOM     12  O   UNL     1      15.902   0.946  13.474  1.00  0.00    -0.504 OA
ATOM     13  H   UNL     1      16.443   1.301  12.694  1.00  0.00     0.293 HD
ENDBRANCH   4  12
BRANCH   6  14
ATOM     14  O   UNL     1      14.487   3.340  13.975  1.00  0.00    -0.504 OA
ATOM     15  H   UNL     1      14.221   3.950  14.738  1.00  0.00     0.293 HD
ENDBRANCH   6  14
TORSDOF 4
ENDMDL
