MODEL 1
REMARK VINA RESULT:    -5.798      0.000      0.000
REMARK INTER + INTRA:          -5.798
REMARK INTER:                  -5.798
REMARK INTRA:                   0.000
REMARK UNBOUND:                 0.000
REMARK SMILES CC(C)=C1CC[C@H](C)CC1=O
REMARK SMILES IDX 8 1 7 2 6 3 5 4 4 5 2 6 1 7 3 8 10 9 11 10 9 11
REMARK H PARENT
REMARK Flexibility Score: inf
ROOT
ATOM      1  C   UNL     1      -2.996 -11.485  26.122  1.00  0.00     0.008 C 
ATOM      2  C   UNL     1      -3.689 -11.750  27.464  1.00  0.00    -0.006 C 
ATOM      3  C   UNL     1      -4.400 -13.111  27.447  1.00  0.00     0.008 C 
ATOM      4  C   UNL     1      -5.184 -13.348  28.745  1.00  0.00     0.039 C 
ATOM      5  C   UNL     1      -4.327 -13.151  29.989  1.00  0.00    -0.006 C 
ATOM      6  C   UNL     1      -4.551 -13.872  31.127  1.00  0.00    -0.070 C 
ATOM      7  C   UNL     1      -5.672 -14.883  31.206  1.00  0.00     0.039 C 
ATOM      8  C   UNL     1      -3.672 -13.726  32.347  1.00  0.00     0.039 C 
ATOM      9  C   UNL     1      -3.317 -12.052  29.922  1.00  0.00     0.159 C 
ATOM     10  O   UNL     1      -2.993 -11.398  30.949  1.00  0.00    -0.295 OA
ATOM     11  C   UNL     1      -2.671 -11.703  28.613  1.00  0.00     0.084 C 
ENDROOT
TORSDOF 0
ENDMDL
MODEL 2
REMARK VINA RESULT:    -5.682      2.008      3.857
REMARK INTER + INTRA:          -5.682
REMARK INTER:                  -5.682
REMARK INTRA:                   0.000
REMARK UNBOUND:                 0.000
REMARK SMILES CC(C)=C1CC[C@H](C)CC1=O
REMARK SMILES IDX 8 1 7 2 6 3 5 4 4 5 2 6 1 7 3 8 10 9 11 10 9 11
REMARK H PARENT
REMARK Flexibility Score: inf
ROOT
ATOM      1  C   UNL     1       0.374 -12.501  31.747  1.00  0.00     0.008 C 
ATOM      2  C   UNL     1      -0.760 -12.265  30.743  1.00  0.00    -0.006 C 
ATOM      3  C   UNL     1      -0.501 -13.041  29.442  1.00  0.00     0.008 C 
ATOM      4  C   UNL     1      -1.573 -12.737  28.387  1.00  0.00     0.039 C 
ATOM      5  C   UNL     1      -2.987 -12.939  28.917  1.00  0.00    -0.006 C 
ATOM      6  C   UNL     1      -3.999 -13.351  28.099  1.00  0.00    -0.070 C 
ATOM      7  C   UNL     1      -3.763 -13.608  26.628  1.00  0.00     0.039 C 
ATOM      8  C   UNL     1      -5.392 -13.610  28.625  1.00  0.00     0.039 C 
ATOM      9  C   UNL     1      -3.215 -12.550  30.341  1.00  0.00     0.159 C 
ATOM     10  O   UNL     1      -4.326 -12.097  30.726  1.00  0.00    -0.295 OA
ATOM     11  C   UNL     1      -2.109 -12.686  31.345  1.00  0.00     0.084 C 
ENDROOT
TORSDOF 0
ENDMDL
MODEL 3
REMARK VINA RESULT:    -5.538      2.647      4.192
REMARK INTER + INTRA:          -5.538
REMARK INTER:                  -5.538
REMARK INTRA:                   0.000
REMARK UNBOUND:                 0.000
REMARK SMILES CC(C)=C1CC[C@H](C)CC1=O
REMARK SMILES IDX 8 1 7 2 6 3 5 4 4 5 2 6 1 7 3 8 10 9 11 10 9 11
REMARK H PARENT
REMARK Flexibility Score: inf
ROOT
ATOM      1  C   UNL     1       0.590 -12.382  31.922  1.00  0.00     0.008 C 
ATOM      2  C   UNL     1      -0.577 -13.046  31.181  1.00  0.00    -0.006 C 
ATOM      3  C   UNL     1      -1.867 -12.232  31.362  1.00  0.00     0.008 C 
ATOM      4  C   UNL     1      -3.067 -12.935  30.713  1.00  0.00     0.039 C 
ATOM      5  C   UNL     1      -2.809 -13.306  29.259  1.00  0.00    -0.006 C 
ATOM      6  C   UNL     1      -3.820 -13.326  28.341  1.00  0.00    -0.070 C 
ATOM      7  C   UNL     1      -5.243 -12.999  28.736  1.00  0.00     0.039 C 
ATOM      8  C   UNL     1      -3.567 -13.637  26.885  1.00  0.00     0.039 C 
ATOM      9  C   UNL     1      -1.421 -13.753  28.932  1.00  0.00     0.159 C 
ATOM     10  O   UNL     1      -1.204 -14.606  28.031  1.00  0.00    -0.295 OA
ATOM     11  C   UNL     1      -0.253 -13.190  29.686  1.00  0.00     0.084 C 
ENDROOT
TORSDOF 0
ENDMDL
MODEL 4
REMARK VINA RESULT:    -5.334      2.450      3.195
REMARK INTER + INTRA:          -5.334
REMARK INTER:                  -5.334
REMARK INTRA:                   0.000
REMARK UNBOUND:                 0.000
REMARK SMILES CC(C)=C1CC[C@H](C)CC1=O
REMARK SMILES IDX 8 1 7 2 6 3 5 4 4 5 2 6 1 7 3 8 10 9 11 10 9 11
REMARK H PARENT
REMARK Flexibility Score: inf
ROOT
ATOM      1  C   UNL     1      -4.431 -14.289  26.607  1.00  0.00     0.008 C 
ATOM      2  C   UNL     1      -3.603 -13.216  27.325  1.00  0.00    -0.006 C 
ATOM      3  C   UNL     1      -4.475 -12.434  28.319  1.00  0.00     0.008 C 
ATOM      4  C   UNL     1      -3.689 -11.290  28.971  1.00  0.00     0.039 C 
ATOM      5  C   UNL     1      -2.378 -11.759  29.587  1.00  0.00    -0.006 C 
ATOM      6  C   UNL     1      -1.858 -11.156  30.696  1.00  0.00    -0.070 C 
ATOM      7  C   UNL     1      -2.554  -9.984  31.350  1.00  0.00     0.039 C 
ATOM      8  C   UNL     1      -0.587 -11.649  31.349  1.00  0.00     0.039 C 
ATOM      9  C   UNL     1      -1.649 -12.829  28.841  1.00  0.00     0.159 C 
ATOM     10  O   UNL     1      -0.390 -12.890  28.848  1.00  0.00    -0.295 OA
ATOM     11  C   UNL     1      -2.414 -13.855  28.058  1.00  0.00     0.084 C 
ENDROOT
TORSDOF 0
ENDMDL
MODEL 5
REMARK VINA RESULT:    -5.170      2.016      3.495
REMARK INTER + INTRA:          -5.170
REMARK INTER:                  -5.170
REMARK INTRA:                   0.000
REMARK UNBOUND:                 0.000
REMARK SMILES CC(C)=C1CC[C@H](C)CC1=O
REMARK SMILES IDX 8 1 7 2 6 3 5 4 4 5 2 6 1 7 3 8 10 9 11 10 9 11
REMARK H PARENT
REMARK Flexibility Score: inf
ROOT
ATOM      1  C   UNL     1      -6.475 -14.356  28.232  1.00  0.00     0.008 C 
ATOM      2  C   UNL     1      -5.267 -13.578  28.767  1.00  0.00    -0.006 C 
ATOM      3  C   UNL     1      -4.857 -14.099  30.153  1.00  0.00     0.008 C 
ATOM      4  C   UNL     1      -3.715 -13.265  30.748  1.00  0.00     0.039 C 
ATOM      5  C   UNL     1      -2.531 -13.135  29.798  1.00  0.00    -0.006 C 
ATOM      6  C   UNL     1      -1.252 -13.035  30.267  1.00  0.00    -0.070 C 
ATOM      7  C   UNL     1      -0.960 -13.031  31.750  1.00  0.00     0.039 C 
ATOM      8  C   UNL     1      -0.066 -12.963  29.334  1.00  0.00     0.039 C 
ATOM      9  C   UNL     1      -2.865 -13.008  28.348  1.00  0.00     0.159 C 
ATOM     10  O   UNL     1      -2.143 -12.332  27.567  1.00  0.00    -0.295 OA
ATOM     11  C   UNL     1      -4.083 -13.687  27.794  1.00  0.00     0.084 C 
ENDROOT
TORSDOF 0
ENDMDL
MODEL 6
REMARK VINA RESULT:    -5.135      1.757      1.963
REMARK INTER + INTRA:          -5.135
REMARK INTER:                  -5.135
REMARK INTRA:                   0.000
REMARK UNBOUND:                 0.000
REMARK SMILES CC(C)=C1CC[C@H](C)CC1=O
REMARK SMILES IDX 8 1 7 2 6 3 5 4 4 5 2 6 1 7 3 8 10 9 11 10 9 11
REMARK H PARENT
REMARK Flexibility Score: inf
ROOT
ATOM      1  C   UNL     1      -3.098 -11.396  26.080  1.00  0.00     0.008 C 
ATOM      2  C   UNL     1      -2.893 -11.455  27.599  1.00  0.00    -0.006 C 
ATOM      3  C   UNL     1      -4.176 -11.043  28.335  1.00  0.00     0.008 C 
ATOM      4  C   UNL     1      -3.959 -10.998  29.853  1.00  0.00     0.039 C 
ATOM      5  C   UNL     1      -3.363 -12.290  30.396  1.00  0.00    -0.006 C 
ATOM      6  C   UNL     1      -3.659 -12.735  31.653  1.00  0.00    -0.070 C 
ATOM      7  C   UNL     1      -4.578 -11.955  32.565  1.00  0.00     0.039 C 
ATOM      8  C   UNL     1      -3.119 -14.044  32.181  1.00  0.00     0.039 C 
ATOM      9  C   UNL     1      -2.357 -12.965  29.523  1.00  0.00     0.159 C 
ATOM     10  O   UNL     1      -1.398 -13.619  30.014  1.00  0.00    -0.295 OA
ATOM     11  C   UNL     1      -2.471 -12.868  28.030  1.00  0.00     0.084 C 
ENDROOT
TORSDOF 0
ENDMDL
MODEL 7
REMARK VINA RESULT:    -5.009      2.712      3.952
REMARK INTER + INTRA:          -5.009
REMARK INTER:                  -5.009
REMARK INTRA:                   0.000
REMARK UNBOUND:                 0.000
REMARK SMILES CC(C)=C1CC[C@H](C)CC1=O
REMARK SMILES IDX 8 1 7 2 6 3 5 4 4 5 2 6 1 7 3 8 10 9 11 10 9 11
REMARK H PARENT
REMARK Flexibility Score: inf
ROOT
ATOM      1  C   UNL     1      -5.464  -9.875  29.509  1.00  0.00     0.008 C 
ATOM      2  C   UNL     1      -3.986 -10.284  29.533  1.00  0.00    -0.006 C 
ATOM      3  C   UNL     1      -3.484 -10.410  30.979  1.00  0.00     0.008 C 
ATOM      4  C   UNL     1      -1.981 -10.718  31.024  1.00  0.00     0.039 C 
ATOM      5  C   UNL     1      -1.607 -11.921  30.167  1.00  0.00    -0.006 C 
ATOM      6  C   UNL     1      -0.572 -12.743  30.511  1.00  0.00    -0.070 C 
ATOM      7  C   UNL     1       0.257 -12.484  31.748  1.00  0.00     0.039 C 
ATOM      8  C   UNL     1      -0.227 -13.971  29.700  1.00  0.00     0.039 C 
ATOM      9  C   UNL     1      -2.357 -12.071  28.884  1.00  0.00     0.159 C 
ATOM     10  O   UNL     1      -1.816 -12.576  27.865  1.00  0.00    -0.295 OA
ATOM     11  C   UNL     1      -3.782 -11.611  28.788  1.00  0.00     0.084 C 
ENDROOT
TORSDOF 0
ENDMDL
MODEL 8
REMARK VINA RESULT:    -4.984      2.360      3.682
REMARK INTER + INTRA:          -4.984
REMARK INTER:                  -4.984
REMARK INTRA:                   0.000
REMARK UNBOUND:                 0.000
REMARK SMILES CC(C)=C1CC[C@H](C)CC1=O
REMARK SMILES IDX 8 1 7 2 6 3 5 4 4 5 2 6 1 7 3 8 10 9 11 10 9 11
REMARK H PARENT
REMARK Flexibility Score: inf
ROOT
ATOM      1  C   UNL     1       0.017 -14.228  28.953  1.00  0.00     0.008 C 
ATOM      2  C   UNL     1      -1.334 -13.679  29.427  1.00  0.00    -0.006 C 
ATOM      3  C   UNL     1      -1.166 -12.874  30.725  1.00  0.00     0.008 C 
ATOM      4  C   UNL     1      -2.521 -12.403  31.269  1.00  0.00     0.039 C 
ATOM      5  C   UNL     1      -3.343 -11.661  30.224  1.00  0.00    -0.006 C 
ATOM      6  C   UNL     1      -4.198 -10.656  30.574  1.00  0.00    -0.070 C 
ATOM      7  C   UNL     1      -4.376 -10.248  32.019  1.00  0.00     0.039 C 
ATOM      8  C   UNL     1      -4.976  -9.875  29.541  1.00  0.00     0.039 C 
ATOM      9  C   UNL     1      -3.244 -12.177  28.825  1.00  0.00     0.159 C 
ATOM     10  O   UNL     1      -4.221 -12.109  28.032  1.00  0.00    -0.295 OA
ATOM     11  C   UNL     1      -1.967 -12.797  28.340  1.00  0.00     0.084 C 
ENDROOT
TORSDOF 0
ENDMDL
MODEL 9
REMARK VINA RESULT:    -4.952      1.082      4.126
REMARK INTER + INTRA:          -4.952
REMARK INTER:                  -4.952
REMARK INTRA:                   0.000
REMARK UNBOUND:                 0.000
REMARK SMILES CC(C)=C1CC[C@H](C)CC1=O
REMARK SMILES IDX 8 1 7 2 6 3 5 4 4 5 2 6 1 7 3 8 10 9 11 10 9 11
REMARK H PARENT
REMARK Flexibility Score: inf
ROOT
ATOM      1  C   UNL     1      -5.381 -14.752  32.808  1.00  0.00     0.008 C 
ATOM      2  C   UNL     1      -4.504 -14.100  31.732  1.00  0.00    -0.006 C 
ATOM      3  C   UNL     1      -5.229 -14.087  30.378  1.00  0.00     0.008 C 
ATOM      4  C   UNL     1      -4.327 -13.532  29.267  1.00  0.00     0.039 C 
ATOM      5  C   UNL     1      -3.729 -12.178  29.623  1.00  0.00    -0.006 C 
ATOM      6  C   UNL     1      -3.465 -11.243  28.663  1.00  0.00    -0.070 C 
ATOM      7  C   UNL     1      -3.739 -11.521  27.203  1.00  0.00     0.039 C 
ATOM      8  C   UNL     1      -2.925  -9.875  29.010  1.00  0.00     0.039 C 
ATOM      9  C   UNL     1      -3.346 -11.986  31.055  1.00  0.00     0.159 C 
ATOM     10  O   UNL     1      -2.368 -11.261  31.379  1.00  0.00    -0.295 OA
ATOM     11  C   UNL     1      -4.126 -12.668  32.140  1.00  0.00     0.084 C 
ENDROOT
TORSDOF 0
ENDMDL
