MODEL 1
REMARK VINA RESULT:    -1.626      0.000      0.000
REMARK INTER + INTRA:          -1.798
REMARK INTER:                  -1.864
REMARK INTRA:                   0.066
REMARK UNBOUND:                 0.066
REMARK SMILES C=C(C)[C@@H]1CC[C@@]2(C(=O)[O-])CC[C@]3(C)[C@@H](CC[C@@H]4[C@@]5(C)CC[C@H](O)C(C)(C)[C@H]5CC[C@@]43C)[C@@H]12
REMARK SMILES IDX 7 1 6 2 33 3 11 4 5 5 15 6 4 7 12 8 16 9 13 10 17 11 31 12
REMARK SMILES IDX 14 13 18 14 30 15 32 16 19 17 29 18 21 19 20 20 28 21 22 22
REMARK SMILES IDX 25 23 23 24 26 25 27 26 8 27 9 28 10 29 2 30 3 31 1 32 24 33
REMARK H PARENT 24 34
REMARK Flexibility Score: inf
ROOT
ATOM      1  C   UNL     1      91.134 111.883 106.963  1.00  0.00     0.014 C 
ATOM      2  C   UNL     1      90.384 113.182 106.632  1.00  0.00     0.014 C 
ATOM      3  C   UNL     1      91.827 112.194 108.305  1.00  0.00     0.012 C 
ATOM      4  C   UNL     1      92.186 111.597 105.875  1.00  0.00     0.014 C 
ATOM      5  C   UNL     1      91.235 114.320 107.179  1.00  0.00     0.009 C 
ATOM      6  C   UNL     1      92.995 111.196 108.678  1.00  0.00     0.000 C 
ATOM      7  C   UNL     1      92.087 113.727 108.313  1.00  0.00     0.018 C 
ATOM      8  C   UNL     1      93.073 110.393 106.222  1.00  0.00     0.008 C 
ATOM      9  C   UNL     1      93.788 111.586 109.924  1.00  0.00     0.005 C 
ATOM     10  C   UNL     1      93.896 110.502 107.560  1.00  0.00    -0.024 C 
ATOM     11  C   UNL     1      95.063 112.350 109.617  1.00  0.00     0.005 C 
ATOM     12  C   UNL     1      95.386 111.156 107.348  1.00  0.00    -0.024 C 
ATOM     13  C   UNL     1      94.082 109.012 108.037  1.00  0.00     0.012 C 
ATOM     14  C   UNL     1      96.076 111.561 108.730  1.00  0.00     0.002 C 
ATOM     15  C   UNL     1      95.330 112.422 106.461  1.00  0.00     0.008 C 
ATOM     16  C   UNL     1      96.278 110.114 106.588  1.00  0.00     0.012 C 
ATOM     17  C   UNL     1      97.486 112.345 108.621  1.00  0.00    -0.026 C 
ATOM     18  C   UNL     1      96.663 113.149 106.273  1.00  0.00     0.005 C 
ATOM     19  C   UNL     1      98.675 111.359 108.293  1.00  0.00     0.010 C 
ATOM     20  C   UNL     1      97.837 112.923 110.033  1.00  0.00     0.012 C 
ATOM     21  C   UNL     1      97.399 113.548 107.585  1.00  0.00     0.003 C 
ATOM     22  C   UNL     1      99.649 111.850 107.213  1.00  0.00     0.033 C 
ATOM     23  C   UNL     1      98.799 114.292 107.300  1.00  0.00    -0.006 C 
ATOM     24  C   UNL     1     100.040 113.320 107.411  1.00  0.00     0.120 C 
ATOM     25  C   UNL     1      98.957 115.502 108.267  1.00  0.00     0.014 C 
ATOM     26  C   UNL     1      98.848 114.941 105.882  1.00  0.00     0.014 C 
ENDROOT
BRANCH   1  27
ATOM     27  C   UNL     1      90.136 110.734 107.041  1.00  0.00     0.048 C 
ATOM     28  O   UNL     1      89.011 110.918 107.578  1.00  0.00    -0.550 OA
ATOM     29  O   UNL     1      90.438 109.476 106.528  1.00  0.00    -0.550 OA
ENDBRANCH   1  27
BRANCH   7  30
ATOM     30  C   UNL     1      91.758 114.395 109.650  1.00  0.00    -0.077 C 
ATOM     31  C   UNL     1      90.343 114.785 110.004  1.00  0.00     0.039 C 
ATOM     32  C   UNL     1      92.738 114.706 110.514  1.00  0.00     0.008 C 
ENDBRANCH   7  30
BRANCH  24  33
ATOM     33  O   UNL     1     100.717 113.471 108.637  1.00  0.00    -0.393 OA
ATOM     34  H   UNL     1     101.553 112.939 108.580  1.00  0.00     0.210 HD
ENDBRANCH  24  33
TORSDOF 3
ENDMDL
MODEL 2
REMARK VINA RESULT:    -0.172      0.926      1.256
REMARK INTER + INTRA:          -0.131
REMARK INTER:                  -0.234
REMARK INTRA:                   0.103
REMARK UNBOUND:                 0.066
REMARK SMILES C=C(C)[C@@H]1CC[C@@]2(C(=O)[O-])CC[C@]3(C)[C@@H](CC[C@@H]4[C@@]5(C)CC[C@H](O)C(C)(C)[C@H]5CC[C@@]43C)[C@@H]12
REMARK SMILES IDX 7 1 6 2 33 3 11 4 5 5 15 6 4 7 12 8 16 9 13 10 17 11 31 12
REMARK SMILES IDX 14 13 18 14 30 15 32 16 19 17 29 18 21 19 20 20 28 21 22 22
REMARK SMILES IDX 25 23 23 24 26 25 27 26 8 27 9 28 10 29 2 30 3 31 1 32 24 33
REMARK H PARENT 24 34
REMARK Flexibility Score: inf
ROOT
ATOM      1  C   UNL     1      91.794 111.289 106.819  1.00  0.00     0.014 C 
ATOM      2  C   UNL     1      91.129 112.582 106.321  1.00  0.00     0.014 C 
ATOM      3  C   UNL     1      92.346 111.675 108.206  1.00  0.00     0.012 C 
ATOM      4  C   UNL     1      92.949 110.902 105.875  1.00  0.00     0.014 C 
ATOM      5  C   UNL     1      91.951 113.732 106.884  1.00  0.00     0.009 C 
ATOM      6  C   UNL     1      93.434 110.674 108.771  1.00  0.00     0.000 C 
ATOM      7  C   UNL     1      92.655 113.197 108.142  1.00  0.00     0.018 C 
ATOM      8  C   UNL     1      93.752 109.703 106.396  1.00  0.00     0.008 C 
ATOM      9  C   UNL     1      94.098 111.130 110.069  1.00  0.00     0.005 C 
ATOM     10  C   UNL     1      94.428 109.883 107.808  1.00  0.00    -0.024 C 
ATOM     11  C   UNL     1      95.424 111.837 109.856  1.00  0.00     0.005 C 
ATOM     12  C   UNL     1      95.953 110.482 107.720  1.00  0.00    -0.024 C 
ATOM     13  C   UNL     1      94.511 108.424 108.400  1.00  0.00     0.012 C 
ATOM     14  C   UNL     1      96.501 110.963 109.140  1.00  0.00     0.002 C 
ATOM     15  C   UNL     1      96.035 111.685 106.751  1.00  0.00     0.008 C 
ATOM     16  C   UNL     1      96.887 109.367 107.134  1.00  0.00     0.012 C 
ATOM     17  C   UNL     1      97.939 111.701 109.138  1.00  0.00    -0.026 C 
ATOM     18  C   UNL     1      97.404 112.363 106.665  1.00  0.00     0.005 C 
ATOM     19  C   UNL     1      99.123 110.665 109.009  1.00  0.00     0.010 C 
ATOM     20  C   UNL     1      98.153 112.367 110.539  1.00  0.00     0.012 C 
ATOM     21  C   UNL     1      98.006 112.832 108.021  1.00  0.00     0.003 C 
ATOM     22  C   UNL     1     100.225 111.055 108.014  1.00  0.00     0.033 C 
ATOM     23  C   UNL     1      99.452 113.518 107.846  1.00  0.00    -0.006 C 
ATOM     24  C   UNL     1     100.641 112.525 108.158  1.00  0.00     0.120 C 
ATOM     25  C   UNL     1      99.545 114.788 108.743  1.00  0.00     0.014 C 
ATOM     26  C   UNL     1      99.677 114.066 106.402  1.00  0.00     0.014 C 
ENDROOT
BRANCH   1  27
ATOM     27  C   UNL     1      90.757 110.174 106.861  1.00  0.00     0.048 C 
ATOM     28  O   UNL     1      90.998 109.074 106.295  1.00  0.00    -0.550 OA
ATOM     29  O   UNL     1      89.540 110.340 107.516  1.00  0.00    -0.550 OA
ENDBRANCH   1  27
BRANCH   7  30
ATOM     30  C   UNL     1      92.205 113.964 109.387  1.00  0.00    -0.077 C 
ATOM     31  C   UNL     1      93.174 114.298 110.495  1.00  0.00     0.039 C 
ATOM     32  C   UNL     1      90.915 114.305 109.547  1.00  0.00     0.008 C 
ENDBRANCH   7  30
BRANCH  24  33
ATOM     33  O   UNL     1     101.185 112.742 109.438  1.00  0.00    -0.393 OA
ATOM     34  H   UNL     1     101.022 113.693 109.671  1.00  0.00     0.210 HD
ENDBRANCH  24  33
TORSDOF 3
ENDMDL
