MODEL 1
REMARK VINA RESULT:    -3.623      0.000      0.000
REMARK INTER + INTRA:          -4.969
REMARK INTER:                  -5.106
REMARK INTRA:                   0.137
REMARK UNBOUND:                 0.137
REMARK SMILES CC1=CCC(=C(C)C)C(=O)CC(C)=CCC1
REMARK SMILES IDX 12 1 14 2 13 3 15 4 16 5 2 6 1 7 3 8 11 10 9 11 10 12 5 13
REMARK SMILES IDX 6 14 7 15 8 16 4 17
REMARK H PARENT
REMARK Flexibility Score: 60.00
ROOT
ATOM      1  C   UNL     1      57.566 -20.110   1.397  1.00  0.00    -0.070 C 
ATOM      2  C   UNL     1      58.886 -19.962   1.641  1.00  0.00    -0.027 C 
ATOM      3  C   UNL     1      56.658 -20.380   2.570  1.00  0.00     0.039 C 
ENDROOT
BRANCH   2   4
ATOM      4  C   UNL     1      59.938 -19.593   0.617  1.00  0.00     0.032 C 
BRANCH   4   5
ATOM      5  C   UNL     1      60.180 -18.077   0.455  1.00  0.00     0.034 C 
BRANCH   5   6
ATOM      6  C   UNL     1      60.233 -17.633  -0.995  1.00  0.00    -0.077 C 
ATOM      7  C   UNL     1      61.491 -17.927  -1.773  1.00  0.00     0.039 C 
ATOM      8  C   UNL     1      59.201 -17.051  -1.654  1.00  0.00    -0.023 CG0
ATOM      9  G   UNL     1      57.859 -16.648  -1.078  1.00  0.00     0.000 G0
ENDBRANCH   5   6
ENDBRANCH   4   5
ENDBRANCH   2   4
BRANCH   1  10
ATOM     10  C   UNL     1      56.947 -19.925   0.027  1.00  0.00     0.111 C 
BRANCH  10  11
ATOM     11  C   UNL     1      56.392 -18.536  -0.149  1.00  0.00     0.163 C 
ATOM     12  O   UNL     1      55.626 -18.085   0.745  1.00  0.00    -0.294 OA
BRANCH  11  13
ATOM     13  C   UNL     1      56.763 -17.663  -1.303  1.00  0.00    -0.002 C 
ATOM     14  C   UNL     1      56.083 -17.741  -2.486  1.00  0.00    -0.069 C 
ATOM     15  C   UNL     1      56.330 -16.766  -3.617  1.00  0.00     0.039 C 
ATOM     16  C   UNL     1      55.043 -18.813  -2.724  1.00  0.00     0.039 C 
BRANCH  13  17
ATOM     17  C   UNL     1      57.856 -16.632  -1.070  1.00  0.00     0.066 CG0
ATOM     18  G   UNL     1      59.189 -17.062  -1.649  1.00  0.00     0.000 G0
ENDBRANCH  13  17
ENDBRANCH  11  13
ENDBRANCH  10  11
ENDBRANCH   1  10
TORSDOF 0
ENDMDL
MODEL 2
REMARK VINA RESULT:    -3.482      1.933      3.774
REMARK INTER + INTRA:          -4.769
REMARK INTER:                  -5.042
REMARK INTRA:                   0.273
REMARK UNBOUND:                 0.137
REMARK SMILES CC1=CCC(=C(C)C)C(=O)CC(C)=CCC1
REMARK SMILES IDX 12 1 14 2 13 3 15 4 16 5 2 6 1 7 3 8 11 10 9 11 10 12 5 13
REMARK SMILES IDX 6 14 7 15 8 16 4 17
REMARK H PARENT
REMARK Flexibility Score: 60.00
ROOT
ATOM      1  C   UNL     1      60.762 -18.684  -0.268  1.00  0.00    -0.070 C 
ATOM      2  C   UNL     1      60.464 -19.497   0.770  1.00  0.00    -0.027 C 
ATOM      3  C   UNL     1      61.975 -19.016  -1.099  1.00  0.00     0.039 C 
ENDROOT
BRANCH   2   4
ATOM      4  C   UNL     1      59.242 -19.388   1.656  1.00  0.00     0.032 C 
BRANCH   4   5
ATOM      5  C   UNL     1      57.963 -20.027   1.075  1.00  0.00     0.034 C 
BRANCH   5   6
ATOM      6  C   UNL     1      56.795 -19.060   0.996  1.00  0.00    -0.077 C 
ATOM      7  C   UNL     1      56.153 -18.629   2.290  1.00  0.00     0.039 C 
ATOM      8  C   UNL     1      56.338 -18.509  -0.155  1.00  0.00    -0.023 CG0
ATOM      9  G   UNL     1      56.814 -18.804  -1.563  1.00  0.00     0.000 G0
ENDBRANCH   5   6
ENDBRANCH   4   5
ENDBRANCH   2   4
BRANCH   1  10
ATOM     10  C   UNL     1      59.888 -17.520  -0.689  1.00  0.00     0.111 C 
BRANCH  10  11
ATOM     11  C   UNL     1      59.171 -17.804  -1.983  1.00  0.00     0.163 C 
ATOM     12  O   UNL     1      59.850 -18.222  -2.959  1.00  0.00    -0.294 OA
BRANCH  11  13
ATOM     13  C   UNL     1      57.691 -17.666  -2.126  1.00  0.00    -0.002 C 
ATOM     14  C   UNL     1      57.149 -16.606  -2.798  1.00  0.00    -0.069 C 
ATOM     15  C   UNL     1      55.667 -16.520  -3.096  1.00  0.00     0.039 C 
ATOM     16  C   UNL     1      58.009 -15.460  -3.280  1.00  0.00     0.039 C 
BRANCH  13  17
ATOM     17  C   UNL     1      56.832 -18.796  -1.580  1.00  0.00     0.066 CG0
ATOM     18  G   UNL     1      56.349 -18.523  -0.170  1.00  0.00     0.000 G0
ENDBRANCH  13  17
ENDBRANCH  11  13
ENDBRANCH  10  11
ENDBRANCH   1  10
TORSDOF 0
ENDMDL
MODEL 3
REMARK VINA RESULT:    -3.234      2.128      5.307
REMARK INTER + INTRA:          -4.421
REMARK INTER:                  -4.675
REMARK INTRA:                   0.255
REMARK UNBOUND:                 0.137
REMARK SMILES CC1=CCC(=C(C)C)C(=O)CC(C)=CCC1
REMARK SMILES IDX 12 1 14 2 13 3 15 4 16 5 2 6 1 7 3 8 11 10 9 11 10 12 5 13
REMARK SMILES IDX 6 14 7 15 8 16 4 17
REMARK H PARENT
REMARK Flexibility Score: 60.00
ROOT
ATOM      1  C   UNL     1      59.934 -17.724  -1.586  1.00  0.00    -0.070 C 
ATOM      2  C   UNL     1      58.891 -17.580  -2.432  1.00  0.00    -0.027 C 
ATOM      3  C   UNL     1      61.315 -17.842  -2.181  1.00  0.00     0.039 C 
ENDROOT
BRANCH   2   4
ATOM      4  C   UNL     1      57.451 -17.350  -2.029  1.00  0.00     0.032 C 
BRANCH   4   5
ATOM      5  C   UNL     1      56.657 -18.633  -1.705  1.00  0.00     0.034 C 
BRANCH   5   6
ATOM      6  C   UNL     1      56.009 -18.604  -0.332  1.00  0.00    -0.077 C 
ATOM      7  C   UNL     1      54.773 -17.757  -0.158  1.00  0.00     0.039 C 
ATOM      8  C   UNL     1      56.427 -19.340   0.726  1.00  0.00    -0.023 CG0
ATOM      9  G   UNL     1      57.645 -20.240   0.789  1.00  0.00     0.000 G0
ENDBRANCH   5   6
ENDBRANCH   4   5
ENDBRANCH   2   4
BRANCH   1  10
ATOM     10  C   UNL     1      59.794 -17.678  -0.078  1.00  0.00     0.111 C 
BRANCH  10  11
ATOM     11  C   UNL     1      59.880 -19.053   0.530  1.00  0.00     0.163 C 
ATOM     12  O   UNL     1      60.902 -19.749   0.285  1.00  0.00    -0.294 OA
BRANCH  11  13
ATOM     13  C   UNL     1      58.833 -19.590   1.450  1.00  0.00    -0.002 C 
ATOM     14  C   UNL     1      58.929 -19.406   2.801  1.00  0.00    -0.069 C 
ATOM     15  C   UNL     1      57.812 -19.797   3.744  1.00  0.00     0.039 C 
ATOM     16  C   UNL     1      60.166 -18.797   3.424  1.00  0.00     0.039 C 
BRANCH  13  17
ATOM     17  C   UNL     1      57.624 -20.257   0.814  1.00  0.00     0.066 CG0
ATOM     18  G   UNL     1      56.424 -19.335   0.750  1.00  0.00     0.000 G0
ENDBRANCH  13  17
ENDBRANCH  11  13
ENDBRANCH  10  11
ENDBRANCH   1  10
TORSDOF 0
ENDMDL
MODEL 4
REMARK VINA RESULT:    -3.228      2.076      5.546
REMARK INTER + INTRA:          -4.412
REMARK INTER:                  -4.574
REMARK INTRA:                   0.162
REMARK UNBOUND:                 0.137
REMARK SMILES CC1=CCC(=C(C)C)C(=O)CC(C)=CCC1
REMARK SMILES IDX 12 1 14 2 13 3 15 4 16 5 2 6 1 7 3 8 11 10 9 11 10 12 5 13
REMARK SMILES IDX 6 14 7 15 8 16 4 17
REMARK H PARENT
REMARK Flexibility Score: 60.00
ROOT
ATOM      1  C   UNL     1      57.332 -15.903  -4.723  1.00  0.00    -0.070 C 
ATOM      2  C   UNL     1      55.995 -16.084  -4.650  1.00  0.00    -0.027 C 
ATOM      3  C   UNL     1      57.841 -14.691  -5.462  1.00  0.00     0.039 C 
ENDROOT
BRANCH   2   4
ATOM      4  C   UNL     1      55.292 -17.177  -3.875  1.00  0.00     0.032 C 
BRANCH   4   5
ATOM      5  C   UNL     1      55.206 -16.939  -2.352  1.00  0.00     0.034 C 
BRANCH   5   6
ATOM      6  C   UNL     1      55.574 -18.164  -1.535  1.00  0.00    -0.077 C 
ATOM      7  C   UNL     1      54.688 -19.378  -1.654  1.00  0.00     0.039 C 
ATOM      8  C   UNL     1      56.681 -18.260  -0.759  1.00  0.00    -0.023 CG0
ATOM      9  G   UNL     1      57.698 -17.173  -0.477  1.00  0.00     0.000 G0
ENDBRANCH   5   6
ENDBRANCH   4   5
ENDBRANCH   2   4
BRANCH   1  10
ATOM     10  C   UNL     1      58.332 -16.799  -4.022  1.00  0.00     0.111 C 
BRANCH  10  11
ATOM     11  C   UNL     1      58.694 -16.268  -2.659  1.00  0.00     0.163 C 
ATOM     12  O   UNL     1      58.814 -15.021  -2.520  1.00  0.00    -0.294 OA
BRANCH  11  13
ATOM     13  C   UNL     1      58.855 -17.156  -1.469  1.00  0.00    -0.002 C 
ATOM     14  C   UNL     1      60.014 -17.852  -1.267  1.00  0.00    -0.069 C 
ATOM     15  C   UNL     1      60.268 -18.633   0.004  1.00  0.00     0.039 C 
ATOM     16  C   UNL     1      61.107 -17.875  -2.312  1.00  0.00     0.039 C 
BRANCH  13  17
ATOM     17  C   UNL     1      57.721 -17.173  -0.457  1.00  0.00     0.066 CG0
ATOM     18  G   UNL     1      56.695 -18.247  -0.758  1.00  0.00     0.000 G0
ENDBRANCH  13  17
ENDBRANCH  11  13
ENDBRANCH  10  11
ENDBRANCH   1  10
TORSDOF 0
ENDMDL
MODEL 5
REMARK VINA RESULT:    -3.224      1.611      3.276
REMARK INTER + INTRA:          -4.406
REMARK INTER:                  -4.789
REMARK INTRA:                   0.383
REMARK UNBOUND:                 0.137
REMARK SMILES CC1=CCC(=C(C)C)C(=O)CC(C)=CCC1
REMARK SMILES IDX 12 1 14 2 13 3 15 4 16 5 2 6 1 7 3 8 11 10 9 11 10 12 5 13
REMARK SMILES IDX 6 14 7 15 8 16 4 17
REMARK H PARENT
REMARK Flexibility Score: 60.00
ROOT
ATOM      1  C   UNL     1      60.853 -19.003   0.233  1.00  0.00    -0.070 C 
ATOM      2  C   UNL     1      61.535 -18.576  -0.852  1.00  0.00    -0.027 C 
ATOM      3  C   UNL     1      61.477 -20.087   1.076  1.00  0.00     0.039 C 
ENDROOT
BRANCH   2   4
ATOM      4  C   UNL     1      61.125 -17.438  -1.761  1.00  0.00     0.032 C 
BRANCH   4   5
ATOM      5  C   UNL     1      59.932 -17.750  -2.690  1.00  0.00     0.034 C 
BRANCH   5   6
ATOM      6  C   UNL     1      58.757 -16.810  -2.489  1.00  0.00    -0.077 C 
ATOM      7  C   UNL     1      58.959 -15.353  -2.820  1.00  0.00     0.039 C 
ATOM      8  C   UNL     1      57.521 -17.206  -2.097  1.00  0.00    -0.023 CG0
ATOM      9  G   UNL     1      57.092 -18.603  -1.697  1.00  0.00     0.000 G0
ENDBRANCH   5   6
ENDBRANCH   4   5
ENDBRANCH   2   4
BRANCH   1  10
ATOM     10  C   UNL     1      59.549 -18.386   0.693  1.00  0.00     0.111 C 
BRANCH  10  11
ATOM     11  C   UNL     1      58.379 -19.297   0.429  1.00  0.00     0.163 C 
ATOM     12  O   UNL     1      58.474 -20.503   0.783  1.00  0.00    -0.294 OA
BRANCH  11  13
ATOM     13  C   UNL     1      57.103 -18.810  -0.176  1.00  0.00    -0.002 C 
ATOM     14  C   UNL     1      56.033 -18.491   0.611  1.00  0.00    -0.069 C 
ATOM     15  C   UNL     1      54.785 -17.849   0.044  1.00  0.00     0.039 C 
ATOM     16  C   UNL     1      56.043 -18.766   2.098  1.00  0.00     0.039 C 
BRANCH  13  17
ATOM     17  C   UNL     1      57.085 -18.599  -1.682  1.00  0.00     0.066 CG0
ATOM     18  G   UNL     1      57.521 -17.201  -2.073  1.00  0.00     0.000 G0
ENDBRANCH  13  17
ENDBRANCH  11  13
ENDBRANCH  10  11
ENDBRANCH   1  10
TORSDOF 0
ENDMDL
MODEL 6
REMARK VINA RESULT:    -3.176      1.974      4.412
REMARK INTER + INTRA:          -4.339
REMARK INTER:                  -4.547
REMARK INTRA:                   0.208
REMARK UNBOUND:                 0.137
REMARK SMILES CC1=CCC(=C(C)C)C(=O)CC(C)=CCC1
REMARK SMILES IDX 12 1 14 2 13 3 15 4 16 5 2 6 1 7 3 8 11 10 9 11 10 12 5 13
REMARK SMILES IDX 6 14 7 15 8 16 4 17
REMARK H PARENT
REMARK Flexibility Score: 60.00
ROOT
ATOM      1  C   UNL     1      55.548 -18.486  -2.443  1.00  0.00    -0.070 C 
ATOM      2  C   UNL     1      54.955 -17.717  -3.383  1.00  0.00    -0.027 C 
ATOM      3  C   UNL     1      54.666 -19.363  -1.591  1.00  0.00     0.039 C 
ENDROOT
BRANCH   2   4
ATOM      4  C   UNL     1      55.672 -16.848  -4.394  1.00  0.00     0.032 C 
BRANCH   4   5
ATOM      5  C   UNL     1      56.149 -15.484  -3.853  1.00  0.00     0.034 C 
BRANCH   5   6
ATOM      6  C   UNL     1      57.623 -15.224  -4.105  1.00  0.00    -0.077 C 
ATOM      7  C   UNL     1      58.057 -14.968  -5.527  1.00  0.00     0.039 C 
ATOM      8  C   UNL     1      58.561 -15.139  -3.131  1.00  0.00    -0.023 CG0
ATOM      9  G   UNL     1      58.363 -15.375  -1.647  1.00  0.00     0.000 G0
ENDBRANCH   5   6
ENDBRANCH   4   5
ENDBRANCH   2   4
BRANCH   1  10
ATOM     10  C   UNL     1      57.050 -18.579  -2.270  1.00  0.00     0.111 C 
BRANCH  10  11
ATOM     11  C   UNL     1      57.529 -17.742  -1.114  1.00  0.00     0.163 C 
ATOM     12  O   UNL     1      56.955 -17.884   0.000  1.00  0.00    -0.294 OA
BRANCH  11  13
ATOM     13  C   UNL     1      58.686 -16.804  -1.226  1.00  0.00    -0.002 C 
ATOM     14  C   UNL     1      59.966 -17.249  -1.054  1.00  0.00    -0.069 C 
ATOM     15  C   UNL     1      61.165 -16.362  -1.316  1.00  0.00     0.039 C 
ATOM     16  C   UNL     1      60.251 -18.661  -0.590  1.00  0.00     0.039 C 
BRANCH  13  17
ATOM     17  C   UNL     1      58.381 -15.371  -1.632  1.00  0.00     0.066 CG0
ATOM     18  G   UNL     1      58.593 -15.132  -3.113  1.00  0.00     0.000 G0
ENDBRANCH  13  17
ENDBRANCH  11  13
ENDBRANCH  10  11
ENDBRANCH   1  10
TORSDOF 0
ENDMDL
MODEL 7
REMARK VINA RESULT:    -3.124      1.719      3.538
REMARK INTER + INTRA:          -4.266
REMARK INTER:                  -4.761
REMARK INTRA:                   0.495
REMARK UNBOUND:                 0.137
REMARK SMILES CC1=CCC(=C(C)C)C(=O)CC(C)=CCC1
REMARK SMILES IDX 12 1 14 2 13 3 15 4 16 5 2 6 1 7 3 8 11 10 9 11 10 12 5 13
REMARK SMILES IDX 6 14 7 15 8 16 4 17
REMARK H PARENT
REMARK Flexibility Score: 60.00
ROOT
ATOM      1  C   UNL     1      60.552 -17.686  -1.264  1.00  0.00    -0.070 C 
ATOM      2  C   UNL     1      60.863 -18.481  -0.217  1.00  0.00    -0.027 C 
ATOM      3  C   UNL     1      61.470 -16.529  -1.570  1.00  0.00     0.039 C 
ENDROOT
BRANCH   2   4
ATOM      4  C   UNL     1      60.126 -19.739   0.187  1.00  0.00     0.032 C 
BRANCH   4   5
ATOM      5  C   UNL     1      59.584 -19.736   1.633  1.00  0.00     0.034 C 
BRANCH   5   6
ATOM      6  C   UNL     1      58.583 -18.624   1.893  1.00  0.00    -0.077 C 
ATOM      7  C   UNL     1      58.854 -17.693   3.047  1.00  0.00     0.039 C 
ATOM      8  C   UNL     1      57.502 -18.373   1.116  1.00  0.00    -0.023 CG0
ATOM      9  G   UNL     1      57.024 -19.179  -0.075  1.00  0.00     0.000 G0
ENDBRANCH   5   6
ENDBRANCH   4   5
ENDBRANCH   2   4
BRANCH   1  10
ATOM     10  C   UNL     1      59.388 -17.955  -2.195  1.00  0.00     0.111 C 
BRANCH  10  11
ATOM     11  C   UNL     1      58.094 -17.427  -1.634  1.00  0.00     0.163 C 
ATOM     12  O   UNL     1      57.986 -16.183  -1.459  1.00  0.00    -0.294 OA
BRANCH  11  13
ATOM     13  C   UNL     1      56.927 -18.312  -1.337  1.00  0.00    -0.002 C 
ATOM     14  C   UNL     1      55.877 -18.399  -2.208  1.00  0.00    -0.069 C 
ATOM     15  C   UNL     1      54.759 -19.401  -2.014  1.00  0.00     0.039 C 
ATOM     16  C   UNL     1      55.781 -17.494  -3.415  1.00  0.00     0.039 C 
BRANCH  13  17
ATOM     17  C   UNL     1      57.008 -19.170  -0.085  1.00  0.00     0.066 CG0
ATOM     18  G   UNL     1      57.485 -18.387   1.122  1.00  0.00     0.000 G0
ENDBRANCH  13  17
ENDBRANCH  11  13
ENDBRANCH  10  11
ENDBRANCH   1  10
TORSDOF 0
ENDMDL
MODEL 8
REMARK VINA RESULT:    -3.090      3.808      6.795
REMARK INTER + INTRA:          -4.217
REMARK INTER:                  -4.431
REMARK INTRA:                   0.214
REMARK UNBOUND:                 0.137
REMARK SMILES CC1=CCC(=C(C)C)C(=O)CC(C)=CCC1
REMARK SMILES IDX 12 1 14 2 13 3 15 4 16 5 2 6 1 7 3 8 11 10 9 11 10 12 5 13
REMARK SMILES IDX 6 14 7 15 8 16 4 17
REMARK H PARENT
REMARK Flexibility Score: 60.00
ROOT
ATOM      1  C   UNL     1      60.198 -19.366   0.857  1.00  0.00    -0.070 C 
ATOM      2  C   UNL     1      59.013 -19.717   0.311  1.00  0.00    -0.027 C 
ATOM      3  C   UNL     1      61.444 -19.578   0.035  1.00  0.00     0.039 C 
ENDROOT
BRANCH   2   4
ATOM      4  C   UNL     1      57.652 -19.494   0.934  1.00  0.00     0.032 C 
BRANCH   4   5
ATOM      5  C   UNL     1      57.271 -20.506   2.036  1.00  0.00     0.034 C 
BRANCH   5   6
ATOM      6  C   UNL     1      56.845 -19.843   3.334  1.00  0.00    -0.077 C 
ATOM      7  C   UNL     1      55.541 -19.085   3.339  1.00  0.00     0.039 C 
ATOM      8  C   UNL     1      57.523 -19.945   4.503  1.00  0.00    -0.023 CG0
ATOM      9  G   UNL     1      58.853 -20.635   4.731  1.00  0.00     0.000 G0
ENDBRANCH   5   6
ENDBRANCH   4   5
ENDBRANCH   2   4
BRANCH   1  10
ATOM     10  C   UNL     1      60.324 -18.688   2.206  1.00  0.00     0.111 C 
BRANCH  10  11
ATOM     11  C   UNL     1      60.723 -19.662   3.282  1.00  0.00     0.163 C 
ATOM     12  O   UNL     1      61.703 -20.424   3.060  1.00  0.00    -0.294 OA
BRANCH  11  13
ATOM     13  C   UNL     1      60.043 -19.713   4.611  1.00  0.00    -0.002 C 
ATOM     14  C   UNL     1      60.436 -18.891   5.630  1.00  0.00    -0.069 C 
ATOM     15  C   UNL     1      59.669 -18.807   6.932  1.00  0.00     0.039 C 
ATOM     16  C   UNL     1      61.665 -18.019   5.505  1.00  0.00     0.039 C 
BRANCH  13  17
ATOM     17  C   UNL     1      58.847 -20.643   4.743  1.00  0.00     0.066 CG0
ATOM     18  G   UNL     1      57.533 -19.932   4.486  1.00  0.00     0.000 G0
ENDBRANCH  13  17
ENDBRANCH  11  13
ENDBRANCH  10  11
ENDBRANCH   1  10
TORSDOF 0
ENDMDL
MODEL 9
REMARK VINA RESULT:    -3.053      2.703      4.699
REMARK INTER + INTRA:          -4.165
REMARK INTER:                  -4.507
REMARK INTRA:                   0.342
REMARK UNBOUND:                 0.137
REMARK SMILES CC1=CCC(=C(C)C)C(=O)CC(C)=CCC1
REMARK SMILES IDX 12 1 14 2 13 3 15 4 16 5 2 6 1 7 3 8 11 10 9 11 10 12 5 13
REMARK SMILES IDX 6 14 7 15 8 16 4 17
REMARK H PARENT
REMARK Flexibility Score: 60.00
ROOT
ATOM      1  C   UNL     1      54.682 -17.892  -3.882  1.00  0.00    -0.070 C 
ATOM      2  C   UNL     1      55.055 -18.587  -2.785  1.00  0.00    -0.027 C 
ATOM      3  C   UNL     1      53.225 -17.916  -4.271  1.00  0.00     0.039 C 
ENDROOT
BRANCH   2   4
ATOM      4  C   UNL     1      56.442 -18.607  -2.181  1.00  0.00     0.032 C 
BRANCH   4   5
ATOM      5  C   UNL     1      56.892 -17.273  -1.547  1.00  0.00     0.034 C 
BRANCH   5   6
ATOM      6  C   UNL     1      58.277 -16.838  -1.991  1.00  0.00    -0.077 C 
ATOM      7  C   UNL     1      59.415 -17.806  -1.788  1.00  0.00     0.039 C 
ATOM      8  C   UNL     1      58.545 -15.667  -2.619  1.00  0.00    -0.023 CG0
ATOM      9  G   UNL     1      57.572 -14.543  -2.911  1.00  0.00     0.000 G0
ENDBRANCH   5   6
ENDBRANCH   4   5
ENDBRANCH   2   4
BRANCH   1  10
ATOM     10  C   UNL     1      55.633 -17.022  -4.678  1.00  0.00     0.111 C 
BRANCH  10  11
ATOM     11  C   UNL     1      55.612 -15.594  -4.199  1.00  0.00     0.163 C 
ATOM     12  O   UNL     1      54.540 -15.148  -3.707  1.00  0.00    -0.294 OA
BRANCH  11  13
ATOM     13  C   UNL     1      56.822 -14.720  -4.231  1.00  0.00    -0.002 C 
ATOM     14  C   UNL     1      57.176 -14.057  -5.373  1.00  0.00    -0.069 C 
ATOM     15  C   UNL     1      58.300 -13.044  -5.395  1.00  0.00     0.039 C 
ATOM     16  C   UNL     1      56.456 -14.305  -6.679  1.00  0.00     0.039 C 
BRANCH  13  17
ATOM     17  C   UNL     1      57.575 -14.529  -2.924  1.00  0.00     0.066 CG0
ATOM     18  G   UNL     1      58.532 -15.668  -2.638  1.00  0.00     0.000 G0
ENDBRANCH  13  17
ENDBRANCH  11  13
ENDBRANCH  10  11
ENDBRANCH   1  10
TORSDOF 0
ENDMDL
