MODEL 1
REMARK VINA RESULT:    -3.966      0.000      0.000
REMARK INTER + INTRA:          -6.429
REMARK INTER:                  -5.821
REMARK INTRA:                  -0.609
REMARK UNBOUND:                -0.609
REMARK SMILES O=C([O-])CCCCCCCC(=O)[O-]
REMARK SMILES IDX 7 1 6 2 5 3 4 4 2 5 1 6 3 7 8 8 9 9 10 10 11 11 12 12 13 13
REMARK H PARENT
REMARK Flexibility Score: inf
ROOT
ATOM      1  C   UNL     1     -10.858 -35.172 -25.812  1.00  0.00     0.000 C 
ENDROOT
BRANCH   1   2
ATOM      2  C   UNL     1     -12.296 -34.626 -25.828  1.00  0.00     0.000 C 
BRANCH   2   3
ATOM      3  C   UNL     1     -12.666 -33.979 -27.172  1.00  0.00     0.006 C 
BRANCH   3   4
ATOM      4  C   UNL     1     -13.496 -34.908 -28.069  1.00  0.00     0.053 C 
BRANCH   4   5
ATOM      5  C   UNL     1     -14.932 -34.890 -27.650  1.00  0.00     0.041 C 
ATOM      6  O   UNL     1     -15.662 -33.903 -27.931  1.00  0.00    -0.550 OA
ATOM      7  O   UNL     1     -15.453 -35.942 -26.906  1.00  0.00    -0.550 OA
ENDBRANCH   4   5
ENDBRANCH   3   4
ENDBRANCH   2   3
ENDBRANCH   1   2
BRANCH   1   8
ATOM      8  C   UNL     1     -10.791 -36.672 -26.143  1.00  0.00     0.000 C 
BRANCH   8   9
ATOM      9  C   UNL     1      -9.912 -36.973 -27.366  1.00  0.00     0.006 C 
BRANCH   9  10
ATOM     10  C   UNL     1      -9.153 -35.721 -27.817  1.00  0.00     0.053 C 
BRANCH  10  11
ATOM     11  C   UNL     1      -9.186 -35.595 -29.308  1.00  0.00     0.041 C 
ATOM     12  O   UNL     1      -8.923 -36.590 -30.033  1.00  0.00    -0.550 OA
ATOM     13  O   UNL     1      -9.558 -34.393 -29.896  1.00  0.00    -0.550 OA
ENDBRANCH  10  11
ENDBRANCH   9  10
ENDBRANCH   8   9
ENDBRANCH   1   8
TORSDOF 8
ENDMDL
MODEL 2
REMARK VINA RESULT:    -3.930      2.534      3.848
REMARK INTER + INTRA:          -6.376
REMARK INTER:                  -5.648
REMARK INTRA:                  -0.728
REMARK UNBOUND:                -0.609
REMARK SMILES O=C([O-])CCCCCCCC(=O)[O-]
REMARK SMILES IDX 7 1 6 2 5 3 4 4 2 5 1 6 3 7 8 8 9 9 10 10 11 11 12 12 13 13
REMARK H PARENT
REMARK Flexibility Score: inf
ROOT
ATOM      1  C   UNL     1     -12.801 -33.878 -26.758  1.00  0.00     0.000 C 
ENDROOT
BRANCH   1   2
ATOM      2  C   UNL     1     -12.279 -34.501 -25.452  1.00  0.00     0.000 C 
BRANCH   2   3
ATOM      3  C   UNL     1     -10.870 -35.095 -25.603  1.00  0.00     0.006 C 
BRANCH   3   4
ATOM      4  C   UNL     1     -10.841 -36.614 -25.387  1.00  0.00     0.053 C 
BRANCH   4   5
ATOM      5  C   UNL     1     -11.172 -36.945 -23.966  1.00  0.00     0.041 C 
ATOM      6  O   UNL     1     -12.221 -37.585 -23.692  1.00  0.00    -0.550 OA
ATOM      7  O   UNL     1     -10.347 -36.503 -22.939  1.00  0.00    -0.550 OA
ENDBRANCH   4   5
ENDBRANCH   3   4
ENDBRANCH   2   3
ENDBRANCH   1   2
BRANCH   1   8
ATOM      8  C   UNL     1     -13.562 -34.889 -27.631  1.00  0.00     0.000 C 
BRANCH   8   9
ATOM      9  C   UNL     1     -12.895 -35.118 -28.996  1.00  0.00     0.006 C 
BRANCH   9  10
ATOM     10  C   UNL     1     -11.713 -34.165 -29.194  1.00  0.00     0.053 C 
BRANCH  10  11
ATOM     11  C   UNL     1     -10.436 -34.934 -29.329  1.00  0.00     0.041 C 
ATOM     12  O   UNL     1     -10.388 -36.146 -28.993  1.00  0.00    -0.550 OA
ATOM     13  O   UNL     1      -9.312 -34.324 -29.872  1.00  0.00    -0.550 OA
ENDBRANCH  10  11
ENDBRANCH   9  10
ENDBRANCH   8   9
ENDBRANCH   1   8
TORSDOF 8
ENDMDL
MODEL 3
REMARK VINA RESULT:    -3.921      2.232      3.643
REMARK INTER + INTRA:          -6.364
REMARK INTER:                  -5.505
REMARK INTRA:                  -0.859
REMARK UNBOUND:                -0.609
REMARK SMILES O=C([O-])CCCCCCCC(=O)[O-]
REMARK SMILES IDX 7 1 6 2 5 3 4 4 2 5 1 6 3 7 8 8 9 9 10 10 11 11 12 12 13 13
REMARK H PARENT
REMARK Flexibility Score: inf
ROOT
ATOM      1  C   UNL     1     -12.608 -33.942 -26.606  1.00  0.00     0.000 C 
ENDROOT
BRANCH   1   2
ATOM      2  C   UNL     1     -12.354 -34.747 -25.320  1.00  0.00     0.000 C 
BRANCH   2   3
ATOM      3  C   UNL     1     -10.886 -35.181 -25.176  1.00  0.00     0.006 C 
BRANCH   3   4
ATOM      4  C   UNL     1     -10.720 -36.706 -25.147  1.00  0.00     0.053 C 
BRANCH   4   5
ATOM      5  C   UNL     1     -10.579 -37.241 -26.538  1.00  0.00     0.041 C 
ATOM      6  O   UNL     1      -9.460 -37.219 -27.116  1.00  0.00    -0.550 OA
ATOM      7  O   UNL     1     -11.694 -37.720 -27.215  1.00  0.00    -0.550 OA
ENDBRANCH   4   5
ENDBRANCH   3   4
ENDBRANCH   2   3
ENDBRANCH   1   2
BRANCH   1   8
ATOM      8  C   UNL     1     -13.571 -34.656 -27.568  1.00  0.00     0.000 C 
BRANCH   8   9
ATOM      9  C   UNL     1     -12.925 -34.982 -28.923  1.00  0.00     0.006 C 
BRANCH   9  10
ATOM     10  C   UNL     1     -11.653 -34.156 -29.137  1.00  0.00     0.053 C 
BRANCH  10  11
ATOM     11  C   UNL     1     -10.533 -35.029 -29.608  1.00  0.00     0.041 C 
ATOM     12  O   UNL     1     -10.771 -36.190 -30.034  1.00  0.00    -0.550 OA
ATOM     13  O   UNL     1      -9.232 -34.542 -29.626  1.00  0.00    -0.550 OA
ENDBRANCH  10  11
ENDBRANCH   9  10
ENDBRANCH   8   9
ENDBRANCH   1   8
TORSDOF 8
ENDMDL
MODEL 4
REMARK VINA RESULT:    -3.868     15.588     18.646
REMARK INTER + INTRA:          -6.286
REMARK INTER:                  -6.118
REMARK INTRA:                  -0.168
REMARK UNBOUND:                -0.609
REMARK SMILES O=C([O-])CCCCCCCC(=O)[O-]
REMARK SMILES IDX 7 1 6 2 5 3 4 4 2 5 1 6 3 7 8 8 9 9 10 10 11 11 12 12 13 13
REMARK H PARENT
REMARK Flexibility Score: inf
ROOT
ATOM      1  C   UNL     1     -22.863 -25.410 -18.797  1.00  0.00     0.000 C 
ENDROOT
BRANCH   1   2
ATOM      2  C   UNL     1     -21.508 -25.844 -18.214  1.00  0.00     0.000 C 
BRANCH   2   3
ATOM      3  C   UNL     1     -20.575 -26.449 -19.275  1.00  0.00     0.006 C 
BRANCH   3   4
ATOM      4  C   UNL     1     -19.275 -25.652 -19.445  1.00  0.00     0.053 C 
BRANCH   4   5
ATOM      5  C   UNL     1     -18.107 -26.448 -18.952  1.00  0.00     0.041 C 
ATOM      6  O   UNL     1     -16.934 -26.111 -19.261  1.00  0.00    -0.550 OA
ATOM      7  O   UNL     1     -18.318 -27.591 -18.191  1.00  0.00    -0.550 OA
ENDBRANCH   4   5
ENDBRANCH   3   4
ENDBRANCH   2   3
ENDBRANCH   1   2
BRANCH   1   8
ATOM      8  C   UNL     1     -23.993 -25.447 -17.755  1.00  0.00     0.000 C 
BRANCH   8   9
ATOM      9  C   UNL     1     -25.387 -25.543 -18.393  1.00  0.00     0.006 C 
BRANCH   9  10
ATOM     10  C   UNL     1     -26.190 -24.262 -18.149  1.00  0.00     0.053 C 
BRANCH  10  11
ATOM     11  C   UNL     1     -27.622 -24.586 -17.861  1.00  0.00     0.041 C 
ATOM     12  O   UNL     1     -28.269 -25.340 -18.634  1.00  0.00    -0.550 OA
ATOM     13  O   UNL     1     -28.228 -24.097 -16.710  1.00  0.00    -0.550 OA
ENDBRANCH  10  11
ENDBRANCH   9  10
ENDBRANCH   8   9
ENDBRANCH   1   8
TORSDOF 8
ENDMDL
MODEL 5
REMARK VINA RESULT:    -3.843      0.775      5.023
REMARK INTER + INTRA:          -6.249
REMARK INTER:                  -5.582
REMARK INTRA:                  -0.667
REMARK UNBOUND:                -0.609
REMARK SMILES O=C([O-])CCCCCCCC(=O)[O-]
REMARK SMILES IDX 7 1 6 2 5 3 4 4 2 5 1 6 3 7 8 8 9 9 10 10 11 11 12 12 13 13
REMARK H PARENT
REMARK Flexibility Score: inf
ROOT
ATOM      1  C   UNL     1     -10.768 -35.171 -25.784  1.00  0.00     0.000 C 
ENDROOT
BRANCH   1   2
ATOM      2  C   UNL     1     -10.641 -36.680 -26.054  1.00  0.00     0.000 C 
BRANCH   2   3
ATOM      3  C   UNL     1      -9.690 -36.993 -27.220  1.00  0.00     0.006 C 
BRANCH   3   4
ATOM      4  C   UNL     1      -9.431 -35.774 -28.117  1.00  0.00     0.053 C 
BRANCH   4   5
ATOM      5  C   UNL     1     -10.014 -35.995 -29.477  1.00  0.00     0.041 C 
ATOM      6  O   UNL     1      -9.538 -35.396 -30.477  1.00  0.00    -0.550 OA
ATOM      7  O   UNL     1     -11.117 -36.826 -29.634  1.00  0.00    -0.550 OA
ENDBRANCH   4   5
ENDBRANCH   3   4
ENDBRANCH   2   3
ENDBRANCH   1   2
BRANCH   1   8
ATOM      8  C   UNL     1     -12.228 -34.721 -25.618  1.00  0.00     0.000 C 
BRANCH   8   9
ATOM      9  C   UNL     1     -12.766 -33.978 -26.850  1.00  0.00     0.006 C 
BRANCH   9  10
ATOM     10  C   UNL     1     -13.483 -34.941 -27.801  1.00  0.00     0.053 C 
BRANCH  10  11
ATOM     11  C   UNL     1     -14.961 -34.899 -27.573  1.00  0.00     0.041 C 
ATOM     12  O   UNL     1     -15.642 -33.932 -28.007  1.00  0.00    -0.550 OA
ATOM     13  O   UNL     1     -15.595 -35.952 -26.926  1.00  0.00    -0.550 OA
ENDBRANCH  10  11
ENDBRANCH   9  10
ENDBRANCH   8   9
ENDBRANCH   1   8
TORSDOF 8
ENDMDL
MODEL 6
REMARK VINA RESULT:    -3.821     15.444     17.425
REMARK INTER + INTRA:          -6.217
REMARK INTER:                  -5.886
REMARK INTRA:                  -0.331
REMARK UNBOUND:                -0.609
REMARK SMILES O=C([O-])CCCCCCCC(=O)[O-]
REMARK SMILES IDX 7 1 6 2 5 3 4 4 2 5 1 6 3 7 8 8 9 9 10 10 11 11 12 12 13 13
REMARK H PARENT
REMARK Flexibility Score: inf
ROOT
ATOM      1  C   UNL     1     -21.962 -25.427 -17.050  1.00  0.00     0.000 C 
ENDROOT
BRANCH   1   2
ATOM      2  C   UNL     1     -23.465 -25.589 -16.764  1.00  0.00     0.000 C 
BRANCH   2   3
ATOM      3  C   UNL     1     -24.329 -24.610 -17.574  1.00  0.00     0.006 C 
BRANCH   3   4
ATOM      4  C   UNL     1     -25.433 -25.315 -18.374  1.00  0.00     0.053 C 
BRANCH   4   5
ATOM      5  C   UNL     1     -26.758 -24.673 -18.109  1.00  0.00     0.041 C 
ATOM      6  O   UNL     1     -26.816 -23.527 -17.592  1.00  0.00    -0.550 OA
ATOM      7  O   UNL     1     -27.932 -25.362 -18.389  1.00  0.00    -0.550 OA
ENDBRANCH   4   5
ENDBRANCH   3   4
ENDBRANCH   2   3
ENDBRANCH   1   2
BRANCH   1   8
ATOM      8  C   UNL     1     -21.661 -25.259 -18.548  1.00  0.00     0.000 C 
BRANCH   8   9
ATOM      9  C   UNL     1     -20.840 -26.423 -19.125  1.00  0.00     0.006 C 
BRANCH   9  10
ATOM     10  C   UNL     1     -19.497 -25.929 -19.670  1.00  0.00     0.053 C 
BRANCH  10  11
ATOM     11  C   UNL     1     -18.364 -26.564 -18.927  1.00  0.00     0.041 C 
ATOM     12  O   UNL     1     -18.567 -27.575 -18.205  1.00  0.00    -0.550 OA
ATOM     13  O   UNL     1     -17.074 -26.068 -19.071  1.00  0.00    -0.550 OA
ENDBRANCH  10  11
ENDBRANCH   9  10
ENDBRANCH   8   9
ENDBRANCH   1   8
TORSDOF 8
ENDMDL
MODEL 7
REMARK VINA RESULT:    -3.756      2.797      5.037
REMARK INTER + INTRA:          -6.121
REMARK INTER:                  -5.604
REMARK INTRA:                  -0.517
REMARK UNBOUND:                -0.609
REMARK SMILES O=C([O-])CCCCCCCC(=O)[O-]
REMARK SMILES IDX 7 1 6 2 5 3 4 4 2 5 1 6 3 7 8 8 9 9 10 10 11 11 12 12 13 13
REMARK H PARENT
REMARK Flexibility Score: inf
ROOT
ATOM      1  C   UNL     1     -10.710 -35.832 -28.957  1.00  0.00     0.000 C 
ENDROOT
BRANCH   1   2
ATOM      2  C   UNL     1      -9.765 -35.804 -27.744  1.00  0.00     0.000 C 
BRANCH   2   3
ATOM      3  C   UNL     1     -10.421 -36.361 -26.471  1.00  0.00     0.006 C 
BRANCH   3   4
ATOM      4  C   UNL     1     -10.823 -35.260 -25.480  1.00  0.00     0.053 C 
BRANCH   4   5
ATOM      5  C   UNL     1     -11.372 -35.863 -24.225  1.00  0.00     0.041 C 
ATOM      6  O   UNL     1     -10.745 -35.748 -23.139  1.00  0.00    -0.550 OA
ATOM      7  O   UNL     1     -12.553 -36.594 -24.265  1.00  0.00    -0.550 OA
ENDBRANCH   4   5
ENDBRANCH   3   4
ENDBRANCH   2   3
ENDBRANCH   1   2
BRANCH   1   8
ATOM      8  C   UNL     1     -11.563 -34.559 -29.071  1.00  0.00     0.000 C 
BRANCH   8   9
ATOM      9  C   UNL     1     -13.070 -34.844 -28.995  1.00  0.00     0.006 C 
BRANCH   9  10
ATOM     10  C   UNL     1     -13.651 -34.367 -27.661  1.00  0.00     0.053 C 
BRANCH  10  11
ATOM     11  C   UNL     1     -15.128 -34.604 -27.616  1.00  0.00     0.041 C 
ATOM     12  O   UNL     1     -15.582 -35.688 -27.165  1.00  0.00    -0.550 OA
ATOM     13  O   UNL     1     -16.004 -33.607 -28.027  1.00  0.00    -0.550 OA
ENDBRANCH  10  11
ENDBRANCH   9  10
ENDBRANCH   8   9
ENDBRANCH   1   8
TORSDOF 8
ENDMDL
MODEL 8
REMARK VINA RESULT:    -3.742     19.229     21.617
REMARK INTER + INTRA:          -6.101
REMARK INTER:                  -5.383
REMARK INTRA:                  -0.718
REMARK UNBOUND:                -0.609
REMARK SMILES O=C([O-])CCCCCCCC(=O)[O-]
REMARK SMILES IDX 7 1 6 2 5 3 4 4 2 5 1 6 3 7 8 8 9 9 10 10 11 11 12 12 13 13
REMARK H PARENT
REMARK Flexibility Score: inf
ROOT
ATOM      1  C   UNL     1     -28.313 -20.611 -32.095  1.00  0.00     0.000 C 
ENDROOT
BRANCH   1   2
ATOM      2  C   UNL     1     -28.101 -22.025 -32.663  1.00  0.00     0.000 C 
BRANCH   2   3
ATOM      3  C   UNL     1     -27.397 -22.962 -31.668  1.00  0.00     0.006 C 
BRANCH   3   4
ATOM      4  C   UNL     1     -25.876 -22.754 -31.634  1.00  0.00     0.053 C 
BRANCH   4   5
ATOM      5  C   UNL     1     -25.445 -22.288 -30.279  1.00  0.00     0.041 C 
ATOM      6  O   UNL     1     -24.381 -21.628 -30.144  1.00  0.00    -0.550 OA
ATOM      7  O   UNL     1     -26.192 -22.626 -29.157  1.00  0.00    -0.550 OA
ENDBRANCH   4   5
ENDBRANCH   3   4
ENDBRANCH   2   3
ENDBRANCH   1   2
BRANCH   1   8
ATOM      8  C   UNL     1     -28.774 -20.627 -30.628  1.00  0.00     0.000 C 
BRANCH   8   9
ATOM      9  C   UNL     1     -28.281 -19.407 -29.837  1.00  0.00     0.006 C 
BRANCH   9  10
ATOM     10  C   UNL     1     -27.989 -19.780 -28.380  1.00  0.00     0.053 C 
BRANCH  10  11
ATOM     11  C   UNL     1     -26.715 -19.144 -27.920  1.00  0.00     0.041 C 
ATOM     12  O   UNL     1     -25.792 -18.908 -28.743  1.00  0.00    -0.550 OA
ATOM     13  O   UNL     1     -26.568 -18.766 -26.591  1.00  0.00    -0.550 OA
ENDBRANCH  10  11
ENDBRANCH   9  10
ENDBRANCH   8   9
ENDBRANCH   1   8
TORSDOF 8
ENDMDL
MODEL 9
REMARK VINA RESULT:    -3.726      1.392      4.663
REMARK INTER + INTRA:          -6.077
REMARK INTER:                  -5.299
REMARK INTRA:                  -0.778
REMARK UNBOUND:                -0.609
REMARK SMILES O=C([O-])CCCCCCCC(=O)[O-]
REMARK SMILES IDX 7 1 6 2 5 3 4 4 2 5 1 6 3 7 8 8 9 9 10 10 11 11 12 12 13 13
REMARK H PARENT
REMARK Flexibility Score: inf
ROOT
ATOM      1  C   UNL     1     -12.077 -35.214 -25.901  1.00  0.00     0.000 C 
ENDROOT
BRANCH   1   2
ATOM      2  C   UNL     1     -10.554 -35.377 -26.041  1.00  0.00     0.000 C 
BRANCH   2   3
ATOM      3  C   UNL     1     -10.164 -36.295 -27.211  1.00  0.00     0.006 C 
BRANCH   3   4
ATOM      4  C   UNL     1      -8.906 -35.814 -27.948  1.00  0.00     0.053 C 
BRANCH   4   5
ATOM      5  C   UNL     1      -9.206 -35.587 -29.396  1.00  0.00     0.041 C 
ATOM      6  O   UNL     1      -9.094 -36.531 -30.222  1.00  0.00    -0.550 OA
ATOM      7  O   UNL     1      -9.563 -34.321 -29.842  1.00  0.00    -0.550 OA
ENDBRANCH   4   5
ENDBRANCH   3   4
ENDBRANCH   2   3
ENDBRANCH   1   2
BRANCH   1   8
ATOM      8  C   UNL     1     -12.616 -34.006 -26.684  1.00  0.00     0.000 C 
BRANCH   8   9
ATOM      9  C   UNL     1     -13.663 -34.399 -27.737  1.00  0.00     0.006 C 
BRANCH   9  10
ATOM     10  C   UNL     1     -12.993 -34.777 -29.061  1.00  0.00     0.053 C 
BRANCH  10  11
ATOM     11  C   UNL     1     -13.166 -36.238 -29.338  1.00  0.00     0.041 C 
ATOM     12  O   UNL     1     -12.471 -36.801 -30.223  1.00  0.00    -0.550 OA
ATOM     13  O   UNL     1     -14.060 -36.987 -28.583  1.00  0.00    -0.550 OA
ENDBRANCH  10  11
ENDBRANCH   9  10
ENDBRANCH   8   9
ENDBRANCH   1   8
TORSDOF 8
ENDMDL
