MODEL 1
REMARK VINA RESULT:    -3.461      0.000      0.000
REMARK INTER + INTRA:          -7.399
REMARK INTER:                  -6.293
REMARK INTRA:                  -1.106
REMARK UNBOUND:                -1.106
REMARK SMILES CCCCCCCCCCCCCCCC(=O)[O-]
REMARK SMILES IDX 9 1 10 2 11 3 12 4 13 5 14 6 15 7 16 8 17 9 18 10 8 11 7 12
REMARK SMILES IDX 6 13 5 14 4 15 3 16 2 17 1 18
REMARK H PARENT
REMARK Flexibility Score: inf
ROOT
ATOM      1  C   UNL     1       5.551   0.049  -5.558  1.00  0.00     0.000 C 
ENDROOT
BRANCH   1   2
ATOM      2  C   UNL     1       5.337  -0.199  -4.056  1.00  0.00     0.000 C 
BRANCH   2   3
ATOM      3  C   UNL     1       5.851  -1.577  -3.600  1.00  0.00     0.000 C 
BRANCH   3   4
ATOM      4  C   UNL     1       6.379  -2.487  -4.726  1.00  0.00     0.000 C 
BRANCH   4   5
ATOM      5  C   UNL     1       5.803  -3.916  -4.744  1.00  0.00     0.000 C 
BRANCH   5   6
ATOM      6  C   UNL     1       4.339  -4.039  -4.277  1.00  0.00     0.006 C 
BRANCH   6   7
ATOM      7  C   UNL     1       3.306  -3.632  -5.343  1.00  0.00     0.053 C 
BRANCH   7   8
ATOM      8  C   UNL     1       2.389  -2.546  -4.865  1.00  0.00     0.041 C 
ATOM      9  O   UNL     1       2.375  -2.217  -3.650  1.00  0.00    -0.550 OA
ATOM     10  O   UNL     1       1.524  -1.922  -5.755  1.00  0.00    -0.550 OA
ENDBRANCH   7   8
ENDBRANCH   6   7
ENDBRANCH   5   6
ENDBRANCH   4   5
ENDBRANCH   3   4
ENDBRANCH   2   3
ENDBRANCH   1   2
BRANCH   1  11
ATOM     11  C   UNL     1       6.475   1.247  -5.834  1.00  0.00     0.000 C 
BRANCH  11  12
ATOM     12  C   UNL     1       6.897   1.977  -4.548  1.00  0.00    -0.000 C 
BRANCH  12  13
ATOM     13  C   UNL     1       7.035   3.497  -4.744  1.00  0.00    -0.000 C 
BRANCH  13  14
ATOM     14  C   UNL     1       7.117   4.318  -3.442  1.00  0.00    -0.000 C 
BRANCH  14  15
ATOM     15  C   UNL     1       6.157   5.526  -3.404  1.00  0.00    -0.000 C 
BRANCH  15  16
ATOM     16  C   UNL     1       5.208   5.478  -2.197  1.00  0.00    -0.000 C 
BRANCH  16  17
ATOM     17  C   UNL     1       4.620   6.864  -1.904  1.00  0.00    -0.003 C 
ATOM     18  C   UNL     1       4.196   7.566  -3.190  1.00  0.00     0.004 C 
ENDBRANCH  16  17
ENDBRANCH  15  16
ENDBRANCH  14  15
ENDBRANCH  13  14
ENDBRANCH  12  13
ENDBRANCH  11  12
ENDBRANCH   1  11
TORSDOF 14
ENDMDL
MODEL 2
REMARK VINA RESULT:    -3.426      8.348     12.707
REMARK INTER + INTRA:          -7.337
REMARK INTER:                  -5.020
REMARK INTRA:                  -2.316
REMARK UNBOUND:                -1.106
REMARK SMILES CCCCCCCCCCCCCCCC(=O)[O-]
REMARK SMILES IDX 9 1 10 2 11 3 12 4 13 5 14 6 15 7 16 8 17 9 18 10 8 11 7 12
REMARK SMILES IDX 6 13 5 14 4 15 3 16 2 17 1 18
REMARK H PARENT
REMARK Flexibility Score: inf
ROOT
ATOM      1  C   UNL     1      -7.985  -2.171  -4.553  1.00  0.00     0.000 C 
ENDROOT
BRANCH   1   2
ATOM      2  C   UNL     1      -7.695  -3.201  -5.656  1.00  0.00     0.000 C 
BRANCH   2   3
ATOM      3  C   UNL     1      -6.539  -2.776  -6.579  1.00  0.00     0.000 C 
BRANCH   3   4
ATOM      4  C   UNL     1      -6.282  -1.258  -6.656  1.00  0.00     0.000 C 
BRANCH   4   5
ATOM      5  C   UNL     1      -4.948  -0.784  -6.050  1.00  0.00     0.000 C 
BRANCH   5   6
ATOM      6  C   UNL     1      -3.753  -0.771  -7.024  1.00  0.00     0.006 C 
BRANCH   6   7
ATOM      7  C   UNL     1      -2.648  -1.782  -6.669  1.00  0.00     0.053 C 
BRANCH   7   8
ATOM      8  C   UNL     1      -1.279  -1.279  -7.017  1.00  0.00     0.041 C 
ATOM      9  O   UNL     1      -0.651  -0.541  -6.212  1.00  0.00    -0.550 OA
ATOM     10  O   UNL     1      -0.710  -1.595  -8.244  1.00  0.00    -0.550 OA
ENDBRANCH   7   8
ENDBRANCH   6   7
ENDBRANCH   5   6
ENDBRANCH   4   5
ENDBRANCH   3   4
ENDBRANCH   2   3
ENDBRANCH   1   2
BRANCH   1  11
ATOM     11  C   UNL     1      -7.441  -2.603  -3.181  1.00  0.00     0.000 C 
BRANCH  11  12
ATOM     12  C   UNL     1      -6.080  -1.963  -2.857  1.00  0.00    -0.000 C 
BRANCH  12  13
ATOM     13  C   UNL     1      -4.992  -3.004  -2.544  1.00  0.00    -0.000 C 
BRANCH  13  14
ATOM     14  C   UNL     1      -4.362  -3.683  -3.778  1.00  0.00    -0.000 C 
BRANCH  14  15
ATOM     15  C   UNL     1      -4.370  -5.224  -3.715  1.00  0.00    -0.000 C 
BRANCH  15  16
ATOM     16  C   UNL     1      -5.723  -5.818  -4.136  1.00  0.00    -0.000 C 
BRANCH  16  17
ATOM     17  C   UNL     1      -6.539  -6.250  -2.912  1.00  0.00    -0.003 C 
ATOM     18  C   UNL     1      -8.032  -6.265  -3.222  1.00  0.00     0.004 C 
ENDBRANCH  16  17
ENDBRANCH  15  16
ENDBRANCH  14  15
ENDBRANCH  13  14
ENDBRANCH  12  13
ENDBRANCH  11  12
ENDBRANCH   1  11
TORSDOF 14
ENDMDL
MODEL 3
REMARK VINA RESULT:    -3.415      3.776      6.649
REMARK INTER + INTRA:          -7.315
REMARK INTER:                  -6.097
REMARK INTRA:                  -1.219
REMARK UNBOUND:                -1.106
REMARK SMILES CCCCCCCCCCCCCCCC(=O)[O-]
REMARK SMILES IDX 9 1 10 2 11 3 12 4 13 5 14 6 15 7 16 8 17 9 18 10 8 11 7 12
REMARK SMILES IDX 6 13 5 14 4 15 3 16 2 17 1 18
REMARK H PARENT
REMARK Flexibility Score: inf
ROOT
ATOM      1  C   UNL     1       3.772   1.512  -9.287  1.00  0.00     0.000 C 
ENDROOT
BRANCH   1   2
ATOM      2  C   UNL     1       5.041   1.383  -8.428  1.00  0.00     0.000 C 
BRANCH   2   3
ATOM      3  C   UNL     1       4.888   0.360  -7.288  1.00  0.00     0.000 C 
BRANCH   3   4
ATOM      4  C   UNL     1       6.022   0.366  -6.244  1.00  0.00     0.000 C 
BRANCH   4   5
ATOM      5  C   UNL     1       5.564   0.392  -4.773  1.00  0.00     0.000 C 
BRANCH   5   6
ATOM      6  C   UNL     1       5.600  -0.969  -4.050  1.00  0.00     0.006 C 
BRANCH   6   7
ATOM      7  C   UNL     1       4.477  -1.932  -4.475  1.00  0.00     0.053 C 
BRANCH   7   8
ATOM      8  C   UNL     1       3.365  -1.992  -3.473  1.00  0.00     0.041 C 
ATOM      9  O   UNL     1       3.597  -1.779  -2.254  1.00  0.00    -0.550 OA
ATOM     10  O   UNL     1       2.077  -2.318  -3.879  1.00  0.00    -0.550 OA
ENDBRANCH   7   8
ENDBRANCH   6   7
ENDBRANCH   5   6
ENDBRANCH   4   5
ENDBRANCH   3   4
ENDBRANCH   2   3
ENDBRANCH   1   2
BRANCH   1  11
ATOM     11  C   UNL     1       3.281   2.965  -9.402  1.00  0.00     0.000 C 
BRANCH  11  12
ATOM     12  C   UNL     1       1.747   3.074  -9.367  1.00  0.00    -0.000 C 
BRANCH  12  13
ATOM     13  C   UNL     1       1.047   1.759  -9.749  1.00  0.00    -0.000 C 
BRANCH  13  14
ATOM     14  C   UNL     1      -0.245   1.454  -8.964  1.00  0.00    -0.000 C 
BRANCH  14  15
ATOM     15  C   UNL     1      -0.108   0.281  -7.970  1.00  0.00    -0.000 C 
BRANCH  15  16
ATOM     16  C   UNL     1      -0.300  -1.084  -8.650  1.00  0.00    -0.000 C 
BRANCH  16  17
ATOM     17  C   UNL     1       0.495  -2.176  -7.925  1.00  0.00    -0.003 C 
ATOM     18  C   UNL     1       1.865  -1.664  -7.491  1.00  0.00     0.004 C 
ENDBRANCH  16  17
ENDBRANCH  15  16
ENDBRANCH  14  15
ENDBRANCH  13  14
ENDBRANCH  12  13
ENDBRANCH  11  12
ENDBRANCH   1  11
TORSDOF 14
ENDMDL
MODEL 4
REMARK VINA RESULT:    -3.412      1.691      3.776
REMARK INTER + INTRA:          -7.310
REMARK INTER:                  -6.035
REMARK INTRA:                  -1.275
REMARK UNBOUND:                -1.106
REMARK SMILES CCCCCCCCCCCCCCCC(=O)[O-]
REMARK SMILES IDX 9 1 10 2 11 3 12 4 13 5 14 6 15 7 16 8 17 9 18 10 8 11 7 12
REMARK SMILES IDX 6 13 5 14 4 15 3 16 2 17 1 18
REMARK H PARENT
REMARK Flexibility Score: inf
ROOT
ATOM      1  C   UNL     1       7.895   4.924  -3.587  1.00  0.00     0.000 C 
ENDROOT
BRANCH   1   2
ATOM      2  C   UNL     1       6.731   3.987  -3.947  1.00  0.00     0.000 C 
BRANCH   2   3
ATOM      3  C   UNL     1       7.155   2.842  -4.884  1.00  0.00     0.000 C 
BRANCH   3   4
ATOM      4  C   UNL     1       7.082   1.430  -4.271  1.00  0.00     0.000 C 
BRANCH   4   5
ATOM      5  C   UNL     1       5.757   0.678  -4.502  1.00  0.00     0.000 C 
BRANCH   5   6
ATOM      6  C   UNL     1       5.792  -0.828  -4.177  1.00  0.00     0.006 C 
BRANCH   6   7
ATOM      7  C   UNL     1       4.538  -1.595  -4.635  1.00  0.00     0.053 C 
BRANCH   7   8
ATOM      8  C   UNL     1       3.617  -1.917  -3.497  1.00  0.00     0.041 C 
ATOM      9  O   UNL     1       4.055  -1.952  -2.317  1.00  0.00    -0.550 OA
ATOM     10  O   UNL     1       2.283  -2.214  -3.743  1.00  0.00    -0.550 OA
ENDBRANCH   7   8
ENDBRANCH   6   7
ENDBRANCH   5   6
ENDBRANCH   4   5
ENDBRANCH   3   4
ENDBRANCH   2   3
ENDBRANCH   1   2
BRANCH   1  11
ATOM     11  C   UNL     1       8.640   4.481  -2.317  1.00  0.00     0.000 C 
BRANCH  11  12
ATOM     12  C   UNL     1       8.811   5.624  -1.302  1.00  0.00    -0.000 C 
BRANCH  12  13
ATOM     13  C   UNL     1       7.642   5.717  -0.308  1.00  0.00    -0.000 C 
BRANCH  13  14
ATOM     14  C   UNL     1       6.967   7.101  -0.221  1.00  0.00    -0.000 C 
BRANCH  14  15
ATOM     15  C   UNL     1       5.449   7.074  -0.500  1.00  0.00    -0.000 C 
BRANCH  15  16
ATOM     16  C   UNL     1       5.071   6.037  -1.569  1.00  0.00    -0.000 C 
BRANCH  16  17
ATOM     17  C   UNL     1       4.261   6.683  -2.699  1.00  0.00    -0.003 C 
ATOM     18  C   UNL     1       5.164   7.462  -3.649  1.00  0.00     0.004 C 
ENDBRANCH  16  17
ENDBRANCH  15  16
ENDBRANCH  14  15
ENDBRANCH  13  14
ENDBRANCH  12  13
ENDBRANCH  11  12
ENDBRANCH   1  11
TORSDOF 14
ENDMDL
MODEL 5
REMARK VINA RESULT:    -3.377      1.956      4.076
REMARK INTER + INTRA:          -7.247
REMARK INTER:                  -5.766
REMARK INTRA:                  -1.481
REMARK UNBOUND:                -1.106
REMARK SMILES CCCCCCCCCCCCCCCC(=O)[O-]
REMARK SMILES IDX 9 1 10 2 11 3 12 4 13 5 14 6 15 7 16 8 17 9 18 10 8 11 7 12
REMARK SMILES IDX 6 13 5 14 4 15 3 16 2 17 1 18
REMARK H PARENT
REMARK Flexibility Score: inf
ROOT
ATOM      1  C   UNL     1       6.981   4.628  -4.209  1.00  0.00     0.000 C 
ENDROOT
BRANCH   1   2
ATOM      2  C   UNL     1       8.104   3.727  -3.669  1.00  0.00     0.000 C 
BRANCH   2   3
ATOM      3  C   UNL     1       7.941   2.254  -4.089  1.00  0.00     0.000 C 
BRANCH   3   4
ATOM      4  C   UNL     1       6.561   1.885  -4.668  1.00  0.00     0.000 C 
BRANCH   4   5
ATOM      5  C   UNL     1       6.300   0.376  -4.839  1.00  0.00     0.000 C 
BRANCH   5   6
ATOM      6  C   UNL     1       5.341  -0.245  -3.805  1.00  0.00     0.006 C 
BRANCH   6   7
ATOM      7  C   UNL     1       4.578  -1.478  -4.323  1.00  0.00     0.053 C 
BRANCH   7   8
ATOM      8  C   UNL     1       3.441  -1.865  -3.426  1.00  0.00     0.041 C 
ATOM      9  O   UNL     1       3.580  -1.834  -2.175  1.00  0.00    -0.550 OA
ATOM     10  O   UNL     1       2.237  -2.295  -3.972  1.00  0.00    -0.550 OA
ENDBRANCH   7   8
ENDBRANCH   6   7
ENDBRANCH   5   6
ENDBRANCH   4   5
ENDBRANCH   3   4
ENDBRANCH   2   3
ENDBRANCH   1   2
BRANCH   1  11
ATOM     11  C   UNL     1       7.340   6.121  -4.146  1.00  0.00     0.000 C 
BRANCH  11  12
ATOM     12  C   UNL     1       6.481   6.893  -3.128  1.00  0.00    -0.000 C 
BRANCH  12  13
ATOM     13  C   UNL     1       5.421   6.008  -2.451  1.00  0.00    -0.000 C 
BRANCH  13  14
ATOM     14  C   UNL     1       5.601   5.820  -0.931  1.00  0.00    -0.000 C 
BRANCH  14  15
ATOM     15  C   UNL     1       6.619   6.792  -0.298  1.00  0.00    -0.000 C 
BRANCH  15  16
ATOM     16  C   UNL     1       7.658   6.064   0.568  1.00  0.00    -0.000 C 
BRANCH  16  17
ATOM     17  C   UNL     1       8.609   5.230  -0.298  1.00  0.00    -0.003 C 
ATOM     18  C   UNL     1       9.503   6.124  -1.152  1.00  0.00     0.004 C 
ENDBRANCH  16  17
ENDBRANCH  15  16
ENDBRANCH  14  15
ENDBRANCH  13  14
ENDBRANCH  12  13
ENDBRANCH  11  12
ENDBRANCH   1  11
TORSDOF 14
ENDMDL
MODEL 6
REMARK VINA RESULT:    -3.376      1.319      2.656
REMARK INTER + INTRA:          -7.245
REMARK INTER:                  -5.983
REMARK INTRA:                  -1.262
REMARK UNBOUND:                -1.106
REMARK SMILES CCCCCCCCCCCCCCCC(=O)[O-]
REMARK SMILES IDX 9 1 10 2 11 3 12 4 13 5 14 6 15 7 16 8 17 9 18 10 8 11 7 12
REMARK SMILES IDX 6 13 5 14 4 15 3 16 2 17 1 18
REMARK H PARENT
REMARK Flexibility Score: inf
ROOT
ATOM      1  C   UNL     1       6.982   3.026  -6.833  1.00  0.00     0.000 C 
ENDROOT
BRANCH   1   2
ATOM      2  C   UNL     1       7.404   1.679  -7.440  1.00  0.00     0.000 C 
BRANCH   2   3
ATOM      3  C   UNL     1       6.924   0.474  -6.610  1.00  0.00     0.000 C 
BRANCH   3   4
ATOM      4  C   UNL     1       5.572   0.666  -5.895  1.00  0.00     0.000 C 
BRANCH   4   5
ATOM      5  C   UNL     1       5.530   0.201  -4.427  1.00  0.00     0.000 C 
BRANCH   5   6
ATOM      6  C   UNL     1       5.692  -1.317  -4.214  1.00  0.00     0.006 C 
BRANCH   6   7
ATOM      7  C   UNL     1       4.457  -2.140  -4.625  1.00  0.00     0.053 C 
BRANCH   7   8
ATOM      8  C   UNL     1       3.365  -2.084  -3.599  1.00  0.00     0.041 C 
ATOM      9  O   UNL     1       2.167  -2.275  -3.937  1.00  0.00    -0.550 OA
ATOM     10  O   UNL     1       3.666  -1.785  -2.276  1.00  0.00    -0.550 OA
ENDBRANCH   7   8
ENDBRANCH   6   7
ENDBRANCH   5   6
ENDBRANCH   4   5
ENDBRANCH   3   4
ENDBRANCH   2   3
ENDBRANCH   1   2
BRANCH   1  11
ATOM     11  C   UNL     1       8.141   3.746  -6.125  1.00  0.00     0.000 C 
BRANCH  11  12
ATOM     12  C   UNL     1       8.238   3.385  -4.632  1.00  0.00    -0.000 C 
BRANCH  12  13
ATOM     13  C   UNL     1       6.930   3.656  -3.868  1.00  0.00    -0.000 C 
BRANCH  13  14
ATOM     14  C   UNL     1       6.656   5.139  -3.548  1.00  0.00    -0.000 C 
BRANCH  14  15
ATOM     15  C   UNL     1       6.706   5.473  -2.042  1.00  0.00    -0.000 C 
BRANCH  15  16
ATOM     16  C   UNL     1       5.450   6.221  -1.569  1.00  0.00    -0.000 C 
BRANCH  16  17
ATOM     17  C   UNL     1       4.396   6.285  -2.680  1.00  0.00    -0.003 C 
ATOM     18  C   UNL     1       4.075   7.728  -3.053  1.00  0.00     0.004 C 
ENDBRANCH  16  17
ENDBRANCH  15  16
ENDBRANCH  14  15
ENDBRANCH  13  14
ENDBRANCH  12  13
ENDBRANCH  11  12
ENDBRANCH   1  11
TORSDOF 14
ENDMDL
MODEL 7
REMARK VINA RESULT:    -3.375      3.716      5.873
REMARK INTER + INTRA:          -7.244
REMARK INTER:                  -5.806
REMARK INTRA:                  -1.437
REMARK UNBOUND:                -1.106
REMARK SMILES CCCCCCCCCCCCCCCC(=O)[O-]
REMARK SMILES IDX 9 1 10 2 11 3 12 4 13 5 14 6 15 7 16 8 17 9 18 10 8 11 7 12
REMARK SMILES IDX 6 13 5 14 4 15 3 16 2 17 1 18
REMARK H PARENT
REMARK Flexibility Score: inf
ROOT
ATOM      1  C   UNL     1       4.031  -0.665  -7.676  1.00  0.00     0.000 C 
ENDROOT
BRANCH   1   2
ATOM      2  C   UNL     1       4.948  -1.847  -7.324  1.00  0.00     0.000 C 
BRANCH   2   3
ATOM      3  C   UNL     1       5.950  -1.512  -6.203  1.00  0.00     0.000 C 
BRANCH   3   4
ATOM      4  C   UNL     1       5.814  -0.099  -5.602  1.00  0.00     0.000 C 
BRANCH   4   5
ATOM      5  C   UNL     1       5.493  -0.052  -4.096  1.00  0.00     0.000 C 
BRANCH   5   6
ATOM      6  C   UNL     1       5.313  -1.425  -3.420  1.00  0.00     0.006 C 
BRANCH   6   7
ATOM      7  C   UNL     1       3.865  -1.728  -2.996  1.00  0.00     0.053 C 
BRANCH   7   8
ATOM      8  C   UNL     1       3.154  -2.609  -3.979  1.00  0.00     0.041 C 
ATOM      9  O   UNL     1       2.012  -2.294  -4.403  1.00  0.00    -0.550 OA
ATOM     10  O   UNL     1       3.738  -3.798  -4.400  1.00  0.00    -0.550 OA
ENDBRANCH   7   8
ENDBRANCH   6   7
ENDBRANCH   5   6
ENDBRANCH   4   5
ENDBRANCH   3   4
ENDBRANCH   2   3
ENDBRANCH   1   2
BRANCH   1  11
ATOM     11  C   UNL     1       4.452   0.045  -8.973  1.00  0.00     0.000 C 
BRANCH  11  12
ATOM     12  C   UNL     1       4.186   1.559  -8.932  1.00  0.00    -0.000 C 
BRANCH  12  13
ATOM     13  C   UNL     1       3.099   2.001  -9.926  1.00  0.00    -0.000 C 
BRANCH  13  14
ATOM     14  C   UNL     1       1.901   2.741  -9.297  1.00  0.00    -0.000 C 
BRANCH  14  15
ATOM     15  C   UNL     1       0.555   2.004  -9.462  1.00  0.00    -0.000 C 
BRANCH  15  16
ATOM     16  C   UNL     1       0.612   0.562  -8.935  1.00  0.00    -0.000 C 
BRANCH  16  17
ATOM     17  C   UNL     1      -0.734   0.143  -8.333  1.00  0.00    -0.003 C 
ATOM     18  C   UNL     1      -0.541  -0.600  -7.015  1.00  0.00     0.004 C 
ENDBRANCH  16  17
ENDBRANCH  15  16
ENDBRANCH  14  15
ENDBRANCH  13  14
ENDBRANCH  12  13
ENDBRANCH  11  12
ENDBRANCH   1  11
TORSDOF 14
ENDMDL
MODEL 8
REMARK VINA RESULT:    -3.348      1.886      3.558
REMARK INTER + INTRA:          -7.194
REMARK INTER:                  -4.831
REMARK INTRA:                  -2.363
REMARK UNBOUND:                -1.106
REMARK SMILES CCCCCCCCCCCCCCCC(=O)[O-]
REMARK SMILES IDX 9 1 10 2 11 3 12 4 13 5 14 6 15 7 16 8 17 9 18 10 8 11 7 12
REMARK SMILES IDX 6 13 5 14 4 15 3 16 2 17 1 18
REMARK H PARENT
REMARK Flexibility Score: inf
ROOT
ATOM      1  C   UNL     1       7.732  -0.573  -7.443  1.00  0.00     0.000 C 
ENDROOT
BRANCH   1   2
ATOM      2  C   UNL     1       7.286   0.893  -7.568  1.00  0.00     0.000 C 
BRANCH   2   3
ATOM      3  C   UNL     1       6.053   1.217  -6.705  1.00  0.00     0.000 C 
BRANCH   3   4
ATOM      4  C   UNL     1       5.387   0.003  -6.028  1.00  0.00     0.000 C 
BRANCH   4   5
ATOM      5  C   UNL     1       5.373   0.033  -4.488  1.00  0.00     0.000 C 
BRANCH   5   6
ATOM      6  C   UNL     1       4.965  -1.289  -3.809  1.00  0.00     0.006 C 
BRANCH   6   7
ATOM      7  C   UNL     1       4.468  -2.367  -4.790  1.00  0.00     0.053 C 
BRANCH   7   8
ATOM      8  C   UNL     1       3.139  -2.935  -4.390  1.00  0.00     0.041 C 
ATOM      9  O   UNL     1       2.281  -2.206  -3.827  1.00  0.00    -0.550 OA
ATOM     10  O   UNL     1       2.861  -4.279  -4.608  1.00  0.00    -0.550 OA
ENDBRANCH   7   8
ENDBRANCH   6   7
ENDBRANCH   5   6
ENDBRANCH   4   5
ENDBRANCH   3   4
ENDBRANCH   2   3
ENDBRANCH   1   2
BRANCH   1  11
ATOM     11  C   UNL     1       9.023  -0.731  -6.623  1.00  0.00     0.000 C 
BRANCH  11  12
ATOM     12  C   UNL     1       8.783  -1.423  -5.270  1.00  0.00    -0.000 C 
BRANCH  12  13
ATOM     13  C   UNL     1       8.937  -0.467  -4.075  1.00  0.00    -0.000 C 
BRANCH  13  14
ATOM     14  C   UNL     1       9.324   0.980  -4.443  1.00  0.00    -0.000 C 
BRANCH  14  15
ATOM     15  C   UNL     1       8.407   2.051  -3.816  1.00  0.00    -0.000 C 
BRANCH  15  16
ATOM     16  C   UNL     1       8.455   3.381  -4.582  1.00  0.00    -0.000 C 
BRANCH  16  17
ATOM     17  C   UNL     1       7.056   3.992  -4.712  1.00  0.00    -0.003 C 
ATOM     18  C   UNL     1       6.534   4.468  -3.360  1.00  0.00     0.004 C 
ENDBRANCH  16  17
ENDBRANCH  15  16
ENDBRANCH  14  15
ENDBRANCH  13  14
ENDBRANCH  12  13
ENDBRANCH  11  12
ENDBRANCH   1  11
TORSDOF 14
ENDMDL
MODEL 9
REMARK VINA RESULT:    -3.342      8.353     12.063
REMARK INTER + INTRA:          -7.183
REMARK INTER:                  -5.104
REMARK INTRA:                  -2.079
REMARK UNBOUND:                -1.106
REMARK SMILES CCCCCCCCCCCCCCCC(=O)[O-]
REMARK SMILES IDX 9 1 10 2 11 3 12 4 13 5 14 6 15 7 16 8 17 9 18 10 8 11 7 12
REMARK SMILES IDX 6 13 5 14 4 15 3 16 2 17 1 18
REMARK H PARENT
REMARK Flexibility Score: inf
ROOT
ATOM      1  C   UNL     1      -7.444  -1.902  -4.329  1.00  0.00     0.000 C 
ENDROOT
BRANCH   1   2
ATOM      2  C   UNL     1      -7.390  -2.959  -5.444  1.00  0.00     0.000 C 
BRANCH   2   3
ATOM      3  C   UNL     1      -6.358  -2.623  -6.536  1.00  0.00     0.000 C 
BRANCH   3   4
ATOM      4  C   UNL     1      -6.163  -1.119  -6.814  1.00  0.00     0.000 C 
BRANCH   4   5
ATOM      5  C   UNL     1      -4.728  -0.594  -6.617  1.00  0.00     0.000 C 
BRANCH   5   6
ATOM      6  C   UNL     1      -3.758  -1.575  -5.932  1.00  0.00     0.006 C 
BRANCH   6   7
ATOM      7  C   UNL     1      -2.584  -2.018  -6.823  1.00  0.00     0.053 C 
BRANCH   7   8
ATOM      8  C   UNL     1      -1.606  -0.910  -7.074  1.00  0.00     0.041 C 
ATOM      9  O   UNL     1      -0.760  -0.599  -6.195  1.00  0.00    -0.550 OA
ATOM     10  O   UNL     1      -1.650  -0.197  -8.265  1.00  0.00    -0.550 OA
ENDBRANCH   7   8
ENDBRANCH   6   7
ENDBRANCH   5   6
ENDBRANCH   4   5
ENDBRANCH   3   4
ENDBRANCH   2   3
ENDBRANCH   1   2
BRANCH   1  11
ATOM     11  C   UNL     1      -6.953  -2.443  -2.976  1.00  0.00     0.000 C 
BRANCH  11  12
ATOM     12  C   UNL     1      -5.419  -2.481  -2.875  1.00  0.00    -0.000 C 
BRANCH  12  13
ATOM     13  C   UNL     1      -4.894  -3.791  -2.264  1.00  0.00    -0.000 C 
BRANCH  13  14
ATOM     14  C   UNL     1      -5.089  -5.045  -3.140  1.00  0.00    -0.000 C 
BRANCH  14  15
ATOM     15  C   UNL     1      -4.352  -4.981  -4.494  1.00  0.00    -0.000 C 
BRANCH  15  16
ATOM     16  C   UNL     1      -2.836  -4.798  -4.325  1.00  0.00    -0.000 C 
BRANCH  16  17
ATOM     17  C   UNL     1      -2.098  -6.131  -4.499  1.00  0.00    -0.003 C 
ATOM     18  C   UNL     1      -1.021  -6.028  -5.574  1.00  0.00     0.004 C 
ENDBRANCH  16  17
ENDBRANCH  15  16
ENDBRANCH  14  15
ENDBRANCH  13  14
ENDBRANCH  12  13
ENDBRANCH  11  12
ENDBRANCH   1  11
TORSDOF 14
ENDMDL
