MODEL 1
REMARK VINA RESULT:    -3.794      0.000      0.000
REMARK INTER + INTRA:          -4.380
REMARK INTER:                  -4.127
REMARK INTRA:                  -0.253
REMARK UNBOUND:                -0.253
REMARK SMILES O=C([O-])c1ccccc1O
REMARK SMILES IDX 4 1 9 2 5 3 8 4 6 5 7 6 2 7 1 8 3 9 10 10
REMARK H PARENT 10 11
REMARK Flexibility Score: inf
ROOT
ATOM      1  C   UNL     1      42.904  18.704  -2.445  1.00  0.00     0.039 A 
ATOM      2  C   UNL     1      42.100  18.501  -1.293  1.00  0.00     0.124 A 
ATOM      3  C   UNL     1      43.041  20.006  -2.959  1.00  0.00     0.014 A 
ATOM      4  C   UNL     1      41.513  19.603  -0.657  1.00  0.00     0.047 A 
ATOM      5  C   UNL     1      42.430  21.091  -2.324  1.00  0.00     0.001 A 
ATOM      6  C   UNL     1      41.675  20.890  -1.169  1.00  0.00     0.004 A 
ENDROOT
BRANCH   1   7
ATOM      7  C   UNL     1      43.638  17.606  -3.115  1.00  0.00     0.075 C 
ATOM      8  O   UNL     1      43.673  17.524  -4.371  1.00  0.00    -0.545 OA
ATOM      9  O   UNL     1      44.242  16.610  -2.357  1.00  0.00    -0.545 OA
ENDBRANCH   1   7
BRANCH   2  10
ATOM     10  O   UNL     1      41.833  17.233  -0.773  1.00  0.00    -0.507 OA
ATOM     11  H   UNL     1      41.431  17.077   0.141  1.00  0.00     0.293 HD
ENDBRANCH   2  10
TORSDOF 2
ENDMDL
MODEL 2
REMARK VINA RESULT:    -3.788      1.833      3.463
REMARK INTER + INTRA:          -4.374
REMARK INTER:                  -4.162
REMARK INTRA:                  -0.212
REMARK UNBOUND:                -0.253
REMARK SMILES O=C([O-])c1ccccc1O
REMARK SMILES IDX 4 1 9 2 5 3 8 4 6 5 7 6 2 7 1 8 3 9 10 10
REMARK H PARENT 10 11
REMARK Flexibility Score: inf
ROOT
ATOM      1  C   UNL     1      42.764  19.840  -2.177  1.00  0.00     0.039 A 
ATOM      2  C   UNL     1      43.150  18.545  -2.613  1.00  0.00     0.124 A 
ATOM      3  C   UNL     1      43.082  20.951  -2.979  1.00  0.00     0.014 A 
ATOM      4  C   UNL     1      43.779  18.393  -3.856  1.00  0.00     0.047 A 
ATOM      5  C   UNL     1      43.729  20.783  -4.206  1.00  0.00     0.001 A 
ATOM      6  C   UNL     1      44.068  19.505  -4.647  1.00  0.00     0.004 A 
ENDROOT
BRANCH   1   7
ATOM      7  C   UNL     1      42.009  20.072  -0.925  1.00  0.00     0.075 C 
ATOM      8  O   UNL     1      41.759  19.124  -0.135  1.00  0.00    -0.545 OA
ATOM      9  O   UNL     1      41.506  21.336  -0.641  1.00  0.00    -0.545 OA
ENDBRANCH   1   7
BRANCH   2  10
ATOM     10  O   UNL     1      42.960  17.399  -1.838  1.00  0.00    -0.507 OA
ATOM     11  H   UNL     1      43.631  17.066  -1.160  1.00  0.00     0.293 HD
ENDBRANCH   2  10
TORSDOF 2
ENDMDL
MODEL 3
REMARK VINA RESULT:    -3.699      1.248      1.878
REMARK INTER + INTRA:          -4.277
REMARK INTER:                  -4.028
REMARK INTRA:                  -0.249
REMARK UNBOUND:                -0.253
REMARK SMILES O=C([O-])c1ccccc1O
REMARK SMILES IDX 4 1 9 2 5 3 8 4 6 5 7 6 2 7 1 8 3 9 10 10
REMARK H PARENT 10 11
REMARK Flexibility Score: inf
ROOT
ATOM      1  C   UNL     1      42.679  18.164  -2.303  1.00  0.00     0.039 A 
ATOM      2  C   UNL     1      42.357  19.102  -1.287  1.00  0.00     0.124 A 
ATOM      3  C   UNL     1      43.197  18.635  -3.524  1.00  0.00     0.014 A 
ATOM      4  C   UNL     1      42.619  20.462  -1.493  1.00  0.00     0.047 A 
ATOM      5  C   UNL     1      43.432  19.998  -3.720  1.00  0.00     0.001 A 
ATOM      6  C   UNL     1      43.153  20.909  -2.702  1.00  0.00     0.004 A 
ENDROOT
BRANCH   1   7
ATOM      7  C   UNL     1      42.524  16.703  -2.125  1.00  0.00     0.075 C 
ATOM      8  O   UNL     1      41.478  16.220  -1.617  1.00  0.00    -0.545 OA
ATOM      9  O   UNL     1      43.568  15.848  -2.457  1.00  0.00    -0.545 OA
ENDBRANCH   1   7
BRANCH   2  10
ATOM     10  O   UNL     1      41.752  18.732  -0.084  1.00  0.00    -0.507 OA
ATOM     11  H   UNL     1      41.394  17.805   0.100  1.00  0.00     0.293 HD
ENDBRANCH   2  10
TORSDOF 2
ENDMDL
MODEL 4
REMARK VINA RESULT:    -3.541      6.794      8.197
REMARK INTER + INTRA:          -4.104
REMARK INTER:                  -3.858
REMARK INTRA:                  -0.246
REMARK UNBOUND:                -0.253
REMARK SMILES O=C([O-])c1ccccc1O
REMARK SMILES IDX 4 1 9 2 5 3 8 4 6 5 7 6 2 7 1 8 3 9 10 10
REMARK H PARENT 10 11
REMARK Flexibility Score: inf
ROOT
ATOM      1  C   UNL     1      48.617  14.423  -3.562  1.00  0.00     0.039 A 
ATOM      2  C   UNL     1      48.722  15.749  -4.057  1.00  0.00     0.124 A 
ATOM      3  C   UNL     1      49.626  13.496  -3.882  1.00  0.00     0.014 A 
ATOM      4  C   UNL     1      49.852  16.124  -4.795  1.00  0.00     0.047 A 
ATOM      5  C   UNL     1      50.736  13.882  -4.637  1.00  0.00     0.001 A 
ATOM      6  C   UNL     1      50.853  15.197  -5.085  1.00  0.00     0.004 A 
ENDROOT
BRANCH   1   7
ATOM      7  C   UNL     1      47.505  13.976  -2.694  1.00  0.00     0.075 C 
ATOM      8  O   UNL     1      46.334  14.405  -2.870  1.00  0.00    -0.545 OA
ATOM      9  O   UNL     1      47.757  13.126  -1.624  1.00  0.00    -0.545 OA
ENDBRANCH   1   7
BRANCH   2  10
ATOM     10  O   UNL     1      47.723  16.706  -3.870  1.00  0.00    -0.507 OA
ATOM     11  H   UNL     1      47.606  17.517  -4.462  1.00  0.00     0.293 HD
ENDBRANCH   2  10
TORSDOF 2
ENDMDL
MODEL 5
REMARK VINA RESULT:    -3.536     20.626     21.148
REMARK INTER + INTRA:          -4.099
REMARK INTER:                  -3.846
REMARK INTRA:                  -0.253
REMARK UNBOUND:                -0.253
REMARK SMILES O=C([O-])c1ccccc1O
REMARK SMILES IDX 4 1 9 2 5 3 8 4 6 5 7 6 2 7 1 8 3 9 10 10
REMARK H PARENT 10 11
REMARK Flexibility Score: inf
ROOT
ATOM      1  C   UNL     1      56.054  25.305  13.138  1.00  0.00     0.039 A 
ATOM      2  C   UNL     1      55.517  24.492  12.105  1.00  0.00     0.124 A 
ATOM      3  C   UNL     1      55.187  25.811  14.125  1.00  0.00     0.014 A 
ATOM      4  C   UNL     1      54.157  24.158  12.124  1.00  0.00     0.047 A 
ATOM      5  C   UNL     1      53.829  25.485  14.116  1.00  0.00     0.001 A 
ATOM      6  C   UNL     1      53.317  24.652  13.122  1.00  0.00     0.004 A 
ENDROOT
BRANCH   1   7
ATOM      7  C   UNL     1      57.496  25.620  13.243  1.00  0.00     0.075 C 
ATOM      8  O   UNL     1      57.884  26.774  13.566  1.00  0.00    -0.545 OA
ATOM      9  O   UNL     1      58.443  24.657  12.919  1.00  0.00    -0.545 OA
ENDBRANCH   1   7
BRANCH   2  10
ATOM     10  O   UNL     1      56.285  24.027  11.035  1.00  0.00    -0.507 OA
ATOM     11  H   UNL     1      57.258  24.265  10.900  1.00  0.00     0.293 HD
ENDBRANCH   2  10
TORSDOF 2
ENDMDL
MODEL 6
REMARK VINA RESULT:    -3.530      9.579     10.962
REMARK INTER + INTRA:          -4.093
REMARK INTER:                  -3.867
REMARK INTRA:                  -0.226
REMARK UNBOUND:                -0.253
REMARK SMILES O=C([O-])c1ccccc1O
REMARK SMILES IDX 4 1 9 2 5 3 8 4 6 5 7 6 2 7 1 8 3 9 10 10
REMARK H PARENT 10 11
REMARK Flexibility Score: inf
ROOT
ATOM      1  C   UNL     1      40.542  12.040   5.686  1.00  0.00     0.039 A 
ATOM      2  C   UNL     1      41.382  13.027   6.265  1.00  0.00     0.124 A 
ATOM      3  C   UNL     1      39.875  11.134   6.531  1.00  0.00     0.014 A 
ATOM      4  C   UNL     1      41.480  13.120   7.659  1.00  0.00     0.047 A 
ATOM      5  C   UNL     1      40.002  11.228   7.919  1.00  0.00     0.001 A 
ATOM      6  C   UNL     1      40.796  12.226   8.482  1.00  0.00     0.004 A 
ENDROOT
BRANCH   1   7
ATOM      7  C   UNL     1      40.308  11.940   4.228  1.00  0.00     0.075 C 
ATOM      8  O   UNL     1      39.876  10.875   3.714  1.00  0.00    -0.545 OA
ATOM      9  O   UNL     1      40.630  13.007   3.398  1.00  0.00    -0.545 OA
ENDBRANCH   1   7
BRANCH   2  10
ATOM     10  O   UNL     1      42.154  13.904   5.500  1.00  0.00    -0.507 OA
ATOM     11  H   UNL     1      43.127  13.744   5.278  1.00  0.00     0.293 HD
ENDBRANCH   2  10
TORSDOF 2
ENDMDL
MODEL 7
REMARK VINA RESULT:    -3.476      6.974      8.583
REMARK INTER + INTRA:          -4.034
REMARK INTER:                  -3.781
REMARK INTRA:                  -0.253
REMARK UNBOUND:                -0.253
REMARK SMILES O=C([O-])c1ccccc1O
REMARK SMILES IDX 4 1 9 2 5 3 8 4 6 5 7 6 2 7 1 8 3 9 10 10
REMARK H PARENT 10 11
REMARK Flexibility Score: inf
ROOT
ATOM      1  C   UNL     1      49.772  15.024  -4.464  1.00  0.00     0.039 A 
ATOM      2  C   UNL     1      48.535  15.408  -3.882  1.00  0.00     0.124 A 
ATOM      3  C   UNL     1      50.207  13.694  -4.322  1.00  0.00     0.014 A 
ATOM      4  C   UNL     1      47.747  14.447  -3.237  1.00  0.00     0.047 A 
ATOM      5  C   UNL     1      49.417  12.753  -3.656  1.00  0.00     0.001 A 
ATOM      6  C   UNL     1      48.184  13.127  -3.123  1.00  0.00     0.004 A 
ENDROOT
BRANCH   1   7
ATOM      7  C   UNL     1      50.614  15.957  -5.246  1.00  0.00     0.075 C 
ATOM      8  O   UNL     1      51.864  15.982  -5.094  1.00  0.00    -0.545 OA
ATOM      9  O   UNL     1      50.023  16.868  -6.113  1.00  0.00    -0.545 OA
ENDBRANCH   1   7
BRANCH   2  10
ATOM     10  O   UNL     1      48.073  16.726  -3.892  1.00  0.00    -0.507 OA
ATOM     11  H   UNL     1      48.657  17.521  -4.112  1.00  0.00     0.293 HD
ENDBRANCH   2  10
TORSDOF 2
ENDMDL
MODEL 8
REMARK VINA RESULT:    -3.437      2.104      3.332
REMARK INTER + INTRA:          -3.992
REMARK INTER:                  -3.740
REMARK INTRA:                  -0.252
REMARK UNBOUND:                -0.253
REMARK SMILES O=C([O-])c1ccccc1O
REMARK SMILES IDX 4 1 9 2 5 3 8 4 6 5 7 6 2 7 1 8 3 9 10 10
REMARK H PARENT 10 11
REMARK Flexibility Score: inf
ROOT
ATOM      1  C   UNL     1      42.501  18.895  -2.427  1.00  0.00     0.039 A 
ATOM      2  C   UNL     1      42.063  18.011  -1.406  1.00  0.00     0.124 A 
ATOM      3  C   UNL     1      42.773  18.376  -3.706  1.00  0.00     0.014 A 
ATOM      4  C   UNL     1      41.848  16.659  -1.707  1.00  0.00     0.047 A 
ATOM      5  C   UNL     1      42.574  17.021  -3.983  1.00  0.00     0.001 A 
ATOM      6  C   UNL     1      42.102  16.166  -2.987  1.00  0.00     0.004 A 
ENDROOT
BRANCH   1   7
ATOM      7  C   UNL     1      42.656  20.352  -2.214  1.00  0.00     0.075 C 
ATOM      8  O   UNL     1      43.601  20.987  -2.751  1.00  0.00    -0.545 OA
ATOM      9  O   UNL     1      41.793  21.025  -1.358  1.00  0.00    -0.545 OA
ENDBRANCH   1   7
BRANCH   2  10
ATOM     10  O   UNL     1      41.862  18.421  -0.087  1.00  0.00    -0.507 OA
ATOM     11  H   UNL     1      41.649  17.787   0.670  1.00  0.00     0.293 HD
ENDBRANCH   2  10
TORSDOF 2
ENDMDL
MODEL 9
REMARK VINA RESULT:    -3.370      1.886      2.398
REMARK INTER + INTRA:          -3.918
REMARK INTER:                  -3.685
REMARK INTRA:                  -0.233
REMARK UNBOUND:                -0.253
REMARK SMILES O=C([O-])c1ccccc1O
REMARK SMILES IDX 4 1 9 2 5 3 8 4 6 5 7 6 2 7 1 8 3 9 10 10
REMARK H PARENT 10 11
REMARK Flexibility Score: inf
ROOT
ATOM      1  C   UNL     1      42.238  19.891  -2.696  1.00  0.00     0.039 A 
ATOM      2  C   UNL     1      40.938  19.323  -2.737  1.00  0.00     0.124 A 
ATOM      3  C   UNL     1      42.602  20.679  -1.589  1.00  0.00     0.014 A 
ATOM      4  C   UNL     1      40.070  19.504  -1.652  1.00  0.00     0.047 A 
ATOM      5  C   UNL     1      41.716  20.866  -0.525  1.00  0.00     0.001 A 
ATOM      6  C   UNL     1      40.455  20.271  -0.553  1.00  0.00     0.004 A 
ENDROOT
BRANCH   1   7
ATOM      7  C   UNL     1      43.246  19.664  -3.756  1.00  0.00     0.075 C 
ATOM      8  O   UNL     1      43.523  18.499  -4.146  1.00  0.00    -0.545 OA
ATOM      9  O   UNL     1      43.951  20.737  -4.286  1.00  0.00    -0.545 OA
ENDBRANCH   1   7
BRANCH   2  10
ATOM     10  O   UNL     1      40.460  18.609  -3.837  1.00  0.00    -0.507 OA
ATOM     11  H   UNL     1      41.037  18.342  -4.624  1.00  0.00     0.293 HD
ENDBRANCH   2  10
TORSDOF 2
ENDMDL
