MODEL 1
REMARK VINA RESULT:    -3.786      0.000      0.000
REMARK INTER + INTRA:          -6.082
REMARK INTER:                  -5.556
REMARK INTRA:                  -0.526
REMARK UNBOUND:                -0.526
REMARK SMILES O=C([O-])CCCCCCCC(=O)[O-]
REMARK SMILES IDX 7 1 6 2 5 3 4 4 2 5 1 6 3 7 8 8 9 9 10 10 11 11 12 12 13 13
REMARK H PARENT
REMARK Flexibility Score: inf
ROOT
ATOM      1  C   UNL     1      87.685 -77.607   2.780  1.00  0.00     0.000 C 
ENDROOT
BRANCH   1   2
ATOM      2  C   UNL     1      88.774 -78.470   2.123  1.00  0.00     0.000 C 
BRANCH   2   3
ATOM      3  C   UNL     1      89.067 -78.049   0.673  1.00  0.00     0.006 C 
BRANCH   3   4
ATOM      4  C   UNL     1      88.058 -77.015   0.156  1.00  0.00     0.053 C 
BRANCH   4   5
ATOM      5  C   UNL     1      87.739 -77.224  -1.292  1.00  0.00     0.041 C 
ATOM      6  O   UNL     1      86.942 -78.135  -1.641  1.00  0.00    -0.550 OA
ATOM      7  O   UNL     1      88.345 -76.433  -2.259  1.00  0.00    -0.550 OA
ENDBRANCH   4   5
ENDBRANCH   3   4
ENDBRANCH   2   3
ENDBRANCH   1   2
BRANCH   1   8
ATOM      8  C   UNL     1      88.017 -77.235   4.233  1.00  0.00     0.000 C 
BRANCH   8   9
ATOM      9  C   UNL     1      87.662 -75.772   4.520  1.00  0.00     0.006 C 
BRANCH   9  10
ATOM     10  C   UNL     1      88.110 -74.862   3.372  1.00  0.00     0.053 C 
BRANCH  10  11
ATOM     11  C   UNL     1      87.229 -73.656   3.284  1.00  0.00     0.041 C 
ATOM     12  O   UNL     1      87.727 -72.522   3.059  1.00  0.00    -0.550 OA
ATOM     13  O   UNL     1      85.862 -73.778   3.500  1.00  0.00    -0.550 OA
ENDBRANCH  10  11
ENDBRANCH   9  10
ENDBRANCH   8   9
ENDBRANCH   1   8
TORSDOF 8
ENDMDL
MODEL 2
REMARK VINA RESULT:    -3.781      0.352      5.219
REMARK INTER + INTRA:          -6.076
REMARK INTER:                  -5.576
REMARK INTRA:                  -0.500
REMARK UNBOUND:                -0.526
REMARK SMILES O=C([O-])CCCCCCCC(=O)[O-]
REMARK SMILES IDX 7 1 6 2 5 3 4 4 2 5 1 6 3 7 8 8 9 9 10 10 11 11 12 12 13 13
REMARK H PARENT
REMARK Flexibility Score: inf
ROOT
ATOM      1  C   UNL     1      87.678 -77.757   2.559  1.00  0.00     0.000 C 
ENDROOT
BRANCH   1   2
ATOM      2  C   UNL     1      87.900 -77.468   4.053  1.00  0.00     0.000 C 
BRANCH   2   3
ATOM      3  C   UNL     1      87.863 -75.964   4.376  1.00  0.00     0.006 C 
BRANCH   3   4
ATOM      4  C   UNL     1      87.999 -75.099   3.116  1.00  0.00     0.053 C 
BRANCH   4   5
ATOM      5  C   UNL     1      87.245 -73.811   3.242  1.00  0.00     0.041 C 
ATOM      6  O   UNL     1      87.841 -72.710   3.106  1.00  0.00    -0.550 OA
ATOM      7  O   UNL     1      85.888 -73.827   3.539  1.00  0.00    -0.550 OA
ENDBRANCH   4   5
ENDBRANCH   3   4
ENDBRANCH   2   3
ENDBRANCH   1   2
BRANCH   1   8
ATOM      8  C   UNL     1      88.917 -78.360   1.880  1.00  0.00     0.000 C 
BRANCH   8   9
ATOM      9  C   UNL     1      89.029 -77.889   0.426  1.00  0.00     0.006 C 
BRANCH   9  10
ATOM     10  C   UNL     1      87.735 -77.210  -0.034  1.00  0.00     0.053 C 
BRANCH  10  11
ATOM     11  C   UNL     1      87.491 -77.473  -1.486  1.00  0.00     0.041 C 
ATOM     12  O   UNL     1      87.848 -76.630  -2.351  1.00  0.00    -0.550 OA
ATOM     13  O   UNL     1      86.826 -78.627  -1.881  1.00  0.00    -0.550 OA
ENDBRANCH  10  11
ENDBRANCH   9  10
ENDBRANCH   8   9
ENDBRANCH   1   8
TORSDOF 8
ENDMDL
MODEL 3
REMARK VINA RESULT:    -3.737     11.593     13.155
REMARK INTER + INTRA:          -6.011
REMARK INTER:                  -5.422
REMARK INTRA:                  -0.589
REMARK UNBOUND:                -0.526
REMARK SMILES O=C([O-])CCCCCCCC(=O)[O-]
REMARK SMILES IDX 7 1 6 2 5 3 4 4 2 5 1 6 3 7 8 8 9 9 10 10 11 11 12 12 13 13
REMARK H PARENT
REMARK Flexibility Score: inf
ROOT
ATOM      1  C   UNL     1      77.420 -72.874  -3.556  1.00  0.00     0.000 C 
ENDROOT
BRANCH   1   2
ATOM      2  C   UNL     1      75.995 -72.338  -3.767  1.00  0.00     0.000 C 
BRANCH   2   3
ATOM      3  C   UNL     1      74.919 -73.414  -3.543  1.00  0.00     0.006 C 
BRANCH   3   4
ATOM      4  C   UNL     1      73.828 -72.948  -2.570  1.00  0.00     0.053 C 
BRANCH   4   5
ATOM      5  C   UNL     1      74.392 -72.598  -1.228  1.00  0.00     0.041 C 
ATOM      6  O   UNL     1      74.156 -71.473  -0.713  1.00  0.00    -0.550 OA
ATOM      7  O   UNL     1      75.203 -73.504  -0.557  1.00  0.00    -0.550 OA
ENDBRANCH   4   5
ENDBRANCH   3   4
ENDBRANCH   2   3
ENDBRANCH   1   2
BRANCH   1   8
ATOM      8  C   UNL     1      77.463 -74.401  -3.396  1.00  0.00     0.000 C 
BRANCH   8   9
ATOM      9  C   UNL     1      78.122 -74.796  -2.069  1.00  0.00     0.006 C 
BRANCH   9  10
ATOM     10  C   UNL     1      78.528 -76.273  -2.075  1.00  0.00     0.053 C 
BRANCH  10  11
ATOM     11  C   UNL     1      77.911 -76.990  -0.916  1.00  0.00     0.041 C 
ATOM     12  O   UNL     1      78.101 -78.225  -0.761  1.00  0.00    -0.550 OA
ATOM     13  O   UNL     1      77.086 -76.304  -0.033  1.00  0.00    -0.550 OA
ENDBRANCH  10  11
ENDBRANCH   9  10
ENDBRANCH   8   9
ENDBRANCH   1   8
TORSDOF 8
ENDMDL
MODEL 4
REMARK VINA RESULT:    -3.718     11.626     12.771
REMARK INTER + INTRA:          -5.983
REMARK INTER:                  -5.408
REMARK INTRA:                  -0.576
REMARK UNBOUND:                -0.526
REMARK SMILES O=C([O-])CCCCCCCC(=O)[O-]
REMARK SMILES IDX 7 1 6 2 5 3 4 4 2 5 1 6 3 7 8 8 9 9 10 10 11 11 12 12 13 13
REMARK H PARENT
REMARK Flexibility Score: inf
ROOT
ATOM      1  C   UNL     1      77.436 -72.855  -3.532  1.00  0.00     0.000 C 
ENDROOT
BRANCH   1   2
ATOM      2  C   UNL     1      77.455 -74.376  -3.309  1.00  0.00     0.000 C 
BRANCH   2   3
ATOM      3  C   UNL     1      78.145 -74.771  -1.992  1.00  0.00     0.006 C 
BRANCH   3   4
ATOM      4  C   UNL     1      78.531 -76.256  -1.964  1.00  0.00     0.053 C 
BRANCH   4   5
ATOM      5  C   UNL     1      77.830 -76.992  -0.864  1.00  0.00     0.041 C 
ATOM      6  O   UNL     1      77.984 -78.236  -0.734  1.00  0.00    -0.550 OA
ATOM      7  O   UNL     1      76.984 -76.310   0.000  1.00  0.00    -0.550 OA
ENDBRANCH   4   5
ENDBRANCH   3   4
ENDBRANCH   2   3
ENDBRANCH   1   2
BRANCH   1   8
ATOM      8  C   UNL     1      76.022 -72.310  -3.788  1.00  0.00     0.000 C 
BRANCH   8   9
ATOM      9  C   UNL     1      74.965 -73.396  -3.556  1.00  0.00     0.006 C 
BRANCH   9  10
ATOM     10  C   UNL     1      73.847 -72.888  -2.639  1.00  0.00     0.053 C 
BRANCH  10  11
ATOM     11  C   UNL     1      74.400 -72.502  -1.304  1.00  0.00     0.041 C 
ATOM     12  O   UNL     1      75.073 -73.328  -0.634  1.00  0.00    -0.550 OA
ATOM     13  O   UNL     1      74.128 -71.246  -0.776  1.00  0.00    -0.550 OA
ENDBRANCH  10  11
ENDBRANCH   9  10
ENDBRANCH   8   9
ENDBRANCH   1   8
TORSDOF 8
ENDMDL
MODEL 5
REMARK VINA RESULT:    -3.678     12.542     14.162
REMARK INTER + INTRA:          -5.924
REMARK INTER:                  -5.299
REMARK INTRA:                  -0.624
REMARK UNBOUND:                -0.526
REMARK SMILES O=C([O-])CCCCCCCC(=O)[O-]
REMARK SMILES IDX 7 1 6 2 5 3 4 4 2 5 1 6 3 7 8 8 9 9 10 10 11 11 12 12 13 13
REMARK H PARENT
REMARK Flexibility Score: inf
ROOT
ATOM      1  C   UNL     1      75.907 -72.391  -4.125  1.00  0.00     0.000 C 
ENDROOT
BRANCH   1   2
ATOM      2  C   UNL     1      74.879 -71.752  -3.178  1.00  0.00     0.000 C 
BRANCH   2   3
ATOM      3  C   UNL     1      74.162 -72.789  -2.296  1.00  0.00     0.006 C 
BRANCH   3   4
ATOM      4  C   UNL     1      74.305 -72.473  -0.801  1.00  0.00     0.053 C 
BRANCH   4   5
ATOM      5  C   UNL     1      73.458 -71.307  -0.395  1.00  0.00     0.041 C 
ATOM      6  O   UNL     1      72.203 -71.379  -0.466  1.00  0.00    -0.550 OA
ATOM      7  O   UNL     1      74.057 -70.130   0.034  1.00  0.00    -0.550 OA
ENDBRANCH   4   5
ENDBRANCH   3   4
ENDBRANCH   2   3
ENDBRANCH   1   2
BRANCH   1   8
ATOM      8  C   UNL     1      77.183 -72.842  -3.399  1.00  0.00     0.000 C 
BRANCH   8   9
ATOM      9  C   UNL     1      77.292 -74.371  -3.378  1.00  0.00     0.006 C 
BRANCH   9  10
ATOM     10  C   UNL     1      77.891 -74.862  -2.056  1.00  0.00     0.053 C 
BRANCH  10  11
ATOM     11  C   UNL     1      76.886 -75.663  -1.291  1.00  0.00     0.041 C 
ATOM     12  O   UNL     1      77.167 -76.104  -0.145  1.00  0.00    -0.550 OA
ATOM     13  O   UNL     1      75.657 -75.966  -1.864  1.00  0.00    -0.550 OA
ENDBRANCH  10  11
ENDBRANCH   9  10
ENDBRANCH   8   9
ENDBRANCH   1   8
TORSDOF 8
ENDMDL
MODEL 6
REMARK VINA RESULT:    -3.668     12.505     13.597
REMARK INTER + INTRA:          -5.910
REMARK INTER:                  -5.394
REMARK INTRA:                  -0.516
REMARK UNBOUND:                -0.526
REMARK SMILES O=C([O-])CCCCCCCC(=O)[O-]
REMARK SMILES IDX 7 1 6 2 5 3 4 4 2 5 1 6 3 7 8 8 9 9 10 10 11 11 12 12 13 13
REMARK H PARENT
REMARK Flexibility Score: inf
ROOT
ATOM      1  C   UNL     1      75.273 -73.335  -4.097  1.00  0.00     0.000 C 
ENDROOT
BRANCH   1   2
ATOM      2  C   UNL     1      76.608 -72.809  -3.544  1.00  0.00     0.000 C 
BRANCH   2   3
ATOM      3  C   UNL     1      77.483 -73.926  -2.951  1.00  0.00     0.006 C 
BRANCH   3   4
ATOM      4  C   UNL     1      76.714 -74.792  -1.945  1.00  0.00     0.053 C 
BRANCH   4   5
ATOM      5  C   UNL     1      77.622 -75.723  -1.203  1.00  0.00     0.041 C 
ATOM      6  O   UNL     1      78.830 -75.836  -1.542  1.00  0.00    -0.550 OA
ATOM      7  O   UNL     1      77.127 -76.489  -0.156  1.00  0.00    -0.550 OA
ENDBRANCH   4   5
ENDBRANCH   3   4
ENDBRANCH   2   3
ENDBRANCH   1   2
BRANCH   1   8
ATOM      8  C   UNL     1      74.056 -72.768  -3.351  1.00  0.00     0.000 C 
BRANCH   8   9
ATOM      9  C   UNL     1      74.490 -71.775  -2.267  1.00  0.00     0.006 C 
BRANCH   9  10
ATOM     10  C   UNL     1      74.032 -72.240  -0.880  1.00  0.00     0.053 C 
BRANCH  10  11
ATOM     11  C   UNL     1      73.326 -71.133  -0.163  1.00  0.00     0.041 C 
ATOM     12  O   UNL     1      72.108 -71.246   0.134  1.00  0.00    -0.550 OA
ATOM     13  O   UNL     1      74.000 -69.955   0.132  1.00  0.00    -0.550 OA
ENDBRANCH  10  11
ENDBRANCH   9  10
ENDBRANCH   8   9
ENDBRANCH   1   8
TORSDOF 8
ENDMDL
MODEL 7
REMARK VINA RESULT:    -3.659     11.928     13.061
REMARK INTER + INTRA:          -5.896
REMARK INTER:                  -5.233
REMARK INTRA:                  -0.663
REMARK UNBOUND:                -0.526
REMARK SMILES O=C([O-])CCCCCCCC(=O)[O-]
REMARK SMILES IDX 7 1 6 2 5 3 4 4 2 5 1 6 3 7 8 8 9 9 10 10 11 11 12 12 13 13
REMARK H PARENT
REMARK Flexibility Score: inf
ROOT
ATOM      1  C   UNL     1      75.900 -72.749  -4.105  1.00  0.00     0.000 C 
ENDROOT
BRANCH   1   2
ATOM      2  C   UNL     1      77.290 -73.077  -3.535  1.00  0.00     0.000 C 
BRANCH   2   3
ATOM      3  C   UNL     1      77.433 -74.557  -3.140  1.00  0.00     0.006 C 
BRANCH   3   4
ATOM      4  C   UNL     1      78.294 -74.739  -1.883  1.00  0.00     0.053 C 
BRANCH   4   5
ATOM      5  C   UNL     1      78.195 -76.131  -1.338  1.00  0.00     0.041 C 
ATOM      6  O   UNL     1      78.902 -77.054  -1.822  1.00  0.00    -0.550 OA
ATOM      7  O   UNL     1      77.299 -76.415  -0.316  1.00  0.00    -0.550 OA
ENDBRANCH   4   5
ENDBRANCH   3   4
ENDBRANCH   2   3
ENDBRANCH   1   2
BRANCH   1   8
ATOM      8  C   UNL     1      75.293 -71.477  -3.495  1.00  0.00     0.000 C 
BRANCH   8   9
ATOM      9  C   UNL     1      74.502 -71.802  -2.223  1.00  0.00     0.006 C 
BRANCH   9  10
ATOM     10  C   UNL     1      73.850 -73.185  -2.319  1.00  0.00     0.053 C 
BRANCH  10  11
ATOM     11  C   UNL     1      74.247 -74.034  -1.153  1.00  0.00     0.041 C 
ATOM     12  O   UNL     1      73.559 -75.041  -0.839  1.00  0.00    -0.550 OA
ATOM     13  O   UNL     1      75.349 -73.685  -0.383  1.00  0.00    -0.550 OA
ENDBRANCH  10  11
ENDBRANCH   9  10
ENDBRANCH   8   9
ENDBRANCH   1   8
TORSDOF 8
ENDMDL
MODEL 8
REMARK VINA RESULT:    -3.585     11.955     13.393
REMARK INTER + INTRA:          -5.787
REMARK INTER:                  -4.925
REMARK INTRA:                  -0.862
REMARK UNBOUND:                -0.526
REMARK SMILES O=C([O-])CCCCCCCC(=O)[O-]
REMARK SMILES IDX 7 1 6 2 5 3 4 4 2 5 1 6 3 7 8 8 9 9 10 10 11 11 12 12 13 13
REMARK H PARENT
REMARK Flexibility Score: inf
ROOT
ATOM      1  C   UNL     1      75.666 -72.669  -4.041  1.00  0.00     0.000 C 
ENDROOT
BRANCH   1   2
ATOM      2  C   UNL     1      74.994 -71.737  -3.019  1.00  0.00     0.000 C 
BRANCH   2   3
ATOM      3  C   UNL     1      73.981 -72.473  -2.125  1.00  0.00     0.006 C 
BRANCH   3   4
ATOM      4  C   UNL     1      74.658 -73.165  -0.934  1.00  0.00     0.053 C 
BRANCH   4   5
ATOM      5  C   UNL     1      74.407 -74.641  -0.932  1.00  0.00     0.041 C 
ATOM      6  O   UNL     1      74.410 -75.286  -2.014  1.00  0.00    -0.550 OA
ATOM      7  O   UNL     1      74.142 -75.300   0.261  1.00  0.00    -0.550 OA
ENDBRANCH   4   5
ENDBRANCH   3   4
ENDBRANCH   2   3
ENDBRANCH   1   2
BRANCH   1   8
ATOM      8  C   UNL     1      77.169 -72.851  -3.781  1.00  0.00     0.000 C 
BRANCH   8   9
ATOM      9  C   UNL     1      77.490 -74.305  -3.416  1.00  0.00     0.006 C 
BRANCH   9  10
ATOM     10  C   UNL     1      77.995 -74.412  -1.973  1.00  0.00     0.053 C 
BRANCH  10  11
ATOM     11  C   UNL     1      78.117 -75.846  -1.565  1.00  0.00     0.041 C 
ATOM     12  O   UNL     1      77.584 -76.248  -0.498  1.00  0.00    -0.550 OA
ATOM     13  O   UNL     1      78.861 -76.727  -2.339  1.00  0.00    -0.550 OA
ENDBRANCH  10  11
ENDBRANCH   9  10
ENDBRANCH   8   9
ENDBRANCH   1   8
TORSDOF 8
ENDMDL
MODEL 9
REMARK VINA RESULT:    -3.520     12.247     13.194
REMARK INTER + INTRA:          -5.693
REMARK INTER:                  -4.894
REMARK INTRA:                  -0.799
REMARK UNBOUND:                -0.526
REMARK SMILES O=C([O-])CCCCCCCC(=O)[O-]
REMARK SMILES IDX 7 1 6 2 5 3 4 4 2 5 1 6 3 7 8 8 9 9 10 10 11 11 12 12 13 13
REMARK H PARENT
REMARK Flexibility Score: inf
ROOT
ATOM      1  C   UNL     1      77.505 -75.404  -2.761  1.00  0.00     0.000 C 
ENDROOT
BRANCH   1   2
ATOM      2  C   UNL     1      77.868 -73.919  -2.603  1.00  0.00     0.000 C 
BRANCH   2   3
ATOM      3  C   UNL     1      77.093 -73.014  -3.576  1.00  0.00     0.006 C 
BRANCH   3   4
ATOM      4  C   UNL     1      75.731 -73.610  -3.959  1.00  0.00     0.053 C 
BRANCH   4   5
ATOM      5  C   UNL     1      74.611 -72.651  -3.698  1.00  0.00     0.041 C 
ATOM      6  O   UNL     1      73.417 -72.999  -3.899  1.00  0.00    -0.550 OA
ATOM      7  O   UNL     1      74.887 -71.362  -3.260  1.00  0.00    -0.550 OA
ENDBRANCH   4   5
ENDBRANCH   3   4
ENDBRANCH   2   3
ENDBRANCH   1   2
BRANCH   1   8
ATOM      8  C   UNL     1      77.820 -76.230  -1.505  1.00  0.00     0.000 C 
BRANCH   8   9
ATOM      9  C   UNL     1      76.842 -75.901  -0.372  1.00  0.00     0.006 C 
BRANCH   9  10
ATOM     10  C   UNL     1      75.392 -75.961  -0.862  1.00  0.00     0.053 C 
BRANCH  10  11
ATOM     11  C   UNL     1      74.655 -74.718  -0.474  1.00  0.00     0.041 C 
ATOM     12  O   UNL     1      75.259 -73.615  -0.420  1.00  0.00    -0.550 OA
ATOM     13  O   UNL     1      73.313 -74.787  -0.122  1.00  0.00    -0.550 OA
ENDBRANCH  10  11
ENDBRANCH   9  10
ENDBRANCH   8   9
ENDBRANCH   1   8
TORSDOF 8
ENDMDL
