MODEL 1
REMARK VINA RESULT:    -6.507      0.000      0.000
REMARK INTER + INTRA:          -6.507
REMARK INTER:                  -6.507
REMARK INTRA:                   0.000
REMARK UNBOUND:                 0.000
REMARK SMILES C=C1CCC[C@@]2(C)CC(=O)C(=C(C)C)C[C@@H]12
REMARK SMILES IDX 13 1 12 2 11 3 15 4 16 5 2 6 1 7 3 8 4 9 5 10 6 11 8 12 9 13
REMARK SMILES IDX 10 14 7 15 14 16
REMARK H PARENT
REMARK Flexibility Score: inf
ROOT
ATOM      1  C   UNL     1      32.376  22.247  26.227  1.00  0.00     0.039 C 
ATOM      2  C   UNL     1      33.229  21.131  26.787  1.00  0.00    -0.070 C 
ATOM      3  C   UNL     1      32.667  20.028  27.361  1.00  0.00    -0.006 C 
ATOM      4  C   UNL     1      31.158  19.856  27.441  1.00  0.00     0.047 C 
ATOM      5  C   UNL     1      30.706  18.373  27.363  1.00  0.00     0.025 C 
ATOM      6  C   UNL     1      30.729  17.752  25.962  1.00  0.00    -0.073 C 
ATOM      7  C   UNL     1      31.159  18.392  24.858  1.00  0.00     0.008 C 
ATOM      8  C   UNL     1      30.289  16.313  25.821  1.00  0.00     0.031 C 
ATOM      9  C   UNL     1      29.936  15.694  27.177  1.00  0.00     0.005 C 
ATOM     10  C   UNL     1      31.054  15.932  28.203  1.00  0.00     0.008 C 
ATOM     11  C   UNL     1      31.482  17.444  28.363  1.00  0.00    -0.018 C 
ATOM     12  C   UNL     1      33.004  17.564  28.082  1.00  0.00     0.088 C 
ATOM     13  C   UNL     1      33.478  18.988  28.050  1.00  0.00     0.159 C 
ATOM     14  O   UNL     1      34.561  19.279  28.624  1.00  0.00    -0.295 OA
ATOM     15  C   UNL     1      31.196  17.874  29.825  1.00  0.00     0.012 C 
ATOM     16  C   UNL     1      34.727  21.277  26.650  1.00  0.00     0.039 C 
ENDROOT
TORSDOF 0
ENDMDL
MODEL 2
REMARK VINA RESULT:    -5.773     14.355     15.453
REMARK INTER + INTRA:          -5.773
REMARK INTER:                  -5.773
REMARK INTRA:                   0.000
REMARK UNBOUND:                 0.000
REMARK SMILES C=C1CCC[C@@]2(C)CC(=O)C(=C(C)C)C[C@@H]12
REMARK SMILES IDX 13 1 12 2 11 3 15 4 16 5 2 6 1 7 3 8 4 9 5 10 6 11 8 12 9 13
REMARK SMILES IDX 10 14 7 15 14 16
REMARK H PARENT
REMARK Flexibility Score: inf
ROOT
ATOM      1  C   UNL     1      20.071  22.529  25.276  1.00  0.00     0.039 C 
ATOM      2  C   UNL     1      20.240  23.551  26.377  1.00  0.00    -0.070 C 
ATOM      3  C   UNL     1      19.163  24.175  26.937  1.00  0.00    -0.006 C 
ATOM      4  C   UNL     1      17.743  23.855  26.499  1.00  0.00     0.047 C 
ATOM      5  C   UNL     1      16.704  23.992  27.644  1.00  0.00     0.025 C 
ATOM      6  C   UNL     1      16.682  22.838  28.653  1.00  0.00    -0.073 C 
ATOM      7  C   UNL     1      17.524  21.789  28.620  1.00  0.00     0.008 C 
ATOM      8  C   UNL     1      15.682  22.910  29.785  1.00  0.00     0.031 C 
ATOM      9  C   UNL     1      14.875  24.211  29.745  1.00  0.00     0.005 C 
ATOM     10  C   UNL     1      15.798  25.432  29.616  1.00  0.00     0.008 C 
ATOM     11  C   UNL     1      16.815  25.358  28.410  1.00  0.00    -0.018 C 
ATOM     12  C   UNL     1      18.257  25.508  28.964  1.00  0.00     0.088 C 
ATOM     13  C   UNL     1      19.307  25.288  27.914  1.00  0.00     0.159 C 
ATOM     14  O   UNL     1      20.297  26.067  27.874  1.00  0.00    -0.295 OA
ATOM     15  C   UNL     1      16.510  26.537  27.449  1.00  0.00     0.012 C 
ATOM     16  C   UNL     1      21.648  23.821  26.852  1.00  0.00     0.039 C 
ENDROOT
TORSDOF 0
ENDMDL
MODEL 3
REMARK VINA RESULT:    -5.581     14.971     16.188
REMARK INTER + INTRA:          -5.581
REMARK INTER:                  -5.581
REMARK INTRA:                   0.000
REMARK UNBOUND:                 0.000
REMARK SMILES C=C1CCC[C@@]2(C)CC(=O)C(=C(C)C)C[C@@H]12
REMARK SMILES IDX 13 1 12 2 11 3 15 4 16 5 2 6 1 7 3 8 4 9 5 10 6 11 8 12 9 13
REMARK SMILES IDX 10 14 7 15 14 16
REMARK H PARENT
REMARK Flexibility Score: inf
ROOT
ATOM      1  C   UNL     1      15.548  27.640  29.379  1.00  0.00     0.039 C 
ATOM      2  C   UNL     1      15.641  26.157  29.658  1.00  0.00    -0.070 C 
ATOM      3  C   UNL     1      16.253  25.308  28.782  1.00  0.00    -0.006 C 
ATOM      4  C   UNL     1      16.893  25.814  27.499  1.00  0.00     0.047 C 
ATOM      5  C   UNL     1      18.129  24.984  27.061  1.00  0.00     0.025 C 
ATOM      6  C   UNL     1      19.417  25.261  27.844  1.00  0.00    -0.073 C 
ATOM      7  C   UNL     1      19.502  26.112  28.883  1.00  0.00     0.008 C 
ATOM      8  C   UNL     1      20.657  24.490  27.455  1.00  0.00     0.031 C 
ATOM      9  C   UNL     1      20.372  23.487  26.334  1.00  0.00     0.005 C 
ATOM     10  C   UNL     1      19.147  22.620  26.664  1.00  0.00     0.008 C 
ATOM     11  C   UNL     1      17.850  23.439  27.037  1.00  0.00    -0.018 C 
ATOM     12  C   UNL     1      17.366  22.994  28.443  1.00  0.00     0.088 C 
ATOM     13  C   UNL     1      16.230  23.830  28.958  1.00  0.00     0.159 C 
ATOM     14  O   UNL     1      15.263  23.255  29.525  1.00  0.00    -0.295 OA
ATOM     15  C   UNL     1      16.754  23.109  25.990  1.00  0.00     0.012 C 
ATOM     16  C   UNL     1      15.060  25.665  30.963  1.00  0.00     0.039 C 
ENDROOT
TORSDOF 0
ENDMDL
MODEL 4
REMARK VINA RESULT:    -5.370     14.437     15.889
REMARK INTER + INTRA:          -5.370
REMARK INTER:                  -5.370
REMARK INTRA:                   0.000
REMARK UNBOUND:                 0.000
REMARK SMILES C=C1CCC[C@@]2(C)CC(=O)C(=C(C)C)C[C@@H]12
REMARK SMILES IDX 13 1 12 2 11 3 15 4 16 5 2 6 1 7 3 8 4 9 5 10 6 11 8 12 9 13
REMARK SMILES IDX 10 14 7 15 14 16
REMARK H PARENT
REMARK Flexibility Score: inf
ROOT
ATOM      1  C   UNL     1      17.134  23.437  26.314  1.00  0.00     0.039 C 
ATOM      2  C   UNL     1      18.486  23.798  26.887  1.00  0.00    -0.070 C 
ATOM      3  C   UNL     1      18.698  24.997  27.502  1.00  0.00    -0.006 C 
ATOM      4  C   UNL     1      17.582  26.017  27.664  1.00  0.00     0.047 C 
ATOM      5  C   UNL     1      17.713  26.870  28.953  1.00  0.00     0.025 C 
ATOM      6  C   UNL     1      17.296  26.169  30.251  1.00  0.00    -0.073 C 
ATOM      7  C   UNL     1      16.894  24.887  30.321  1.00  0.00     0.008 C 
ATOM      8  C   UNL     1      17.392  26.955  31.538  1.00  0.00     0.031 C 
ATOM      9  C   UNL     1      17.967  28.355  31.306  1.00  0.00     0.005 C 
ATOM     10  C   UNL     1      19.265  28.292  30.488  1.00  0.00     0.008 C 
ATOM     11  C   UNL     1      19.142  27.496  29.129  1.00  0.00    -0.018 C 
ATOM     12  C   UNL     1      20.195  26.354  29.123  1.00  0.00     0.088 C 
ATOM     13  C   UNL     1      20.050  25.438  27.943  1.00  0.00     0.159 C 
ATOM     14  O   UNL     1      21.088  25.065  27.334  1.00  0.00    -0.295 OA
ATOM     15  C   UNL     1      19.445  28.477  27.966  1.00  0.00     0.012 C 
ATOM     16  C   UNL     1      19.576  22.758  26.781  1.00  0.00     0.039 C 
ENDROOT
TORSDOF 0
ENDMDL
MODEL 5
REMARK VINA RESULT:    -5.111     14.406     15.980
REMARK INTER + INTRA:          -5.111
REMARK INTER:                  -5.111
REMARK INTRA:                   0.000
REMARK UNBOUND:                 0.000
REMARK SMILES C=C1CCC[C@@]2(C)CC(=O)C(=C(C)C)C[C@@H]12
REMARK SMILES IDX 13 1 12 2 11 3 15 4 16 5 2 6 1 7 3 8 4 9 5 10 6 11 8 12 9 13
REMARK SMILES IDX 10 14 7 15 14 16
REMARK H PARENT
REMARK Flexibility Score: inf
ROOT
ATOM      1  C   UNL     1      21.612  25.635  27.501  1.00  0.00     0.039 C 
ATOM      2  C   UNL     1      21.940  26.402  28.762  1.00  0.00    -0.070 C 
ATOM      3  C   UNL     1      21.380  27.619  29.019  1.00  0.00    -0.006 C 
ATOM      4  C   UNL     1      20.380  28.251  28.064  1.00  0.00     0.047 C 
ATOM      5  C   UNL     1      19.317  29.127  28.780  1.00  0.00     0.025 C 
ATOM      6  C   UNL     1      18.196  28.354  29.484  1.00  0.00    -0.073 C 
ATOM      7  C   UNL     1      18.130  27.012  29.551  1.00  0.00     0.008 C 
ATOM      8  C   UNL     1      17.125  29.153  30.190  1.00  0.00     0.031 C 
ATOM      9  C   UNL     1      17.400  30.658  30.115  1.00  0.00     0.005 C 
ATOM     10  C   UNL     1      18.839  30.980  30.546  1.00  0.00     0.008 C 
ATOM     11  C   UNL     1      19.949  30.162  29.777  1.00  0.00    -0.018 C 
ATOM     12  C   UNL     1      20.813  29.396  30.816  1.00  0.00     0.088 C 
ATOM     13  C   UNL     1      21.795  28.460  30.175  1.00  0.00     0.159 C 
ATOM     14  O   UNL     1      22.970  28.411  30.628  1.00  0.00    -0.295 OA
ATOM     15  C   UNL     1      20.845  31.168  29.009  1.00  0.00     0.012 C 
ATOM     16  C   UNL     1      22.886  25.743  29.740  1.00  0.00     0.039 C 
ENDROOT
TORSDOF 0
ENDMDL
MODEL 6
REMARK VINA RESULT:    -5.004     15.764     16.868
REMARK INTER + INTRA:          -5.004
REMARK INTER:                  -5.004
REMARK INTRA:                   0.000
REMARK UNBOUND:                 0.000
REMARK SMILES C=C1CCC[C@@]2(C)CC(=O)C(=C(C)C)C[C@@H]12
REMARK SMILES IDX 13 1 12 2 11 3 15 4 16 5 2 6 1 7 3 8 4 9 5 10 6 11 8 12 9 13
REMARK SMILES IDX 10 14 7 15 14 16
REMARK H PARENT
REMARK Flexibility Score: inf
ROOT
ATOM      1  C   UNL     1      17.320  23.387  26.373  1.00  0.00     0.039 C 
ATOM      2  C   UNL     1      18.060  24.230  27.386  1.00  0.00    -0.070 C 
ATOM      3  C   UNL     1      17.418  24.780  28.456  1.00  0.00    -0.006 C 
ATOM      4  C   UNL     1      15.934  24.551  28.696  1.00  0.00     0.047 C 
ATOM      5  C   UNL     1      15.552  24.531  30.201  1.00  0.00     0.025 C 
ATOM      6  C   UNL     1      15.899  23.239  30.949  1.00  0.00    -0.073 C 
ATOM      7  C   UNL     1      16.542  22.194  30.397  1.00  0.00     0.008 C 
ATOM      8  C   UNL     1      15.541  23.157  32.416  1.00  0.00     0.031 C 
ATOM      9  C   UNL     1      14.918  24.461  32.920  1.00  0.00     0.005 C 
ATOM     10  C   UNL     1      15.777  25.674  32.530  1.00  0.00     0.008 C 
ATOM     11  C   UNL     1      16.116  25.765  30.990  1.00  0.00    -0.018 C 
ATOM     12  C   UNL     1      17.659  25.807  30.821  1.00  0.00     0.088 C 
ATOM     13  C   UNL     1      18.087  25.732  29.385  1.00  0.00     0.159 C 
ATOM     14  O   UNL     1      19.009  26.492  28.986  1.00  0.00    -0.295 OA
ATOM     15  C   UNL     1      15.505  27.079  30.439  1.00  0.00     0.012 C 
ATOM     16  C   UNL     1      19.547  24.403  27.179  1.00  0.00     0.039 C 
ENDROOT
TORSDOF 0
ENDMDL
MODEL 7
REMARK VINA RESULT:    -5.003     15.665     16.704
REMARK INTER + INTRA:          -5.003
REMARK INTER:                  -5.003
REMARK INTRA:                   0.000
REMARK UNBOUND:                 0.000
REMARK SMILES C=C1CCC[C@@]2(C)CC(=O)C(=C(C)C)C[C@@H]12
REMARK SMILES IDX 13 1 12 2 11 3 15 4 16 5 2 6 1 7 3 8 4 9 5 10 6 11 8 12 9 13
REMARK SMILES IDX 10 14 7 15 14 16
REMARK H PARENT
REMARK Flexibility Score: inf
ROOT
ATOM      1  C   UNL     1      16.026  27.961  30.946  1.00  0.00     0.039 C 
ATOM      2  C   UNL     1      16.395  26.582  31.446  1.00  0.00    -0.070 C 
ATOM      3  C   UNL     1      16.289  25.485  30.643  1.00  0.00    -0.006 C 
ATOM      4  C   UNL     1      15.822  25.597  29.200  1.00  0.00     0.047 C 
ATOM      5  C   UNL     1      16.466  24.541  28.263  1.00  0.00     0.025 C 
ATOM      6  C   UNL     1      17.912  24.829  27.844  1.00  0.00    -0.073 C 
ATOM      7  C   UNL     1      18.630  25.880  28.280  1.00  0.00     0.008 C 
ATOM      8  C   UNL     1      18.589  23.840  26.922  1.00  0.00     0.031 C 
ATOM      9  C   UNL     1      17.681  22.649  26.605  1.00  0.00     0.005 C 
ATOM     10  C   UNL     1      17.094  22.041  27.889  1.00  0.00     0.008 C 
ATOM     11  C   UNL     1      16.362  23.080  28.827  1.00  0.00    -0.018 C 
ATOM     12  C   UNL     1      17.022  23.035  30.231  1.00  0.00     0.088 C 
ATOM     13  C   UNL     1      16.503  24.102  31.150  1.00  0.00     0.159 C 
ATOM     14  O   UNL     1      16.245  23.799  32.346  1.00  0.00    -0.295 OA
ATOM     15  C   UNL     1      14.875  22.656  28.947  1.00  0.00     0.012 C 
ATOM     16  C   UNL     1      16.919  26.482  32.860  1.00  0.00     0.039 C 
ENDROOT
TORSDOF 0
ENDMDL
MODEL 8
REMARK VINA RESULT:    -4.998     16.126     17.897
REMARK INTER + INTRA:          -4.998
REMARK INTER:                  -4.998
REMARK INTRA:                   0.000
REMARK UNBOUND:                 0.000
REMARK SMILES C=C1CCC[C@@]2(C)CC(=O)C(=C(C)C)C[C@@H]12
REMARK SMILES IDX 13 1 12 2 11 3 15 4 16 5 2 6 1 7 3 8 4 9 5 10 6 11 8 12 9 13
REMARK SMILES IDX 10 14 7 15 14 16
REMARK H PARENT
REMARK Flexibility Score: inf
ROOT
ATOM      1  C   UNL     1      19.053  34.722  29.458  1.00  0.00     0.039 C 
ATOM      2  C   UNL     1      18.411  33.438  29.933  1.00  0.00    -0.070 C 
ATOM      3  C   UNL     1      18.998  32.226  29.710  1.00  0.00    -0.006 C 
ATOM      4  C   UNL     1      20.337  32.111  28.997  1.00  0.00     0.047 C 
ATOM      5  C   UNL     1      21.191  30.912  29.488  1.00  0.00     0.025 C 
ATOM      6  C   UNL     1      21.895  31.114  30.834  1.00  0.00    -0.073 C 
ATOM      7  C   UNL     1      21.764  32.214  31.598  1.00  0.00     0.008 C 
ATOM      8  C   UNL     1      22.751  29.984  31.359  1.00  0.00     0.031 C 
ATOM      9  C   UNL     1      22.711  28.767  30.432  1.00  0.00     0.005 C 
ATOM     10  C   UNL     1      21.265  28.378  30.088  1.00  0.00     0.008 C 
ATOM     11  C   UNL     1      20.392  29.561  29.510  1.00  0.00    -0.018 C 
ATOM     12  C   UNL     1      19.135  29.736  30.405  1.00  0.00     0.088 C 
ATOM     13  C   UNL     1      18.321  30.941  30.033  1.00  0.00     0.159 C 
ATOM     14  O   UNL     1      17.067  30.836  29.992  1.00  0.00    -0.295 OA
ATOM     15  C   UNL     1      19.949  29.176  28.075  1.00  0.00     0.012 C 
ATOM     16  C   UNL     1      17.112  33.560  30.696  1.00  0.00     0.039 C 
ENDROOT
TORSDOF 0
ENDMDL
MODEL 9
REMARK VINA RESULT:    -4.962     16.300     17.487
REMARK INTER + INTRA:          -4.962
REMARK INTER:                  -4.962
REMARK INTRA:                   0.000
REMARK UNBOUND:                 0.000
REMARK SMILES C=C1CCC[C@@]2(C)CC(=O)C(=C(C)C)C[C@@H]12
REMARK SMILES IDX 13 1 12 2 11 3 15 4 16 5 2 6 1 7 3 8 4 9 5 10 6 11 8 12 9 13
REMARK SMILES IDX 10 14 7 15 14 16
REMARK H PARENT
REMARK Flexibility Score: inf
ROOT
ATOM      1  C   UNL     1      18.018  23.877  26.371  1.00  0.00     0.039 C 
ATOM      2  C   UNL     1      16.896  23.198  27.123  1.00  0.00    -0.070 C 
ATOM      3  C   UNL     1      16.664  23.461  28.441  1.00  0.00    -0.006 C 
ATOM      4  C   UNL     1      17.504  24.468  29.211  1.00  0.00     0.047 C 
ATOM      5  C   UNL     1      16.712  25.205  30.323  1.00  0.00     0.025 C 
ATOM      6  C   UNL     1      15.777  26.318  29.836  1.00  0.00    -0.073 C 
ATOM      7  C   UNL     1      15.582  26.629  28.542  1.00  0.00     0.008 C 
ATOM      8  C   UNL     1      14.987  27.079  30.876  1.00  0.00     0.031 C 
ATOM      9  C   UNL     1      15.236  26.536  32.286  1.00  0.00     0.005 C 
ATOM     10  C   UNL     1      15.064  25.010  32.331  1.00  0.00     0.008 C 
ATOM     11  C   UNL     1      15.920  24.225  31.261  1.00  0.00    -0.018 C 
ATOM     12  C   UNL     1      14.965  23.362  30.393  1.00  0.00     0.088 C 
ATOM     13  C   UNL     1      15.665  22.702  29.242  1.00  0.00     0.159 C 
ATOM     14  O   UNL     1      15.397  21.499  28.979  1.00  0.00    -0.295 OA
ATOM     15  C   UNL     1      16.904  23.296  32.018  1.00  0.00     0.012 C 
ATOM     16  C   UNL     1      16.023  22.245  26.339  1.00  0.00     0.039 C 
ENDROOT
TORSDOF 0
ENDMDL
