MODEL 1
REMARK VINA RESULT:    -5.056      0.000      0.000
REMARK INTER + INTRA:          -5.680
REMARK INTER:                  -5.499
REMARK INTRA:                  -0.181
REMARK UNBOUND:                -0.181
REMARK SMILES CC1=CC[C@@H](C(C)(C)O)CC1
REMARK SMILES IDX 6 1 7 2 8 3 5 4 1 5 2 6 3 7 11 8 4 9 10 10 9 11
REMARK H PARENT 9 12
REMARK Flexibility Score: inf
ROOT
ATOM      1  C   UNL     1     128.662 121.226 119.456  1.00  0.00     0.062 C 
ATOM      2  C   UNL     1     129.349 121.273 120.844  1.00  0.00     0.042 C 
ATOM      3  C   UNL     1     128.187 122.659 119.135  1.00  0.00     0.042 C 
ENDROOT
BRANCH   1   4
ATOM      4  C   UNL     1     127.436 120.236 119.444  1.00  0.00     0.024 C 
ATOM      5  C   UNL     1     123.533 118.257 119.932  1.00  0.00     0.039 C 
ATOM      6  C   UNL     1     124.813 119.042 119.846  1.00  0.00    -0.077 C 
ATOM      7  C   UNL     1     124.974 119.925 118.840  1.00  0.00    -0.028 C 
ATOM      8  C   UNL     1     125.933 118.726 120.811  1.00  0.00     0.031 C 
ATOM      9  C   UNL     1     126.200 120.793 118.694  1.00  0.00     0.034 C 
ATOM     10  C   UNL     1     126.998 119.826 120.868  1.00  0.00     0.011 C 
ENDBRANCH   1   4
BRANCH   1  11
ATOM     11  O   UNL     1     129.607 120.866 118.475  1.00  0.00    -0.390 OA
ATOM     12  H   UNL     1     130.079 120.049 118.780  1.00  0.00     0.211 HD
ENDBRANCH   1  11
TORSDOF 2
ENDMDL
MODEL 2
REMARK VINA RESULT:    -4.996     15.145     16.281
REMARK INTER + INTRA:          -5.614
REMARK INTER:                  -5.462
REMARK INTRA:                  -0.152
REMARK UNBOUND:                -0.181
REMARK SMILES CC1=CC[C@@H](C(C)(C)O)CC1
REMARK SMILES IDX 6 1 7 2 8 3 5 4 1 5 2 6 3 7 11 8 4 9 10 10 9 11
REMARK H PARENT 9 12
REMARK Flexibility Score: inf
ROOT
ATOM      1  C   UNL     1     114.655 121.159 131.374  1.00  0.00     0.062 C 
ATOM      2  C   UNL     1     116.090 120.576 131.366  1.00  0.00     0.042 C 
ATOM      3  C   UNL     1     113.756 120.145 132.114  1.00  0.00     0.042 C 
ENDROOT
BRANCH   1   4
ATOM      4  C   UNL     1     114.112 121.395 129.913  1.00  0.00     0.024 C 
ATOM      5  C   UNL     1     113.623 122.060 125.589  1.00  0.00     0.039 C 
ATOM      6  C   UNL     1     113.933 121.843 127.044  1.00  0.00    -0.077 C 
ATOM      7  C   UNL     1     114.137 120.587 127.491  1.00  0.00    -0.028 C 
ATOM      8  C   UNL     1     113.880 123.022 127.988  1.00  0.00     0.031 C 
ATOM      9  C   UNL     1     114.500 120.270 128.920  1.00  0.00     0.034 C 
ATOM     10  C   UNL     1     114.577 122.746 129.325  1.00  0.00     0.011 C 
ENDBRANCH   1   4
BRANCH   1  11
ATOM     11  O   UNL     1     114.637 122.357 132.116  1.00  0.00    -0.390 OA
ATOM     12  H   UNL     1     114.735 122.130 133.076  1.00  0.00     0.211 HD
ENDBRANCH   1  11
TORSDOF 2
ENDMDL
MODEL 3
REMARK VINA RESULT:    -4.964     15.105     16.311
REMARK INTER + INTRA:          -5.580
REMARK INTER:                  -5.422
REMARK INTRA:                  -0.158
REMARK UNBOUND:                -0.181
REMARK SMILES CC1=CC[C@@H](C(C)(C)O)CC1
REMARK SMILES IDX 6 1 7 2 8 3 5 4 1 5 2 6 3 7 11 8 4 9 10 10 9 11
REMARK H PARENT 9 12
REMARK Flexibility Score: inf
ROOT
ATOM      1  C   UNL     1     115.000 121.096 131.766  1.00  0.00     0.062 C 
ATOM      2  C   UNL     1     116.328 120.485 132.277  1.00  0.00     0.042 C 
ATOM      3  C   UNL     1     113.854 120.229 132.333  1.00  0.00     0.042 C 
ENDROOT
BRANCH   1   4
ATOM      4  C   UNL     1     114.932 121.116 130.192  1.00  0.00     0.024 C 
ATOM      5  C   UNL     1     113.729 120.936 125.960  1.00  0.00     0.039 C 
ATOM      6  C   UNL     1     114.005 120.954 127.439  1.00  0.00    -0.077 C 
ATOM      7  C   UNL     1     113.768 122.084 128.136  1.00  0.00    -0.028 C 
ATOM      8  C   UNL     1     114.662 119.752 128.077  1.00  0.00     0.031 C 
ATOM      9  C   UNL     1     113.967 122.189 129.627  1.00  0.00     0.034 C 
ATOM     10  C   UNL     1     114.534 119.744 129.604  1.00  0.00     0.011 C 
ENDBRANCH   1   4
BRANCH   1  11
ATOM     11  O   UNL     1     114.844 122.394 132.291  1.00  0.00    -0.390 OA
ATOM     12  H   UNL     1     115.416 123.013 131.769  1.00  0.00     0.211 HD
ENDBRANCH   1  11
TORSDOF 2
ENDMDL
MODEL 4
REMARK VINA RESULT:    -4.925     15.664     16.254
REMARK INTER + INTRA:          -5.538
REMARK INTER:                  -5.357
REMARK INTRA:                  -0.180
REMARK UNBOUND:                -0.181
REMARK SMILES CC1=CC[C@@H](C(C)(C)O)CC1
REMARK SMILES IDX 6 1 7 2 8 3 5 4 1 5 2 6 3 7 11 8 4 9 10 10 9 11
REMARK H PARENT 9 12
REMARK Flexibility Score: inf
ROOT
ATOM      1  C   UNL     1     121.720 134.264 128.626  1.00  0.00     0.062 C 
ATOM      2  C   UNL     1     120.449 135.125 128.421  1.00  0.00     0.042 C 
ATOM      3  C   UNL     1     122.523 134.318 127.307  1.00  0.00     0.042 C 
ENDROOT
BRANCH   1   4
ATOM      4  C   UNL     1     121.364 132.770 128.979  1.00  0.00     0.024 C 
ATOM      5  C   UNL     1     120.181 128.529 128.928  1.00  0.00     0.039 C 
ATOM      6  C   UNL     1     120.551 129.982 128.804  1.00  0.00    -0.077 C 
ATOM      7  C   UNL     1     121.814 130.309 128.465  1.00  0.00    -0.028 C 
ATOM      8  C   UNL     1     119.535 131.033 129.189  1.00  0.00     0.031 C 
ATOM      9  C   UNL     1     122.272 131.734 128.269  1.00  0.00     0.034 C 
ATOM     10  C   UNL     1     119.892 132.427 128.661  1.00  0.00     0.011 C 
ENDBRANCH   1   4
BRANCH   1  11
ATOM     11  O   UNL     1     122.523 134.840 129.630  1.00  0.00    -0.390 OA
ATOM     12  H   UNL     1     123.360 135.167 129.211  1.00  0.00     0.211 HD
ENDBRANCH   1  11
TORSDOF 2
ENDMDL
MODEL 5
REMARK VINA RESULT:    -4.900     14.947     15.880
REMARK INTER + INTRA:          -5.510
REMARK INTER:                  -5.370
REMARK INTRA:                  -0.140
REMARK UNBOUND:                -0.181
REMARK SMILES CC1=CC[C@@H](C(C)(C)O)CC1
REMARK SMILES IDX 6 1 7 2 8 3 5 4 1 5 2 6 3 7 11 8 4 9 10 10 9 11
REMARK H PARENT 9 12
REMARK Flexibility Score: inf
ROOT
ATOM      1  C   UNL     1     120.174 129.255 129.144  1.00  0.00     0.062 C 
ATOM      2  C   UNL     1     120.001 128.101 128.125  1.00  0.00     0.042 C 
ATOM      3  C   UNL     1     118.795 129.497 129.796  1.00  0.00     0.042 C 
ENDROOT
BRANCH   1   4
ATOM      4  C   UNL     1     120.681 130.576 128.450  1.00  0.00     0.024 C 
ATOM      5  C   UNL     1     122.406 134.512 127.491  1.00  0.00     0.039 C 
ATOM      6  C   UNL     1     121.846 133.197 127.958  1.00  0.00    -0.077 C 
ATOM      7  C   UNL     1     122.668 132.133 128.059  1.00  0.00    -0.028 C 
ATOM      8  C   UNL     1     120.355 133.071 128.176  1.00  0.00     0.031 C 
ATOM      9  C   UNL     1     122.213 130.785 128.562  1.00  0.00     0.034 C 
ATOM     10  C   UNL     1     119.976 131.836 129.000  1.00  0.00     0.011 C 
ENDBRANCH   1   4
BRANCH   1  11
ATOM     11  O   UNL     1     121.057 128.854 130.166  1.00  0.00    -0.390 OA
ATOM     12  H   UNL     1     120.622 128.133 130.690  1.00  0.00     0.211 HD
ENDBRANCH   1  11
TORSDOF 2
ENDMDL
MODEL 6
REMARK VINA RESULT:    -4.868     15.499     16.930
REMARK INTER + INTRA:          -5.475
REMARK INTER:                  -5.296
REMARK INTRA:                  -0.180
REMARK UNBOUND:                -0.181
REMARK SMILES CC1=CC[C@@H](C(C)(C)O)CC1
REMARK SMILES IDX 6 1 7 2 8 3 5 4 1 5 2 6 3 7 11 8 4 9 10 10 9 11
REMARK H PARENT 9 12
REMARK Flexibility Score: inf
ROOT
ATOM      1  C   UNL     1     114.078 122.670 129.068  1.00  0.00     0.062 C 
ATOM      2  C   UNL     1     114.081 121.537 128.012  1.00  0.00     0.042 C 
ATOM      3  C   UNL     1     115.242 123.622 128.716  1.00  0.00     0.042 C 
ENDROOT
BRANCH   1   4
ATOM      4  C   UNL     1     114.265 122.108 130.528  1.00  0.00     0.024 C 
ATOM      5  C   UNL     1     115.589 120.013 134.168  1.00  0.00     0.039 C 
ATOM      6  C   UNL     1     115.237 120.653 132.853  1.00  0.00    -0.077 C 
ATOM      7  C   UNL     1     115.881 121.776 132.478  1.00  0.00    -0.028 C 
ATOM      8  C   UNL     1     114.085 120.093 132.050  1.00  0.00     0.031 C 
ATOM      9  C   UNL     1     115.635 122.466 131.159  1.00  0.00     0.034 C 
ATOM     10  C   UNL     1     114.083 120.575 130.596  1.00  0.00     0.011 C 
ENDBRANCH   1   4
BRANCH   1  11
ATOM     11  O   UNL     1     112.884 123.409 128.963  1.00  0.00    -0.390 OA
ATOM     12  H   UNL     1     112.588 123.392 128.017  1.00  0.00     0.211 HD
ENDBRANCH   1  11
TORSDOF 2
ENDMDL
MODEL 7
REMARK VINA RESULT:    -4.840     14.711     16.193
REMARK INTER + INTRA:          -5.445
REMARK INTER:                  -5.265
REMARK INTRA:                  -0.181
REMARK UNBOUND:                -0.181
REMARK SMILES CC1=CC[C@@H](C(C)(C)O)CC1
REMARK SMILES IDX 6 1 7 2 8 3 5 4 1 5 2 6 3 7 11 8 4 9 10 10 9 11
REMARK H PARENT 9 12
REMARK Flexibility Score: inf
ROOT
ATOM      1  C   UNL     1     114.180 122.271 127.095  1.00  0.00     0.062 C 
ATOM      2  C   UNL     1     112.973 123.233 126.968  1.00  0.00     0.042 C 
ATOM      3  C   UNL     1     113.848 121.013 126.264  1.00  0.00     0.042 C 
ENDROOT
BRANCH   1   4
ATOM      4  C   UNL     1     114.452 121.870 128.594  1.00  0.00     0.024 C 
ATOM      5  C   UNL     1     114.213 120.411 132.742  1.00  0.00     0.039 C 
ATOM      6  C   UNL     1     114.154 120.877 131.313  1.00  0.00    -0.077 C 
ATOM      7  C   UNL     1     114.401 119.993 130.325  1.00  0.00    -0.028 C 
ATOM      8  C   UNL     1     113.948 122.347 131.029  1.00  0.00     0.031 C 
ATOM      9  C   UNL     1     114.320 120.349 128.862  1.00  0.00     0.034 C 
ATOM     10  C   UNL     1     113.529 122.620 129.580  1.00  0.00     0.011 C 
ENDBRANCH   1   4
BRANCH   1  11
ATOM     11  O   UNL     1     115.320 122.866 126.520  1.00  0.00    -0.390 OA
ATOM     12  H   UNL     1     115.829 122.164 126.038  1.00  0.00     0.211 HD
ENDBRANCH   1  11
TORSDOF 2
ENDMDL
MODEL 8
REMARK VINA RESULT:    -4.707      2.390      4.676
REMARK INTER + INTRA:          -5.300
REMARK INTER:                  -5.150
REMARK INTRA:                  -0.150
REMARK UNBOUND:                -0.181
REMARK SMILES CC1=CC[C@@H](C(C)(C)O)CC1
REMARK SMILES IDX 6 1 7 2 8 3 5 4 1 5 2 6 3 7 11 8 4 9 10 10 9 11
REMARK H PARENT 9 12
REMARK Flexibility Score: inf
ROOT
ATOM      1  C   UNL     1     123.917 118.797 120.910  1.00  0.00     0.062 C 
ATOM      2  C   UNL     1     122.830 119.369 121.854  1.00  0.00     0.042 C 
ATOM      3  C   UNL     1     124.584 117.616 121.647  1.00  0.00     0.042 C 
ENDROOT
BRANCH   1   4
ATOM      4  C   UNL     1     124.999 119.881 120.540  1.00  0.00     0.024 C 
ATOM      5  C   UNL     1     128.507 122.089 119.054  1.00  0.00     0.039 C 
ATOM      6  C   UNL     1     127.373 121.214 119.512  1.00  0.00    -0.077 C 
ATOM      7  C   UNL     1     126.354 120.965 118.665  1.00  0.00    -0.028 C 
ATOM      8  C   UNL     1     127.343 120.745 120.949  1.00  0.00     0.031 C 
ATOM      9  C   UNL     1     125.195 120.064 119.013  1.00  0.00     0.034 C 
ATOM     10  C   UNL     1     126.375 119.579 121.174  1.00  0.00     0.011 C 
ENDBRANCH   1   4
BRANCH   1  11
ATOM     11  O   UNL     1     123.309 118.278 119.750  1.00  0.00    -0.390 OA
ATOM     12  H   UNL     1     123.984 118.266 119.023  1.00  0.00     0.211 HD
ENDBRANCH   1  11
TORSDOF 2
ENDMDL
MODEL 9
REMARK VINA RESULT:    -4.518     15.205     16.541
REMARK INTER + INTRA:          -5.095
REMARK INTER:                  -4.945
REMARK INTRA:                  -0.150
REMARK UNBOUND:                -0.181
REMARK SMILES CC1=CC[C@@H](C(C)(C)O)CC1
REMARK SMILES IDX 6 1 7 2 8 3 5 4 1 5 2 6 3 7 11 8 4 9 10 10 9 11
REMARK H PARENT 9 12
REMARK Flexibility Score: inf
ROOT
ATOM      1  C   UNL     1     114.643 121.623 128.813  1.00  0.00     0.062 C 
ATOM      2  C   UNL     1     113.548 122.699 129.024  1.00  0.00     0.042 C 
ATOM      3  C   UNL     1     114.084 120.598 127.802  1.00  0.00     0.042 C 
ENDROOT
BRANCH   1   4
ATOM      4  C   UNL     1     115.018 120.899 130.161  1.00  0.00     0.024 C 
ATOM      5  C   UNL     1     115.876 119.828 134.345  1.00  0.00     0.039 C 
ATOM      6  C   UNL     1     115.565 120.331 132.962  1.00  0.00    -0.077 C 
ATOM      7  C   UNL     1     114.283 120.352 132.545  1.00  0.00    -0.028 C 
ATOM      8  C   UNL     1     116.707 120.675 132.033  1.00  0.00     0.031 C 
ATOM      9  C   UNL     1     113.864 120.881 131.196  1.00  0.00     0.034 C 
ATOM     10  C   UNL     1     116.264 121.518 130.833  1.00  0.00     0.011 C 
ENDBRANCH   1   4
BRANCH   1  11
ATOM     11  O   UNL     1     115.779 122.215 128.227  1.00  0.00    -0.390 OA
ATOM     12  H   UNL     1     115.637 123.196 128.192  1.00  0.00     0.211 HD
ENDBRANCH   1  11
TORSDOF 2
ENDMDL
