MODEL 1
REMARK VINA RESULT:    -4.604      0.000      0.000
REMARK INTER + INTRA:          -5.249
REMARK INTER:                  -5.008
REMARK INTRA:                  -0.241
REMARK UNBOUND:                -0.241
REMARK SMILES C=C(C)[C@H]1CC[C@H](C)C[C@@H]1O
REMARK SMILES IDX 8 1 7 2 6 3 5 4 4 5 10 6 9 7 11 8 2 10 1 11 3 12
REMARK H PARENT 11 9
REMARK Flexibility Score: inf
ROOT
ATOM      1  C   UNL     1     112.282 117.230 130.955  1.00  0.00     0.008 C 
ATOM      2  C   UNL     1     112.874 116.342 129.849  1.00  0.00    -0.012 C 
ATOM      3  C   UNL     1     111.839 115.995 128.762  1.00  0.00     0.004 C 
ATOM      4  C   UNL     1     111.534 117.183 127.845  1.00  0.00     0.011 C 
ATOM      5  C   UNL     1     112.803 117.744 127.172  1.00  0.00     0.043 C 
ATOM      6  C   UNL     1     113.900 118.083 128.219  1.00  0.00     0.121 C 
ATOM      7  C   UNL     1     114.157 116.944 129.235  1.00  0.00     0.035 C 
ENDROOT
BRANCH   6   8
ATOM      8  O   UNL     1     113.529 119.254 128.903  1.00  0.00    -0.392 OA
ATOM      9  H   UNL     1     114.359 119.775 129.062  1.00  0.00     0.210 HD
ENDBRANCH   6   8
BRANCH   5  10
ATOM     10  C   UNL     1     113.253 116.865 125.996  1.00  0.00    -0.075 C 
ATOM     11  C   UNL     1     114.548 116.846 125.638  1.00  0.00     0.008 C 
ATOM     12  C   UNL     1     112.298 116.044 125.167  1.00  0.00     0.039 C 
ENDBRANCH   5  10
TORSDOF 2
ENDMDL
MODEL 2
REMARK VINA RESULT:    -4.556      0.982      1.096
REMARK INTER + INTRA:          -5.196
REMARK INTER:                  -4.956
REMARK INTRA:                  -0.240
REMARK UNBOUND:                -0.241
REMARK SMILES C=C(C)[C@H]1CC[C@H](C)C[C@@H]1O
REMARK SMILES IDX 8 1 7 2 6 3 5 4 4 5 10 6 9 7 11 8 2 10 1 11 3 12
REMARK H PARENT 11 9
REMARK Flexibility Score: inf
ROOT
ATOM      1  C   UNL     1     112.493 117.474 131.093  1.00  0.00     0.008 C 
ATOM      2  C   UNL     1     113.386 117.057 129.914  1.00  0.00    -0.012 C 
ATOM      3  C   UNL     1     112.773 115.904 129.097  1.00  0.00     0.004 C 
ATOM      4  C   UNL     1     111.595 116.364 128.231  1.00  0.00     0.011 C 
ATOM      5  C   UNL     1     111.986 117.509 127.274  1.00  0.00     0.043 C 
ATOM      6  C   UNL     1     112.643 118.691 128.039  1.00  0.00     0.121 C 
ATOM      7  C   UNL     1     113.765 118.251 129.010  1.00  0.00     0.035 C 
ENDROOT
BRANCH   6   8
ATOM      8  O   UNL     1     111.646 119.383 128.749  1.00  0.00    -0.392 OA
ATOM      9  H   UNL     1     110.918 118.735 128.936  1.00  0.00     0.210 HD
ENDBRANCH   6   8
BRANCH   5  10
ATOM     10  C   UNL     1     112.764 116.987 126.058  1.00  0.00    -0.075 C 
ATOM     11  C   UNL     1     113.659 117.784 125.450  1.00  0.00     0.008 C 
ATOM     12  C   UNL     1     112.541 115.621 125.460  1.00  0.00     0.039 C 
ENDBRANCH   5  10
TORSDOF 2
ENDMDL
MODEL 3
REMARK VINA RESULT:    -4.378     15.540     17.189
REMARK INTER + INTRA:          -5.003
REMARK INTER:                  -4.796
REMARK INTRA:                  -0.206
REMARK UNBOUND:                -0.241
REMARK SMILES C=C(C)[C@H]1CC[C@H](C)C[C@@H]1O
REMARK SMILES IDX 8 1 7 2 6 3 5 4 4 5 10 6 9 7 11 8 2 10 1 11 3 12
REMARK H PARENT 11 9
REMARK Flexibility Score: inf
ROOT
ATOM      1  C   UNL     1     122.346 115.603 115.929  1.00  0.00     0.008 C 
ATOM      2  C   UNL     1     123.388 116.466 116.659  1.00  0.00    -0.012 C 
ATOM      3  C   UNL     1     124.828 116.136 116.222  1.00  0.00     0.004 C 
ATOM      4  C   UNL     1     125.150 116.673 114.824  1.00  0.00     0.011 C 
ATOM      5  C   UNL     1     124.925 118.195 114.715  1.00  0.00     0.043 C 
ATOM      6  C   UNL     1     123.495 118.594 115.176  1.00  0.00     0.121 C 
ATOM      7  C   UNL     1     123.091 117.977 116.537  1.00  0.00     0.035 C 
ENDROOT
BRANCH   6   8
ATOM      8  O   UNL     1     122.574 118.205 114.187  1.00  0.00    -0.392 OA
ATOM      9  H   UNL     1     122.290 117.279 114.401  1.00  0.00     0.210 HD
ENDBRANCH   6   8
BRANCH   5  10
ATOM     10  C   UNL     1     126.076 118.983 115.357  1.00  0.00    -0.075 C 
ATOM     11  C   UNL     1     125.907 120.283 115.653  1.00  0.00     0.008 C 
ATOM     12  C   UNL     1     127.432 118.385 115.633  1.00  0.00     0.039 C 
ENDBRANCH   5  10
TORSDOF 2
ENDMDL
MODEL 4
REMARK VINA RESULT:    -4.301     15.198     17.204
REMARK INTER + INTRA:          -4.919
REMARK INTER:                  -4.913
REMARK INTRA:                  -0.007
REMARK UNBOUND:                -0.241
REMARK SMILES C=C(C)[C@H]1CC[C@H](C)C[C@@H]1O
REMARK SMILES IDX 8 1 7 2 6 3 5 4 4 5 10 6 9 7 11 8 2 10 1 11 3 12
REMARK H PARENT 11 9
REMARK Flexibility Score: inf
ROOT
ATOM      1  C   UNL     1     127.778 118.096 115.744  1.00  0.00     0.008 C 
ATOM      2  C   UNL     1     126.483 118.445 114.993  1.00  0.00    -0.012 C 
ATOM      3  C   UNL     1     125.757 117.192 114.468  1.00  0.00     0.004 C 
ATOM      4  C   UNL     1     125.067 116.406 115.588  1.00  0.00     0.011 C 
ATOM      5  C   UNL     1     124.069 117.273 116.382  1.00  0.00     0.043 C 
ATOM      6  C   UNL     1     124.737 118.572 116.910  1.00  0.00     0.121 C 
ATOM      7  C   UNL     1     125.540 119.337 115.829  1.00  0.00     0.035 C 
ENDROOT
BRANCH   6   8
ATOM      8  O   UNL     1     125.583 118.244 117.984  1.00  0.00    -0.392 OA
ATOM      9  H   UNL     1     125.276 117.370 118.341  1.00  0.00     0.210 HD
ENDBRANCH   6   8
BRANCH   5  10
ATOM     10  C   UNL     1     122.753 117.466 115.614  1.00  0.00    -0.075 C 
ATOM     11  C   UNL     1     121.735 116.613 115.816  1.00  0.00     0.008 C 
ATOM     12  C   UNL     1     122.549 118.550 114.585  1.00  0.00     0.039 C 
ENDBRANCH   5  10
TORSDOF 2
ENDMDL
MODEL 5
REMARK VINA RESULT:    -4.266      1.824      2.685
REMARK INTER + INTRA:          -4.881
REMARK INTER:                  -4.641
REMARK INTRA:                  -0.240
REMARK UNBOUND:                -0.241
REMARK SMILES C=C(C)[C@H]1CC[C@H](C)C[C@@H]1O
REMARK SMILES IDX 8 1 7 2 6 3 5 4 4 5 10 6 9 7 11 8 2 10 1 11 3 12
REMARK H PARENT 11 9
REMARK Flexibility Score: inf
ROOT
ATOM      1  C   UNL     1     113.953 115.626 130.328  1.00  0.00     0.008 C 
ATOM      2  C   UNL     1     113.831 117.019 129.690  1.00  0.00    -0.012 C 
ATOM      3  C   UNL     1     114.578 117.113 128.346  1.00  0.00     0.004 C 
ATOM      4  C   UNL     1     113.847 116.374 127.220  1.00  0.00     0.011 C 
ATOM      5  C   UNL     1     112.402 116.878 127.032  1.00  0.00     0.043 C 
ATOM      6  C   UNL     1     111.606 116.839 128.365  1.00  0.00     0.121 C 
ATOM      7  C   UNL     1     112.363 117.479 129.555  1.00  0.00     0.035 C 
ENDROOT
BRANCH   6   8
ATOM      8  O   UNL     1     111.291 115.503 128.668  1.00  0.00    -0.392 OA
ATOM      9  H   UNL     1     110.756 115.150 127.909  1.00  0.00     0.210 HD
ENDBRANCH   6   8
BRANCH   5  10
ATOM     10  C   UNL     1     112.364 118.212 126.272  1.00  0.00    -0.075 C 
ATOM     11  C   UNL     1     111.349 119.067 126.481  1.00  0.00     0.008 C 
ATOM     12  C   UNL     1     113.395 118.606 125.244  1.00  0.00     0.039 C 
ENDBRANCH   5  10
TORSDOF 2
ENDMDL
MODEL 6
REMARK VINA RESULT:    -4.207      1.341      3.825
REMARK INTER + INTRA:          -4.817
REMARK INTER:                  -4.604
REMARK INTRA:                  -0.212
REMARK UNBOUND:                -0.241
REMARK SMILES C=C(C)[C@H]1CC[C@H](C)C[C@@H]1O
REMARK SMILES IDX 8 1 7 2 6 3 5 4 4 5 10 6 9 7 11 8 2 10 1 11 3 12
REMARK H PARENT 11 9
REMARK Flexibility Score: inf
ROOT
ATOM      1  C   UNL     1     112.330 118.327 125.380  1.00  0.00     0.008 C 
ATOM      2  C   UNL     1     111.965 117.306 126.469  1.00  0.00    -0.012 C 
ATOM      3  C   UNL     1     113.188 116.502 126.949  1.00  0.00     0.004 C 
ATOM      4  C   UNL     1     114.121 117.333 127.836  1.00  0.00     0.011 C 
ATOM      5  C   UNL     1     113.392 117.922 129.060  1.00  0.00     0.043 C 
ATOM      6  C   UNL     1     112.126 118.720 128.641  1.00  0.00     0.121 C 
ATOM      7  C   UNL     1     111.213 117.953 127.653  1.00  0.00     0.035 C 
ENDROOT
BRANCH   6   8
ATOM      8  O   UNL     1     112.526 119.939 128.067  1.00  0.00    -0.392 OA
ATOM      9  H   UNL     1     113.519 119.947 128.060  1.00  0.00     0.210 HD
ENDBRANCH   6   8
BRANCH   5  10
ATOM     10  C   UNL     1     113.182 116.866 130.155  1.00  0.00    -0.075 C 
ATOM     11  C   UNL     1     112.278 117.084 131.124  1.00  0.00     0.008 C 
ATOM     12  C   UNL     1     113.985 115.592 130.236  1.00  0.00     0.039 C 
ENDBRANCH   5  10
TORSDOF 2
ENDMDL
MODEL 7
REMARK VINA RESULT:    -4.164     15.653     17.250
REMARK INTER + INTRA:          -4.770
REMARK INTER:                  -4.603
REMARK INTRA:                  -0.167
REMARK UNBOUND:                -0.241
REMARK SMILES C=C(C)[C@H]1CC[C@H](C)C[C@@H]1O
REMARK SMILES IDX 8 1 7 2 6 3 5 4 4 5 10 6 9 7 11 8 2 10 1 11 3 12
REMARK H PARENT 11 9
REMARK Flexibility Score: inf
ROOT
ATOM      1  C   UNL     1     122.754 115.794 116.222  1.00  0.00     0.008 C 
ATOM      2  C   UNL     1     123.038 117.303 116.296  1.00  0.00    -0.012 C 
ATOM      3  C   UNL     1     123.960 117.665 117.476  1.00  0.00     0.004 C 
ATOM      4  C   UNL     1     125.416 117.256 117.225  1.00  0.00     0.011 C 
ATOM      5  C   UNL     1     125.983 117.876 115.932  1.00  0.00     0.043 C 
ATOM      6  C   UNL     1     125.074 117.571 114.709  1.00  0.00     0.121 C 
ATOM      7  C   UNL     1     123.576 117.867 114.964  1.00  0.00     0.035 C 
ENDROOT
BRANCH   6   8
ATOM      8  O   UNL     1     125.236 116.222 114.347  1.00  0.00    -0.392 OA
ATOM      9  H   UNL     1     126.115 116.145 113.893  1.00  0.00     0.210 HD
ENDBRANCH   6   8
BRANCH   5  10
ATOM     10  C   UNL     1     126.360 119.351 116.131  1.00  0.00    -0.075 C 
ATOM     11  C   UNL     1     127.273 119.684 117.058  1.00  0.00     0.008 C 
ATOM     12  C   UNL     1     125.714 120.478 115.364  1.00  0.00     0.039 C 
ENDBRANCH   5  10
TORSDOF 2
ENDMDL
MODEL 8
REMARK VINA RESULT:    -4.132      1.772      3.860
REMARK INTER + INTRA:          -4.735
REMARK INTER:                  -4.565
REMARK INTRA:                  -0.170
REMARK UNBOUND:                -0.241
REMARK SMILES C=C(C)[C@H]1CC[C@H](C)C[C@@H]1O
REMARK SMILES IDX 8 1 7 2 6 3 5 4 4 5 10 6 9 7 11 8 2 10 1 11 3 12
REMARK H PARENT 11 9
REMARK Flexibility Score: inf
ROOT
ATOM      1  C   UNL     1     113.634 120.564 126.116  1.00  0.00     0.008 C 
ATOM      2  C   UNL     1     113.500 119.034 126.176  1.00  0.00    -0.012 C 
ATOM      3  C   UNL     1     114.482 118.402 127.181  1.00  0.00     0.004 C 
ATOM      4  C   UNL     1     114.064 118.641 128.635  1.00  0.00     0.011 C 
ATOM      5  C   UNL     1     112.640 118.124 128.927  1.00  0.00     0.043 C 
ATOM      6  C   UNL     1     111.607 118.704 127.922  1.00  0.00     0.121 C 
ATOM      7  C   UNL     1     112.048 118.581 126.443  1.00  0.00     0.035 C 
ENDROOT
BRANCH   6   8
ATOM      8  O   UNL     1     111.375 120.054 128.236  1.00  0.00    -0.392 OA
ATOM      9  H   UNL     1     112.016 120.593 127.702  1.00  0.00     0.210 HD
ENDBRANCH   6   8
BRANCH   5  10
ATOM     10  C   UNL     1     112.618 116.599 129.100  1.00  0.00    -0.075 C 
ATOM     11  C   UNL     1     111.670 115.874 128.484  1.00  0.00     0.008 C 
ATOM     12  C   UNL     1     113.588 115.855 129.984  1.00  0.00     0.039 C 
ENDBRANCH   5  10
TORSDOF 2
ENDMDL
MODEL 9
REMARK VINA RESULT:    -4.093      2.516      3.641
REMARK INTER + INTRA:          -4.693
REMARK INTER:                  -4.459
REMARK INTRA:                  -0.234
REMARK UNBOUND:                -0.241
REMARK SMILES C=C(C)[C@H]1CC[C@H](C)C[C@@H]1O
REMARK SMILES IDX 8 1 7 2 6 3 5 4 4 5 10 6 9 7 11 8 2 10 1 11 3 12
REMARK H PARENT 11 9
REMARK Flexibility Score: inf
ROOT
ATOM      1  C   UNL     1     113.161 117.020 127.988  1.00  0.00     0.008 C 
ATOM      2  C   UNL     1     112.083 116.863 126.904  1.00  0.00    -0.012 C 
ATOM      3  C   UNL     1     111.617 118.220 126.344  1.00  0.00     0.004 C 
ATOM      4  C   UNL     1     112.659 118.857 125.419  1.00  0.00     0.011 C 
ATOM      5  C   UNL     1     113.046 117.932 124.247  1.00  0.00     0.043 C 
ATOM      6  C   UNL     1     113.494 116.532 124.750  1.00  0.00     0.121 C 
ATOM      7  C   UNL     1     112.518 115.903 125.775  1.00  0.00     0.035 C 
ENDROOT
BRANCH   6   8
ATOM      8  O   UNL     1     114.774 116.642 125.321  1.00  0.00    -0.392 OA
ATOM      9  H   UNL     1     115.267 115.811 125.094  1.00  0.00     0.210 HD
ENDBRANCH   6   8
BRANCH   5  10
ATOM     10  C   UNL     1     111.972 117.933 123.149  1.00  0.00    -0.075 C 
ATOM     11  C   UNL     1     111.749 116.817 122.437  1.00  0.00     0.008 C 
ATOM     12  C   UNL     1     111.171 119.157 122.780  1.00  0.00     0.039 C 
ENDBRANCH   5  10
TORSDOF 2
ENDMDL
