MODEL 1
REMARK VINA RESULT:    -4.242      0.000      0.000
REMARK INTER + INTRA:          -5.119
REMARK INTER:                  -4.986
REMARK INTRA:                  -0.132
REMARK UNBOUND:                -0.132
REMARK SMILES O=C([O-])C=Cc1ccc(O)c(O)c1
REMARK SMILES IDX 6 1 13 2 7 3 11 4 8 5 9 6 5 7 4 8 2 9 1 10 3 11 12 12 10 14
REMARK H PARENT 12 13 10 15
REMARK Flexibility Score: inf
ROOT
ATOM      1  C   UNL     1       1.070  13.909  31.002  1.00  0.00    -0.022 A 
ATOM      2  C   UNL     1       0.365  15.089  30.699  1.00  0.00     0.058 A 
ATOM      3  C   UNL     1       2.466  13.904  30.880  1.00  0.00     0.012 A 
ATOM      4  C   UNL     1       1.037  16.237  30.258  1.00  0.00     0.157 A 
ATOM      5  C   UNL     1       3.143  15.042  30.439  1.00  0.00     0.051 A 
ATOM      6  C   UNL     1       2.444  16.211  30.120  1.00  0.00     0.157 A 
ENDROOT
BRANCH   1   7
ATOM      7  C   UNL     1       0.396  12.676  31.484  1.00  0.00     0.010 C 
ATOM      8  C   UNL     1       0.463  12.238  32.750  1.00  0.00     0.025 C 
BRANCH   8   9
ATOM      9  C   UNL     1      -0.230  11.017  33.196  1.00  0.00     0.064 C 
ATOM     10  O   UNL     1      -1.418  10.779  32.852  1.00  0.00    -0.545 OA
ATOM     11  O   UNL     1       0.439  10.113  34.008  1.00  0.00    -0.545 OA
ENDBRANCH   8   9
ENDBRANCH   1   7
BRANCH   4  12
ATOM     12  O   UNL     1       0.273  17.371  29.976  1.00  0.00    -0.504 OA
ATOM     13  H   UNL     1       0.504  18.301  30.294  1.00  0.00     0.293 HD
ENDBRANCH   4  12
BRANCH   6  14
ATOM     14  O   UNL     1       3.180  17.312  29.678  1.00  0.00    -0.504 OA
ATOM     15  H   UNL     1       4.188  17.365  29.705  1.00  0.00     0.293 HD
ENDBRANCH   6  14
TORSDOF 4
ENDMDL
MODEL 2
REMARK VINA RESULT:    -4.237      2.246      6.465
REMARK INTER + INTRA:          -5.113
REMARK INTER:                  -4.987
REMARK INTRA:                  -0.126
REMARK UNBOUND:                -0.132
REMARK SMILES O=C([O-])C=Cc1ccc(O)c(O)c1
REMARK SMILES IDX 6 1 13 2 7 3 11 4 8 5 9 6 5 7 4 8 2 9 1 10 3 11 12 12 10 14
REMARK H PARENT 12 13 10 15
REMARK Flexibility Score: inf
ROOT
ATOM      1  C   UNL     1       2.680  16.139  30.115  1.00  0.00    -0.022 A 
ATOM      2  C   UNL     1       1.287  16.318  30.202  1.00  0.00     0.058 A 
ATOM      3  C   UNL     1       3.217  14.872  30.380  1.00  0.00     0.012 A 
ATOM      4  C   UNL     1       0.446  15.259  30.571  1.00  0.00     0.157 A 
ATOM      5  C   UNL     1       2.387  13.812  30.751  1.00  0.00     0.051 A 
ATOM      6  C   UNL     1       1.005  13.991  30.855  1.00  0.00     0.157 A 
ENDROOT
BRANCH   1   7
ATOM      7  C   UNL     1       3.603  17.232  29.715  1.00  0.00     0.010 C 
ATOM      8  C   UNL     1       3.885  17.537  28.440  1.00  0.00     0.025 C 
BRANCH   8   9
ATOM      9  C   UNL     1       4.797  18.637  28.081  1.00  0.00     0.064 C 
ATOM     10  O   UNL     1       4.745  19.748  28.673  1.00  0.00    -0.545 OA
ATOM     11  O   UNL     1       5.731  18.446  27.072  1.00  0.00    -0.545 OA
ENDBRANCH   8   9
ENDBRANCH   1   7
BRANCH   4  12
ATOM     12  O   UNL     1      -0.927  15.509  30.636  1.00  0.00    -0.504 OA
ATOM     13  H   UNL     1      -1.392  16.245  30.124  1.00  0.00     0.293 HD
ENDBRANCH   4  12
BRANCH   6  14
ATOM     14  O   UNL     1       0.231  12.893  31.237  1.00  0.00    -0.504 OA
ATOM     15  H   UNL     1      -0.747  12.784  31.009  1.00  0.00     0.293 HD
ENDBRANCH   6  14
TORSDOF 4
ENDMDL
MODEL 3
REMARK VINA RESULT:    -4.066      1.450      5.763
REMARK INTER + INTRA:          -4.911
REMARK INTER:                  -4.763
REMARK INTRA:                  -0.148
REMARK UNBOUND:                -0.132
REMARK SMILES O=C([O-])C=Cc1ccc(O)c(O)c1
REMARK SMILES IDX 6 1 13 2 7 3 11 4 8 5 9 6 5 7 4 8 2 9 1 10 3 11 12 12 10 14
REMARK H PARENT 12 13 10 15
REMARK Flexibility Score: inf
ROOT
ATOM      1  C   UNL     1       0.520  14.700  31.138  1.00  0.00    -0.022 A 
ATOM      2  C   UNL     1      -0.723  14.846  31.783  1.00  0.00     0.058 A 
ATOM      3  C   UNL     1       1.044  13.412  30.964  1.00  0.00     0.012 A 
ATOM      4  C   UNL     1      -1.418  13.730  32.269  1.00  0.00     0.157 A 
ATOM      5  C   UNL     1       0.360  12.296  31.447  1.00  0.00     0.051 A 
ATOM      6  C   UNL     1      -0.866  12.438  32.104  1.00  0.00     0.157 A 
ENDROOT
BRANCH   1   7
ATOM      7  C   UNL     1       1.280  15.856  30.598  1.00  0.00     0.010 C 
ATOM      8  C   UNL     1       2.611  15.860  30.437  1.00  0.00     0.025 C 
BRANCH   8   9
ATOM      9  C   UNL     1       3.332  17.021  29.886  1.00  0.00     0.064 C 
ATOM     10  O   UNL     1       4.473  17.343  30.311  1.00  0.00    -0.545 OA
ATOM     11  O   UNL     1       2.743  17.773  28.879  1.00  0.00    -0.545 OA
ENDBRANCH   8   9
ENDBRANCH   1   7
BRANCH   4  12
ATOM     12  O   UNL     1      -2.646  13.950  32.897  1.00  0.00    -0.504 OA
ATOM     13  H   UNL     1      -3.103  14.849  32.944  1.00  0.00     0.293 HD
ENDBRANCH   4  12
BRANCH   6  14
ATOM     14  O   UNL     1      -1.496  11.283  32.568  1.00  0.00    -0.504 OA
ATOM     15  H   UNL     1      -1.396  10.922  33.506  1.00  0.00     0.293 HD
ENDBRANCH   6  14
TORSDOF 4
ENDMDL
MODEL 4
REMARK VINA RESULT:    -4.005      9.558     11.187
REMARK INTER + INTRA:          -4.839
REMARK INTER:                  -4.686
REMARK INTRA:                  -0.153
REMARK UNBOUND:                -0.132
REMARK SMILES O=C([O-])C=Cc1ccc(O)c(O)c1
REMARK SMILES IDX 6 1 13 2 7 3 11 4 8 5 9 6 5 7 4 8 2 9 1 10 3 11 12 12 10 14
REMARK H PARENT 12 13 10 15
REMARK Flexibility Score: inf
ROOT
ATOM      1  C   UNL     1       7.109   5.520  30.739  1.00  0.00    -0.022 A 
ATOM      2  C   UNL     1       8.087   5.820  29.772  1.00  0.00     0.058 A 
ATOM      3  C   UNL     1       6.329   4.367  30.576  1.00  0.00     0.012 A 
ATOM      4  C   UNL     1       8.269   4.999  28.651  1.00  0.00     0.157 A 
ATOM      5  C   UNL     1       6.501   3.545  29.461  1.00  0.00     0.051 A 
ATOM      6  C   UNL     1       7.460   3.849  28.490  1.00  0.00     0.157 A 
ENDROOT
BRANCH   1   7
ATOM      7  C   UNL     1       6.895   6.357  31.946  1.00  0.00     0.010 C 
ATOM      8  C   UNL     1       5.853   6.211  32.778  1.00  0.00     0.025 C 
BRANCH   8   9
ATOM      9  C   UNL     1       5.680   7.052  33.975  1.00  0.00     0.064 C 
ATOM     10  O   UNL     1       6.673   7.538  34.580  1.00  0.00    -0.545 OA
ATOM     11  O   UNL     1       4.400   7.316  34.443  1.00  0.00    -0.545 OA
ENDBRANCH   8   9
ENDBRANCH   1   7
BRANCH   4  12
ATOM     12  O   UNL     1       9.259   5.358  27.734  1.00  0.00    -0.504 OA
ATOM     13  H   UNL     1       9.457   4.846  26.886  1.00  0.00     0.293 HD
ENDBRANCH   4  12
BRANCH   6  14
ATOM     14  O   UNL     1       7.578   2.990  27.396  1.00  0.00    -0.504 OA
ATOM     15  H   UNL     1       7.664   1.987  27.472  1.00  0.00     0.293 HD
ENDBRANCH   6  14
TORSDOF 4
ENDMDL
MODEL 5
REMARK VINA RESULT:    -3.985      1.055      1.271
REMARK INTER + INTRA:          -4.816
REMARK INTER:                  -4.685
REMARK INTRA:                  -0.131
REMARK UNBOUND:                -0.132
REMARK SMILES O=C([O-])C=Cc1ccc(O)c(O)c1
REMARK SMILES IDX 6 1 13 2 7 3 11 4 8 5 9 6 5 7 4 8 2 9 1 10 3 11 12 12 10 14
REMARK H PARENT 12 13 10 15
REMARK Flexibility Score: inf
ROOT
ATOM      1  C   UNL     1       0.177  13.320  31.473  1.00  0.00    -0.022 A 
ATOM      2  C   UNL     1      -0.665  14.447  31.435  1.00  0.00     0.058 A 
ATOM      3  C   UNL     1       1.505  13.452  31.046  1.00  0.00     0.012 A 
ATOM      4  C   UNL     1      -0.198  15.679  30.957  1.00  0.00     0.157 A 
ATOM      5  C   UNL     1       1.977  14.675  30.565  1.00  0.00     0.051 A 
ATOM      6  C   UNL     1       1.139  15.793  30.510  1.00  0.00     0.157 A 
ENDROOT
BRANCH   1   7
ATOM      7  C   UNL     1      -0.276  12.001  31.984  1.00  0.00     0.010 C 
ATOM      8  C   UNL     1       0.027  11.532  33.203  1.00  0.00     0.025 C 
BRANCH   8   9
ATOM      9  C   UNL     1      -0.451  10.223  33.681  1.00  0.00     0.064 C 
ATOM     10  O   UNL     1      -1.572   9.770  33.330  1.00  0.00    -0.545 OA
ATOM     11  O   UNL     1       0.350   9.476  34.534  1.00  0.00    -0.545 OA
ENDBRANCH   8   9
ENDBRANCH   1   7
BRANCH   4  12
ATOM     12  O   UNL     1      -1.089  16.755  30.950  1.00  0.00    -0.504 OA
ATOM     13  H   UNL     1      -1.404  17.222  30.112  1.00  0.00     0.293 HD
ENDBRANCH   4  12
BRANCH   6  14
ATOM     14  O   UNL     1       1.671  16.984  30.014  1.00  0.00    -0.504 OA
ATOM     15  H   UNL     1       1.734  17.209  29.031  1.00  0.00     0.293 HD
ENDBRANCH   6  14
TORSDOF 4
ENDMDL
MODEL 6
REMARK VINA RESULT:    -3.926      1.251      2.329
REMARK INTER + INTRA:          -4.746
REMARK INTER:                  -4.624
REMARK INTRA:                  -0.122
REMARK UNBOUND:                -0.132
REMARK SMILES O=C([O-])C=Cc1ccc(O)c(O)c1
REMARK SMILES IDX 6 1 13 2 7 3 11 4 8 5 9 6 5 7 4 8 2 9 1 10 3 11 12 12 10 14
REMARK H PARENT 12 13 10 15
REMARK Flexibility Score: inf
ROOT
ATOM      1  C   UNL     1       0.167  13.242  31.522  1.00  0.00    -0.022 A 
ATOM      2  C   UNL     1       1.499  13.303  31.073  1.00  0.00     0.058 A 
ATOM      3  C   UNL     1      -0.621  14.400  31.464  1.00  0.00     0.012 A 
ATOM      4  C   UNL     1       2.045  14.504  30.598  1.00  0.00     0.157 A 
ATOM      5  C   UNL     1      -0.084  15.600  30.995  1.00  0.00     0.051 A 
ATOM      6  C   UNL     1       1.244  15.669  30.565  1.00  0.00     0.157 A 
ENDROOT
BRANCH   1   7
ATOM      7  C   UNL     1      -0.452  11.987  32.020  1.00  0.00     0.010 C 
ATOM      8  C   UNL     1      -0.016  11.320  33.099  1.00  0.00     0.025 C 
BRANCH   8   9
ATOM      9  C   UNL     1      -0.663  10.084  33.572  1.00  0.00     0.064 C 
ATOM     10  O   UNL     1      -0.048   9.265  34.305  1.00  0.00    -0.545 OA
ATOM     11  O   UNL     1      -1.974   9.818  33.204  1.00  0.00    -0.545 OA
ENDBRANCH   8   9
ENDBRANCH   1   7
BRANCH   4  12
ATOM     12  O   UNL     1       3.374  14.490  30.167  1.00  0.00    -0.504 OA
ATOM     13  H   UNL     1       3.669  14.174  29.255  1.00  0.00     0.293 HD
ENDBRANCH   4  12
BRANCH   6  14
ATOM     14  O   UNL     1       1.721  16.901  30.113  1.00  0.00    -0.504 OA
ATOM     15  H   UNL     1       2.188  17.576  30.701  1.00  0.00     0.293 HD
ENDBRANCH   6  14
TORSDOF 4
ENDMDL
MODEL 7
REMARK VINA RESULT:    -3.838     10.171     11.523
REMARK INTER + INTRA:          -4.643
REMARK INTER:                  -4.520
REMARK INTRA:                  -0.123
REMARK UNBOUND:                -0.132
REMARK SMILES O=C([O-])C=Cc1ccc(O)c(O)c1
REMARK SMILES IDX 6 1 13 2 7 3 11 4 8 5 9 6 5 7 4 8 2 9 1 10 3 11 12 12 10 14
REMARK H PARENT 12 13 10 15
REMARK Flexibility Score: inf
ROOT
ATOM      1  C   UNL     1       8.330   5.798  30.581  1.00  0.00    -0.022 A 
ATOM      2  C   UNL     1       7.027   5.267  30.585  1.00  0.00     0.058 A 
ATOM      3  C   UNL     1       9.111   5.666  29.425  1.00  0.00     0.012 A 
ATOM      4  C   UNL     1       6.519   4.595  29.465  1.00  0.00     0.157 A 
ATOM      5  C   UNL     1       8.615   4.995  28.305  1.00  0.00     0.051 A 
ATOM      6  C   UNL     1       7.326   4.451  28.312  1.00  0.00     0.157 A 
ENDROOT
BRANCH   1   7
ATOM      7  C   UNL     1       8.899   6.528  31.742  1.00  0.00     0.010 C 
ATOM      8  C   UNL     1       8.232   7.463  32.433  1.00  0.00     0.025 C 
BRANCH   8   9
ATOM      9  C   UNL     1       8.824   8.158  33.588  1.00  0.00     0.064 C 
ATOM     10  O   UNL     1      10.006   8.593  33.553  1.00  0.00    -0.545 OA
ATOM     11  O   UNL     1       8.066   8.340  34.736  1.00  0.00    -0.545 OA
ENDBRANCH   8   9
ENDBRANCH   1   7
BRANCH   4  12
ATOM     12  O   UNL     1       5.217   4.095  29.540  1.00  0.00    -0.504 OA
ATOM     13  H   UNL     1       4.430   4.494  29.048  1.00  0.00     0.293 HD
ENDBRANCH   4  12
BRANCH   6  14
ATOM     14  O   UNL     1       6.892   3.787  27.163  1.00  0.00    -0.504 OA
ATOM     15  H   UNL     1       7.459   3.656  26.338  1.00  0.00     0.293 HD
ENDBRANCH   6  14
TORSDOF 4
ENDMDL
MODEL 8
REMARK VINA RESULT:    -3.813      8.732     10.211
REMARK INTER + INTRA:          -4.613
REMARK INTER:                  -4.488
REMARK INTRA:                  -0.126
REMARK UNBOUND:                -0.132
REMARK SMILES O=C([O-])C=Cc1ccc(O)c(O)c1
REMARK SMILES IDX 6 1 13 2 7 3 11 4 8 5 9 6 5 7 4 8 2 9 1 10 3 11 12 12 10 14
REMARK H PARENT 12 13 10 15
REMARK Flexibility Score: inf
ROOT
ATOM      1  C   UNL     1       6.507   6.169  32.563  1.00  0.00    -0.022 A 
ATOM      2  C   UNL     1       5.999   4.970  32.030  1.00  0.00     0.058 A 
ATOM      3  C   UNL     1       7.427   6.909  31.808  1.00  0.00     0.012 A 
ATOM      4  C   UNL     1       6.420   4.502  30.778  1.00  0.00     0.157 A 
ATOM      5  C   UNL     1       7.855   6.449  30.561  1.00  0.00     0.051 A 
ATOM      6  C   UNL     1       7.366   5.249  30.037  1.00  0.00     0.157 A 
ENDROOT
BRANCH   1   7
ATOM      7  C   UNL     1       6.076   6.705  33.880  1.00  0.00     0.010 C 
ATOM      8  C   UNL     1       4.830   7.126  34.140  1.00  0.00     0.025 C 
BRANCH   8   9
ATOM      9  C   UNL     1       4.435   7.640  35.463  1.00  0.00     0.064 C 
ATOM     10  O   UNL     1       5.141   8.487  36.071  1.00  0.00    -0.545 OA
ATOM     11  O   UNL     1       3.263   7.182  36.049  1.00  0.00    -0.545 OA
ENDBRANCH   8   9
ENDBRANCH   1   7
BRANCH   4  12
ATOM     12  O   UNL     1       5.873   3.304  30.312  1.00  0.00    -0.504 OA
ATOM     13  H   UNL     1       6.416   2.554  29.910  1.00  0.00     0.293 HD
ENDBRANCH   4  12
BRANCH   6  14
ATOM     14  O   UNL     1       7.837   4.842  28.788  1.00  0.00    -0.504 OA
ATOM     15  H   UNL     1       7.669   5.345  27.929  1.00  0.00     0.293 HD
ENDBRANCH   6  14
TORSDOF 4
ENDMDL
MODEL 9
REMARK VINA RESULT:    -3.813      9.231     10.810
REMARK INTER + INTRA:          -4.613
REMARK INTER:                  -4.491
REMARK INTRA:                  -0.123
REMARK UNBOUND:                -0.132
REMARK SMILES O=C([O-])C=Cc1ccc(O)c(O)c1
REMARK SMILES IDX 6 1 13 2 7 3 11 4 8 5 9 6 5 7 4 8 2 9 1 10 3 11 12 12 10 14
REMARK H PARENT 12 13 10 15
REMARK Flexibility Score: inf
ROOT
ATOM      1  C   UNL     1       7.261   6.087  31.703  1.00  0.00    -0.022 A 
ATOM      2  C   UNL     1       5.975   6.137  32.272  1.00  0.00     0.058 A 
ATOM      3  C   UNL     1       8.332   6.666  32.398  1.00  0.00     0.012 A 
ATOM      4  C   UNL     1       5.754   6.775  33.500  1.00  0.00     0.157 A 
ATOM      5  C   UNL     1       8.121   7.306  33.621  1.00  0.00     0.051 A 
ATOM      6  C   UNL     1       6.841   7.372  34.181  1.00  0.00     0.157 A 
ENDROOT
BRANCH   1   7
ATOM      7  C   UNL     1       7.538   5.410  30.410  1.00  0.00     0.010 C 
ATOM      8  C   UNL     1       6.692   4.552  29.824  1.00  0.00     0.025 C 
BRANCH   8   9
ATOM      9  C   UNL     1       6.994   3.909  28.534  1.00  0.00     0.064 C 
ATOM     10  O   UNL     1       6.624   4.423  27.445  1.00  0.00    -0.545 OA
ATOM     11  O   UNL     1       7.703   2.715  28.517  1.00  0.00    -0.545 OA
ENDBRANCH   8   9
ENDBRANCH   1   7
BRANCH   4  12
ATOM     12  O   UNL     1       4.452   6.784  34.005  1.00  0.00    -0.504 OA
ATOM     13  H   UNL     1       4.092   7.494  34.626  1.00  0.00     0.293 HD
ENDBRANCH   4  12
BRANCH   6  14
ATOM     14  O   UNL     1       6.696   8.031  35.403  1.00  0.00    -0.504 OA
ATOM     15  H   UNL     1       7.459   8.459  35.908  1.00  0.00     0.293 HD
ENDBRANCH   6  14
TORSDOF 4
ENDMDL
