MODEL 1
REMARK VINA RESULT:    -2.781      0.000      0.000
REMARK INTER + INTRA:         -13.655
REMARK INTER:                  -7.333
REMARK INTRA:                  -6.322
REMARK UNBOUND:                -6.322
REMARK SMILES CCCCCCCCCCCCCCCCCCCCCCCCCCCCCC(=O)[O-]
REMARK SMILES IDX 16 1 17 2 18 3 19 4 20 5 21 6 22 7 23 8 24 9 25 10 26 11
REMARK SMILES IDX 27 12 28 13 29 14 30 15 31 16 32 17 15 18 14 19 13 20 12 21
REMARK SMILES IDX 11 22 10 23 9 24 8 25 7 26 6 27 5 28 4 29 3 30 2 31 1 32
REMARK H PARENT
REMARK Flexibility Score: inf
ROOT
ATOM      1  C   UNL     1     -98.163 -46.147 -12.218  1.00  0.00     0.000 C 
ENDROOT
BRANCH   1   2
ATOM      2  C   UNL     1     -99.292 -45.116 -12.383  1.00  0.00     0.000 C 
BRANCH   2   3
ATOM      3  C   UNL     1     -98.827 -43.714 -11.964  1.00  0.00     0.000 C 
BRANCH   3   4
ATOM      4  C   UNL     1     -97.329 -43.650 -11.614  1.00  0.00     0.000 C 
BRANCH   4   5
ATOM      5  C   UNL     1     -97.016 -43.151 -10.190  1.00  0.00     0.000 C 
BRANCH   5   6
ATOM      6  C   UNL     1     -97.844 -43.868  -9.106  1.00  0.00     0.000 C 
BRANCH   6   7
ATOM      7  C   UNL     1     -96.969 -44.751  -8.192  1.00  0.00     0.000 C 
BRANCH   7   8
ATOM      8  C   UNL     1     -95.528 -44.949  -8.702  1.00  0.00     0.000 C 
BRANCH   8   9
ATOM      9  C   UNL     1     -94.970 -46.368  -8.472  1.00  0.00     0.000 C 
BRANCH   9  10
ATOM     10  C   UNL     1     -94.335 -46.962  -9.741  1.00  0.00     0.000 C 
BRANCH  10  11
ATOM     11  C   UNL     1     -94.634 -46.139 -11.007  1.00  0.00     0.000 C 
BRANCH  11  12
ATOM     12  C   UNL     1     -94.560 -46.923 -12.330  1.00  0.00     0.000 C 
BRANCH  12  13
ATOM     13  C   UNL     1     -94.305 -48.427 -12.126  1.00  0.00     0.006 C 
BRANCH  13  14
ATOM     14  C   UNL     1     -95.503 -49.282 -12.567  1.00  0.00     0.053 C 
BRANCH  14  15
ATOM     15  C   UNL     1     -95.768 -50.414 -11.619  1.00  0.00     0.041 C 
ATOM     16  O   UNL     1     -96.194 -51.519 -12.052  1.00  0.00    -0.550 OA
ATOM     17  O   UNL     1     -95.563 -50.244 -10.257  1.00  0.00    -0.550 OA
ENDBRANCH  14  15
ENDBRANCH  13  14
ENDBRANCH  12  13
ENDBRANCH  11  12
ENDBRANCH  10  11
ENDBRANCH   9  10
ENDBRANCH   8   9
ENDBRANCH   7   8
ENDBRANCH   6   7
ENDBRANCH   5   6
ENDBRANCH   4   5
ENDBRANCH   3   4
ENDBRANCH   2   3
ENDBRANCH   1   2
BRANCH   1  18
ATOM     18  C   UNL     1     -98.627 -47.438 -11.519  1.00  0.00     0.000 C 
BRANCH  18  19
ATOM     19  C   UNL     1     -97.949 -47.656 -10.154  1.00  0.00     0.000 C 
BRANCH  19  20
ATOM     20  C   UNL     1     -98.967 -47.711  -9.003  1.00  0.00     0.000 C 
BRANCH  20  21
ATOM     21  C   UNL     1    -100.406 -47.412  -9.463  1.00  0.00     0.000 C 
BRANCH  21  22
ATOM     22  C   UNL     1    -100.844 -45.982  -9.097  1.00  0.00     0.000 C 
BRANCH  22  23
ATOM     23  C   UNL     1    -102.103 -45.551  -9.872  1.00  0.00     0.000 C 
BRANCH  23  24
ATOM     24  C   UNL     1    -102.478 -46.537 -10.997  1.00  0.00    -0.000 C 
BRANCH  24  25
ATOM     25  C   UNL     1    -103.314 -45.911 -12.130  1.00  0.00    -0.000 C 
BRANCH  25  26
ATOM     26  C   UNL     1    -102.638 -45.892 -13.512  1.00  0.00    -0.000 C 
BRANCH  26  27
ATOM     27  C   UNL     1    -102.519 -47.297 -14.129  1.00  0.00    -0.000 C 
BRANCH  27  28
ATOM     28  C   UNL     1    -101.117 -47.914 -13.966  1.00  0.00    -0.000 C 
BRANCH  28  29
ATOM     29  C   UNL     1    -101.094 -49.389 -13.521  1.00  0.00    -0.000 C 
BRANCH  29  30
ATOM     30  C   UNL     1    -102.371 -50.155 -13.896  1.00  0.00    -0.000 C 
BRANCH  30  31
ATOM     31  C   UNL     1    -102.939 -50.905 -12.685  1.00  0.00    -0.003 C 
ATOM     32  C   UNL     1    -103.621 -49.945 -11.714  1.00  0.00     0.004 C 
ENDBRANCH  30  31
ENDBRANCH  29  30
ENDBRANCH  28  29
ENDBRANCH  27  28
ENDBRANCH  26  27
ENDBRANCH  25  26
ENDBRANCH  24  25
ENDBRANCH  23  24
ENDBRANCH  22  23
ENDBRANCH  21  22
ENDBRANCH  20  21
ENDBRANCH  19  20
ENDBRANCH  18  19
ENDBRANCH   1  18
TORSDOF 28
ENDMDL
MODEL 2
REMARK VINA RESULT:    -2.769      1.773      6.355
REMARK INTER + INTRA:         -13.623
REMARK INTER:                  -7.224
REMARK INTRA:                  -6.399
REMARK UNBOUND:                -6.322
REMARK SMILES CCCCCCCCCCCCCCCCCCCCCCCCCCCCCC(=O)[O-]
REMARK SMILES IDX 16 1 17 2 18 3 19 4 20 5 21 6 22 7 23 8 24 9 25 10 26 11
REMARK SMILES IDX 27 12 28 13 29 14 30 15 31 16 32 17 15 18 14 19 13 20 12 21
REMARK SMILES IDX 11 22 10 23 9 24 8 25 7 26 6 27 5 28 4 29 3 30 2 31 1 32
REMARK H PARENT
REMARK Flexibility Score: inf
ROOT
ATOM      1  C   UNL     1     -98.910 -44.779 -12.364  1.00  0.00     0.000 C 
ENDROOT
BRANCH   1   2
ATOM      2  C   UNL     1     -97.794 -45.751 -11.946  1.00  0.00     0.000 C 
BRANCH   2   3
ATOM      3  C   UNL     1     -98.378 -47.043 -11.355  1.00  0.00     0.000 C 
BRANCH   3   4
ATOM      4  C   UNL     1     -98.805 -46.899  -9.883  1.00  0.00     0.000 C 
BRANCH   4   5
ATOM      5  C   UNL     1    -100.320 -46.729  -9.660  1.00  0.00     0.000 C 
BRANCH   5   6
ATOM      6  C   UNL     1    -100.664 -45.519  -8.770  1.00  0.00     0.000 C 
BRANCH   6   7
ATOM      7  C   UNL     1    -101.350 -44.388  -9.566  1.00  0.00     0.000 C 
BRANCH   7   8
ATOM      8  C   UNL     1    -102.503 -44.866 -10.471  1.00  0.00     0.000 C 
BRANCH   8   9
ATOM      9  C   UNL     1    -102.478 -44.260 -11.889  1.00  0.00     0.000 C 
BRANCH   9  10
ATOM     10  C   UNL     1    -103.122 -45.188 -12.934  1.00  0.00     0.000 C 
BRANCH  10  11
ATOM     11  C   UNL     1    -102.097 -46.063 -13.676  1.00  0.00     0.000 C 
BRANCH  11  12
ATOM     12  C   UNL     1    -101.713 -47.372 -12.961  1.00  0.00     0.000 C 
BRANCH  12  13
ATOM     13  C   UNL     1    -100.831 -48.292 -13.823  1.00  0.00     0.006 C 
BRANCH  13  14
ATOM     14  C   UNL     1    -100.364 -49.535 -13.051  1.00  0.00     0.053 C 
BRANCH  14  15
ATOM     15  C   UNL     1    -101.311 -50.688 -13.212  1.00  0.00     0.041 C 
ATOM     16  O   UNL     1    -101.253 -51.674 -12.428  1.00  0.00    -0.550 OA
ATOM     17  O   UNL     1    -102.243 -50.684 -14.240  1.00  0.00    -0.550 OA
ENDBRANCH  14  15
ENDBRANCH  13  14
ENDBRANCH  12  13
ENDBRANCH  11  12
ENDBRANCH  10  11
ENDBRANCH   9  10
ENDBRANCH   8   9
ENDBRANCH   7   8
ENDBRANCH   6   7
ENDBRANCH   5   6
ENDBRANCH   4   5
ENDBRANCH   3   4
ENDBRANCH   2   3
ENDBRANCH   1   2
BRANCH   1  18
ATOM     18  C   UNL     1     -98.642 -43.331 -11.915  1.00  0.00     0.000 C 
BRANCH  18  19
ATOM     19  C   UNL     1     -97.435 -43.210 -10.967  1.00  0.00     0.000 C 
BRANCH  19  20
ATOM     20  C   UNL     1     -97.861 -42.899  -9.523  1.00  0.00     0.000 C 
BRANCH  20  21
ATOM     21  C   UNL     1     -97.317 -43.919  -8.506  1.00  0.00     0.000 C 
BRANCH  21  22
ATOM     22  C   UNL     1     -95.931 -44.454  -8.910  1.00  0.00     0.000 C 
BRANCH  22  23
ATOM     23  C   UNL     1     -95.685 -45.877  -8.374  1.00  0.00     0.000 C 
BRANCH  23  24
ATOM     24  C   UNL     1     -95.141 -46.835  -9.453  1.00  0.00    -0.000 C 
BRANCH  24  25
ATOM     25  C   UNL     1     -94.356 -46.134 -10.579  1.00  0.00    -0.000 C 
BRANCH  25  26
ATOM     26  C   UNL     1     -94.303 -46.896 -11.914  1.00  0.00    -0.000 C 
BRANCH  26  27
ATOM     27  C   UNL     1     -93.270 -48.037 -11.901  1.00  0.00    -0.000 C 
BRANCH  27  28
ATOM     28  C   UNL     1     -93.807 -49.347 -12.509  1.00  0.00    -0.000 C 
BRANCH  28  29
ATOM     29  C   UNL     1     -94.798 -50.127 -11.624  1.00  0.00    -0.000 C 
BRANCH  29  30
ATOM     30  C   UNL     1     -96.264 -49.918 -12.028  1.00  0.00    -0.000 C 
BRANCH  30  31
ATOM     31  C   UNL     1     -97.212 -50.596 -11.031  1.00  0.00    -0.003 C 
ATOM     32  C   UNL     1     -96.952 -50.111  -9.608  1.00  0.00     0.004 C 
ENDBRANCH  30  31
ENDBRANCH  29  30
ENDBRANCH  28  29
ENDBRANCH  27  28
ENDBRANCH  26  27
ENDBRANCH  25  26
ENDBRANCH  24  25
ENDBRANCH  23  24
ENDBRANCH  22  23
ENDBRANCH  21  22
ENDBRANCH  20  21
ENDBRANCH  19  20
ENDBRANCH  18  19
ENDBRANCH   1  18
TORSDOF 28
ENDMDL
MODEL 3
REMARK VINA RESULT:    -2.747      2.743      6.673
REMARK INTER + INTRA:         -13.565
REMARK INTER:                  -7.244
REMARK INTRA:                  -6.322
REMARK UNBOUND:                -6.322
REMARK SMILES CCCCCCCCCCCCCCCCCCCCCCCCCCCCCC(=O)[O-]
REMARK SMILES IDX 16 1 17 2 18 3 19 4 20 5 21 6 22 7 23 8 24 9 25 10 26 11
REMARK SMILES IDX 27 12 28 13 29 14 30 15 31 16 32 17 15 18 14 19 13 20 12 21
REMARK SMILES IDX 11 22 10 23 9 24 8 25 7 26 6 27 5 28 4 29 3 30 2 31 1 32
REMARK H PARENT
REMARK Flexibility Score: inf
ROOT
ATOM      1  C   UNL     1     -98.962 -44.785 -12.389  1.00  0.00     0.000 C 
ENDROOT
BRANCH   1   2
ATOM      2  C   UNL     1     -99.895 -43.648 -11.943  1.00  0.00     0.000 C 
BRANCH   2   3
ATOM      3  C   UNL     1    -100.866 -44.125 -10.852  1.00  0.00     0.000 C 
BRANCH   3   4
ATOM      4  C   UNL     1    -100.833 -45.648 -10.634  1.00  0.00     0.000 C 
BRANCH   4   5
ATOM      5  C   UNL     1    -100.832 -46.092  -9.159  1.00  0.00     0.000 C 
BRANCH   5   6
ATOM      6  C   UNL     1     -99.962 -47.339  -8.907  1.00  0.00     0.000 C 
BRANCH   6   7
ATOM      7  C   UNL     1     -99.117 -47.719 -10.142  1.00  0.00     0.000 C 
BRANCH   7   8
ATOM      8  C   UNL     1     -99.078 -49.232 -10.435  1.00  0.00     0.000 C 
BRANCH   8   9
ATOM      9  C   UNL     1     -98.706 -49.579 -11.891  1.00  0.00     0.000 C 
BRANCH   9  10
ATOM     10  C   UNL     1     -98.860 -48.377 -12.838  1.00  0.00     0.000 C 
BRANCH  10  11
ATOM     11  C   UNL     1    -100.052 -48.517 -13.801  1.00  0.00     0.000 C 
BRANCH  11  12
ATOM     12  C   UNL     1    -101.152 -47.451 -13.643  1.00  0.00     0.000 C 
BRANCH  12  13
ATOM     13  C   UNL     1    -102.451 -48.011 -13.037  1.00  0.00     0.006 C 
BRANCH  13  14
ATOM     14  C   UNL     1    -103.687 -47.217 -13.484  1.00  0.00     0.053 C 
BRANCH  14  15
ATOM     15  C   UNL     1    -104.310 -47.792 -14.722  1.00  0.00     0.041 C 
ATOM     16  O   UNL     1    -104.954 -47.051 -15.513  1.00  0.00    -0.550 OA
ATOM     17  O   UNL     1    -104.197 -49.149 -14.991  1.00  0.00    -0.550 OA
ENDBRANCH  14  15
ENDBRANCH  13  14
ENDBRANCH  12  13
ENDBRANCH  11  12
ENDBRANCH  10  11
ENDBRANCH   9  10
ENDBRANCH   8   9
ENDBRANCH   7   8
ENDBRANCH   6   7
ENDBRANCH   5   6
ENDBRANCH   4   5
ENDBRANCH   3   4
ENDBRANCH   2   3
ENDBRANCH   1   2
BRANCH   1  18
ATOM     18  C   UNL     1     -97.559 -44.692 -11.760  1.00  0.00     0.000 C 
BRANCH  18  19
ATOM     19  C   UNL     1     -97.248 -43.294 -11.194  1.00  0.00     0.000 C 
BRANCH  19  20
ATOM     20  C   UNL     1     -96.910 -43.337  -9.694  1.00  0.00     0.000 C 
BRANCH  20  21
ATOM     21  C   UNL     1     -97.431 -44.609  -9.001  1.00  0.00     0.000 C 
BRANCH  21  22
ATOM     22  C   UNL     1     -96.324 -45.331  -8.212  1.00  0.00     0.000 C 
BRANCH  22  23
ATOM     23  C   UNL     1     -95.728 -46.510  -9.003  1.00  0.00     0.000 C 
BRANCH  23  24
ATOM     24  C   UNL     1     -94.402 -46.150  -9.703  1.00  0.00    -0.000 C 
BRANCH  24  25
ATOM     25  C   UNL     1     -94.264 -46.725 -11.126  1.00  0.00    -0.000 C 
BRANCH  25  26
ATOM     26  C   UNL     1     -95.514 -47.439 -11.669  1.00  0.00    -0.000 C 
BRANCH  26  27
ATOM     27  C   UNL     1     -95.166 -48.569 -12.653  1.00  0.00    -0.000 C 
BRANCH  27  28
ATOM     28  C   UNL     1     -93.804 -49.228 -12.363  1.00  0.00    -0.000 C 
BRANCH  28  29
ATOM     29  C   UNL     1     -93.844 -50.419 -11.385  1.00  0.00    -0.000 C 
BRANCH  29  30
ATOM     30  C   UNL     1     -95.198 -51.142 -11.367  1.00  0.00    -0.000 C 
BRANCH  30  31
ATOM     31  C   UNL     1     -95.847 -51.060  -9.979  1.00  0.00    -0.003 C 
ATOM     32  C   UNL     1     -95.025 -50.182  -9.039  1.00  0.00     0.004 C 
ENDBRANCH  30  31
ENDBRANCH  29  30
ENDBRANCH  28  29
ENDBRANCH  27  28
ENDBRANCH  26  27
ENDBRANCH  25  26
ENDBRANCH  24  25
ENDBRANCH  23  24
ENDBRANCH  22  23
ENDBRANCH  21  22
ENDBRANCH  20  21
ENDBRANCH  19  20
ENDBRANCH  18  19
ENDBRANCH   1  18
TORSDOF 28
ENDMDL
MODEL 4
REMARK VINA RESULT:    -2.741      2.273      6.428
REMARK INTER + INTRA:         -13.549
REMARK INTER:                  -7.836
REMARK INTRA:                  -5.713
REMARK UNBOUND:                -6.322
REMARK SMILES CCCCCCCCCCCCCCCCCCCCCCCCCCCCCC(=O)[O-]
REMARK SMILES IDX 16 1 17 2 18 3 19 4 20 5 21 6 22 7 23 8 24 9 25 10 26 11
REMARK SMILES IDX 27 12 28 13 29 14 30 15 31 16 32 17 15 18 14 19 13 20 12 21
REMARK SMILES IDX 11 22 10 23 9 24 8 25 7 26 6 27 5 28 4 29 3 30 2 31 1 32
REMARK H PARENT
REMARK Flexibility Score: inf
ROOT
ATOM      1  C   UNL     1     -97.369 -43.458 -11.568  1.00  0.00     0.000 C 
ENDROOT
BRANCH   1   2
ATOM      2  C   UNL     1     -98.860 -43.247 -11.881  1.00  0.00     0.000 C 
BRANCH   2   3
ATOM      3  C   UNL     1     -99.515 -44.553 -12.355  1.00  0.00     0.000 C 
BRANCH   3   4
ATOM      4  C   UNL     1     -98.556 -45.757 -12.334  1.00  0.00     0.000 C 
BRANCH   4   5
ATOM      5  C   UNL     1     -98.968 -46.898 -11.384  1.00  0.00     0.000 C 
BRANCH   5   6
ATOM      6  C   UNL     1     -99.989 -46.454 -10.318  1.00  0.00     0.000 C 
BRANCH   6   7
ATOM      7  C   UNL     1    -100.478 -47.634  -9.452  1.00  0.00     0.000 C 
BRANCH   7   8
ATOM      8  C   UNL     1     -99.701 -48.945  -9.680  1.00  0.00     0.000 C 
BRANCH   8   9
ATOM      9  C   UNL     1    -100.546 -50.075 -10.302  1.00  0.00     0.000 C 
BRANCH   9  10
ATOM     10  C   UNL     1    -100.000 -50.532 -11.666  1.00  0.00     0.000 C 
BRANCH  10  11
ATOM     11  C   UNL     1    -100.611 -49.762 -12.849  1.00  0.00     0.000 C 
BRANCH  11  12
ATOM     12  C   UNL     1    -102.107 -49.424 -12.709  1.00  0.00     0.000 C 
BRANCH  12  13
ATOM     13  C   UNL     1    -103.027 -50.523 -13.272  1.00  0.00     0.006 C 
BRANCH  13  14
ATOM     14  C   UNL     1    -102.326 -51.368 -14.347  1.00  0.00     0.053 C 
BRANCH  14  15
ATOM     15  C   UNL     1    -102.500 -52.839 -14.111  1.00  0.00     0.041 C 
ATOM     16  O   UNL     1    -103.654 -53.346 -14.073  1.00  0.00    -0.550 OA
ATOM     17  O   UNL     1    -101.390 -53.647 -13.911  1.00  0.00    -0.550 OA
ENDBRANCH  14  15
ENDBRANCH  13  14
ENDBRANCH  12  13
ENDBRANCH  11  12
ENDBRANCH  10  11
ENDBRANCH   9  10
ENDBRANCH   8   9
ENDBRANCH   7   8
ENDBRANCH   6   7
ENDBRANCH   5   6
ENDBRANCH   4   5
ENDBRANCH   3   4
ENDBRANCH   2   3
ENDBRANCH   1   2
BRANCH   1  18
ATOM     18  C   UNL     1     -96.994 -43.047 -10.132  1.00  0.00     0.000 C 
BRANCH  18  19
ATOM     19  C   UNL     1     -98.189 -43.097  -9.163  1.00  0.00     0.000 C 
BRANCH  19  20
ATOM     20  C   UNL     1     -98.142 -44.331  -8.247  1.00  0.00     0.000 C 
BRANCH  20  21
ATOM     21  C   UNL     1     -96.720 -44.896  -8.078  1.00  0.00     0.000 C 
BRANCH  21  22
ATOM     22  C   UNL     1     -96.618 -46.357  -8.551  1.00  0.00     0.000 C 
BRANCH  22  23
ATOM     23  C   UNL     1     -95.157 -46.838  -8.621  1.00  0.00     0.000 C 
BRANCH  23  24
ATOM     24  C   UNL     1     -94.382 -46.221  -9.803  1.00  0.00    -0.000 C 
BRANCH  24  25
ATOM     25  C   UNL     1     -95.197 -46.119 -11.107  1.00  0.00    -0.000 C 
BRANCH  25  26
ATOM     26  C   UNL     1     -94.407 -46.392 -12.398  1.00  0.00    -0.000 C 
BRANCH  26  27
ATOM     27  C   UNL     1     -93.340 -47.486 -12.216  1.00  0.00    -0.000 C 
BRANCH  27  28
ATOM     28  C   UNL     1     -93.912 -48.913 -12.323  1.00  0.00    -0.000 C 
BRANCH  28  29
ATOM     29  C   UNL     1     -95.364 -49.003 -12.833  1.00  0.00    -0.000 C 
BRANCH  29  30
ATOM     30  C   UNL     1     -96.348 -49.517 -11.772  1.00  0.00    -0.000 C 
BRANCH  30  31
ATOM     31  C   UNL     1     -95.601 -50.088 -10.560  1.00  0.00    -0.003 C 
ATOM     32  C   UNL     1     -96.553 -50.338  -9.395  1.00  0.00     0.004 C 
ENDBRANCH  30  31
ENDBRANCH  29  30
ENDBRANCH  28  29
ENDBRANCH  27  28
ENDBRANCH  26  27
ENDBRANCH  25  26
ENDBRANCH  24  25
ENDBRANCH  23  24
ENDBRANCH  22  23
ENDBRANCH  21  22
ENDBRANCH  20  21
ENDBRANCH  19  20
ENDBRANCH  18  19
ENDBRANCH   1  18
TORSDOF 28
ENDMDL
MODEL 5
REMARK VINA RESULT:    -2.732      2.003      6.194
REMARK INTER + INTRA:         -13.526
REMARK INTER:                  -6.830
REMARK INTRA:                  -6.696
REMARK UNBOUND:                -6.322
REMARK SMILES CCCCCCCCCCCCCCCCCCCCCCCCCCCCCC(=O)[O-]
REMARK SMILES IDX 16 1 17 2 18 3 19 4 20 5 21 6 22 7 23 8 24 9 25 10 26 11
REMARK SMILES IDX 27 12 28 13 29 14 30 15 31 16 32 17 15 18 14 19 13 20 12 21
REMARK SMILES IDX 11 22 10 23 9 24 8 25 7 26 6 27 5 28 4 29 3 30 2 31 1 32
REMARK H PARENT
REMARK Flexibility Score: inf
ROOT
ATOM      1  C   UNL     1     -98.858 -44.807 -12.373  1.00  0.00     0.000 C 
ENDROOT
BRANCH   1   2
ATOM      2  C   UNL     1     -99.899 -43.753 -11.962  1.00  0.00     0.000 C 
BRANCH   2   3
ATOM      3  C   UNL     1    -100.917 -44.338 -10.970  1.00  0.00     0.000 C 
BRANCH   3   4
ATOM      4  C   UNL     1    -100.717 -45.842 -10.712  1.00  0.00     0.000 C 
BRANCH   4   5
ATOM      5  C   UNL     1    -100.676 -46.245  -9.226  1.00  0.00     0.000 C 
BRANCH   5   6
ATOM      6  C   UNL     1     -99.708 -47.411  -8.946  1.00  0.00     0.000 C 
BRANCH   6   7
ATOM      7  C   UNL     1     -98.865 -47.779 -10.185  1.00  0.00     0.000 C 
BRANCH   7   8
ATOM      8  C   UNL     1     -98.816 -49.290 -10.486  1.00  0.00     0.000 C 
BRANCH   8   9
ATOM      9  C   UNL     1     -98.745 -49.628 -11.989  1.00  0.00     0.000 C 
BRANCH   9  10
ATOM     10  C   UNL     1     -98.883 -48.380 -12.878  1.00  0.00     0.000 C 
BRANCH  10  11
ATOM     11  C   UNL     1    -100.108 -48.434 -13.807  1.00  0.00     0.000 C 
BRANCH  11  12
ATOM     12  C   UNL     1    -101.220 -49.406 -13.370  1.00  0.00     0.000 C 
BRANCH  12  13
ATOM     13  C   UNL     1    -102.229 -48.769 -12.399  1.00  0.00     0.006 C 
BRANCH  13  14
ATOM     14  C   UNL     1    -103.063 -49.824 -11.658  1.00  0.00     0.053 C 
BRANCH  14  15
ATOM     15  C   UNL     1    -102.308 -50.442 -10.518  1.00  0.00     0.041 C 
ATOM     16  O   UNL     1    -101.758 -51.569 -10.656  1.00  0.00    -0.550 OA
ATOM     17  O   UNL     1    -102.227 -49.785  -9.299  1.00  0.00    -0.550 OA
ENDBRANCH  14  15
ENDBRANCH  13  14
ENDBRANCH  12  13
ENDBRANCH  11  12
ENDBRANCH  10  11
ENDBRANCH   9  10
ENDBRANCH   8   9
ENDBRANCH   7   8
ENDBRANCH   6   7
ENDBRANCH   5   6
ENDBRANCH   4   5
ENDBRANCH   3   4
ENDBRANCH   2   3
ENDBRANCH   1   2
BRANCH   1  18
ATOM     18  C   UNL     1     -97.505 -44.621 -11.663  1.00  0.00     0.000 C 
BRANCH  18  19
ATOM     19  C   UNL     1     -97.370 -43.247 -10.980  1.00  0.00     0.000 C 
BRANCH  19  20
ATOM     20  C   UNL     1     -96.822 -43.363  -9.548  1.00  0.00     0.000 C 
BRANCH  20  21
ATOM     21  C   UNL     1     -97.317 -44.625  -8.819  1.00  0.00     0.000 C 
BRANCH  21  22
ATOM     22  C   UNL     1     -96.162 -45.404  -8.162  1.00  0.00     0.000 C 
BRANCH  22  23
ATOM     23  C   UNL     1     -95.663 -46.555  -9.055  1.00  0.00     0.000 C 
BRANCH  23  24
ATOM     24  C   UNL     1     -94.335 -46.226  -9.766  1.00  0.00    -0.000 C 
BRANCH  24  25
ATOM     25  C   UNL     1     -94.296 -46.640 -11.250  1.00  0.00    -0.000 C 
BRANCH  25  26
ATOM     26  C   UNL     1     -95.519 -47.430 -11.744  1.00  0.00    -0.000 C 
BRANCH  26  27
ATOM     27  C   UNL     1     -95.147 -48.511 -12.774  1.00  0.00    -0.000 C 
BRANCH  27  28
ATOM     28  C   UNL     1     -93.794 -49.188 -12.480  1.00  0.00    -0.000 C 
BRANCH  28  29
ATOM     29  C   UNL     1     -93.870 -50.466 -11.622  1.00  0.00    -0.000 C 
BRANCH  29  30
ATOM     30  C   UNL     1     -95.217 -51.194 -11.739  1.00  0.00    -0.000 C 
BRANCH  30  31
ATOM     31  C   UNL     1     -95.854 -51.398 -10.359  1.00  0.00    -0.003 C 
ATOM     32  C   UNL     1     -95.377 -50.337  -9.371  1.00  0.00     0.004 C 
ENDBRANCH  30  31
ENDBRANCH  29  30
ENDBRANCH  28  29
ENDBRANCH  27  28
ENDBRANCH  26  27
ENDBRANCH  25  26
ENDBRANCH  24  25
ENDBRANCH  23  24
ENDBRANCH  22  23
ENDBRANCH  21  22
ENDBRANCH  20  21
ENDBRANCH  19  20
ENDBRANCH  18  19
ENDBRANCH   1  18
TORSDOF 28
ENDMDL
MODEL 6
REMARK VINA RESULT:    -2.683      3.499      7.714
REMARK INTER + INTRA:         -13.397
REMARK INTER:                  -7.857
REMARK INTRA:                  -5.540
REMARK UNBOUND:                -6.322
REMARK SMILES CCCCCCCCCCCCCCCCCCCCCCCCCCCCCC(=O)[O-]
REMARK SMILES IDX 16 1 17 2 18 3 19 4 20 5 21 6 22 7 23 8 24 9 25 10 26 11
REMARK SMILES IDX 27 12 28 13 29 14 30 15 31 16 32 17 15 18 14 19 13 20 12 21
REMARK SMILES IDX 11 22 10 23 9 24 8 25 7 26 6 27 5 28 4 29 3 30 2 31 1 32
REMARK H PARENT
REMARK Flexibility Score: inf
ROOT
ATOM      1  C   UNL     1     -98.784 -47.735  -9.996  1.00  0.00     0.000 C 
ENDROOT
BRANCH   1   2
ATOM      2  C   UNL     1     -97.930 -48.818 -10.675  1.00  0.00     0.000 C 
BRANCH   2   3
ATOM      3  C   UNL     1     -98.653 -49.410 -11.894  1.00  0.00     0.000 C 
BRANCH   3   4
ATOM      4  C   UNL     1     -98.868 -48.389 -13.027  1.00  0.00     0.000 C 
BRANCH   4   5
ATOM      5  C   UNL     1    -100.307 -48.321 -13.573  1.00  0.00     0.000 C 
BRANCH   5   6
ATOM      6  C   UNL     1    -101.369 -48.690 -12.519  1.00  0.00     0.000 C 
BRANCH   6   7
ATOM      7  C   UNL     1    -102.765 -48.140 -12.879  1.00  0.00     0.000 C 
BRANCH   7   8
ATOM      8  C   UNL     1    -103.356 -48.725 -14.176  1.00  0.00     0.000 C 
BRANCH   8   9
ATOM      9  C   UNL     1    -104.030 -47.679 -15.086  1.00  0.00     0.000 C 
BRANCH   9  10
ATOM     10  C   UNL     1    -103.309 -46.320 -15.052  1.00  0.00     0.000 C 
BRANCH  10  11
ATOM     11  C   UNL     1    -103.409 -45.552 -16.381  1.00  0.00     0.000 C 
BRANCH  11  12
ATOM     12  C   UNL     1    -104.412 -46.127 -17.398  1.00  0.00     0.000 C 
BRANCH  12  13
ATOM     13  C   UNL     1    -103.754 -46.528 -18.731  1.00  0.00     0.006 C 
BRANCH  13  14
ATOM     14  C   UNL     1    -103.145 -45.321 -19.460  1.00  0.00     0.053 C 
BRANCH  14  15
ATOM     15  C   UNL     1    -101.653 -45.427 -19.578  1.00  0.00     0.041 C 
ATOM     16  O   UNL     1    -100.926 -44.415 -19.388  1.00  0.00    -0.550 OA
ATOM     17  O   UNL     1    -101.067 -46.638 -19.918  1.00  0.00    -0.550 OA
ENDBRANCH  14  15
ENDBRANCH  13  14
ENDBRANCH  12  13
ENDBRANCH  11  12
ENDBRANCH  10  11
ENDBRANCH   9  10
ENDBRANCH   8   9
ENDBRANCH   7   8
ENDBRANCH   6   7
ENDBRANCH   5   6
ENDBRANCH   4   5
ENDBRANCH   3   4
ENDBRANCH   2   3
ENDBRANCH   1   2
BRANCH   1  18
ATOM     18  C   UNL     1     -98.148 -47.191  -8.703  1.00  0.00     0.000 C 
BRANCH  18  19
ATOM     19  C   UNL     1     -98.150 -45.653  -8.634  1.00  0.00     0.000 C 
BRANCH  19  20
ATOM     20  C   UNL     1     -96.757 -45.085  -8.316  1.00  0.00     0.000 C 
BRANCH  20  21
ATOM     21  C   UNL     1     -95.647 -46.149  -8.384  1.00  0.00     0.000 C 
BRANCH  21  22
ATOM     22  C   UNL     1     -94.659 -45.881  -9.533  1.00  0.00     0.000 C 
BRANCH  22  23
ATOM     23  C   UNL     1     -94.969 -46.744 -10.771  1.00  0.00     0.000 C 
BRANCH  23  24
ATOM     24  C   UNL     1     -95.370 -45.902 -11.999  1.00  0.00    -0.000 C 
BRANCH  24  25
ATOM     25  C   UNL     1     -96.859 -45.505 -12.031  1.00  0.00    -0.000 C 
BRANCH  25  26
ATOM     26  C   UNL     1     -97.140 -43.998 -11.899  1.00  0.00    -0.000 C 
BRANCH  26  27
ATOM     27  C   UNL     1     -98.636 -43.664 -12.026  1.00  0.00    -0.000 C 
BRANCH  27  28
ATOM     28  C   UNL     1     -99.518 -44.908 -12.248  1.00  0.00    -0.000 C 
BRANCH  28  29
ATOM     29  C   UNL     1    -100.948 -44.620 -12.746  1.00  0.00    -0.000 C 
BRANCH  29  30
ATOM     30  C   UNL     1    -102.004 -44.700 -11.634  1.00  0.00    -0.000 C 
BRANCH  30  31
ATOM     31  C   UNL     1    -101.388 -45.213 -10.327  1.00  0.00    -0.003 C 
ATOM     32  C   UNL     1    -102.245 -46.316  -9.711  1.00  0.00     0.004 C 
ENDBRANCH  30  31
ENDBRANCH  29  30
ENDBRANCH  28  29
ENDBRANCH  27  28
ENDBRANCH  26  27
ENDBRANCH  25  26
ENDBRANCH  24  25
ENDBRANCH  23  24
ENDBRANCH  22  23
ENDBRANCH  21  22
ENDBRANCH  20  21
ENDBRANCH  19  20
ENDBRANCH  18  19
ENDBRANCH   1  18
TORSDOF 28
ENDMDL
MODEL 7
REMARK VINA RESULT:    -2.669      3.049      7.387
REMARK INTER + INTRA:         -13.360
REMARK INTER:                  -7.608
REMARK INTRA:                  -5.752
REMARK UNBOUND:                -6.322
REMARK SMILES CCCCCCCCCCCCCCCCCCCCCCCCCCCCCC(=O)[O-]
REMARK SMILES IDX 16 1 17 2 18 3 19 4 20 5 21 6 22 7 23 8 24 9 25 10 26 11
REMARK SMILES IDX 27 12 28 13 29 14 30 15 31 16 32 17 15 18 14 19 13 20 12 21
REMARK SMILES IDX 11 22 10 23 9 24 8 25 7 26 6 27 5 28 4 29 3 30 2 31 1 32
REMARK H PARENT
REMARK Flexibility Score: inf
ROOT
ATOM      1  C   UNL     1     -99.378 -44.914 -12.362  1.00  0.00     0.000 C 
ENDROOT
BRANCH   1   2
ATOM      2  C   UNL     1     -98.306 -46.016 -12.321  1.00  0.00     0.000 C 
BRANCH   2   3
ATOM      3  C   UNL     1     -98.700 -47.134 -11.345  1.00  0.00     0.000 C 
BRANCH   3   4
ATOM      4  C   UNL     1    -100.037 -46.872 -10.628  1.00  0.00     0.000 C 
BRANCH   4   5
ATOM      5  C   UNL     1    -100.890 -48.128 -10.366  1.00  0.00     0.000 C 
BRANCH   5   6
ATOM      6  C   UNL     1    -100.068 -49.431 -10.402  1.00  0.00     0.000 C 
BRANCH   6   7
ATOM      7  C   UNL     1    -100.523 -50.377 -11.534  1.00  0.00     0.000 C 
BRANCH   7   8
ATOM      8  C   UNL     1    -100.466 -49.747 -12.940  1.00  0.00     0.000 C 
BRANCH   8   9
ATOM      9  C   UNL     1    -101.769 -49.902 -13.750  1.00  0.00     0.000 C 
BRANCH   9  10
ATOM     10  C   UNL     1    -102.678 -48.667 -13.640  1.00  0.00     0.000 C 
BRANCH  10  11
ATOM     11  C   UNL     1    -101.916 -47.340 -13.806  1.00  0.00     0.000 C 
BRANCH  11  12
ATOM     12  C   UNL     1    -102.681 -46.083 -13.353  1.00  0.00     0.000 C 
BRANCH  12  13
ATOM     13  C   UNL     1    -102.976 -45.109 -14.507  1.00  0.00     0.006 C 
BRANCH  13  14
ATOM     14  C   UNL     1    -103.171 -45.840 -15.844  1.00  0.00     0.053 C 
BRANCH  14  15
ATOM     15  C   UNL     1    -104.610 -46.183 -16.094  1.00  0.00     0.041 C 
ATOM     16  O   UNL     1    -105.445 -45.276 -16.357  1.00  0.00    -0.550 OA
ATOM     17  O   UNL     1    -105.033 -47.503 -16.017  1.00  0.00    -0.550 OA
ENDBRANCH  14  15
ENDBRANCH  13  14
ENDBRANCH  12  13
ENDBRANCH  11  12
ENDBRANCH  10  11
ENDBRANCH   9  10
ENDBRANCH   8   9
ENDBRANCH   7   8
ENDBRANCH   6   7
ENDBRANCH   5   6
ENDBRANCH   4   5
ENDBRANCH   3   4
ENDBRANCH   2   3
ENDBRANCH   1   2
BRANCH   1  18
ATOM     18  C   UNL     1     -98.827 -43.527 -11.982  1.00  0.00     0.000 C 
BRANCH  18  19
ATOM     19  C   UNL     1     -97.319 -43.546 -11.670  1.00  0.00     0.000 C 
BRANCH  19  20
ATOM     20  C   UNL     1     -97.021 -43.132 -10.220  1.00  0.00     0.000 C 
BRANCH  20  21
ATOM     21  C   UNL     1     -98.027 -43.719  -9.213  1.00  0.00     0.000 C 
BRANCH  21  22
ATOM     22  C   UNL     1     -97.334 -44.573  -8.135  1.00  0.00     0.000 C 
BRANCH  22  23
ATOM     23  C   UNL     1     -96.752 -45.874  -8.719  1.00  0.00     0.000 C 
BRANCH  23  24
ATOM     24  C   UNL     1     -95.275 -46.093  -8.333  1.00  0.00    -0.000 C 
BRANCH  24  25
ATOM     25  C   UNL     1     -94.310 -46.142  -9.535  1.00  0.00    -0.000 C 
BRANCH  25  26
ATOM     26  C   UNL     1     -94.985 -46.228 -10.914  1.00  0.00    -0.000 C 
BRANCH  26  27
ATOM     27  C   UNL     1     -94.019 -46.703 -12.014  1.00  0.00    -0.000 C 
BRANCH  27  28
ATOM     28  C   UNL     1     -94.196 -48.191 -12.373  1.00  0.00    -0.000 C 
BRANCH  28  29
ATOM     29  C   UNL     1     -95.644 -48.714 -12.319  1.00  0.00    -0.000 C 
BRANCH  29  30
ATOM     30  C   UNL     1     -95.732 -50.236 -12.137  1.00  0.00    -0.000 C 
BRANCH  30  31
ATOM     31  C   UNL     1     -96.554 -50.595 -10.893  1.00  0.00    -0.003 C 
ATOM     32  C   UNL     1     -96.385 -49.545  -9.799  1.00  0.00     0.004 C 
ENDBRANCH  30  31
ENDBRANCH  29  30
ENDBRANCH  28  29
ENDBRANCH  27  28
ENDBRANCH  26  27
ENDBRANCH  25  26
ENDBRANCH  24  25
ENDBRANCH  23  24
ENDBRANCH  22  23
ENDBRANCH  21  22
ENDBRANCH  20  21
ENDBRANCH  19  20
ENDBRANCH  18  19
ENDBRANCH   1  18
TORSDOF 28
ENDMDL
MODEL 8
REMARK VINA RESULT:    -2.664      3.009      7.108
REMARK INTER + INTRA:         -13.346
REMARK INTER:                  -7.325
REMARK INTRA:                  -6.021
REMARK UNBOUND:                -6.322
REMARK SMILES CCCCCCCCCCCCCCCCCCCCCCCCCCCCCC(=O)[O-]
REMARK SMILES IDX 16 1 17 2 18 3 19 4 20 5 21 6 22 7 23 8 24 9 25 10 26 11
REMARK SMILES IDX 27 12 28 13 29 14 30 15 31 16 32 17 15 18 14 19 13 20 12 21
REMARK SMILES IDX 11 22 10 23 9 24 8 25 7 26 6 27 5 28 4 29 3 30 2 31 1 32
REMARK H PARENT
REMARK Flexibility Score: inf
ROOT
ATOM      1  C   UNL     1     -94.679 -48.152 -12.141  1.00  0.00     0.000 C 
ENDROOT
BRANCH   1   2
ATOM      2  C   UNL     1     -95.897 -48.898 -12.712  1.00  0.00     0.000 C 
BRANCH   2   3
ATOM      3  C   UNL     1     -96.217 -50.152 -11.883  1.00  0.00     0.000 C 
BRANCH   3   4
ATOM      4  C   UNL     1     -96.994 -49.844 -10.591  1.00  0.00     0.000 C 
BRANCH   4   5
ATOM      5  C   UNL     1     -98.225 -50.737 -10.346  1.00  0.00     0.000 C 
BRANCH   5   6
ATOM      6  C   UNL     1     -99.013 -51.042 -11.634  1.00  0.00     0.000 C 
BRANCH   6   7
ATOM      7  C   UNL     1    -100.016 -49.922 -11.983  1.00  0.00     0.000 C 
BRANCH   7   8
ATOM      8  C   UNL     1     -99.564 -49.011 -13.142  1.00  0.00     0.000 C 
BRANCH   8   9
ATOM      9  C   UNL     1    -100.727 -48.383 -13.936  1.00  0.00     0.000 C 
BRANCH   9  10
ATOM     10  C   UNL     1    -101.992 -48.201 -13.079  1.00  0.00     0.000 C 
BRANCH  10  11
ATOM     11  C   UNL     1    -102.549 -46.768 -13.123  1.00  0.00     0.000 C 
BRANCH  11  12
ATOM     12  C   UNL     1    -102.827 -46.216 -14.534  1.00  0.00     0.000 C 
BRANCH  12  13
ATOM     13  C   UNL     1    -103.920 -47.001 -15.282  1.00  0.00     0.006 C 
BRANCH  13  14
ATOM     14  C   UNL     1    -105.275 -46.936 -14.562  1.00  0.00     0.053 C 
BRANCH  14  15
ATOM     15  C   UNL     1    -105.885 -48.295 -14.383  1.00  0.00     0.041 C 
ATOM     16  O   UNL     1    -105.254 -49.201 -13.775  1.00  0.00    -0.550 OA
ATOM     17  O   UNL     1    -107.141 -48.567 -14.906  1.00  0.00    -0.550 OA
ENDBRANCH  14  15
ENDBRANCH  13  14
ENDBRANCH  12  13
ENDBRANCH  11  12
ENDBRANCH  10  11
ENDBRANCH   9  10
ENDBRANCH   8   9
ENDBRANCH   7   8
ENDBRANCH   6   7
ENDBRANCH   5   6
ENDBRANCH   4   5
ENDBRANCH   3   4
ENDBRANCH   2   3
ENDBRANCH   1   2
BRANCH   1  18
ATOM     18  C   UNL     1     -94.923 -46.641 -11.978  1.00  0.00     0.000 C 
BRANCH  18  19
ATOM     19  C   UNL     1     -94.578 -46.127 -10.569  1.00  0.00     0.000 C 
BRANCH  19  20
ATOM     20  C   UNL     1     -95.059 -47.085  -9.467  1.00  0.00     0.000 C 
BRANCH  20  21
ATOM     21  C   UNL     1     -95.819 -46.366  -8.339  1.00  0.00     0.000 C 
BRANCH  21  22
ATOM     22  C   UNL     1     -95.954 -44.855  -8.604  1.00  0.00     0.000 C 
BRANCH  22  23
ATOM     23  C   UNL     1     -97.349 -44.327  -8.223  1.00  0.00     0.000 C 
BRANCH  23  24
ATOM     24  C   UNL     1     -97.893 -43.295  -9.232  1.00  0.00    -0.000 C 
BRANCH  24  25
ATOM     25  C   UNL     1     -96.913 -42.951 -10.370  1.00  0.00    -0.000 C 
BRANCH  25  26
ATOM     26  C   UNL     1     -97.272 -43.538 -11.745  1.00  0.00    -0.000 C 
BRANCH  26  27
ATOM     27  C   UNL     1     -98.792 -43.626 -11.970  1.00  0.00    -0.000 C 
BRANCH  27  28
ATOM     28  C   UNL     1     -99.270 -45.044 -12.337  1.00  0.00    -0.000 C 
BRANCH  28  29
ATOM     29  C   UNL     1     -98.376 -46.192 -11.828  1.00  0.00    -0.000 C 
BRANCH  29  30
ATOM     30  C   UNL     1     -98.799 -46.725 -10.453  1.00  0.00    -0.000 C 
BRANCH  30  31
ATOM     31  C   UNL     1    -100.308 -46.555 -10.237  1.00  0.00    -0.003 C 
ATOM     32  C   UNL     1    -100.600 -45.889  -8.896  1.00  0.00     0.004 C 
ENDBRANCH  30  31
ENDBRANCH  29  30
ENDBRANCH  28  29
ENDBRANCH  27  28
ENDBRANCH  26  27
ENDBRANCH  25  26
ENDBRANCH  24  25
ENDBRANCH  23  24
ENDBRANCH  22  23
ENDBRANCH  21  22
ENDBRANCH  20  21
ENDBRANCH  19  20
ENDBRANCH  18  19
ENDBRANCH   1  18
TORSDOF 28
ENDMDL
MODEL 9
REMARK VINA RESULT:    -2.611      2.927      6.882
REMARK INTER + INTRA:         -13.207
REMARK INTER:                  -6.912
REMARK INTRA:                  -6.296
REMARK UNBOUND:                -6.322
REMARK SMILES CCCCCCCCCCCCCCCCCCCCCCCCCCCCCC(=O)[O-]
REMARK SMILES IDX 16 1 17 2 18 3 19 4 20 5 21 6 22 7 23 8 24 9 25 10 26 11
REMARK SMILES IDX 27 12 28 13 29 14 30 15 31 16 32 17 15 18 14 19 13 20 12 21
REMARK SMILES IDX 11 22 10 23 9 24 8 25 7 26 6 27 5 28 4 29 3 30 2 31 1 32
REMARK H PARENT
REMARK Flexibility Score: inf
ROOT
ATOM      1  C   UNL     1    -101.233 -43.744 -11.229  1.00  0.00     0.000 C 
ENDROOT
BRANCH   1   2
ATOM      2  C   UNL     1    -101.588 -45.101 -10.600  1.00  0.00     0.000 C 
BRANCH   2   3
ATOM      3  C   UNL     1    -101.168 -45.153  -9.123  1.00  0.00     0.000 C 
BRANCH   3   4
ATOM      4  C   UNL     1    -100.067 -46.191  -8.841  1.00  0.00     0.000 C 
BRANCH   4   5
ATOM      5  C   UNL     1     -99.800 -47.182  -9.990  1.00  0.00     0.000 C 
BRANCH   5   6
ATOM      6  C   UNL     1     -98.334 -47.173 -10.464  1.00  0.00     0.000 C 
BRANCH   6   7
ATOM      7  C   UNL     1     -98.218 -47.013 -11.995  1.00  0.00     0.000 C 
BRANCH   7   8
ATOM      8  C   UNL     1     -99.549 -47.198 -12.749  1.00  0.00     0.000 C 
BRANCH   8   9
ATOM      9  C   UNL     1     -99.632 -48.504 -13.564  1.00  0.00     0.000 C 
BRANCH   9  10
ATOM     10  C   UNL     1    -100.758 -49.431 -13.073  1.00  0.00     0.000 C 
BRANCH  10  11
ATOM     11  C   UNL     1    -102.061 -49.273 -13.875  1.00  0.00     0.000 C 
BRANCH  11  12
ATOM     12  C   UNL     1    -103.227 -48.618 -13.110  1.00  0.00     0.000 C 
BRANCH  12  13
ATOM     13  C   UNL     1    -103.225 -47.082 -13.211  1.00  0.00     0.006 C 
BRANCH  13  14
ATOM     14  C   UNL     1    -102.865 -46.596 -14.624  1.00  0.00     0.053 C 
BRANCH  14  15
ATOM     15  C   UNL     1    -104.074 -46.470 -15.502  1.00  0.00     0.041 C 
ATOM     16  O   UNL     1    -105.231 -46.494 -15.001  1.00  0.00    -0.550 OA
ATOM     17  O   UNL     1    -103.926 -46.348 -16.877  1.00  0.00    -0.550 OA
ENDBRANCH  14  15
ENDBRANCH  13  14
ENDBRANCH  12  13
ENDBRANCH  11  12
ENDBRANCH  10  11
ENDBRANCH   9  10
ENDBRANCH   8   9
ENDBRANCH   7   8
ENDBRANCH   6   7
ENDBRANCH   5   6
ENDBRANCH   4   5
ENDBRANCH   3   4
ENDBRANCH   2   3
ENDBRANCH   1   2
BRANCH   1  18
ATOM     18  C   UNL     1    -100.111 -43.845 -12.279  1.00  0.00     0.000 C 
BRANCH  18  19
ATOM     19  C   UNL     1     -98.931 -42.900 -11.989  1.00  0.00     0.000 C 
BRANCH  19  20
ATOM     20  C   UNL     1     -97.879 -43.550 -11.074  1.00  0.00     0.000 C 
BRANCH  20  21
ATOM     21  C   UNL     1     -97.923 -43.008  -9.634  1.00  0.00     0.000 C 
BRANCH  21  22
ATOM     22  C   UNL     1     -97.308 -43.996  -8.626  1.00  0.00     0.000 C 
BRANCH  22  23
ATOM     23  C   UNL     1     -95.861 -44.370  -8.997  1.00  0.00     0.000 C 
BRANCH  23  24
ATOM     24  C   UNL     1     -95.547 -45.859  -8.746  1.00  0.00    -0.000 C 
BRANCH  24  25
ATOM     25  C   UNL     1     -94.703 -46.520  -9.853  1.00  0.00    -0.000 C 
BRANCH  25  26
ATOM     26  C   UNL     1     -94.871 -45.913 -11.257  1.00  0.00    -0.000 C 
BRANCH  26  27
ATOM     27  C   UNL     1     -94.568 -46.925 -12.376  1.00  0.00    -0.000 C 
BRANCH  27  28
ATOM     28  C   UNL     1     -94.406 -48.368 -11.861  1.00  0.00    -0.000 C 
BRANCH  28  29
ATOM     29  C   UNL     1     -95.499 -49.355 -12.314  1.00  0.00    -0.000 C 
BRANCH  29  30
ATOM     30  C   UNL     1     -96.139 -50.125 -11.151  1.00  0.00    -0.000 C 
BRANCH  30  31
ATOM     31  C   UNL     1     -97.421 -50.838 -11.601  1.00  0.00    -0.003 C 
ATOM     32  C   UNL     1     -98.467 -50.845 -10.490  1.00  0.00     0.004 C 
ENDBRANCH  30  31
ENDBRANCH  29  30
ENDBRANCH  28  29
ENDBRANCH  27  28
ENDBRANCH  26  27
ENDBRANCH  25  26
ENDBRANCH  24  25
ENDBRANCH  23  24
ENDBRANCH  22  23
ENDBRANCH  21  22
ENDBRANCH  20  21
ENDBRANCH  19  20
ENDBRANCH  18  19
ENDBRANCH   1  18
TORSDOF 28
ENDMDL
