MODEL 1
REMARK VINA RESULT:    -4.361      0.000      0.000
REMARK INTER + INTRA:          -7.082
REMARK INTER:                  -6.400
REMARK INTRA:                  -0.681
REMARK UNBOUND:                -0.681
REMARK SMILES O=C([O-])CCCCCCCC(=O)[O-]
REMARK SMILES IDX 7 1 6 2 5 3 4 4 2 5 1 6 3 7 8 8 9 9 10 10 11 11 12 12 13 13
REMARK H PARENT
REMARK Flexibility Score: inf
ROOT
ATOM      1  C   UNL     1      62.728  28.994  13.380  1.00  0.00     0.000 C 
ENDROOT
BRANCH   1   2
ATOM      2  C   UNL     1      61.233  29.118  13.050  1.00  0.00     0.000 C 
BRANCH   2   3
ATOM      3  C   UNL     1      60.961  30.086  11.888  1.00  0.00     0.006 C 
BRANCH   3   4
ATOM      4  C   UNL     1      60.582  29.360  10.590  1.00  0.00     0.053 C 
BRANCH   4   5
ATOM      5  C   UNL     1      61.792  29.153   9.736  1.00  0.00     0.041 C 
ATOM      6  O   UNL     1      61.859  28.163   8.960  1.00  0.00    -0.550 OA
ATOM      7  O   UNL     1      62.869  30.025   9.832  1.00  0.00    -0.550 OA
ENDBRANCH   4   5
ENDBRANCH   3   4
ENDBRANCH   2   3
ENDBRANCH   1   2
BRANCH   1   8
ATOM      8  C   UNL     1      63.256  30.283  14.027  1.00  0.00     0.000 C 
BRANCH   8   9
ATOM      9  C   UNL     1      62.457  30.695  15.277  1.00  0.00     0.006 C 
BRANCH   9  10
ATOM     10  C   UNL     1      62.241  32.210  15.419  1.00  0.00     0.053 C 
BRANCH  10  11
ATOM     11  C   UNL     1      61.214  32.723  14.458  1.00  0.00     0.041 C 
ATOM     12  O   UNL     1      60.021  32.323  14.531  1.00  0.00    -0.550 OA
ATOM     13  O   UNL     1      61.579  33.618  13.461  1.00  0.00    -0.550 OA
ENDBRANCH  10  11
ENDBRANCH   9  10
ENDBRANCH   8   9
ENDBRANCH   1   8
TORSDOF 8
ENDMDL
MODEL 2
REMARK VINA RESULT:    -4.337      1.455      2.340
REMARK INTER + INTRA:          -7.047
REMARK INTER:                  -6.390
REMARK INTRA:                  -0.657
REMARK UNBOUND:                -0.681
REMARK SMILES O=C([O-])CCCCCCCC(=O)[O-]
REMARK SMILES IDX 7 1 6 2 5 3 4 4 2 5 1 6 3 7 8 8 9 9 10 10 11 11 12 12 13 13
REMARK H PARENT
REMARK Flexibility Score: inf
ROOT
ATOM      1  C   UNL     1      64.132  29.845  12.977  1.00  0.00     0.000 C 
ENDROOT
BRANCH   1   2
ATOM      2  C   UNL     1      64.363  30.415  11.569  1.00  0.00     0.000 C 
BRANCH   2   3
ATOM      3  C   UNL     1      63.973  29.426  10.459  1.00  0.00     0.006 C 
BRANCH   3   4
ATOM      4  C   UNL     1      63.039  30.049   9.413  1.00  0.00     0.053 C 
BRANCH   4   5
ATOM      5  C   UNL     1      61.734  29.319   9.378  1.00  0.00     0.041 C 
ATOM      6  O   UNL     1      61.714  28.064   9.265  1.00  0.00    -0.550 OA
ATOM      7  O   UNL     1      60.540  30.026   9.417  1.00  0.00    -0.550 OA
ENDBRANCH   4   5
ENDBRANCH   3   4
ENDBRANCH   2   3
ENDBRANCH   1   2
BRANCH   1   8
ATOM      8  C   UNL     1      62.841  29.015  13.029  1.00  0.00     0.000 C 
BRANCH   8   9
ATOM      9  C   UNL     1      61.678  29.760  13.709  1.00  0.00     0.006 C 
BRANCH   9  10
ATOM     10  C   UNL     1      60.951  30.763  12.799  1.00  0.00     0.053 C 
BRANCH  10  11
ATOM     11  C   UNL     1      60.897  32.132  13.404  1.00  0.00     0.041 C 
ATOM     12  O   UNL     1      61.563  33.075  12.901  1.00  0.00    -0.550 OA
ATOM     13  O   UNL     1      60.137  32.358  14.544  1.00  0.00    -0.550 OA
ENDBRANCH  10  11
ENDBRANCH   9  10
ENDBRANCH   8   9
ENDBRANCH   1   8
TORSDOF 8
ENDMDL
MODEL 3
REMARK VINA RESULT:    -4.317      1.244      5.047
REMARK INTER + INTRA:          -7.017
REMARK INTER:                  -6.292
REMARK INTRA:                  -0.725
REMARK UNBOUND:                -0.681
REMARK SMILES O=C([O-])CCCCCCCC(=O)[O-]
REMARK SMILES IDX 7 1 6 2 5 3 4 4 2 5 1 6 3 7 8 8 9 9 10 10 11 11 12 12 13 13
REMARK H PARENT
REMARK Flexibility Score: inf
ROOT
ATOM      1  C   UNL     1      63.092  29.913  13.376  1.00  0.00     0.000 C 
ENDROOT
BRANCH   1   2
ATOM      2  C   UNL     1      63.421  31.215  14.124  1.00  0.00     0.000 C 
BRANCH   2   3
ATOM      3  C   UNL     1      63.281  32.461  13.234  1.00  0.00     0.006 C 
BRANCH   3   4
ATOM      4  C   UNL     1      61.818  32.863  13.009  1.00  0.00     0.053 C 
BRANCH   4   5
ATOM      5  C   UNL     1      61.134  33.097  14.318  1.00  0.00     0.041 C 
ATOM      6  O   UNL     1      60.158  32.377  14.661  1.00  0.00    -0.550 OA
ATOM      7  O   UNL     1      61.539  34.142  15.139  1.00  0.00    -0.550 OA
ENDBRANCH   4   5
ENDBRANCH   3   4
ENDBRANCH   2   3
ENDBRANCH   1   2
BRANCH   1   8
ATOM      8  C   UNL     1      61.777  29.305  13.889  1.00  0.00     0.000 C 
BRANCH   8   9
ATOM      9  C   UNL     1      60.900  28.738  12.758  1.00  0.00     0.006 C 
BRANCH   9  10
ATOM     10  C   UNL     1      60.694  29.699  11.576  1.00  0.00     0.053 C 
BRANCH  10  11
ATOM     11  C   UNL     1      61.064  29.068  10.270  1.00  0.00     0.041 C 
ATOM     12  O   UNL     1      62.259  28.745  10.036  1.00  0.00    -0.550 OA
ATOM     13  O   UNL     1      60.094  28.867   9.295  1.00  0.00    -0.550 OA
ENDBRANCH  10  11
ENDBRANCH   9  10
ENDBRANCH   8   9
ENDBRANCH   1   8
TORSDOF 8
ENDMDL
MODEL 4
REMARK VINA RESULT:    -4.316      1.616      2.292
REMARK INTER + INTRA:          -7.016
REMARK INTER:                  -6.278
REMARK INTRA:                  -0.738
REMARK UNBOUND:                -0.681
REMARK SMILES O=C([O-])CCCCCCCC(=O)[O-]
REMARK SMILES IDX 7 1 6 2 5 3 4 4 2 5 1 6 3 7 8 8 9 9 10 10 11 11 12 12 13 13
REMARK H PARENT
REMARK Flexibility Score: inf
ROOT
ATOM      1  C   UNL     1      64.104  30.701  13.623  1.00  0.00     0.000 C 
ENDROOT
BRANCH   1   2
ATOM      2  C   UNL     1      63.378  29.378  13.333  1.00  0.00     0.000 C 
BRANCH   2   3
ATOM      3  C   UNL     1      61.919  29.383  13.817  1.00  0.00     0.006 C 
BRANCH   3   4
ATOM      4  C   UNL     1      60.966  28.700  12.828  1.00  0.00     0.053 C 
BRANCH   4   5
ATOM      5  C   UNL     1      61.123  29.288  11.461  1.00  0.00     0.041 C 
ATOM      6  O   UNL     1      60.679  30.441  11.214  1.00  0.00    -0.550 OA
ATOM      7  O   UNL     1      61.712  28.546  10.447  1.00  0.00    -0.550 OA
ENDBRANCH   4   5
ENDBRANCH   3   4
ENDBRANCH   2   3
ENDBRANCH   1   2
BRANCH   1   8
ATOM      8  C   UNL     1      63.720  31.774  12.593  1.00  0.00     0.000 C 
BRANCH   8   9
ATOM      9  C   UNL     1      63.256  33.089  13.245  1.00  0.00     0.006 C 
BRANCH   9  10
ATOM     10  C   UNL     1      61.753  33.142  13.562  1.00  0.00     0.053 C 
BRANCH  10  11
ATOM     11  C   UNL     1      61.494  33.282  15.030  1.00  0.00     0.041 C 
ATOM     12  O   UNL     1      61.331  32.258  15.747  1.00  0.00    -0.550 OA
ATOM     13  O   UNL     1      61.399  34.544  15.602  1.00  0.00    -0.550 OA
ENDBRANCH  10  11
ENDBRANCH   9  10
ENDBRANCH   8   9
ENDBRANCH   1   8
TORSDOF 8
ENDMDL
MODEL 5
REMARK VINA RESULT:    -4.295      2.070      4.888
REMARK INTER + INTRA:          -6.985
REMARK INTER:                  -6.135
REMARK INTRA:                  -0.850
REMARK UNBOUND:                -0.681
REMARK SMILES O=C([O-])CCCCCCCC(=O)[O-]
REMARK SMILES IDX 7 1 6 2 5 3 4 4 2 5 1 6 3 7 8 8 9 9 10 10 11 11 12 12 13 13
REMARK H PARENT
REMARK Flexibility Score: inf
ROOT
ATOM      1  C   UNL     1      60.677  29.361  10.894  1.00  0.00     0.000 C 
ENDROOT
BRANCH   1   2
ATOM      2  C   UNL     1      60.887  29.020  12.377  1.00  0.00     0.000 C 
BRANCH   2   3
ATOM      3  C   UNL     1      61.032  30.271  13.258  1.00  0.00     0.006 C 
BRANCH   3   4
ATOM      4  C   UNL     1      61.214  31.554  12.437  1.00  0.00     0.053 C 
BRANCH   4   5
ATOM      5  C   UNL     1      61.775  32.646  13.292  1.00  0.00     0.041 C 
ATOM      6  O   UNL     1      62.968  33.021  13.138  1.00  0.00    -0.550 OA
ATOM      7  O   UNL     1      60.999  33.215  14.292  1.00  0.00    -0.550 OA
ENDBRANCH   4   5
ENDBRANCH   3   4
ENDBRANCH   2   3
ENDBRANCH   1   2
BRANCH   1   8
ATOM      8  C   UNL     1      61.692  28.617  10.012  1.00  0.00     0.000 C 
BRANCH   8   9
ATOM      9  C   UNL     1      62.726  29.558   9.367  1.00  0.00     0.006 C 
BRANCH   9  10
ATOM     10  C   UNL     1      64.158  29.382   9.898  1.00  0.00     0.053 C 
BRANCH  10  11
ATOM     11  C   UNL     1      64.446  30.297  11.047  1.00  0.00     0.041 C 
ATOM     12  O   UNL     1      64.770  31.497  10.838  1.00  0.00    -0.550 OA
ATOM     13  O   UNL     1      64.391  29.817  12.349  1.00  0.00    -0.550 OA
ENDBRANCH  10  11
ENDBRANCH   9  10
ENDBRANCH   8   9
ENDBRANCH   1   8
TORSDOF 8
ENDMDL
MODEL 6
REMARK VINA RESULT:    -4.291      1.489      1.861
REMARK INTER + INTRA:          -6.979
REMARK INTER:                  -6.293
REMARK INTRA:                  -0.686
REMARK UNBOUND:                -0.681
REMARK SMILES O=C([O-])CCCCCCCC(=O)[O-]
REMARK SMILES IDX 7 1 6 2 5 3 4 4 2 5 1 6 3 7 8 8 9 9 10 10 11 11 12 12 13 13
REMARK H PARENT
REMARK Flexibility Score: inf
ROOT
ATOM      1  C   UNL     1      62.158  29.442  13.447  1.00  0.00     0.000 C 
ENDROOT
BRANCH   1   2
ATOM      2  C   UNL     1      60.748  29.039  12.990  1.00  0.00     0.000 C 
BRANCH   2   3
ATOM      3  C   UNL     1      60.564  29.149  11.468  1.00  0.00     0.006 C 
BRANCH   3   4
ATOM      4  C   UNL     1      61.755  29.824  10.777  1.00  0.00     0.053 C 
BRANCH   4   5
ATOM      5  C   UNL     1      62.318  28.931   9.717  1.00  0.00     0.041 C 
ATOM      6  O   UNL     1      61.607  28.023   9.210  1.00  0.00    -0.550 OA
ATOM      7  O   UNL     1      63.643  29.066   9.324  1.00  0.00    -0.550 OA
ENDBRANCH   4   5
ENDBRANCH   3   4
ENDBRANCH   2   3
ENDBRANCH   1   2
BRANCH   1   8
ATOM      8  C   UNL     1      62.094  30.517  14.543  1.00  0.00     0.000 C 
BRANCH   8   9
ATOM      9  C   UNL     1      61.103  31.648  14.213  1.00  0.00     0.006 C 
BRANCH   9  10
ATOM     10  C   UNL     1      61.613  32.649  13.163  1.00  0.00     0.053 C 
BRANCH  10  11
ATOM     11  C   UNL     1      63.008  33.107  13.456  1.00  0.00     0.041 C 
ATOM     12  O   UNL     1      63.937  32.878  12.637  1.00  0.00    -0.550 OA
ATOM     13  O   UNL     1      63.289  33.758  14.650  1.00  0.00    -0.550 OA
ENDBRANCH  10  11
ENDBRANCH   9  10
ENDBRANCH   8   9
ENDBRANCH   1   8
TORSDOF 8
ENDMDL
MODEL 7
REMARK VINA RESULT:    -4.275      3.069      4.050
REMARK INTER + INTRA:          -6.955
REMARK INTER:                  -6.643
REMARK INTRA:                  -0.312
REMARK UNBOUND:                -0.681
REMARK SMILES O=C([O-])CCCCCCCC(=O)[O-]
REMARK SMILES IDX 7 1 6 2 5 3 4 4 2 5 1 6 3 7 8 8 9 9 10 10 11 11 12 12 13 13
REMARK H PARENT
REMARK Flexibility Score: inf
ROOT
ATOM      1  C   UNL     1      61.131  32.507  14.158  1.00  0.00     0.000 C 
ENDROOT
BRANCH   1   2
ATOM      2  C   UNL     1      62.198  31.502  13.698  1.00  0.00     0.000 C 
BRANCH   2   3
ATOM      3  C   UNL     1      62.004  30.108  14.315  1.00  0.00     0.006 C 
BRANCH   3   4
ATOM      4  C   UNL     1      61.939  28.997  13.259  1.00  0.00     0.053 C 
BRANCH   4   5
ATOM      5  C   UNL     1      60.573  28.931  12.655  1.00  0.00     0.041 C 
ATOM      6  O   UNL     1      60.326  29.535  11.577  1.00  0.00    -0.550 OA
ATOM      7  O   UNL     1      59.556  28.245  13.306  1.00  0.00    -0.550 OA
ENDBRANCH   4   5
ENDBRANCH   3   4
ENDBRANCH   2   3
ENDBRANCH   1   2
BRANCH   1   8
ATOM      8  C   UNL     1      61.758  33.881  14.440  1.00  0.00     0.000 C 
BRANCH   8   9
ATOM      9  C   UNL     1      61.783  34.230  15.939  1.00  0.00     0.006 C 
BRANCH   9  10
ATOM     10  C   UNL     1      63.169  34.114  16.592  1.00  0.00     0.053 C 
BRANCH  10  11
ATOM     11  C   UNL     1      63.280  34.956  17.825  1.00  0.00     0.041 C 
ATOM     12  O   UNL     1      64.319  35.636  18.039  1.00  0.00    -0.550 OA
ATOM     13  O   UNL     1      62.249  34.964  18.757  1.00  0.00    -0.550 OA
ENDBRANCH  10  11
ENDBRANCH   9  10
ENDBRANCH   8   9
ENDBRANCH   1   8
TORSDOF 8
ENDMDL
MODEL 8
REMARK VINA RESULT:    -4.237      2.204      4.875
REMARK INTER + INTRA:          -6.900
REMARK INTER:                  -6.134
REMARK INTRA:                  -0.766
REMARK UNBOUND:                -0.681
REMARK SMILES O=C([O-])CCCCCCCC(=O)[O-]
REMARK SMILES IDX 7 1 6 2 5 3 4 4 2 5 1 6 3 7 8 8 9 9 10 10 11 11 12 12 13 13
REMARK H PARENT
REMARK Flexibility Score: inf
ROOT
ATOM      1  C   UNL     1      64.017  29.808  11.570  1.00  0.00     0.000 C 
ENDROOT
BRANCH   1   2
ATOM      2  C   UNL     1      64.281  31.158  12.254  1.00  0.00     0.000 C 
BRANCH   2   3
ATOM      3  C   UNL     1      63.235  31.493  13.329  1.00  0.00     0.006 C 
BRANCH   3   4
ATOM      4  C   UNL     1      62.344  32.679  12.937  1.00  0.00     0.053 C 
BRANCH   4   5
ATOM      5  C   UNL     1      61.333  32.946  14.006  1.00  0.00     0.041 C 
ATOM      6  O   UNL     1      61.487  33.915  14.796  1.00  0.00    -0.550 OA
ATOM      7  O   UNL     1      60.245  32.097  14.163  1.00  0.00    -0.550 OA
ENDBRANCH   4   5
ENDBRANCH   3   4
ENDBRANCH   2   3
ENDBRANCH   1   2
BRANCH   1   8
ATOM      8  C   UNL     1      62.935  29.944  10.487  1.00  0.00     0.000 C 
BRANCH   8   9
ATOM      9  C   UNL     1      61.742  28.998  10.713  1.00  0.00     0.006 C 
BRANCH   9  10
ATOM     10  C   UNL     1      60.605  29.603  11.552  1.00  0.00     0.053 C 
BRANCH  10  11
ATOM     11  C   UNL     1      60.373  28.838  12.818  1.00  0.00     0.041 C 
ATOM     12  O   UNL     1      61.301  28.704  13.658  1.00  0.00    -0.550 OA
ATOM     13  O   UNL     1      59.140  28.243  13.054  1.00  0.00    -0.550 OA
ENDBRANCH  10  11
ENDBRANCH   9  10
ENDBRANCH   8   9
ENDBRANCH   1   8
TORSDOF 8
ENDMDL
MODEL 9
REMARK VINA RESULT:    -4.201      2.052      2.637
REMARK INTER + INTRA:          -6.847
REMARK INTER:                  -6.149
REMARK INTRA:                  -0.698
REMARK UNBOUND:                -0.681
REMARK SMILES O=C([O-])CCCCCCCC(=O)[O-]
REMARK SMILES IDX 7 1 6 2 5 3 4 4 2 5 1 6 3 7 8 8 9 9 10 10 11 11 12 12 13 13
REMARK H PARENT
REMARK Flexibility Score: inf
ROOT
ATOM      1  C   UNL     1      64.341  30.872  12.101  1.00  0.00     0.000 C 
ENDROOT
BRANCH   1   2
ATOM      2  C   UNL     1      64.746  30.637  10.637  1.00  0.00     0.000 C 
BRANCH   2   3
ATOM      3  C   UNL     1      64.026  29.432  10.010  1.00  0.00     0.006 C 
BRANCH   3   4
ATOM      4  C   UNL     1      62.751  29.044  10.770  1.00  0.00     0.053 C 
BRANCH   4   5
ATOM      5  C   UNL     1      61.566  29.093   9.859  1.00  0.00     0.041 C 
ATOM      6  O   UNL     1      61.438  28.243   8.938  1.00  0.00    -0.550 OA
ATOM      7  O   UNL     1      60.627  30.108   9.992  1.00  0.00    -0.550 OA
ENDBRANCH   4   5
ENDBRANCH   3   4
ENDBRANCH   2   3
ENDBRANCH   1   2
BRANCH   1   8
ATOM      8  C   UNL     1      64.315  32.373  12.427  1.00  0.00     0.000 C 
BRANCH   8   9
ATOM      9  C   UNL     1      63.053  32.794  13.201  1.00  0.00     0.006 C 
BRANCH   9  10
ATOM     10  C   UNL     1      61.733  32.358  12.543  1.00  0.00     0.053 C 
BRANCH  10  11
ATOM     11  C   UNL     1      60.864  31.586  13.487  1.00  0.00     0.041 C 
ATOM     12  O   UNL     1      60.663  30.356  13.303  1.00  0.00    -0.550 OA
ATOM     13  O   UNL     1      60.250  32.232  14.553  1.00  0.00    -0.550 OA
ENDBRANCH  10  11
ENDBRANCH   9  10
ENDBRANCH   8   9
ENDBRANCH   1   8
TORSDOF 8
ENDMDL
