MODEL 1
REMARK VINA RESULT:    -7.101      0.000      0.000
REMARK INTER + INTRA:          -7.941
REMARK INTER:                  -7.723
REMARK INTRA:                  -0.218
REMARK UNBOUND:                -0.218
REMARK SMILES CC1(C)CC[C@@]2(C(=O)[O-])CC[C@]3(C)C(=CC[C@H]4[C@]5(C)CC[C@@H](O)C(C)(C)[C@H]5CC[C@@]43C)[C@H]2C1
REMARK SMILES IDX 6 1 5 2 10 3 32 4 4 5 11 6 14 7 33 8 2 9 12 10 15 11 1 12
REMARK SMILES IDX 3 13 13 14 30 15 16 16 17 17 29 18 31 19 18 20 28 21 27 22
REMARK SMILES IDX 20 23 19 24 24 25 21 26 22 27 25 28 26 29 7 30 8 31 9 32
REMARK SMILES IDX 23 33
REMARK H PARENT 23 34
REMARK Flexibility Score: inf
ROOT
ATOM      1  C   UNL     1      -5.365  26.933  30.969  1.00  0.00     0.017 C 
ATOM      2  C   UNL     1      -5.241  27.783  32.280  1.00  0.00     0.014 C 
ATOM      3  C   UNL     1      -5.333  27.916  29.755  1.00  0.00     0.014 C 
ATOM      4  C   UNL     1      -4.224  25.823  30.943  1.00  0.00     0.028 C 
ATOM      5  C   UNL     1      -4.911  26.907  33.494  1.00  0.00     0.007 C 
ATOM      6  C   UNL     1      -4.006  27.918  28.993  1.00  0.00     0.013 C 
ATOM      7  C   UNL     1      -3.665  25.489  29.561  1.00  0.00    -0.064 C 
ATOM      8  C   UNL     1      -3.043  26.151  31.889  1.00  0.00     0.015 C 
ATOM      9  C   UNL     1      -3.487  26.280  33.380  1.00  0.00    -0.035 C 
ATOM     10  C   UNL     1      -3.613  26.521  28.424  1.00  0.00    -0.006 C 
ATOM     11  C   UNL     1      -3.127  24.262  29.360  1.00  0.00    -0.027 C 
ATOM     12  C   UNL     1      -3.491  24.886  34.049  1.00  0.00     0.011 C 
ATOM     13  C   UNL     1      -2.467  27.169  34.124  1.00  0.00     0.011 C 
ATOM     14  C   UNL     1      -4.771  26.060  27.469  1.00  0.00     0.017 C 
ATOM     15  C   UNL     1      -2.144  26.549  27.676  1.00  0.00    -0.020 C 
ATOM     16  C   UNL     1      -2.140  24.044  28.241  1.00  0.00     0.032 C 
ATOM     17  C   UNL     1      -1.269  25.318  28.165  1.00  0.00     0.006 C 
ATOM     18  C   UNL     1      -1.287  27.816  28.015  1.00  0.00     0.008 C 
ATOM     19  C   UNL     1      -2.365  26.578  26.126  1.00  0.00     0.012 C 
ATOM     20  C   UNL     1       0.201  25.182  27.580  1.00  0.00    -0.025 C 
ATOM     21  C   UNL     1       0.154  27.788  27.449  1.00  0.00     0.005 C 
ATOM     22  C   UNL     1       0.942  26.539  27.922  1.00  0.00     0.003 C 
ATOM     23  C   UNL     1       0.961  24.041  28.332  1.00  0.00     0.010 C 
ATOM     24  C   UNL     1       0.164  24.824  26.063  1.00  0.00     0.012 C 
ATOM     25  C   UNL     1       2.499  26.568  27.647  1.00  0.00    -0.006 C 
ATOM     26  C   UNL     1       2.477  24.018  28.065  1.00  0.00     0.033 C 
ATOM     27  C   UNL     1       3.152  25.359  28.388  1.00  0.00     0.120 C 
ATOM     28  C   UNL     1       3.117  27.860  28.249  1.00  0.00     0.014 C 
ATOM     29  C   UNL     1       2.855  26.555  26.138  1.00  0.00     0.014 C 
ENDROOT
BRANCH   1  30
ATOM     30  C   UNL     1      -6.730  26.243  30.945  1.00  0.00     0.048 C 
ATOM     31  O   UNL     1      -6.843  25.028  31.260  1.00  0.00    -0.550 OA
ATOM     32  O   UNL     1      -7.885  26.974  30.689  1.00  0.00    -0.550 OA
ENDBRANCH   1  30
BRANCH  27  33
ATOM     33  O   UNL     1       4.521  25.276  28.075  1.00  0.00    -0.393 OA
ATOM     34  H   UNL     1       4.725  24.316  27.920  1.00  0.00     0.210 HD
ENDBRANCH  27  33
TORSDOF 2
ENDMDL
MODEL 2
REMARK VINA RESULT:    -7.051      1.832      2.853
REMARK INTER + INTRA:          -7.887
REMARK INTER:                  -7.709
REMARK INTRA:                  -0.178
REMARK UNBOUND:                -0.218
REMARK SMILES CC1(C)CC[C@@]2(C(=O)[O-])CC[C@]3(C)C(=CC[C@H]4[C@]5(C)CC[C@@H](O)C(C)(C)[C@H]5CC[C@@]43C)[C@H]2C1
REMARK SMILES IDX 6 1 5 2 10 3 32 4 4 5 11 6 14 7 33 8 2 9 12 10 15 11 1 12
REMARK SMILES IDX 3 13 13 14 30 15 16 16 17 17 29 18 31 19 18 20 28 21 27 22
REMARK SMILES IDX 20 23 19 24 24 25 21 26 22 27 25 28 26 29 7 30 8 31 9 32
REMARK SMILES IDX 23 33
REMARK H PARENT 23 34
REMARK Flexibility Score: inf
ROOT
ATOM      1  C   UNL     1      -5.332  25.800  32.290  1.00  0.00     0.017 C 
ATOM      2  C   UNL     1      -6.140  27.143  32.301  1.00  0.00     0.014 C 
ATOM      3  C   UNL     1      -5.778  24.983  31.034  1.00  0.00     0.014 C 
ATOM      4  C   UNL     1      -3.773  26.116  32.347  1.00  0.00     0.028 C 
ATOM      5  C   UNL     1      -5.536  28.160  33.277  1.00  0.00     0.007 C 
ATOM      6  C   UNL     1      -4.755  24.987  29.897  1.00  0.00     0.013 C 
ATOM      7  C   UNL     1      -2.881  25.150  31.569  1.00  0.00    -0.064 C 
ATOM      8  C   UNL     1      -3.435  27.563  31.911  1.00  0.00     0.015 C 
ATOM      9  C   UNL     1      -4.126  28.635  32.811  1.00  0.00    -0.035 C 
ATOM     10  C   UNL     1      -3.364  24.417  30.308  1.00  0.00    -0.006 C 
ATOM     11  C   UNL     1      -1.593  24.997  31.964  1.00  0.00    -0.027 C 
ATOM     12  C   UNL     1      -3.250  28.922  34.053  1.00  0.00     0.011 C 
ATOM     13  C   UNL     1      -4.260  29.944  32.003  1.00  0.00     0.011 C 
ATOM     14  C   UNL     1      -3.589  22.947  30.812  1.00  0.00     0.017 C 
ATOM     15  C   UNL     1      -2.270  24.508  29.078  1.00  0.00    -0.020 C 
ATOM     16  C   UNL     1      -0.560  24.488  30.992  1.00  0.00     0.032 C 
ATOM     17  C   UNL     1      -0.902  25.106  29.618  1.00  0.00     0.006 C 
ATOM     18  C   UNL     1      -2.703  25.470  27.918  1.00  0.00     0.008 C 
ATOM     19  C   UNL     1      -2.117  23.091  28.430  1.00  0.00     0.012 C 
ATOM     20  C   UNL     1       0.278  25.302  28.575  1.00  0.00    -0.025 C 
ATOM     21  C   UNL     1      -1.624  25.690  26.829  1.00  0.00     0.005 C 
ATOM     22  C   UNL     1      -0.296  26.228  27.424  1.00  0.00     0.003 C 
ATOM     23  C   UNL     1       1.452  26.085  29.250  1.00  0.00     0.010 C 
ATOM     24  C   UNL     1       0.826  23.925  28.090  1.00  0.00     0.012 C 
ATOM     25  C   UNL     1       0.757  26.762  26.373  1.00  0.00    -0.006 C 
ATOM     26  C   UNL     1       2.513  26.596  28.261  1.00  0.00     0.033 C 
ATOM     27  C   UNL     1       1.911  27.470  27.150  1.00  0.00     0.120 C 
ATOM     28  C   UNL     1       0.096  27.835  25.463  1.00  0.00     0.014 C 
ATOM     29  C   UNL     1       1.310  25.654  25.440  1.00  0.00     0.014 C 
ENDROOT
BRANCH   1  30
ATOM     30  C   UNL     1      -5.717  24.973  33.517  1.00  0.00     0.048 C 
ATOM     31  O   UNL     1      -4.870  24.235  34.088  1.00  0.00    -0.550 OA
ATOM     32  O   UNL     1      -6.975  25.110  34.094  1.00  0.00    -0.550 OA
ENDBRANCH   1  30
BRANCH  27  33
ATOM     33  O   UNL     1       2.931  27.858  26.263  1.00  0.00    -0.393 OA
ATOM     34  H   UNL     1       2.708  28.773  25.947  1.00  0.00     0.210 HD
ENDBRANCH  27  33
TORSDOF 2
ENDMDL
MODEL 3
REMARK VINA RESULT:    -6.922      1.802      7.710
REMARK INTER + INTRA:          -7.747
REMARK INTER:                  -7.845
REMARK INTRA:                   0.098
REMARK UNBOUND:                -0.218
REMARK SMILES CC1(C)CC[C@@]2(C(=O)[O-])CC[C@]3(C)C(=CC[C@H]4[C@]5(C)CC[C@@H](O)C(C)(C)[C@H]5CC[C@@]43C)[C@H]2C1
REMARK SMILES IDX 6 1 5 2 10 3 32 4 4 5 11 6 14 7 33 8 2 9 12 10 15 11 1 12
REMARK SMILES IDX 3 13 13 14 30 15 16 16 17 17 29 18 31 19 18 20 28 21 27 22
REMARK SMILES IDX 20 23 19 24 24 25 21 26 22 27 25 28 26 29 7 30 8 31 9 32
REMARK SMILES IDX 23 33
REMARK H PARENT 23 34
REMARK Flexibility Score: inf
ROOT
ATOM      1  C   UNL     1       0.931  26.982  26.983  1.00  0.00     0.017 C 
ATOM      2  C   UNL     1       1.046  28.490  26.573  1.00  0.00     0.014 C 
ATOM      3  C   UNL     1       1.634  26.806  28.367  1.00  0.00     0.014 C 
ATOM      4  C   UNL     1      -0.599  26.540  26.965  1.00  0.00     0.028 C 
ATOM      5  C   UNL     1       0.097  28.838  25.420  1.00  0.00     0.007 C 
ATOM      6  C   UNL     1       0.665  26.646  29.540  1.00  0.00     0.013 C 
ATOM      7  C   UNL     1      -0.997  25.515  28.026  1.00  0.00    -0.064 C 
ATOM      8  C   UNL     1      -1.574  27.740  27.045  1.00  0.00     0.015 C 
ATOM      9  C   UNL     1      -1.397  28.735  25.855  1.00  0.00    -0.035 C 
ATOM     10  C   UNL     1      -0.298  25.429  29.391  1.00  0.00    -0.006 C 
ATOM     11  C   UNL     1      -2.057  24.706  27.779  1.00  0.00    -0.027 C 
ATOM     12  C   UNL     1      -2.246  28.268  24.649  1.00  0.00     0.011 C 
ATOM     13  C   UNL     1      -1.907  30.125  26.293  1.00  0.00     0.011 C 
ATOM     14  C   UNL     1       0.589  24.141  29.259  1.00  0.00     0.017 C 
ATOM     15  C   UNL     1      -1.374  25.337  30.637  1.00  0.00    -0.020 C 
ATOM     16  C   UNL     1      -2.796  24.060  28.922  1.00  0.00     0.032 C 
ATOM     17  C   UNL     1      -2.837  25.097  30.066  1.00  0.00     0.006 C 
ATOM     18  C   UNL     1      -1.478  26.654  31.480  1.00  0.00     0.008 C 
ATOM     19  C   UNL     1      -0.904  24.223  31.631  1.00  0.00     0.012 C 
ATOM     20  C   UNL     1      -4.028  25.008  31.111  1.00  0.00    -0.025 C 
ATOM     21  C   UNL     1      -2.593  26.642  32.555  1.00  0.00     0.005 C 
ATOM     22  C   UNL     1      -3.990  26.355  31.944  1.00  0.00     0.003 C 
ATOM     23  C   UNL     1      -5.394  24.978  30.349  1.00  0.00     0.010 C 
ATOM     24  C   UNL     1      -3.920  23.709  31.967  1.00  0.00     0.012 C 
ATOM     25  C   UNL     1      -5.221  26.614  32.902  1.00  0.00    -0.006 C 
ATOM     26  C   UNL     1      -6.619  25.197  31.254  1.00  0.00     0.033 C 
ATOM     27  C   UNL     1      -6.531  26.502  32.060  1.00  0.00     0.120 C 
ATOM     28  C   UNL     1      -5.160  28.063  33.459  1.00  0.00     0.014 C 
ATOM     29  C   UNL     1      -5.260  25.659  34.123  1.00  0.00     0.014 C 
ENDROOT
BRANCH   1  30
ATOM     30  C   UNL     1       1.706  26.128  25.979  1.00  0.00     0.048 C 
ATOM     31  O   UNL     1       1.757  26.451  24.762  1.00  0.00    -0.550 OA
ATOM     32  O   UNL     1       2.467  25.046  26.411  1.00  0.00    -0.550 OA
ENDBRANCH   1  30
BRANCH  27  33
ATOM     33  O   UNL     1      -7.658  26.608  32.894  1.00  0.00    -0.393 OA
ATOM     34  H   UNL     1      -7.370  27.096  33.710  1.00  0.00     0.210 HD
ENDBRANCH  27  33
TORSDOF 2
ENDMDL
MODEL 4
REMARK VINA RESULT:    -6.883      1.869      2.702
REMARK INTER + INTRA:          -7.704
REMARK INTER:                  -7.480
REMARK INTRA:                  -0.225
REMARK UNBOUND:                -0.218
REMARK SMILES CC1(C)CC[C@@]2(C(=O)[O-])CC[C@]3(C)C(=CC[C@H]4[C@]5(C)CC[C@@H](O)C(C)(C)[C@H]5CC[C@@]43C)[C@H]2C1
REMARK SMILES IDX 6 1 5 2 10 3 32 4 4 5 11 6 14 7 33 8 2 9 12 10 15 11 1 12
REMARK SMILES IDX 3 13 13 14 30 15 16 16 17 17 29 18 31 19 18 20 28 21 27 22
REMARK SMILES IDX 20 23 19 24 24 25 21 26 22 27 25 28 26 29 7 30 8 31 9 32
REMARK SMILES IDX 23 33
REMARK H PARENT 23 34
REMARK Flexibility Score: inf
ROOT
ATOM      1  C   UNL     1      -5.217  26.266  32.073  1.00  0.00     0.017 C 
ATOM      2  C   UNL     1      -4.597  25.744  33.415  1.00  0.00     0.014 C 
ATOM      3  C   UNL     1      -5.174  27.828  32.100  1.00  0.00     0.014 C 
ATOM      4  C   UNL     1      -4.450  25.611  30.841  1.00  0.00     0.028 C 
ATOM      5  C   UNL     1      -4.270  24.248  33.343  1.00  0.00     0.007 C 
ATOM      6  C   UNL     1      -4.086  28.434  31.212  1.00  0.00     0.013 C 
ATOM      7  C   UNL     1      -4.305  26.504  29.610  1.00  0.00    -0.064 C 
ATOM      8  C   UNL     1      -3.054  25.062  31.223  1.00  0.00     0.015 C 
ATOM      9  C   UNL     1      -3.126  23.958  32.324  1.00  0.00    -0.035 C 
ATOM     10  C   UNL     1      -4.214  28.035  29.710  1.00  0.00    -0.006 C 
ATOM     11  C   UNL     1      -4.173  25.917  28.396  1.00  0.00    -0.027 C 
ATOM     12  C   UNL     1      -3.366  22.578  31.669  1.00  0.00     0.011 C 
ATOM     13  C   UNL     1      -1.771  23.911  33.064  1.00  0.00     0.011 C 
ATOM     14  C   UNL     1      -5.626  28.510  29.216  1.00  0.00     0.017 C 
ATOM     15  C   UNL     1      -2.982  28.647  28.801  1.00  0.00    -0.020 C 
ATOM     16  C   UNL     1      -3.538  26.672  27.257  1.00  0.00     0.032 C 
ATOM     17  C   UNL     1      -2.390  27.509  27.864  1.00  0.00     0.006 C 
ATOM     18  C   UNL     1      -1.763  29.150  29.648  1.00  0.00     0.008 C 
ATOM     19  C   UNL     1      -3.506  29.893  28.012  1.00  0.00     0.012 C 
ATOM     20  C   UNL     1      -1.169  27.892  26.926  1.00  0.00    -0.025 C 
ATOM     21  C   UNL     1      -0.535  29.584  28.810  1.00  0.00     0.005 C 
ATOM     22  C   UNL     1      -0.033  28.448  27.880  1.00  0.00     0.003 C 
ATOM     23  C   UNL     1      -0.605  26.601  26.245  1.00  0.00     0.010 C 
ATOM     24  C   UNL     1      -1.617  28.877  25.804  1.00  0.00     0.012 C 
ATOM     25  C   UNL     1       1.380  28.685  27.212  1.00  0.00    -0.006 C 
ATOM     26  C   UNL     1       0.757  26.800  25.558  1.00  0.00     0.033 C 
ATOM     27  C   UNL     1       1.822  27.361  26.512  1.00  0.00     0.120 C 
ATOM     28  C   UNL     1       2.437  28.995  28.308  1.00  0.00     0.014 C 
ATOM     29  C   UNL     1       1.396  29.874  26.216  1.00  0.00     0.014 C 
ENDROOT
BRANCH   1  30
ATOM     30  C   UNL     1      -6.691  25.863  32.012  1.00  0.00     0.048 C 
ATOM     31  O   UNL     1      -7.124  25.143  31.072  1.00  0.00    -0.550 OA
ATOM     32  O   UNL     1      -7.555  26.187  33.052  1.00  0.00    -0.550 OA
ENDBRANCH   1  30
BRANCH  27  33
ATOM     33  O   UNL     1       3.020  27.560  25.803  1.00  0.00    -0.393 OA
ATOM     34  H   UNL     1       3.048  26.877  25.082  1.00  0.00     0.210 HD
ENDBRANCH  27  33
TORSDOF 2
ENDMDL
MODEL 5
REMARK VINA RESULT:    -6.843      2.026      7.451
REMARK INTER + INTRA:          -7.662
REMARK INTER:                  -7.434
REMARK INTRA:                  -0.228
REMARK UNBOUND:                -0.218
REMARK SMILES CC1(C)CC[C@@]2(C(=O)[O-])CC[C@]3(C)C(=CC[C@H]4[C@]5(C)CC[C@@H](O)C(C)(C)[C@H]5CC[C@@]43C)[C@H]2C1
REMARK SMILES IDX 6 1 5 2 10 3 32 4 4 5 11 6 14 7 33 8 2 9 12 10 15 11 1 12
REMARK SMILES IDX 3 13 13 14 30 15 16 16 17 17 29 18 31 19 18 20 28 21 27 22
REMARK SMILES IDX 20 23 19 24 24 25 21 26 22 27 25 28 26 29 7 30 8 31 9 32
REMARK SMILES IDX 23 33
REMARK H PARENT 23 34
REMARK Flexibility Score: inf
ROOT
ATOM      1  C   UNL     1       1.584  27.442  26.198  1.00  0.00     0.017 C 
ATOM      2  C   UNL     1       2.952  26.819  26.644  1.00  0.00     0.014 C 
ATOM      3  C   UNL     1       0.751  26.318  25.501  1.00  0.00     0.014 C 
ATOM      4  C   UNL     1       0.866  28.106  27.454  1.00  0.00     0.028 C 
ATOM      5  C   UNL     1       3.690  27.725  27.637  1.00  0.00     0.007 C 
ATOM      6  C   UNL     1      -0.390  25.768  26.359  1.00  0.00     0.013 C 
ATOM      7  C   UNL     1      -0.659  28.015  27.460  1.00  0.00    -0.064 C 
ATOM      8  C   UNL     1       1.399  27.571  28.806  1.00  0.00     0.015 C 
ATOM      9  C   UNL     1       2.926  27.834  28.993  1.00  0.00    -0.035 C 
ATOM     10  C   UNL     1      -1.418  26.854  26.800  1.00  0.00    -0.006 C 
ATOM     11  C   UNL     1      -1.361  28.955  28.140  1.00  0.00    -0.027 C 
ATOM     12  C   UNL     1       3.148  29.243  29.589  1.00  0.00     0.011 C 
ATOM     13  C   UNL     1       3.487  26.795  29.989  1.00  0.00     0.011 C 
ATOM     14  C   UNL     1      -2.003  27.503  25.496  1.00  0.00     0.017 C 
ATOM     15  C   UNL     1      -2.587  26.235  27.784  1.00  0.00    -0.020 C 
ATOM     16  C   UNL     1      -2.764  28.661  28.604  1.00  0.00     0.032 C 
ATOM     17  C   UNL     1      -2.784  27.180  29.044  1.00  0.00     0.006 C 
ATOM     18  C   UNL     1      -2.230  24.831  28.382  1.00  0.00     0.008 C 
ATOM     19  C   UNL     1      -3.895  26.030  26.949  1.00  0.00     0.012 C 
ATOM     20  C   UNL     1      -3.852  26.741  30.133  1.00  0.00    -0.025 C 
ATOM     21  C   UNL     1      -3.242  24.302  29.428  1.00  0.00     0.005 C 
ATOM     22  C   UNL     1      -3.429  25.290  30.610  1.00  0.00     0.003 C 
ATOM     23  C   UNL     1      -3.750  27.681  31.378  1.00  0.00     0.010 C 
ATOM     24  C   UNL     1      -5.300  26.842  29.564  1.00  0.00     0.012 C 
ATOM     25  C   UNL     1      -4.204  24.719  31.863  1.00  0.00    -0.006 C 
ATOM     26  C   UNL     1      -4.517  27.172  32.611  1.00  0.00     0.033 C 
ATOM     27  C   UNL     1      -4.092  25.755  33.026  1.00  0.00     0.120 C 
ATOM     28  C   UNL     1      -3.523  23.411  32.353  1.00  0.00     0.014 C 
ATOM     29  C   UNL     1      -5.686  24.374  31.564  1.00  0.00     0.014 C 
ENDROOT
BRANCH   1  30
ATOM     30  C   UNL     1       1.843  28.520  25.146  1.00  0.00     0.048 C 
ATOM     31  O   UNL     1       2.224  28.209  23.985  1.00  0.00    -0.550 OA
ATOM     32  O   UNL     1       1.552  29.853  25.414  1.00  0.00    -0.550 OA
ENDBRANCH   1  30
BRANCH  27  33
ATOM     33  O   UNL     1      -4.867  25.342  34.125  1.00  0.00    -0.393 OA
ATOM     34  H   UNL     1      -5.818  25.500  33.884  1.00  0.00     0.210 HD
ENDBRANCH  27  33
TORSDOF 2
ENDMDL
MODEL 6
REMARK VINA RESULT:    -6.596      1.752      7.568
REMARK INTER + INTRA:          -7.393
REMARK INTER:                  -7.406
REMARK INTRA:                   0.013
REMARK UNBOUND:                -0.218
REMARK SMILES CC1(C)CC[C@@]2(C(=O)[O-])CC[C@]3(C)C(=CC[C@H]4[C@]5(C)CC[C@@H](O)C(C)(C)[C@H]5CC[C@@]43C)[C@H]2C1
REMARK SMILES IDX 6 1 5 2 10 3 32 4 4 5 11 6 14 7 33 8 2 9 12 10 15 11 1 12
REMARK SMILES IDX 3 13 13 14 30 15 16 16 17 17 29 18 31 19 18 20 28 21 27 22
REMARK SMILES IDX 20 23 19 24 24 25 21 26 22 27 25 28 26 29 7 30 8 31 9 32
REMARK SMILES IDX 23 33
REMARK H PARENT 23 34
REMARK Flexibility Score: inf
ROOT
ATOM      1  C   UNL     1       2.384  26.351  28.172  1.00  0.00     0.017 C 
ATOM      2  C   UNL     1       3.532  26.614  29.206  1.00  0.00     0.014 C 
ATOM      3  C   UNL     1       2.069  24.820  28.185  1.00  0.00     0.014 C 
ATOM      4  C   UNL     1       1.136  27.279  28.513  1.00  0.00     0.028 C 
ATOM      5  C   UNL     1       3.674  28.107  29.527  1.00  0.00     0.007 C 
ATOM      6  C   UNL     1       0.772  24.460  28.911  1.00  0.00     0.013 C 
ATOM      7  C   UNL     1      -0.234  26.665  28.231  1.00  0.00    -0.064 C 
ATOM      8  C   UNL     1       1.154  27.801  29.970  1.00  0.00     0.015 C 
ATOM      9  C   UNL     1       2.425  28.652  30.285  1.00  0.00    -0.035 C 
ATOM     10  C   UNL     1      -0.490  25.152  28.313  1.00  0.00    -0.006 C 
ATOM     11  C   UNL     1      -1.275  27.494  27.975  1.00  0.00    -0.027 C 
ATOM     12  C   UNL     1       2.186  30.124  29.878  1.00  0.00     0.011 C 
ATOM     13  C   UNL     1       2.682  28.609  31.807  1.00  0.00     0.011 C 
ATOM     14  C   UNL     1      -0.591  24.723  26.806  1.00  0.00     0.017 C 
ATOM     15  C   UNL     1      -1.854  24.797  29.168  1.00  0.00    -0.020 C 
ATOM     16  C   UNL     1      -2.689  27.018  28.188  1.00  0.00     0.032 C 
ATOM     17  C   UNL     1      -2.672  26.129  29.451  1.00  0.00     0.006 C 
ATOM     18  C   UNL     1      -1.570  24.187  30.584  1.00  0.00     0.008 C 
ATOM     19  C   UNL     1      -2.675  23.716  28.388  1.00  0.00     0.012 C 
ATOM     20  C   UNL     1      -4.012  26.003  30.293  1.00  0.00    -0.025 C 
ATOM     21  C   UNL     1      -2.829  23.992  31.464  1.00  0.00     0.005 C 
ATOM     22  C   UNL     1      -3.612  25.316  31.664  1.00  0.00     0.003 C 
ATOM     23  C   UNL     1      -4.552  27.431  30.635  1.00  0.00     0.010 C 
ATOM     24  C   UNL     1      -5.110  25.249  29.482  1.00  0.00     0.012 C 
ATOM     25  C   UNL     1      -4.734  25.286  32.777  1.00  0.00    -0.006 C 
ATOM     26  C   UNL     1      -5.667  27.440  31.696  1.00  0.00     0.033 C 
ATOM     27  C   UNL     1      -5.246  26.745  32.999  1.00  0.00     0.120 C 
ATOM     28  C   UNL     1      -4.126  24.807  34.125  1.00  0.00     0.014 C 
ATOM     29  C   UNL     1      -5.907  24.329  32.442  1.00  0.00     0.014 C 
ENDROOT
BRANCH   1  30
ATOM     30  C   UNL     1       2.886  26.689  26.767  1.00  0.00     0.048 C 
ATOM     31  O   UNL     1       4.056  27.123  26.589  1.00  0.00    -0.550 OA
ATOM     32  O   UNL     1       2.102  26.413  25.652  1.00  0.00    -0.550 OA
ENDBRANCH   1  30
BRANCH  27  33
ATOM     33  O   UNL     1      -6.328  26.751  33.898  1.00  0.00    -0.393 OA
ATOM     34  H   UNL     1      -6.586  27.700  34.034  1.00  0.00     0.210 HD
ENDBRANCH  27  33
TORSDOF 2
ENDMDL
MODEL 7
REMARK VINA RESULT:    -6.495      1.940      7.755
REMARK INTER + INTRA:          -7.282
REMARK INTER:                  -7.051
REMARK INTRA:                  -0.231
REMARK UNBOUND:                -0.218
REMARK SMILES CC1(C)CC[C@@]2(C(=O)[O-])CC[C@]3(C)C(=CC[C@H]4[C@]5(C)CC[C@@H](O)C(C)(C)[C@H]5CC[C@@]43C)[C@H]2C1
REMARK SMILES IDX 6 1 5 2 10 3 32 4 4 5 11 6 14 7 33 8 2 9 12 10 15 11 1 12
REMARK SMILES IDX 3 13 13 14 30 15 16 16 17 17 29 18 31 19 18 20 28 21 27 22
REMARK SMILES IDX 20 23 19 24 24 25 21 26 22 27 25 28 26 29 7 30 8 31 9 32
REMARK SMILES IDX 23 33
REMARK H PARENT 23 34
REMARK Flexibility Score: inf
ROOT
ATOM      1  C   UNL     1       0.037  24.852  28.253  1.00  0.00     0.017 C 
ATOM      2  C   UNL     1       1.236  25.862  28.268  1.00  0.00     0.014 C 
ATOM      3  C   UNL     1       0.031  24.096  29.621  1.00  0.00     0.014 C 
ATOM      4  C   UNL     1      -1.313  25.632  27.930  1.00  0.00     0.028 C 
ATOM      5  C   UNL     1       1.124  26.890  27.136  1.00  0.00     0.007 C 
ATOM      6  C   UNL     1      -1.066  24.559  30.581  1.00  0.00     0.013 C 
ATOM      7  C   UNL     1      -2.562  25.098  28.629  1.00  0.00    -0.064 C 
ATOM      8  C   UNL     1      -1.208  27.154  28.197  1.00  0.00     0.015 C 
ATOM      9  C   UNL     1      -0.098  27.837  27.339  1.00  0.00    -0.035 C 
ATOM     10  C   UNL     1      -2.505  24.409  30.001  1.00  0.00    -0.006 C 
ATOM     11  C   UNL     1      -3.768  25.310  28.050  1.00  0.00    -0.027 C 
ATOM     12  C   UNL     1      -0.670  28.231  25.957  1.00  0.00     0.011 C 
ATOM     13  C   UNL     1       0.358  29.126  28.057  1.00  0.00     0.011 C 
ATOM     14  C   UNL     1      -2.715  22.893  29.651  1.00  0.00     0.017 C 
ATOM     15  C   UNL     1      -3.652  24.988  31.036  1.00  0.00    -0.020 C 
ATOM     16  C   UNL     1      -5.023  25.273  28.884  1.00  0.00     0.032 C 
ATOM     17  C   UNL     1      -4.670  25.915  30.244  1.00  0.00     0.006 C 
ATOM     18  C   UNL     1      -3.074  25.899  32.173  1.00  0.00     0.008 C 
ATOM     19  C   UNL     1      -4.340  23.781  31.756  1.00  0.00     0.012 C 
ATOM     20  C   UNL     1      -5.839  26.598  31.073  1.00  0.00    -0.025 C 
ATOM     21  C   UNL     1      -4.146  26.577  33.060  1.00  0.00     0.005 C 
ATOM     22  C   UNL     1      -5.140  27.429  32.226  1.00  0.00     0.003 C 
ATOM     23  C   UNL     1      -6.598  27.620  30.165  1.00  0.00     0.010 C 
ATOM     24  C   UNL     1      -6.865  25.532  31.568  1.00  0.00     0.012 C 
ATOM     25  C   UNL     1      -6.080  28.391  33.056  1.00  0.00    -0.006 C 
ATOM     26  C   UNL     1      -7.547  28.556  30.935  1.00  0.00     0.033 C 
ATOM     27  C   UNL     1      -6.833  29.325  32.057  1.00  0.00     0.120 C 
ATOM     28  C   UNL     1      -5.222  29.304  33.975  1.00  0.00     0.014 C 
ATOM     29  C   UNL     1      -7.077  27.634  33.972  1.00  0.00     0.014 C 
ENDROOT
BRANCH   1  30
ATOM     30  C   UNL     1       0.277  23.803  27.167  1.00  0.00     0.048 C 
ATOM     31  O   UNL     1       1.025  22.812  27.383  1.00  0.00    -0.550 OA
ATOM     32  O   UNL     1      -0.416  23.862  25.963  1.00  0.00    -0.550 OA
ENDBRANCH   1  30
BRANCH  27  33
ATOM     33  O   UNL     1      -7.770  30.119  32.743  1.00  0.00    -0.393 OA
ATOM     34  H   UNL     1      -8.492  30.339  32.097  1.00  0.00     0.210 HD
ENDBRANCH  27  33
TORSDOF 2
ENDMDL
MODEL 8
REMARK VINA RESULT:    -6.281      2.137      7.426
REMARK INTER + INTRA:          -7.050
REMARK INTER:                  -6.836
REMARK INTRA:                  -0.213
REMARK UNBOUND:                -0.218
REMARK SMILES CC1(C)CC[C@@]2(C(=O)[O-])CC[C@]3(C)C(=CC[C@H]4[C@]5(C)CC[C@@H](O)C(C)(C)[C@H]5CC[C@@]43C)[C@H]2C1
REMARK SMILES IDX 6 1 5 2 10 3 32 4 4 5 11 6 14 7 33 8 2 9 12 10 15 11 1 12
REMARK SMILES IDX 3 13 13 14 30 15 16 16 17 17 29 18 31 19 18 20 28 21 27 22
REMARK SMILES IDX 20 23 19 24 24 25 21 26 22 27 25 28 26 29 7 30 8 31 9 32
REMARK SMILES IDX 23 33
REMARK H PARENT 23 34
REMARK Flexibility Score: inf
ROOT
ATOM      1  C   UNL     1       0.666  27.786  26.112  1.00  0.00     0.017 C 
ATOM      2  C   UNL     1       1.555  26.613  25.573  1.00  0.00     0.014 C 
ATOM      3  C   UNL     1      -0.734  27.682  25.425  1.00  0.00     0.014 C 
ATOM      4  C   UNL     1       0.621  27.735  27.702  1.00  0.00     0.028 C 
ATOM      5  C   UNL     1       2.810  26.414  26.431  1.00  0.00     0.007 C 
ATOM      6  C   UNL     1      -1.834  27.139  26.340  1.00  0.00     0.013 C 
ATOM      7  C   UNL     1      -0.699  28.172  28.335  1.00  0.00    -0.064 C 
ATOM      8  C   UNL     1       1.008  26.348  28.271  1.00  0.00     0.015 C 
ATOM      9  C   UNL     1       2.452  25.916  27.865  1.00  0.00    -0.035 C 
ATOM     10  C   UNL     1      -2.050  27.991  27.627  1.00  0.00    -0.006 C 
ATOM     11  C   UNL     1      -0.680  28.664  29.597  1.00  0.00    -0.027 C 
ATOM     12  C   UNL     1       3.475  26.491  28.872  1.00  0.00     0.011 C 
ATOM     13  C   UNL     1       2.540  24.375  27.917  1.00  0.00     0.011 C 
ATOM     14  C   UNL     1      -2.413  29.449  27.170  1.00  0.00     0.017 C 
ATOM     15  C   UNL     1      -3.190  27.333  28.619  1.00  0.00    -0.020 C 
ATOM     16  C   UNL     1      -1.930  28.635  30.439  1.00  0.00     0.032 C 
ATOM     17  C   UNL     1      -2.652  27.308  30.113  1.00  0.00     0.006 C 
ATOM     18  C   UNL     1      -3.531  25.839  28.286  1.00  0.00     0.008 C 
ATOM     19  C   UNL     1      -4.528  28.129  28.453  1.00  0.00     0.012 C 
ATOM     20  C   UNL     1      -3.595  26.680  31.224  1.00  0.00    -0.025 C 
ATOM     21  C   UNL     1      -4.481  25.156  29.300  1.00  0.00     0.005 C 
ATOM     22  C   UNL     1      -3.925  25.206  30.747  1.00  0.00     0.003 C 
ATOM     23  C   UNL     1      -2.812  26.562  32.573  1.00  0.00     0.010 C 
ATOM     24  C   UNL     1      -4.845  27.581  31.466  1.00  0.00     0.012 C 
ATOM     25  C   UNL     1      -4.666  24.286  31.797  1.00  0.00    -0.006 C 
ATOM     26  C   UNL     1      -3.517  25.696  33.632  1.00  0.00     0.033 C 
ATOM     27  C   UNL     1      -3.837  24.284  33.121  1.00  0.00     0.120 C 
ATOM     28  C   UNL     1      -4.703  22.820  31.281  1.00  0.00     0.014 C 
ATOM     29  C   UNL     1      -6.134  24.712  32.059  1.00  0.00     0.014 C 
ENDROOT
BRANCH   1  30
ATOM     30  C   UNL     1       1.276  29.119  25.675  1.00  0.00     0.048 C 
ATOM     31  O   UNL     1       1.441  29.382  24.453  1.00  0.00    -0.550 OA
ATOM     32  O   UNL     1       1.550  30.111  26.611  1.00  0.00    -0.550 OA
ENDBRANCH   1  30
BRANCH  27  33
ATOM     33  O   UNL     1      -4.521  23.572  34.123  1.00  0.00    -0.393 OA
ATOM     34  H   UNL     1      -3.834  23.093  34.657  1.00  0.00     0.210 HD
ENDBRANCH  27  33
TORSDOF 2
ENDMDL
MODEL 9
REMARK VINA RESULT:    -6.215      1.891      7.730
REMARK INTER + INTRA:          -6.978
REMARK INTER:                  -6.851
REMARK INTRA:                  -0.127
REMARK UNBOUND:                -0.218
REMARK SMILES CC1(C)CC[C@@]2(C(=O)[O-])CC[C@]3(C)C(=CC[C@H]4[C@]5(C)CC[C@@H](O)C(C)(C)[C@H]5CC[C@@]43C)[C@H]2C1
REMARK SMILES IDX 6 1 5 2 10 3 32 4 4 5 11 6 14 7 33 8 2 9 12 10 15 11 1 12
REMARK SMILES IDX 3 13 13 14 30 15 16 16 17 17 29 18 31 19 18 20 28 21 27 22
REMARK SMILES IDX 20 23 19 24 24 25 21 26 22 27 25 28 26 29 7 30 8 31 9 32
REMARK SMILES IDX 23 33
REMARK H PARENT 23 34
REMARK Flexibility Score: inf
ROOT
ATOM      1  C   UNL     1       0.337  27.096  27.205  1.00  0.00     0.017 C 
ATOM      2  C   UNL     1      -0.041  26.322  25.895  1.00  0.00     0.014 C 
ATOM      3  C   UNL     1      -0.474  28.432  27.223  1.00  0.00     0.014 C 
ATOM      4  C   UNL     1       0.085  26.160  28.469  1.00  0.00     0.028 C 
ATOM      5  C   UNL     1       0.420  24.861  25.948  1.00  0.00     0.007 C 
ATOM      6  C   UNL     1      -1.651  28.430  28.200  1.00  0.00     0.013 C 
ATOM      7  C   UNL     1      -0.393  26.877  29.730  1.00  0.00    -0.064 C 
ATOM      8  C   UNL     1      -0.882  24.989  28.168  1.00  0.00     0.015 C 
ATOM      9  C   UNL     1      -0.355  24.053  27.035  1.00  0.00    -0.035 C 
ATOM     10  C   UNL     1      -1.234  28.162  29.677  1.00  0.00    -0.006 C 
ATOM     11  C   UNL     1      -0.129  26.314  30.934  1.00  0.00    -0.027 C 
ATOM     12  C   UNL     1       0.583  22.979  27.634  1.00  0.00     0.011 C 
ATOM     13  C   UNL     1      -1.559  23.335  26.388  1.00  0.00     0.011 C 
ATOM     14  C   UNL     1      -0.210  29.278  30.087  1.00  0.00     0.017 C 
ATOM     15  C   UNL     1      -2.538  28.094  30.685  1.00  0.00    -0.020 C 
ATOM     16  C   UNL     1      -0.969  26.669  32.134  1.00  0.00     0.032 C 
ATOM     17  C   UNL     1      -2.421  26.822  31.629  1.00  0.00     0.006 C 
ATOM     18  C   UNL     1      -3.904  27.920  29.938  1.00  0.00     0.008 C 
ATOM     19  C   UNL     1      -2.642  29.444  31.470  1.00  0.00     0.012 C 
ATOM     20  C   UNL     1      -3.600  26.560  32.658  1.00  0.00    -0.025 C 
ATOM     21  C   UNL     1      -5.122  27.698  30.869  1.00  0.00     0.005 C 
ATOM     22  C   UNL     1      -4.928  26.472  31.800  1.00  0.00     0.003 C 
ATOM     23  C   UNL     1      -3.402  25.167  33.341  1.00  0.00     0.010 C 
ATOM     24  C   UNL     1      -3.617  27.650  33.774  1.00  0.00     0.012 C 
ATOM     25  C   UNL     1      -6.221  25.987  32.569  1.00  0.00    -0.006 C 
ATOM     26  C   UNL     1      -4.630  24.673  34.125  1.00  0.00     0.033 C 
ATOM     27  C   UNL     1      -5.900  24.625  33.261  1.00  0.00     0.120 C 
ATOM     28  C   UNL     1      -7.370  25.723  31.556  1.00  0.00     0.014 C 
ATOM     29  C   UNL     1      -6.750  27.023  33.595  1.00  0.00     0.014 C 
ENDROOT
BRANCH   1  30
ATOM     30  C   UNL     1       1.817  27.475  27.155  1.00  0.00     0.048 C 
ATOM     31  O   UNL     1       2.461  27.700  28.215  1.00  0.00    -0.550 OA
ATOM     32  O   UNL     1       2.508  27.466  25.947  1.00  0.00    -0.550 OA
ENDBRANCH   1  30
BRANCH  27  33
ATOM     33  O   UNL     1      -6.985  24.212  34.056  1.00  0.00    -0.393 OA
ATOM     34  H   UNL     1      -6.743  24.405  35.000  1.00  0.00     0.210 HD
ENDBRANCH  27  33
TORSDOF 2
ENDMDL
