MODEL 1
REMARK VINA RESULT:    -3.475      0.000      0.000
REMARK INTER + INTRA:          -4.613
REMARK INTER:                  -4.491
REMARK INTRA:                  -0.121
REMARK UNBOUND:                -0.121
REMARK SMILES CCCCCCC(=O)[O-]
REMARK SMILES IDX 5 1 6 2 7 3 8 4 9 5 4 6 3 7 2 8 1 9
REMARK H PARENT
REMARK Flexibility Score: inf
ROOT
ATOM      1  C   UNL     1      17.187   2.758  25.842  1.00  0.00     0.006 C 
ENDROOT
BRANCH   1   2
ATOM      2  C   UNL     1      18.035   1.545  25.431  1.00  0.00     0.053 C 
BRANCH   2   3
ATOM      3  C   UNL     1      19.226   1.366  26.321  1.00  0.00     0.041 C 
ATOM      4  O   UNL     1      20.284   0.852  25.869  1.00  0.00    -0.550 OA
ATOM      5  O   UNL     1      19.180   1.797  27.641  1.00  0.00    -0.550 OA
ENDBRANCH   2   3
ENDBRANCH   1   2
BRANCH   1   6
ATOM      6  C   UNL     1      15.946   2.991  24.962  1.00  0.00     0.000 C 
BRANCH   6   7
ATOM      7  C   UNL     1      14.629   2.776  25.720  1.00  0.00    -0.000 C 
BRANCH   7   8
ATOM      8  C   UNL     1      13.485   2.448  24.753  1.00  0.00    -0.003 C 
ATOM      9  C   UNL     1      13.553   3.319  23.502  1.00  0.00     0.004 C 
ENDBRANCH   7   8
ENDBRANCH   6   7
ENDBRANCH   1   6
TORSDOF 5
ENDMDL
MODEL 2
REMARK VINA RESULT:    -3.290      3.139      5.278
REMARK INTER + INTRA:          -4.373
REMARK INTER:                  -4.201
REMARK INTRA:                  -0.173
REMARK UNBOUND:                -0.121
REMARK SMILES CCCCCCC(=O)[O-]
REMARK SMILES IDX 5 1 6 2 7 3 8 4 9 5 4 6 3 7 2 8 1 9
REMARK H PARENT
REMARK Flexibility Score: inf
ROOT
ATOM      1  C   UNL     1      16.988   2.797  24.954  1.00  0.00     0.006 C 
ENDROOT
BRANCH   1   2
ATOM      2  C   UNL     1      15.732   3.093  25.787  1.00  0.00     0.053 C 
BRANCH   2   3
ATOM      3  C   UNL     1      14.475   2.785  25.035  1.00  0.00     0.041 C 
ATOM      4  O   UNL     1      13.615   2.007  25.526  1.00  0.00    -0.550 OA
ATOM      5  O   UNL     1      14.236   3.384  23.804  1.00  0.00    -0.550 OA
ENDBRANCH   2   3
ENDBRANCH   1   2
BRANCH   1   6
ATOM      6  C   UNL     1      17.812   1.596  25.455  1.00  0.00     0.000 C 
BRANCH   6   7
ATOM      7  C   UNL     1      19.080   2.018  26.211  1.00  0.00    -0.000 C 
BRANCH   7   8
ATOM      8  C   UNL     1      19.191   1.281  27.551  1.00  0.00    -0.003 C 
ATOM      9  C   UNL     1      19.190   2.259  28.721  1.00  0.00     0.004 C 
ENDBRANCH   7   8
ENDBRANCH   6   7
ENDBRANCH   1   6
TORSDOF 5
ENDMDL
MODEL 3
REMARK VINA RESULT:    -3.030     15.813     16.841
REMARK INTER + INTRA:          -4.037
REMARK INTER:                  -4.032
REMARK INTRA:                  -0.005
REMARK UNBOUND:                -0.121
REMARK SMILES CCCCCCC(=O)[O-]
REMARK SMILES IDX 5 1 6 2 7 3 8 4 9 5 4 6 3 7 2 8 1 9
REMARK H PARENT
REMARK Flexibility Score: inf
ROOT
ATOM      1  C   UNL     1      29.809  -1.232  34.035  1.00  0.00     0.006 C 
ENDROOT
BRANCH   1   2
ATOM      2  C   UNL     1      31.123  -0.506  34.362  1.00  0.00     0.053 C 
BRANCH   2   3
ATOM      3  C   UNL     1      30.956   0.478  35.478  1.00  0.00     0.041 C 
ATOM      4  O   UNL     1      30.797   1.702  35.227  1.00  0.00    -0.550 OA
ATOM      5  O   UNL     1      30.945   0.040  36.796  1.00  0.00    -0.550 OA
ENDBRANCH   2   3
ENDBRANCH   1   2
BRANCH   1   6
ATOM      6  C   UNL     1      29.264  -2.103  35.182  1.00  0.00     0.000 C 
BRANCH   6   7
ATOM      7  C   UNL     1      27.743  -1.983  35.350  1.00  0.00    -0.000 C 
BRANCH   7   8
ATOM      8  C   UNL     1      27.341  -2.125  36.823  1.00  0.00    -0.003 C 
ATOM      9  C   UNL     1      28.539  -1.922  37.745  1.00  0.00     0.004 C 
ENDBRANCH   7   8
ENDBRANCH   6   7
ENDBRANCH   1   6
TORSDOF 5
ENDMDL
MODEL 4
REMARK VINA RESULT:    -2.936      2.852      5.059
REMARK INTER + INTRA:          -3.916
REMARK INTER:                  -3.788
REMARK INTRA:                  -0.128
REMARK UNBOUND:                -0.121
REMARK SMILES CCCCCCC(=O)[O-]
REMARK SMILES IDX 5 1 6 2 7 3 8 4 9 5 4 6 3 7 2 8 1 9
REMARK H PARENT
REMARK Flexibility Score: inf
ROOT
ATOM      1  C   UNL     1      17.886   1.412  25.578  1.00  0.00     0.006 C 
ENDROOT
BRANCH   1   2
ATOM      2  C   UNL     1      17.352   2.730  24.997  1.00  0.00     0.053 C 
BRANCH   2   3
ATOM      3  C   UNL     1      15.954   3.017  25.449  1.00  0.00     0.041 C 
ATOM      4  O   UNL     1      14.982   2.396  24.942  1.00  0.00    -0.550 OA
ATOM      5  O   UNL     1      15.725   3.949  26.454  1.00  0.00    -0.550 OA
ENDBRANCH   2   3
ENDBRANCH   1   2
BRANCH   1   6
ATOM      6  C   UNL     1      19.069   1.582  26.549  1.00  0.00     0.000 C 
BRANCH   6   7
ATOM      7  C   UNL     1      18.788   2.608  27.656  1.00  0.00    -0.000 C 
BRANCH   7   8
ATOM      8  C   UNL     1      19.298   2.105  29.012  1.00  0.00    -0.003 C 
ATOM      9  C   UNL     1      19.184   3.188  30.081  1.00  0.00     0.004 C 
ENDBRANCH   7   8
ENDBRANCH   6   7
ENDBRANCH   1   6
TORSDOF 5
ENDMDL
MODEL 5
REMARK VINA RESULT:    -2.918     15.318     16.024
REMARK INTER + INTRA:          -3.893
REMARK INTER:                  -3.665
REMARK INTRA:                  -0.228
REMARK UNBOUND:                -0.121
REMARK SMILES CCCCCCC(=O)[O-]
REMARK SMILES IDX 5 1 6 2 7 3 8 4 9 5 4 6 3 7 2 8 1 9
REMARK H PARENT
REMARK Flexibility Score: inf
ROOT
ATOM      1  C   UNL     1      10.998  17.232  22.949  1.00  0.00     0.006 C 
ENDROOT
BRANCH   1   2
ATOM      2  C   UNL     1      10.953  16.802  24.424  1.00  0.00     0.053 C 
BRANCH   2   3
ATOM      3  C   UNL     1      12.284  16.952  25.092  1.00  0.00     0.041 C 
ATOM      4  O   UNL     1      13.142  17.748  24.627  1.00  0.00    -0.550 OA
ATOM      5  O   UNL     1      12.567  16.235  26.249  1.00  0.00    -0.550 OA
ENDBRANCH   2   3
ENDBRANCH   1   2
BRANCH   1   6
ATOM      6  C   UNL     1      11.283  16.084  21.963  1.00  0.00     0.000 C 
BRANCH   6   7
ATOM      7  C   UNL     1      11.946  16.564  20.665  1.00  0.00    -0.000 C 
BRANCH   7   8
ATOM      8  C   UNL     1      13.061  17.574  20.959  1.00  0.00    -0.003 C 
ATOM      9  C   UNL     1      14.093  17.601  19.836  1.00  0.00     0.004 C 
ENDBRANCH   7   8
ENDBRANCH   6   7
ENDBRANCH   1   6
TORSDOF 5
ENDMDL
MODEL 6
REMARK VINA RESULT:    -2.808     15.737     17.199
REMARK INTER + INTRA:          -3.750
REMARK INTER:                  -3.571
REMARK INTRA:                  -0.180
REMARK UNBOUND:                -0.121
REMARK SMILES CCCCCCC(=O)[O-]
REMARK SMILES IDX 5 1 6 2 7 3 8 4 9 5 4 6 3 7 2 8 1 9
REMARK H PARENT
REMARK Flexibility Score: inf
ROOT
ATOM      1  C   UNL     1      28.127  -1.113  35.396  1.00  0.00     0.006 C 
ENDROOT
BRANCH   1   2
ATOM      2  C   UNL     1      29.381  -1.374  34.547  1.00  0.00     0.053 C 
BRANCH   2   3
ATOM      3  C   UNL     1      30.196  -0.133  34.354  1.00  0.00     0.041 C 
ATOM      4  O   UNL     1      30.120   0.812  35.184  1.00  0.00    -0.550 OA
ATOM      5  O   UNL     1      31.064  -0.031  33.274  1.00  0.00    -0.550 OA
ENDBRANCH   2   3
ENDBRANCH   1   2
BRANCH   1   6
ATOM      6  C   UNL     1      27.914  -2.124  36.538  1.00  0.00     0.000 C 
BRANCH   6   7
ATOM      7  C   UNL     1      28.671  -1.744  37.818  1.00  0.00    -0.000 C 
BRANCH   7   8
ATOM      8  C   UNL     1      30.169  -2.038  37.677  1.00  0.00    -0.003 C 
ATOM      9  C   UNL     1      31.011  -0.848  38.125  1.00  0.00     0.004 C 
ENDBRANCH   7   8
ENDBRANCH   6   7
ENDBRANCH   1   6
TORSDOF 5
ENDMDL
MODEL 7
REMARK VINA RESULT:    -2.662     14.399     15.846
REMARK INTER + INTRA:          -3.561
REMARK INTER:                  -3.253
REMARK INTRA:                  -0.308
REMARK UNBOUND:                -0.121
REMARK SMILES CCCCCCC(=O)[O-]
REMARK SMILES IDX 5 1 6 2 7 3 8 4 9 5 4 6 3 7 2 8 1 9
REMARK H PARENT
REMARK Flexibility Score: inf
ROOT
ATOM      1  C   UNL     1      12.765  17.778  21.993  1.00  0.00     0.006 C 
ENDROOT
BRANCH   1   2
ATOM      2  C   UNL     1      11.659  17.799  23.060  1.00  0.00     0.053 C 
BRANCH   2   3
ATOM      3  C   UNL     1      12.152  17.311  24.388  1.00  0.00     0.041 C 
ATOM      4  O   UNL     1      11.558  16.371  24.980  1.00  0.00    -0.550 OA
ATOM      5  O   UNL     1      13.288  17.873  24.957  1.00  0.00    -0.550 OA
ENDBRANCH   2   3
ENDBRANCH   1   2
BRANCH   1   6
ATOM      6  C   UNL     1      12.409  16.975  20.729  1.00  0.00     0.000 C 
BRANCH   6   7
ATOM      7  C   UNL     1      10.952  16.492  20.720  1.00  0.00    -0.000 C 
BRANCH   7   8
ATOM      8  C   UNL     1      10.875  14.984  20.456  1.00  0.00    -0.003 C 
ATOM      9  C   UNL     1      10.934  14.191  21.757  1.00  0.00     0.004 C 
ENDBRANCH   7   8
ENDBRANCH   6   7
ENDBRANCH   1   6
TORSDOF 5
ENDMDL
MODEL 8
REMARK VINA RESULT:    -2.659     14.954     16.054
REMARK INTER + INTRA:          -3.558
REMARK INTER:                  -3.420
REMARK INTRA:                  -0.138
REMARK UNBOUND:                -0.121
REMARK SMILES CCCCCCC(=O)[O-]
REMARK SMILES IDX 5 1 6 2 7 3 8 4 9 5 4 6 3 7 2 8 1 9
REMARK H PARENT
REMARK Flexibility Score: inf
ROOT
ATOM      1  C   UNL     1      11.405  16.696  22.413  1.00  0.00     0.006 C 
ENDROOT
BRANCH   1   2
ATOM      2  C   UNL     1      11.569  16.802  20.889  1.00  0.00     0.053 C 
BRANCH   2   3
ATOM      3  C   UNL     1      11.423  15.473  20.216  1.00  0.00     0.041 C 
ATOM      4  O   UNL     1      11.298  15.405  18.964  1.00  0.00    -0.550 OA
ATOM      5  O   UNL     1      11.455  14.305  20.967  1.00  0.00    -0.550 OA
ENDBRANCH   2   3
ENDBRANCH   1   2
BRANCH   1   6
ATOM      6  C   UNL     1      12.248  17.707  23.212  1.00  0.00     0.000 C 
BRANCH   6   7
ATOM      7  C   UNL     1      11.611  18.082  24.557  1.00  0.00    -0.000 C 
BRANCH   7   8
ATOM      8  C   UNL     1      12.493  17.629  25.727  1.00  0.00    -0.003 C 
ATOM      9  C   UNL     1      12.094  16.240  26.214  1.00  0.00     0.004 C 
ENDBRANCH   7   8
ENDBRANCH   6   7
ENDBRANCH   1   6
TORSDOF 5
ENDMDL
MODEL 9
REMARK VINA RESULT:    -2.202     15.459     16.139
REMARK INTER + INTRA:          -2.968
REMARK INTER:                  -2.807
REMARK INTRA:                  -0.161
REMARK UNBOUND:                -0.121
REMARK SMILES CCCCCCC(=O)[O-]
REMARK SMILES IDX 5 1 6 2 7 3 8 4 9 5 4 6 3 7 2 8 1 9
REMARK H PARENT
REMARK Flexibility Score: inf
ROOT
ATOM      1  C   UNL     1      11.140  16.360  24.139  1.00  0.00     0.006 C 
ENDROOT
BRANCH   1   2
ATOM      2  C   UNL     1      11.918  17.164  25.194  1.00  0.00     0.053 C 
BRANCH   2   3
ATOM      3  C   UNL     1      11.316  17.027  26.558  1.00  0.00     0.041 C 
ATOM      4  O   UNL     1      10.875  15.914  26.949  1.00  0.00    -0.550 OA
ATOM      5  O   UNL     1      11.272  18.122  27.412  1.00  0.00    -0.550 OA
ENDBRANCH   2   3
ENDBRANCH   1   2
BRANCH   1   6
ATOM      6  C   UNL     1      11.041  17.048  22.765  1.00  0.00     0.000 C 
BRANCH   6   7
ATOM      7  C   UNL     1      12.385  17.615  22.285  1.00  0.00    -0.000 C 
BRANCH   7   8
ATOM      8  C   UNL     1      12.495  17.546  20.758  1.00  0.00    -0.003 C 
ATOM      9  C   UNL     1      12.240  16.131  20.248  1.00  0.00     0.004 C 
ENDBRANCH   7   8
ENDBRANCH   6   7
ENDBRANCH   1   6
TORSDOF 5
ENDMDL
