MODEL 1
REMARK VINA RESULT:    -2.861      0.000      0.000
REMARK INTER + INTRA:          -3.224
REMARK INTER:                  -3.196
REMARK INTRA:                  -0.029
REMARK UNBOUND:                -0.029
REMARK SMILES CCCC(=O)[O-]
REMARK SMILES IDX 3 1 4 2 5 3 6 4 2 5 1 6
REMARK H PARENT
REMARK Flexibility Score: inf
ROOT
ATOM      1  C   UNL     1       9.694  15.117   1.329  1.00  0.00     0.052 C 
ENDROOT
BRANCH   1   2
ATOM      2  C   UNL     1       9.973  16.580   1.495  1.00  0.00     0.041 C 
ATOM      3  O   UNL     1       9.039  17.373   1.789  1.00  0.00    -0.550 OA
ATOM      4  O   UNL     1      11.255  17.071   1.292  1.00  0.00    -0.550 OA
ENDBRANCH   1   2
BRANCH   1   5
ATOM      5  C   UNL     1      10.832  14.403   0.587  1.00  0.00     0.003 C 
ATOM      6  C   UNL     1      10.398  13.892  -0.787  1.00  0.00     0.004 C 
ENDBRANCH   1   5
TORSDOF 2
ENDMDL
MODEL 2
REMARK VINA RESULT:    -2.518      1.255      1.480
REMARK INTER + INTRA:          -2.842
REMARK INTER:                  -2.798
REMARK INTRA:                  -0.044
REMARK UNBOUND:                -0.029
REMARK SMILES CCCC(=O)[O-]
REMARK SMILES IDX 3 1 4 2 5 3 6 4 2 5 1 6
REMARK H PARENT
REMARK Flexibility Score: inf
ROOT
ATOM      1  C   UNL     1      11.218  14.862   1.391  1.00  0.00     0.052 C 
ENDROOT
BRANCH   1   2
ATOM      2  C   UNL     1       9.880  15.515   1.566  1.00  0.00     0.041 C 
ATOM      3  O   UNL     1       8.911  14.858   2.029  1.00  0.00    -0.550 OA
ATOM      4  O   UNL     1       9.698  16.838   1.187  1.00  0.00    -0.550 OA
ENDBRANCH   1   2
BRANCH   1   5
ATOM      5  C   UNL     1      11.141  13.653   0.448  1.00  0.00     0.003 C 
ATOM      6  C   UNL     1      10.493  14.001  -0.892  1.00  0.00     0.004 C 
ENDBRANCH   1   5
TORSDOF 2
ENDMDL
MODEL 3
REMARK VINA RESULT:    -2.503      2.608      3.415
REMARK INTER + INTRA:          -2.824
REMARK INTER:                  -2.819
REMARK INTRA:                  -0.005
REMARK UNBOUND:                -0.029
REMARK SMILES CCCC(=O)[O-]
REMARK SMILES IDX 3 1 4 2 5 3 6 4 2 5 1 6
REMARK H PARENT
REMARK Flexibility Score: inf
ROOT
ATOM      1  C   UNL     1       9.928  14.796   0.806  1.00  0.00     0.052 C 
ENDROOT
BRANCH   1   2
ATOM      2  C   UNL     1      10.920  14.049  -0.033  1.00  0.00     0.041 C 
ATOM      3  O   UNL     1      10.767  13.977  -1.281  1.00  0.00    -0.550 OA
ATOM      4  O   UNL     1      11.993  13.405   0.568  1.00  0.00    -0.550 OA
ENDBRANCH   1   2
BRANCH   1   5
ATOM      5  C   UNL     1      10.514  16.106   1.350  1.00  0.00     0.003 C 
ATOM      6  C   UNL     1       9.430  17.079   1.813  1.00  0.00     0.004 C 
ENDBRANCH   1   5
TORSDOF 2
ENDMDL
MODEL 4
REMARK VINA RESULT:    -1.958      2.174      2.638
REMARK INTER + INTRA:          -2.216
REMARK INTER:                  -2.203
REMARK INTRA:                  -0.012
REMARK UNBOUND:                -0.029
REMARK SMILES CCCC(=O)[O-]
REMARK SMILES IDX 3 1 4 2 5 3 6 4 2 5 1 6
REMARK H PARENT
REMARK Flexibility Score: inf
ROOT
ATOM      1  C   UNL     1      11.033  14.177   1.860  1.00  0.00     0.052 C 
ENDROOT
BRANCH   1   2
ATOM      2  C   UNL     1      10.140  14.902   0.900  1.00  0.00     0.041 C 
ATOM      3  O   UNL     1       9.842  14.380  -0.206  1.00  0.00    -0.550 OA
ATOM      4  O   UNL     1       9.666  16.170   1.213  1.00  0.00    -0.550 OA
ENDBRANCH   1   2
BRANCH   1   5
ATOM      5  C   UNL     1      11.826  13.061   1.168  1.00  0.00     0.003 C 
ATOM      6  C   UNL     1      13.217  12.875   1.773  1.00  0.00     0.004 C 
ENDBRANCH   1   5
TORSDOF 2
ENDMDL
MODEL 5
REMARK VINA RESULT:    -1.894      2.151      3.155
REMARK INTER + INTRA:          -2.144
REMARK INTER:                  -2.094
REMARK INTRA:                  -0.050
REMARK UNBOUND:                -0.029
REMARK SMILES CCCC(=O)[O-]
REMARK SMILES IDX 3 1 4 2 5 3 6 4 2 5 1 6
REMARK H PARENT
REMARK Flexibility Score: inf
ROOT
ATOM      1  C   UNL     1      10.837  16.219   0.803  1.00  0.00     0.052 C 
ENDROOT
BRANCH   1   2
ATOM      2  C   UNL     1      10.432  14.776   0.765  1.00  0.00     0.041 C 
ATOM      3  O   UNL     1       9.489  14.403   0.018  1.00  0.00    -0.550 OA
ATOM      4  O   UNL     1      11.073  13.852   1.580  1.00  0.00    -0.550 OA
ENDBRANCH   1   2
BRANCH   1   5
ATOM      5  C   UNL     1      10.376  16.905   2.096  1.00  0.00     0.003 C 
ATOM      6  C   UNL     1       8.876  17.201   2.094  1.00  0.00     0.004 C 
ENDBRANCH   1   5
TORSDOF 2
ENDMDL
MODEL 6
REMARK VINA RESULT:    -1.871      2.270      3.228
REMARK INTER + INTRA:          -2.118
REMARK INTER:                  -2.088
REMARK INTRA:                  -0.030
REMARK UNBOUND:                -0.029
REMARK SMILES CCCC(=O)[O-]
REMARK SMILES IDX 3 1 4 2 5 3 6 4 2 5 1 6
REMARK H PARENT
REMARK Flexibility Score: inf
ROOT
ATOM      1  C   UNL     1      11.220  15.231   0.704  1.00  0.00     0.052 C 
ENDROOT
BRANCH   1   2
ATOM      2  C   UNL     1       9.881  14.629   0.406  1.00  0.00     0.041 C 
ATOM      3  O   UNL     1       9.641  14.151  -0.733  1.00  0.00    -0.550 OA
ATOM      4  O   UNL     1       8.887  14.629   1.376  1.00  0.00    -0.550 OA
ENDBRANCH   1   2
BRANCH   1   5
ATOM      5  C   UNL     1      11.277  15.819   2.121  1.00  0.00     0.003 C 
ATOM      6  C   UNL     1      11.556  17.322   2.115  1.00  0.00     0.004 C 
ENDBRANCH   1   5
TORSDOF 2
ENDMDL
